# generated using pymatgen
data_Ca2Al2SiO7
_symmetry_space_group_name_H-M   'P 1'
_cell_length_a   15.46005927
_cell_length_b   15.46129149
_cell_length_c   15.28492375
_cell_angle_alpha   89.98766111
_cell_angle_beta   89.98497775
_cell_angle_gamma   90.00145508
_symmetry_Int_Tables_number   1
_chemical_formula_structural   Ca2Al2SiO7
_chemical_formula_sum   'Ca48 Al48 Si24 O168'
_cell_volume   3653.59306183
_cell_formula_units_Z   24
loop_
 _symmetry_equiv_pos_site_id
 _symmetry_equiv_pos_as_xyz
  1  'x, y, z'
loop_
 _atom_type_symbol
 _atom_type_oxidation_number
  Ca2+  2.0
  Al0+  0.0
  Si0+  0.0
  O2-  -2.0
loop_
 _atom_site_type_symbol
 _atom_site_label
 _atom_site_symmetry_multiplicity
 _atom_site_fract_x
 _atom_site_fract_y
 _atom_site_fract_z
 _atom_site_occupancy
  Ca2+  Ca0  1  0.16521247  0.08030707  0.16245496  1
  Ca2+  Ca1  1  0.17232198  0.07981502  0.50701760  1
  Ca2+  Ca2  1  0.17507600  0.07621311  0.84441292  1
  Ca2+  Ca3  1  0.17732966  0.59733097  0.16838774  1
  Ca2+  Ca4  1  0.17445175  0.59144642  0.49987608  1
  Ca2+  Ca5  1  0.17759416  0.58888823  0.84094926  1
  Ca2+  Ca6  1  0.66304691  0.07531538  0.16872084  1
  Ca2+  Ca7  1  0.67966152  0.07484075  0.50838584  1
  Ca2+  Ca8  1  0.66703128  0.07060319  0.83949438  1
  Ca2+  Ca9  1  0.66714534  0.58623169  0.17341061  1
  Ca2+  Ca10  1  0.67752599  0.59243266  0.49965191  1
  Ca2+  Ca11  1  0.67309660  0.59245935  0.83718670  1
  Ca2+  Ca12  1  0.07663575  0.32903436  0.16176723  1
  Ca2+  Ca13  1  0.07627208  0.32969726  0.49394616  1
  Ca2+  Ca14  1  0.08858235  0.32507792  0.83437756  1
  Ca2+  Ca15  1  0.07950764  0.82769183  0.16298881  1
  Ca2+  Ca16  1  0.07017788  0.82869074  0.49413639  1
  Ca2+  Ca17  1  0.08268944  0.83273254  0.83217085  1
  Ca2+  Ca18  1  0.57767272  0.32571627  0.15585099  1
  Ca2+  Ca19  1  0.58429155  0.33103868  0.49706266  1
  Ca2+  Ca20  1  0.57788904  0.32687935  0.83802350  1
  Ca2+  Ca21  1  0.58097219  0.82239253  0.15781644  1
  Ca2+  Ca22  1  0.57969369  0.83249769  0.50012768  1
  Ca2+  Ca23  1  0.57553290  0.83914088  0.83276890  1
  Ca2+  Ca24  1  0.33825659  0.42734429  0.16776343  1
  Ca2+  Ca25  1  0.33172652  0.43120803  0.50418887  1
  Ca2+  Ca26  1  0.34025366  0.42916296  0.83996728  1
  Ca2+  Ca27  1  0.33019632  0.91216788  0.16030963  1
  Ca2+  Ca28  1  0.33217378  0.91887380  0.50886646  1
  Ca2+  Ca29  1  0.33561886  0.92110936  0.84425435  1
  Ca2+  Ca30  1  0.83295700  0.42148408  0.17500300  1
  Ca2+  Ca31  1  0.83977113  0.42921289  0.50074729  1
  Ca2+  Ca32  1  0.83311717  0.42438662  0.83417973  1
  Ca2+  Ca33  1  0.82960447  0.91934599  0.17185780  1
  Ca2+  Ca34  1  0.83364948  0.91883229  0.50853506  1
  Ca2+  Ca35  1  0.82163985  0.90992028  0.83467089  1
  Ca2+  Ca36  1  0.41858879  0.17429749  0.15116099  1
  Ca2+  Ca37  1  0.41736217  0.16519176  0.49850497  1
  Ca2+  Ca38  1  0.41730053  0.15968903  0.83174984  1
  Ca2+  Ca39  1  0.42492361  0.66533789  0.15633096  1
  Ca2+  Ca40  1  0.41872427  0.66819844  0.49507048  1
  Ca2+  Ca41  1  0.41363293  0.67768795  0.83063664  1
  Ca2+  Ca42  1  0.91461079  0.17105099  0.16269311  1
  Ca2+  Ca43  1  0.90940240  0.16929188  0.49158399  1
  Ca2+  Ca44  1  0.92330217  0.15849996  0.83028212  1
  Ca2+  Ca45  1  0.92667266  0.66547734  0.16376173  1
  Ca2+  Ca46  1  0.91428570  0.67529027  0.49020802  1
  Ca2+  Ca47  1  0.92303290  0.67152551  0.82596130  1
  Al0+  Al48  1  -0.00069703  0.00161645  0.00016793  1
  Al0+  Al49  1  0.00076151  0.00004843  0.33419837  1
  Al0+  Al50  1  0.00196027  -0.00089075  0.66410094  1
  Al0+  Al51  1  0.00112213  0.50173961  -0.00502831  1
  Al0+  Al52  1  0.00100537  0.49776137  0.32906133  1
  Al0+  Al53  1  0.00131239  0.49677628  0.67058210  1
  Al0+  Al54  1  0.50186999  -0.00023667  0.00462329  1
  Al0+  Al55  1  0.49918586  -0.00009082  0.33449196  1
  Al0+  Al56  1  0.50129028  -0.00013805  0.66580956  1
  Al0+  Al57  1  0.50396869  0.49869978  -0.00396039  1
  Al0+  Al58  1  0.49885726  0.49919735  0.33613685  1
  Al0+  Al59  1  0.50010982  0.49834000  0.66874513  1
  Al0+  Al60  1  0.24706847  0.25334983  -0.00410822  1
  Al0+  Al61  1  0.24990036  0.25097437  0.33474793  1
  Al0+  Al62  1  0.25075358  0.25018686  0.66659238  1
  Al0+  Al63  1  0.24951742  0.75066787  0.00127712  1
  Al0+  Al64  1  0.24913173  0.75288749  0.33688614  1
  Al0+  Al65  1  0.25068488  0.74973886  0.66465368  1
  Al0+  Al66  1  0.74883393  0.25321728  -0.00548679  1
  Al0+  Al67  1  0.74911208  0.24848418  0.33196475  1
  Al0+  Al68  1  0.75119003  0.25037844  0.66985670  1
  Al0+  Al69  1  0.75128532  0.75127813  0.00365982  1
  Al0+  Al70  1  0.74668970  0.75052046  0.32969261  1
  Al0+  Al71  1  0.75042443  0.74924687  0.67080064  1
  Al0+  Al72  1  0.82144923  0.57060911  0.34438723  1
  Al0+  Al73  1  0.92825271  0.31954788  0.32026781  1
  Al0+  Al74  1  0.32081166  0.57168715  0.34697838  1
  Al0+  Al75  1  0.07163570  0.67906005  0.31877110  1
  Al0+  Al76  1  0.82397655  0.07241606  0.68249532  1
  Al0+  Al77  1  0.32172802  0.56968824  0.01341106  1
  Al0+  Al78  1  0.82120671  0.57031406  0.67998674  1
  Al0+  Al79  1  0.57444190  0.67770623  0.98405168  1
  Al0+  Al80  1  0.67916804  0.92870924  0.01712896  1
  Al0+  Al81  1  0.42914547  0.82175207  0.65213547  1
  Al0+  Al82  1  0.57080905  0.17745231  0.98446904  1
  Al0+  Al83  1  0.17688369  0.92861350  0.01635324  1
  Al0+  Al84  1  0.32068954  0.07051814  0.67912646  1
  Al0+  Al85  1  0.68005443  0.92843320  0.68197400  1
  Al0+  Al86  1  0.42991855  0.81904247  0.98673674  1
  Al0+  Al87  1  0.32103178  0.07286156  0.01541953  1
  Al0+  Al88  1  0.92890953  0.81890998  0.65381474  1
  Al0+  Al89  1  0.32061481  0.57145159  0.68125061  1
  Al0+  Al90  1  0.42713106  0.32180735  0.98454994  1
  Al0+  Al91  1  0.07109644  0.68021133  0.98481859  1
  Al0+  Al92  1  0.82023029  0.06984885  0.34520010  1
  Al0+  Al93  1  0.56801568  0.67869392  0.32126774  1
  Al0+  Al94  1  0.06868414  0.17924174  0.98607084  1
  Al0+  Al95  1  0.92667871  0.82306554  0.31755985  1
  Si0+  Si96  1  0.92721911  0.32374124  0.98035886  1
  Si0+  Si97  1  0.42684101  0.82445871  0.31673879  1
  Si0+  Si98  1  0.17869694  0.92788109  0.68207665  1
  Si0+  Si99  1  0.42861146  0.31990731  0.32018899  1
  Si0+  Si100  1  0.68116283  0.42894288  0.01556005  1
  Si0+  Si101  1  0.17862439  0.42694557  0.68421521  1
  Si0+  Si102  1  0.92850256  0.32082529  0.65081952  1
  Si0+  Si103  1  0.17887595  0.92993201  0.35076520  1
  Si0+  Si104  1  0.17522519  0.42939251  0.01750626  1
  Si0+  Si105  1  0.92838485  0.82299571  0.98346067  1
  Si0+  Si106  1  0.57173263  0.17942258  0.65024894  1
  Si0+  Si107  1  0.07186258  0.17952578  0.65078685  1
  Si0+  Si108  1  0.17863791  0.42509496  0.35012669  1
  Si0+  Si109  1  0.82262050  0.57090520  0.01564602  1
  Si0+  Si110  1  0.67606604  0.92756833  0.35124467  1
  Si0+  Si111  1  0.67758789  0.42691931  0.34932277  1
  Si0+  Si112  1  0.56994457  0.17868212  0.31984343  1
  Si0+  Si113  1  0.57125614  0.67590570  0.64984302  1
  Si0+  Si114  1  0.82090277  0.07419280  0.01604917  1
  Si0+  Si115  1  0.42881747  0.32151933  0.64893151  1
  Si0+  Si116  1  0.07433859  0.17776217  0.31735818  1
  Si0+  Si117  1  0.32090348  0.07315367  0.34830664  1
  Si0+  Si118  1  0.07190370  0.67507255  0.64979263  1
  Si0+  Si119  1  0.67733633  0.42627613  0.68481968  1
  O2-  O120  1  0.24958192  0.00087189  0.06673908  1
  O2-  O121  1  0.25101252  0.00157868  0.39111673  1
  O2-  O122  1  0.24961061  -0.00619662  0.72588681  1
  O2-  O123  1  0.24639710  0.49538861  0.06151491  1
  O2-  O124  1  0.24314643  0.49861754  0.39305056  1
  O2-  O125  1  0.24454604  0.49806387  0.72752251  1
  O2-  O126  1  0.75204331  0.00691259  0.06157666  1
  O2-  O127  1  0.74944467  -0.00755779  0.39371503  1
  O2-  O128  1  0.75348672  -0.00041543  0.73198978  1
  O2-  O129  1  0.75071312  0.50090261  0.05787225  1
  O2-  O130  1  0.74627192  0.49600180  0.39271600  1
  O2-  O131  1  0.74421176  0.49778263  0.72733593  1
  O2-  O132  1  0.00214840  0.24359972  0.27473732  1
  O2-  O133  1  -0.00336032  0.24649247  0.60868057  1
  O2-  O134  1  -0.00633655  0.25276524  0.93680751  1
  O2-  O135  1  -0.00368460  0.74790774  0.26875897  1
  O2-  O136  1  0.00033342  0.74094162  0.60637687  1
  O2-  O137  1  -0.00217824  0.75567337  0.93836848  1
  O2-  O138  1  0.49794546  0.24819546  0.27765758  1
  O2-  O139  1  0.50033705  0.25048929  0.60652957  1
  O2-  O140  1  0.49208716  0.24286231  0.93439398  1
  O2-  O141  1  0.49284346  0.75260019  0.27493116  1
  O2-  O142  1  0.50175245  0.74424144  0.60585497  1
  O2-  O143  1  0.50104242  0.74759449  0.93406300  1
  O2-  O144  1  0.06542255  0.18146567  0.09948314  1
  O2-  O145  1  0.07769229  0.18059971  0.42339122  1
  O2-  O146  1  0.07320181  0.18203934  0.75538902  1
  O2-  O147  1  0.06837807  0.67837212  0.09768057  1
  O2-  O148  1  0.07241787  0.68225223  0.43275570  1
  O2-  O149  1  0.07199882  0.67603445  0.75535985  1
  O2-  O150  1  0.57323516  0.18289328  0.09881848  1
  O2-  O151  1  0.56880209  0.17976625  0.42527586  1
  O2-  O152  1  0.57084270  0.18045648  0.75464168  1
  O2-  O153  1  0.57327475  0.67729358  0.09803326  1
  O2-  O154  1  0.56789358  0.67910034  0.43465423  1
  O2-  O155  1  0.57043591  0.67466658  0.75487972  1
  O2-  O156  1  0.18290044  0.41563983  0.24564568  1
  O2-  O157  1  0.17898138  0.42443781  0.57833527  1
  O2-  O158  1  0.17261713  0.43191410  0.91179371  1
  O2-  O159  1  0.17828350  0.92954304  0.24626822  1
  O2-  O160  1  0.17841173  0.93133303  0.57588170  1
  O2-  O161  1  0.17567055  0.93057700  0.90262638  1
  O2-  O162  1  0.67700959  0.42544655  0.24383210  1
  O2-  O163  1  0.67799053  0.42310940  0.57898354  1
  O2-  O164  1  0.68391060  0.42634042  0.91055872  1
  O2-  O165  1  0.67227597  0.93153076  0.24604881  1
  O2-  O166  1  0.67986092  0.93056958  0.56783203  1
  O2-  O167  1  0.68150265  0.92752906  0.90432120  1
  O2-  O168  1  0.43243870  0.32312926  0.09905000  1
  O2-  O169  1  0.42938018  0.31834065  0.42570576  1
  O2-  O170  1  0.42838782  0.32205592  0.75317749  1
  O2-  O171  1  0.43064522  0.81586780  0.10071492  1
  O2-  O172  1  0.42868666  0.82741823  0.42275340  1
  O2-  O173  1  0.42793591  0.82293606  0.76432025  1
  O2-  O174  1  0.92668486  0.32437739  0.08610320  1
  O2-  O175  1  0.92977045  0.31881899  0.43381808  1
  O2-  O176  1  0.93019088  0.32333799  0.75557797  1
  O2-  O177  1  0.92810264  0.82131813  0.08901007  1
  O2-  O178  1  0.92900919  0.82301388  0.43165104  1
  O2-  O179  1  0.93122817  0.81767398  0.76677380  1
  O2-  O180  1  0.32111447  0.07721883  0.24423015  1
  O2-  O181  1  0.31756370  0.07182564  0.56496734  1
  O2-  O182  1  0.31875734  0.07037097  0.90169220  1
  O2-  O183  1  0.32331371  0.56850434  0.23434538  1
  O2-  O184  1  0.31992321  0.56936751  0.56757346  1
  O2-  O185  1  0.31972485  0.56921972  0.90027523  1
  O2-  O186  1  0.81611764  0.07282753  0.23237968  1
  O2-  O187  1  0.82061577  0.07422967  0.56849034  1
  O2-  O188  1  0.82098208  0.07252146  0.91064643  1
  O2-  O189  1  0.82035483  0.56673993  0.23144323  1
  O2-  O190  1  0.82173110  0.56903379  0.56664347  1
  O2-  O191  1  0.82284120  0.56857815  0.91026138  1
  O2-  O192  1  0.05240496  0.08335385  0.27347225  1
  O2-  O193  1  0.05008576  0.08659639  0.60282041  1
  O2-  O194  1  0.03837964  0.08329410  0.93035902  1
  O2-  O195  1  0.05043486  0.57861265  0.26736640  1
  O2-  O196  1  0.05028508  0.57893074  0.60697389  1
  O2-  O197  1  0.03968751  0.58455366  0.92878113  1
  O2-  O198  1  0.54279795  0.08636133  0.27354996  1
  O2-  O199  1  0.54360345  0.08909334  0.60036243  1
  O2-  O200  1  0.54882475  0.07735867  0.93446570  1
  O2-  O201  1  0.53976565  0.58011781  0.26894070  1
  O2-  O202  1  0.54694738  0.58126068  0.60411470  1
  O2-  O203  1  0.55357654  0.57777388  0.93242512  1
  O2-  O204  1  0.16656137  0.20725131  0.27038774  1
  O2-  O205  1  0.16195110  0.21205766  0.60113093  1
  O2-  O206  1  0.16354884  0.21125948  0.92951644  1
  O2-  O207  1  0.16953220  0.71306128  0.26759943  1
  O2-  O208  1  0.16427235  0.70388849  0.60299038  1
  O2-  O209  1  0.16731198  0.71049321  0.93144184  1
  O2-  O210  1  0.66010638  0.20724528  0.27098526  1
  O2-  O211  1  0.66372806  0.21017183  0.60347104  1
  O2-  O212  1  0.66597636  0.21407756  0.92917363  1
  O2-  O213  1  0.66365738  0.70746104  0.26507249  1
  O2-  O214  1  0.66530650  0.70335329  0.60543856  1
  O2-  O215  1  0.67379058  0.70773260  0.93412747  1
  O2-  O216  1  0.08167191  0.45672953  0.06352717  1
  O2-  O217  1  0.08340752  0.44676161  0.39427312  1
  O2-  O218  1  0.08445832  0.44687102  0.73122744  1
  O2-  O219  1  0.07897002  0.96033799  0.06977615  1
  O2-  O220  1  0.08814075  0.95911636  0.40009144  1
  O2-  O221  1  0.08666448  0.95617395  0.72856699  1
  O2-  O222  1  0.58935474  0.45418348  0.06368745  1
  O2-  O223  1  0.58438169  0.45098484  0.39740172  1
  O2-  O224  1  0.58293593  0.44820903  0.72995446  1
  O2-  O225  1  0.58405765  0.95842736  0.07396661  1
  O2-  O226  1  0.58386881  0.95846058  0.39911858  1
  O2-  O227  1  0.58277765  0.96108473  0.73364355  1
  O2-  O228  1  0.19597366  0.33439863  0.06216496  1
  O2-  O229  1  0.20866632  0.33432931  0.40217944  1
  O2-  O230  1  0.20765619  0.33452300  0.73053935  1
  O2-  O231  1  0.20628979  0.83124660  0.07070168  1
  O2-  O232  1  0.20686576  0.83999221  0.40169783  1
  O2-  O233  1  0.20003438  0.83278208  0.72526062  1
  O2-  O234  1  0.71029785  0.33770799  0.06466042  1
  O2-  O235  1  0.70355333  0.33353490  0.39608568  1
  O2-  O236  1  0.70666545  0.33501749  0.73317783  1
  O2-  O237  1  0.71329922  0.83339996  0.07266664  1
  O2-  O238  1  0.69626047  0.83237491  0.39513404  1
  O2-  O239  1  0.70580662  0.83032306  0.73574049  1
  O2-  O240  1  0.45720248  0.41114130  0.27332433  1
  O2-  O241  1  0.45842468  0.41275256  0.60014148  1
  O2-  O242  1  0.46670123  0.41486787  0.92848634  1
  O2-  O243  1  0.45372776  0.91783192  0.27054057  1
  O2-  O244  1  0.46136690  0.91787392  0.59596394  1
  O2-  O245  1  0.45848026  0.91868630  0.93749031  1
  O2-  O246  1  0.95939634  0.41384378  0.26290111  1
  O2-  O247  1  0.96094836  0.41132488  0.60227239  1
  O2-  O248  1  0.95647173  0.41563591  0.93284310  1
  O2-  O249  1  0.95862120  0.92101280  0.26545543  1
  O2-  O250  1  0.96200466  0.91517624  0.59868686  1
  O2-  O251  1  0.95124775  0.91716801  0.93835192  1
  O2-  O252  1  0.33663269  0.29318310  0.27333449  1
  O2-  O253  1  0.33715291  0.29284697  0.60066951  1
  O2-  O254  1  0.32571933  0.30668690  0.93402428  1
  O2-  O255  1  0.33165103  0.80245961  0.27447953  1
  O2-  O256  1  0.33180323  0.79247252  0.59689788  1
  O2-  O257  1  0.33101808  0.79327717  0.93426568  1
  O2-  O258  1  0.83153227  0.28958130  0.26524880  1
  O2-  O259  1  0.83525174  0.29697241  0.60420196  1
  O2-  O260  1  0.83339068  0.30204331  0.93373384  1
  O2-  O261  1  0.82665006  0.80008924  0.26702202  1
  O2-  O262  1  0.83110292  0.79019415  0.60080109  1
  O2-  O263  1  0.83602138  0.79333145  0.93814775  1
  O2-  O264  1  0.41984732  0.04782956  0.06858815  1
  O2-  O265  1  0.41316218  0.04571170  0.39637180  1
  O2-  O266  1  0.41893068  0.04471362  0.72948299  1
  O2-  O267  1  0.41970250  0.53634203  0.06410830  1
  O2-  O268  1  0.41489173  0.53563040  0.40386378  1
  O2-  O269  1  0.41676819  0.53781419  0.73337354  1
  O2-  O270  1  0.91402623  0.04896881  0.06267360  1
  O2-  O271  1  0.91964512  0.04704842  0.39824454  1
  O2-  O272  1  0.92471119  0.04672072  0.73068691  1
  O2-  O273  1  0.91423626  0.53981250  0.06131852  1
  O2-  O274  1  0.91819070  0.53804592  0.39786766  1
  O2-  O275  1  0.91674792  0.53598333  0.73483893  1
  O2-  O276  1  0.29107513  0.17342270  0.06448131  1
  O2-  O277  1  0.29298025  0.16451167  0.39818781  1
  O2-  O278  1  0.28961315  0.16736700  0.73133387  1
  O2-  O279  1  0.29024771  0.66551603  0.06736775  1
  O2-  O280  1  0.29216835  0.66920522  0.40121560  1
  O2-  O281  1  0.29039475  0.66864821  0.73334521  1
  O2-  O282  1  0.79688747  0.17043094  0.05801424  1
  O2-  O283  1  0.78583992  0.16571107  0.40033831  1
  O2-  O284  1  0.79779985  0.17163204  0.73451663  1
  O2-  O285  1  0.79784520  0.66279160  0.06304371  1
  O2-  O286  1  0.78839461  0.66745517  0.39752219  1
  O2-  O287  1  0.79269987  0.66547361  0.73645388  1
