# generated using pymatgen
data_Ca2Al2SiO7
_symmetry_space_group_name_H-M   'P 1'
_cell_length_a   15.46617861
_cell_length_b   15.46476209
_cell_length_c   15.28791330
_cell_angle_alpha   90.01632561
_cell_angle_beta   90.01504445
_cell_angle_gamma   90.00752776
_symmetry_Int_Tables_number   1
_chemical_formula_structural   Ca2Al2SiO7
_chemical_formula_sum   'Ca48 Al48 Si24 O168'
_cell_volume   3656.57460875
_cell_formula_units_Z   24
loop_
 _symmetry_equiv_pos_site_id
 _symmetry_equiv_pos_as_xyz
  1  'x, y, z'
loop_
 _atom_type_symbol
 _atom_type_oxidation_number
  Ca2+  2.0
  Al0+  0.0
  Si0+  0.0
  O2-  -2.0
loop_
 _atom_site_type_symbol
 _atom_site_label
 _atom_site_symmetry_multiplicity
 _atom_site_fract_x
 _atom_site_fract_y
 _atom_site_fract_z
 _atom_site_occupancy
  Ca2+  Ca0  1  0.16996849  0.07549914  0.17185098  1
  Ca2+  Ca1  1  0.15547425  0.07179480  0.49921129  1
  Ca2+  Ca2  1  0.16955310  0.06943398  0.84229746  1
  Ca2+  Ca3  1  0.16842386  0.57496032  0.16983523  1
  Ca2+  Ca4  1  0.16513120  0.57939748  0.50494998  1
  Ca2+  Ca5  1  0.17488165  0.58080055  0.83656439  1
  Ca2+  Ca6  1  0.67223076  0.08441339  0.17482886  1
  Ca2+  Ca7  1  0.66359713  0.07808240  0.49654056  1
  Ca2+  Ca8  1  0.67507657  0.08383108  0.83990542  1
  Ca2+  Ca9  1  0.67078995  0.57610876  0.17527724  1
  Ca2+  Ca10  1  0.66492931  0.57326481  0.50668288  1
  Ca2+  Ca11  1  0.66244935  0.58120467  0.83226668  1
  Ca2+  Ca12  1  0.07807797  0.33731960  0.16141604  1
  Ca2+  Ca13  1  0.08181745  0.33252352  0.48614591  1
  Ca2+  Ca14  1  0.08108509  0.34292085  0.83164235  1
  Ca2+  Ca15  1  0.09342857  0.82936621  0.16721059  1
  Ca2+  Ca16  1  0.08748600  0.82413853  0.49121009  1
  Ca2+  Ca17  1  0.09087785  0.83061718  0.82633070  1
  Ca2+  Ca18  1  0.57986091  0.32993683  0.16386637  1
  Ca2+  Ca19  1  0.58531419  0.33177620  0.49218606  1
  Ca2+  Ca20  1  0.57465709  0.33718897  0.83091088  1
  Ca2+  Ca21  1  0.57116761  0.83956563  0.16443822  1
  Ca2+  Ca22  1  0.57816565  0.82714987  0.48978973  1
  Ca2+  Ca23  1  0.57304853  0.82597826  0.82812499  1
  Ca2+  Ca24  1  0.32748252  0.41777645  0.16856483  1
  Ca2+  Ca25  1  0.31911647  0.42248770  0.50778974  1
  Ca2+  Ca26  1  0.32546515  0.42725399  0.84256753  1
  Ca2+  Ca27  1  0.32848135  0.91364791  0.17018577  1
  Ca2+  Ca28  1  0.32518749  0.91400105  0.49883079  1
  Ca2+  Ca29  1  0.32366303  0.91646349  0.84241077  1
  Ca2+  Ca30  1  0.83264492  0.41103699  0.17377756  1
  Ca2+  Ca31  1  0.82402188  0.40872685  0.49929232  1
  Ca2+  Ca32  1  0.82729738  0.41347160  0.83775342  1
  Ca2+  Ca33  1  0.82922487  0.92075003  0.17549044  1
  Ca2+  Ca34  1  0.83281910  0.91153860  0.49731043  1
  Ca2+  Ca35  1  0.83212508  0.92470163  0.84276141  1
  Ca2+  Ca36  1  0.42208394  0.16637013  0.15907432  1
  Ca2+  Ca37  1  0.42412428  0.16895631  0.49162532  1
  Ca2+  Ca38  1  0.40342576  0.17411183  0.83748818  1
  Ca2+  Ca39  1  0.40993039  0.67662287  0.16247758  1
  Ca2+  Ca40  1  0.41609829  0.66788919  0.49884978  1
  Ca2+  Ca41  1  0.41077263  0.66702753  0.82935151  1
  Ca2+  Ca42  1  0.92158177  0.17403392  0.16468380  1
  Ca2+  Ca43  1  0.92565817  0.17495548  0.48898496  1
  Ca2+  Ca44  1  0.91657327  0.16959474  0.83560547  1
  Ca2+  Ca45  1  0.92390282  0.67036587  0.16950721  1
  Ca2+  Ca46  1  0.93086106  0.67039379  0.49142369  1
  Ca2+  Ca47  1  0.92727763  0.67032263  0.82597227  1
  Al0+  Al48  1  -0.00220526  0.00029466  0.00838291  1
  Al0+  Al49  1  -0.00042233  0.00161954  0.33166328  1
  Al0+  Al50  1  -0.00193604  0.00252299  0.67103093  1
  Al0+  Al51  1  -0.00235703  0.50080431  -0.00321550  1
  Al0+  Al52  1  0.00057894  0.50199789  0.32922261  1
  Al0+  Al53  1  -0.00415263  0.50165765  0.66365422  1
  Al0+  Al54  1  0.50069013  -0.00242709  -0.00663947  1
  Al0+  Al55  1  0.50204334  0.00040648  0.33053792  1
  Al0+  Al56  1  0.50051913  0.00184031  0.66771580  1
  Al0+  Al57  1  0.50068952  0.49826564  0.00077443  1
  Al0+  Al58  1  0.50146584  0.50071005  0.33795026  1
  Al0+  Al59  1  0.49937166  0.49967984  0.66910288  1
  Al0+  Al60  1  0.24928560  0.24723528  0.00158481  1
  Al0+  Al61  1  0.25211393  0.25028957  0.33481644  1
  Al0+  Al62  1  0.24793325  0.24907202  0.66661382  1
  Al0+  Al63  1  0.25137020  0.74761787  0.00096128  1
  Al0+  Al64  1  0.25190868  0.75074959  0.32994311  1
  Al0+  Al65  1  0.24912541  0.75107963  0.66777262  1
  Al0+  Al66  1  0.75202221  0.24939488  -0.00074990  1
  Al0+  Al67  1  0.75031956  0.24947404  0.33143615  1
  Al0+  Al68  1  0.74896148  0.24973731  0.67072604  1
  Al0+  Al69  1  0.75151608  0.74837806  -0.00112025  1
  Al0+  Al70  1  0.75116502  0.74937872  0.33471183  1
  Al0+  Al71  1  0.74709527  0.75006566  0.66402651  1
  Al0+  Al72  1  0.17921560  0.42911078  0.34575025  1
  Al0+  Al73  1  0.42774397  0.32029766  0.98651349  1
  Al0+  Al74  1  0.32314505  0.07080097  0.01487062  1
  Al0+  Al75  1  0.17932489  0.92748643  0.01664818  1
  Al0+  Al76  1  0.68012905  0.42843022  0.68224160  1
  Al0+  Al77  1  0.92763699  0.82174180  0.31853918  1
  Al0+  Al78  1  0.07089165  0.68059503  0.65356455  1
  Al0+  Al79  1  0.68039094  0.42883077  0.34614722  1
  Al0+  Al80  1  0.57018089  0.18017824  0.32028927  1
  Al0+  Al81  1  0.56991416  0.67805580  0.65167903  1
  Al0+  Al82  1  0.17440775  0.42691745  0.68060775  1
  Al0+  Al83  1  0.32340078  0.56967083  0.01710954  1
  Al0+  Al84  1  0.67858179  0.92862712  0.34655640  1
  Al0+  Al85  1  0.31978423  0.57026667  0.68070829  1
  Al0+  Al86  1  0.81927121  0.07196094  0.01614233  1
  Al0+  Al87  1  0.07323161  0.67982052  0.31589220  1
  Al0+  Al88  1  0.17948560  0.93021254  0.34809374  1
  Al0+  Al89  1  0.17653626  0.42920044  0.01469516  1
  Al0+  Al90  1  0.43145179  0.81986667  0.32051746  1
  Al0+  Al91  1  0.17963372  0.93144464  0.67831796  1
  Al0+  Al92  1  0.93090452  0.32108330  0.31894376  1
  Al0+  Al93  1  0.42886039  0.81920809  0.98400224  1
  Al0+  Al94  1  0.93014540  0.32091470  0.98346247  1
  Al0+  Al95  1  0.07521512  0.17808228  0.31748586  1
  Si0+  Si96  1  0.32545654  0.07291568  0.68254603  1
  Si0+  Si97  1  0.57288278  0.18005667  0.65178949  1
  Si0+  Si98  1  0.32234067  0.57277467  0.35047099  1
  Si0+  Si99  1  0.57280941  0.17833076  0.98171586  1
  Si0+  Si100  1  0.67684705  0.92769785  0.68223123  1
  Si0+  Si101  1  0.42878542  0.32451430  0.31852352  1
  Si0+  Si102  1  0.82107707  0.57203414  0.01471122  1
  Si0+  Si103  1  0.32454212  0.07232237  0.35007368  1
  Si0+  Si104  1  0.42850228  0.82375376  0.64892739  1
  Si0+  Si105  1  0.67950141  0.92580601  0.01473462  1
  Si0+  Si106  1  0.57302677  0.67579147  0.31730841  1
  Si0+  Si107  1  0.81994350  0.57443764  0.68373217  1
  Si0+  Si108  1  0.92705015  0.32013617  0.65225760  1
  Si0+  Si109  1  0.06981966  0.17828927  0.65299809  1
  Si0+  Si110  1  0.81879091  0.07005803  0.68190503  1
  Si0+  Si111  1  0.57468435  0.67673706  0.98414515  1
  Si0+  Si112  1  0.06953344  0.68033662  0.98376563  1
  Si0+  Si113  1  0.82119419  0.07202560  0.35209707  1
  Si0+  Si114  1  0.07100676  0.17576643  0.98229961  1
  Si0+  Si115  1  0.92742334  0.82184753  0.98512887  1
  Si0+  Si116  1  0.42781407  0.32002771  0.65171005  1
  Si0+  Si117  1  0.92710057  0.82531870  0.65230610  1
  Si0+  Si118  1  0.82285429  0.57287070  0.35105315  1
  Si0+  Si119  1  0.68017399  0.42911070  0.01491908  1
  O2-  O120  1  0.25250590  -0.00123247  0.06580828  1
  O2-  O121  1  0.25164110  0.00816840  0.39490730  1
  O2-  O122  1  0.25649546  0.00368404  0.72451512  1
  O2-  O123  1  0.25214401  0.49655229  0.06558761  1
  O2-  O124  1  0.25345129  0.50376805  0.39334814  1
  O2-  O125  1  0.24690978  0.49850315  0.72988505  1
  O2-  O126  1  0.74389203  -0.00273359  0.06014792  1
  O2-  O127  1  0.75555249  -0.00005531  0.39638084  1
  O2-  O128  1  0.74983544  -0.00326101  0.72427181  1
  O2-  O129  1  0.75005439  0.50105205  0.05638744  1
  O2-  O130  1  0.75441923  0.50323779  0.39458427  1
  O2-  O131  1  0.75267541  0.50493720  0.72968372  1
  O2-  O132  1  0.00695582  0.25408450  0.26833522  1
  O2-  O133  1  0.00523779  0.25627799  0.61179552  1
  O2-  O134  1  0.00723079  0.24882777  0.93578353  1
  O2-  O135  1  0.00296032  0.75474488  0.26650046  1
  O2-  O136  1  -0.00375865  0.75718015  0.60932925  1
  O2-  O137  1  0.00212084  0.75582896  0.94182727  1
  O2-  O138  1  0.49576503  0.25442657  0.27392090  1
  O2-  O139  1  0.49894635  0.24810830  0.61018358  1
  O2-  O140  1  0.50056705  0.24332148  0.93732050  1
  O2-  O141  1  0.50623207  0.74523178  0.27279507  1
  O2-  O142  1  0.49671093  0.75420314  0.60531080  1
  O2-  O143  1  0.50379952  0.74307070  0.93973566  1
  O2-  O144  1  0.06732864  0.17485272  0.08724027  1
  O2-  O145  1  0.06983744  0.17867951  0.43233363  1
  O2-  O146  1  0.06594313  0.17294487  0.75764461  1
  O2-  O147  1  0.06646111  0.67888154  0.08841064  1
  O2-  O148  1  0.07236633  0.67994354  0.42986012  1
  O2-  O149  1  0.06860985  0.68238261  0.76710702  1
  O2-  O150  1  0.57512623  0.18068128  0.08710286  1
  O2-  O151  1  0.56897389  0.18056986  0.43425702  1
  O2-  O152  1  0.57679180  0.18032747  0.75654494  1
  O2-  O153  1  0.57999477  0.67846488  0.08935621  1
  O2-  O154  1  0.57099998  0.67520969  0.42301868  1
  O2-  O155  1  0.57215806  0.68191227  0.76483347  1
  O2-  O156  1  0.18066229  0.42989718  0.23310066  1
  O2-  O157  1  0.17671473  0.42548296  0.56695418  1
  O2-  O158  1  0.17552488  0.43522090  0.90095600  1
  O2-  O159  1  0.18355035  0.92916247  0.23578792  1
  O2-  O160  1  0.17818553  0.93307968  0.56546277  1
  O2-  O161  1  0.17856639  0.92845375  0.90224947  1
  O2-  O162  1  0.67987836  0.43066117  0.23283961  1
  O2-  O163  1  0.68301015  0.42502053  0.56940292  1
  O2-  O164  1  0.68083432  0.42960742  0.90950464  1
  O2-  O165  1  0.67829092  0.93211269  0.23361489  1
  O2-  O166  1  0.67542841  0.92947921  0.57744107  1
  O2-  O167  1  0.68391563  0.92506812  0.90839998  1
  O2-  O168  1  0.43423130  0.32173238  0.09928396  1
  O2-  O169  1  0.43105206  0.32351262  0.42464828  1
  O2-  O170  1  0.42853338  0.31812154  0.75678351  1
  O2-  O171  1  0.43158395  0.81967081  0.09690090  1
  O2-  O172  1  0.43217906  0.81887362  0.43398325  1
  O2-  O173  1  0.43077227  0.82490668  0.75447625  1
  O2-  O174  1  0.92727871  0.32058589  0.09566913  1
  O2-  O175  1  0.92846459  0.31794255  0.43342912  1
  O2-  O176  1  0.92382909  0.31661582  0.75731447  1
  O2-  O177  1  0.92121803  0.81773759  0.08922939  1
  O2-  O178  1  0.92798796  0.81755614  0.43281894  1
  O2-  O179  1  0.92657839  0.82611502  0.75840724  1
  O2-  O180  1  0.32779374  0.07011254  0.24505015  1
  O2-  O181  1  0.33016460  0.07324668  0.57724184  1
  O2-  O182  1  0.31904894  0.06865685  0.90052336  1
  O2-  O183  1  0.32468988  0.57110831  0.24515074  1
  O2-  O184  1  0.32000032  0.56863916  0.56699229  1
  O2-  O185  1  0.32136524  0.57058934  0.90344087  1
  O2-  O186  1  0.81728785  0.07401796  0.24681608  1
  O2-  O187  1  0.81851291  0.07151680  0.57739082  1
  O2-  O188  1  0.81782386  0.07012848  0.90178768  1
  O2-  O189  1  0.81974747  0.57368921  0.24499337  1
  O2-  O190  1  0.81903744  0.57427265  0.57864714  1
  O2-  O191  1  0.82020432  0.57370386  0.90950367  1
  O2-  O192  1  0.04314242  0.08168103  0.26452825  1
  O2-  O193  1  0.03345531  0.08957703  0.60366403  1
  O2-  O194  1  0.03709904  0.08346910  0.93625788  1
  O2-  O195  1  0.04042157  0.58395205  0.26118017  1
  O2-  O196  1  0.03760902  0.58474361  0.59846319  1
  O2-  O197  1  0.03538039  0.59159225  0.93438402  1
  O2-  O198  1  0.54150328  0.08464791  0.26452175  1
  O2-  O199  1  0.54736278  0.08674432  0.60526128  1
  O2-  O200  1  0.55439112  0.08302582  0.93566649  1
  O2-  O201  1  0.54731692  0.58222185  0.27095073  1
  O2-  O202  1  0.54060176  0.58023470  0.59900185  1
  O2-  O203  1  0.55174868  0.58198792  0.93944404  1
  O2-  O204  1  0.17658194  0.19916590  0.26887673  1
  O2-  O205  1  0.16397871  0.19696843  0.60637505  1
  O2-  O206  1  0.16664270  0.19380998  0.93794938  1
  O2-  O207  1  0.17116192  0.70722203  0.26297267  1
  O2-  O208  1  0.16712305  0.71107543  0.59921697  1
  O2-  O209  1  0.16236698  0.70519371  0.93771772  1
  O2-  O210  1  0.66564952  0.21121728  0.26564847  1
  O2-  O211  1  0.66351364  0.21053067  0.60350341  1
  O2-  O212  1  0.66456049  0.20944981  0.93425493  1
  O2-  O213  1  0.66768846  0.69840387  0.27343566  1
  O2-  O214  1  0.66678054  0.70781543  0.59693862  1
  O2-  O215  1  0.66723376  0.70462171  0.93488436  1
  O2-  O216  1  0.07821615  0.46233967  0.06524084  1
  O2-  O217  1  0.08135183  0.45944337  0.39770859  1
  O2-  O218  1  0.07383155  0.45398311  0.72941864  1
  O2-  O219  1  0.08026121  0.95330744  0.06816885  1
  O2-  O220  1  0.08123632  0.95922964  0.40085234  1
  O2-  O221  1  0.08313191  0.96295813  0.73368478  1
  O2-  O222  1  0.58887748  0.45481019  0.06289386  1
  O2-  O223  1  0.58436729  0.45864692  0.40291565  1
  O2-  O224  1  0.58332771  0.45805496  0.73549051  1
  O2-  O225  1  0.58388371  0.94792488  0.05573280  1
  O2-  O226  1  0.58420100  0.96393126  0.40279144  1
  O2-  O227  1  0.58657666  0.95859583  0.73130131  1
  O2-  O228  1  0.19851045  0.32785396  0.06233560  1
  O2-  O229  1  0.20903678  0.33216126  0.40119330  1
  O2-  O230  1  0.20033497  0.32688212  0.73194130  1
  O2-  O231  1  0.20827993  0.82886493  0.06663331  1
  O2-  O232  1  0.21467008  0.83364944  0.40042495  1
  O2-  O233  1  0.20877831  0.83536974  0.73306370  1
  O2-  O234  1  0.70992937  0.33772325  0.06060849  1
  O2-  O235  1  0.71184101  0.33230553  0.40074506  1
  O2-  O236  1  0.71305579  0.33314018  0.73818029  1
  O2-  O237  1  0.70795985  0.83332174  0.06086776  1
  O2-  O238  1  0.70673347  0.83110380  0.40106830  1
  O2-  O239  1  0.70215752  0.83526484  0.72929137  1
  O2-  O240  1  0.45731096  0.41739006  0.27309333  1
  O2-  O241  1  0.45739524  0.41097846  0.60507859  1
  O2-  O242  1  0.46307528  0.41563284  0.93110997  1
  O2-  O243  1  0.46396061  0.91514737  0.26595382  1
  O2-  O244  1  0.45596811  0.91783438  0.60428504  1
  O2-  O245  1  0.46004673  0.91452177  0.92627296  1
  O2-  O246  1  0.95143616  0.42105060  0.26714876  1
  O2-  O247  1  0.94324026  0.41483610  0.60683042  1
  O2-  O248  1  0.95565909  0.41910829  0.92832538  1
  O2-  O249  1  0.94688304  0.92297337  0.27003580  1
  O2-  O250  1  0.95060488  0.91986669  0.60735210  1
  O2-  O251  1  0.95059076  0.91633039  0.94077413  1
  O2-  O252  1  0.33509979  0.30125078  0.27343656  1
  O2-  O253  1  0.33587828  0.29235464  0.60353061  1
  O2-  O254  1  0.33077511  0.29030134  0.93140162  1
  O2-  O255  1  0.33680877  0.78901645  0.26455103  1
  O2-  O256  1  0.33470419  0.79819109  0.60430235  1
  O2-  O257  1  0.33232250  0.78737044  0.92979756  1
  O2-  O258  1  0.83380677  0.28838006  0.26605381  1
  O2-  O259  1  0.83762282  0.28352565  0.60498200  1
  O2-  O260  1  0.83411117  0.28597239  0.92877426  1
  O2-  O261  1  0.82981216  0.79047689  0.26471559  1
  O2-  O262  1  0.83284366  0.80045590  0.60738627  1
  O2-  O263  1  0.83775625  0.79019025  0.93368986  1
  O2-  O264  1  0.42513473  0.04552414  0.06171327  1
  O2-  O265  1  0.41619902  0.04154857  0.39796197  1
  O2-  O266  1  0.41916719  0.05039736  0.73077235  1
  O2-  O267  1  0.42308788  0.54385316  0.06864887  1
  O2-  O268  1  0.41614439  0.54809216  0.39733493  1
  O2-  O269  1  0.41776660  0.54228403  0.73437629  1
  O2-  O270  1  0.91390750  0.04220836  0.07172210  1
  O2-  O271  1  0.91537186  0.04962834  0.39805928  1
  O2-  O272  1  0.90966946  0.04471909  0.73266490  1
  O2-  O273  1  0.91171861  0.54365209  0.06222022  1
  O2-  O274  1  0.91672016  0.54787494  0.39570180  1
  O2-  O275  1  0.91335280  0.54897634  0.73001104  1
  O2-  O276  1  0.29865873  0.16943361  0.06804353  1
  O2-  O277  1  0.30583017  0.16772071  0.39593176  1
  O2-  O278  1  0.29718536  0.16594651  0.72786916  1
  O2-  O279  1  0.29265642  0.66704234  0.06892436  1
  O2-  O280  1  0.29645196  0.66618827  0.39588178  1
  O2-  O281  1  0.29265313  0.66937015  0.73278172  1
  O2-  O282  1  0.78745217  0.16806778  0.06939077  1
  O2-  O283  1  0.79011414  0.16342686  0.39981349  1
  O2-  O284  1  0.78688679  0.15953127  0.73185242  1
  O2-  O285  1  0.79316801  0.66317624  0.06361025  1
  O2-  O286  1  0.79749690  0.66538263  0.39892713  1
  O2-  O287  1  0.79368839  0.66812298  0.73070964  1
