# generated using pymatgen
data_Ca2Al2SiO7
_symmetry_space_group_name_H-M   'P 1'
_cell_length_a   15.45626635
_cell_length_b   15.45653681
_cell_length_c   15.28252643
_cell_angle_alpha   90.00389749
_cell_angle_beta   89.99971347
_cell_angle_gamma   89.98895524
_symmetry_Int_Tables_number   1
_chemical_formula_structural   Ca2Al2SiO7
_chemical_formula_sum   'Ca48 Al48 Si24 O168'
_cell_volume   3651.00083202
_cell_formula_units_Z   24
loop_
 _symmetry_equiv_pos_site_id
 _symmetry_equiv_pos_as_xyz
  1  'x, y, z'
loop_
 _atom_type_symbol
 _atom_type_oxidation_number
  Ca2+  2.0
  Al0+  0.0
  Si0+  0.0
  O2-  -2.0
loop_
 _atom_site_type_symbol
 _atom_site_label
 _atom_site_symmetry_multiplicity
 _atom_site_fract_x
 _atom_site_fract_y
 _atom_site_fract_z
 _atom_site_occupancy
  Ca2+  Ca0  1  0.16918277  0.08645043  0.17382148  1
  Ca2+  Ca1  1  0.17688119  0.08301457  0.50254380  1
  Ca2+  Ca2  1  0.16740091  0.07937580  0.83575918  1
  Ca2+  Ca3  1  0.17411439  0.58768560  0.16879505  1
  Ca2+  Ca4  1  0.17387055  0.58500096  0.50001143  1
  Ca2+  Ca5  1  0.16791664  0.57847507  0.84730448  1
  Ca2+  Ca6  1  0.67258361  0.07855729  0.17491761  1
  Ca2+  Ca7  1  0.65736276  0.07269077  0.50280250  1
  Ca2+  Ca8  1  0.67147384  0.07867610  0.83589123  1
  Ca2+  Ca9  1  0.66452657  0.57988042  0.17736283  1
  Ca2+  Ca10  1  0.65755358  0.57071991  0.49900537  1
  Ca2+  Ca11  1  0.66603783  0.57595221  0.83423575  1
  Ca2+  Ca12  1  0.08874207  0.32324113  0.16420668  1
  Ca2+  Ca13  1  0.07608130  0.32647165  0.48836173  1
  Ca2+  Ca14  1  0.08883196  0.32866817  0.83433185  1
  Ca2+  Ca15  1  0.07234081  0.83116582  0.15924216  1
  Ca2+  Ca16  1  0.07234642  0.84459722  0.49813980  1
  Ca2+  Ca17  1  0.07448722  0.83539749  0.83005946  1
  Ca2+  Ca18  1  0.57897245  0.33443817  0.17147214  1
  Ca2+  Ca19  1  0.58449245  0.32192324  0.49019489  1
  Ca2+  Ca20  1  0.58396059  0.32628381  0.82402328  1
  Ca2+  Ca21  1  0.57286901  0.83616400  0.17023263  1
  Ca2+  Ca22  1  0.58188536  0.83194964  0.48731524  1
  Ca2+  Ca23  1  0.57844785  0.83664579  0.83012503  1
  Ca2+  Ca24  1  0.33132744  0.42592204  0.17374280  1
  Ca2+  Ca25  1  0.34441816  0.42225615  0.49659018  1
  Ca2+  Ca26  1  0.32643967  0.42526021  0.84518069  1
  Ca2+  Ca27  1  0.33514845  0.91790455  0.17574775  1
  Ca2+  Ca28  1  0.33526329  0.92952248  0.50426574  1
  Ca2+  Ca29  1  0.33125160  0.92078619  0.83522270  1
  Ca2+  Ca30  1  0.82989971  0.41783512  0.17641869  1
  Ca2+  Ca31  1  0.82200405  0.40898459  0.49996427  1
  Ca2+  Ca32  1  0.82607982  0.41384998  0.83563863  1
  Ca2+  Ca33  1  0.83514902  0.91831761  0.17283691  1
  Ca2+  Ca34  1  0.82303592  0.90950399  0.50299186  1
  Ca2+  Ca35  1  0.83222615  0.91576856  0.83718708  1
  Ca2+  Ca36  1  0.42106551  0.16536057  0.17005267  1
  Ca2+  Ca37  1  0.42322715  0.16555231  0.49060919  1
  Ca2+  Ca38  1  0.42197509  0.16700089  0.82451200  1
  Ca2+  Ca39  1  0.41553441  0.67122541  0.16524023  1
  Ca2+  Ca40  1  0.42233115  0.67425475  0.48763790  1
  Ca2+  Ca41  1  0.40966538  0.67220347  0.83640073  1
  Ca2+  Ca42  1  0.92571418  0.16767321  0.16312332  1
  Ca2+  Ca43  1  0.92440824  0.17034701  0.48985709  1
  Ca2+  Ca44  1  0.92071519  0.15908074  0.83587801  1
  Ca2+  Ca45  1  0.91827637  0.67892724  0.16060971  1
  Ca2+  Ca46  1  0.91569927  0.67853230  0.49448602  1
  Ca2+  Ca47  1  0.92178659  0.67533932  0.83027687  1
  Al0+  Al48  1  -0.00032324  0.00243203  -0.00359485  1
  Al0+  Al49  1  0.00015061  0.00086577  0.32651186  1
  Al0+  Al50  1  0.00058345  -0.00005023  0.66434419  1
  Al0+  Al51  1  -0.00298444  0.49765450  0.00120601  1
  Al0+  Al52  1  0.00024915  0.50111431  0.33256529  1
  Al0+  Al53  1  0.00088612  0.50125328  0.66554209  1
  Al0+  Al54  1  0.50080905  -0.00073232  -0.00465190  1
  Al0+  Al55  1  0.50050509  0.00000802  0.33280376  1
  Al0+  Al56  1  0.50094850  0.00039426  0.67234915  1
  Al0+  Al57  1  0.49869743  0.49987395  0.00183008  1
  Al0+  Al58  1  0.50093999  0.49941357  0.33512072  1
  Al0+  Al59  1  0.50007503  0.50031162  0.67398849  1
  Al0+  Al60  1  0.25063934  0.25010067  -0.00194629  1
  Al0+  Al61  1  0.25090741  0.25072219  0.33202049  1
  Al0+  Al62  1  0.25134186  0.25278751  0.66898604  1
  Al0+  Al63  1  0.25044345  0.75101400  -0.00406545  1
  Al0+  Al64  1  0.24834718  0.75056800  0.33827646  1
  Al0+  Al65  1  0.24923307  0.75050708  0.66945982  1
  Al0+  Al66  1  0.75063064  0.24699919  0.00432477  1
  Al0+  Al67  1  0.75163389  0.24932940  0.32986991  1
  Al0+  Al68  1  0.74958739  0.24919417  0.66751038  1
  Al0+  Al69  1  0.74589555  0.74835754  -0.00416842  1
  Al0+  Al70  1  0.75045469  0.74985303  0.32842323  1
  Al0+  Al71  1  0.75044782  0.74872426  0.66848840  1
  Al0+  Al72  1  0.32070852  0.57207222  0.34886151  1
  Al0+  Al73  1  0.57182716  0.17640915  0.31723413  1
  Al0+  Al74  1  0.42962654  0.82178140  0.98446115  1
  Al0+  Al75  1  0.92919309  0.82074380  0.65124033  1
  Al0+  Al76  1  0.17783607  0.93002136  0.68263052  1
  Al0+  Al77  1  0.07199284  0.17978820  0.31880109  1
  Al0+  Al78  1  0.42965184  0.32191007  0.31850473  1
  Al0+  Al79  1  0.68007883  0.42810978  0.68067366  1
  Al0+  Al80  1  0.32075733  0.07112613  0.34497167  1
  Al0+  Al81  1  0.57055124  0.67837856  0.31984304  1
  Al0+  Al82  1  0.92688708  0.82212375  0.98324283  1
  Al0+  Al83  1  0.07234618  0.18109850  0.98347593  1
  Al0+  Al84  1  0.32160561  0.07276980  0.68319633  1
  Al0+  Al85  1  0.42701750  0.82202367  0.32169949  1
  Al0+  Al86  1  0.07014634  0.67806023  0.98592377  1
  Al0+  Al87  1  0.57065199  0.17882178  0.65337817  1
  Al0+  Al88  1  0.68128491  0.92965458  0.34489368  1
  Al0+  Al89  1  0.92800037  0.32271896  0.31842743  1
  Al0+  Al90  1  0.17688815  0.42687112  0.01680257  1
  Al0+  Al91  1  0.82113000  0.06826149  0.01509608  1
  Al0+  Al92  1  0.67947560  0.92682814  0.68102886  1
  Al0+  Al93  1  0.92911791  0.82014787  0.31947111  1
  Al0+  Al94  1  0.68057885  0.42840089  0.34664715  1
  Al0+  Al95  1  0.31975068  0.57291797  0.01729518  1
  Si0+  Si96  1  0.82397774  0.07138716  0.35007240  1
  Si0+  Si97  1  0.81888870  0.57156925  0.01429575  1
  Si0+  Si98  1  0.92483138  0.32060985  0.98195342  1
  Si0+  Si99  1  0.07244922  0.18038649  0.65180784  1
  Si0+  Si100  1  0.42810647  0.32391457  0.65166341  1
  Si0+  Si101  1  0.82348485  0.57128229  0.68387197  1
  Si0+  Si102  1  0.32094980  0.57114260  0.68303454  1
  Si0+  Si103  1  0.07325586  0.67679313  0.64844599  1
  Si0+  Si104  1  0.67634086  0.92654284  0.01750053  1
  Si0+  Si105  1  0.82286730  0.07205090  0.68151374  1
  Si0+  Si106  1  0.92944086  0.32262964  0.65299232  1
  Si0+  Si107  1  0.67903885  0.42778065  0.01561848  1
  Si0+  Si108  1  0.17956494  0.93083179  0.01430306  1
  Si0+  Si109  1  0.57197203  0.17969523  0.98403622  1
  Si0+  Si110  1  0.17547285  0.92806421  0.34845155  1
  Si0+  Si111  1  0.17793561  0.42831114  0.35146259  1
  Si0+  Si112  1  0.17672824  0.43052454  0.68137377  1
  Si0+  Si113  1  0.07318899  0.67720995  0.31798613  1
  Si0+  Si114  1  0.82384999  0.57319783  0.34986250  1
  Si0+  Si115  1  0.57042312  0.67450612  0.98043470  1
  Si0+  Si116  1  0.43063091  0.32127221  0.98429204  1
  Si0+  Si117  1  0.32308681  0.07070042  0.01477441  1
  Si0+  Si118  1  0.42902097  0.82021546  0.65226278  1
  Si0+  Si119  1  0.57032323  0.67747302  0.65318604  1
  O2-  O120  1  0.25181027  0.00032102  0.05704592  1
  O2-  O121  1  0.24696077  -0.00509250  0.39103414  1
  O2-  O122  1  0.24926517  0.00180152  0.73455927  1
  O2-  O123  1  0.24537996  0.50252091  0.06602308  1
  O2-  O124  1  0.24665913  0.49663341  0.39713064  1
  O2-  O125  1  0.24806127  0.50120213  0.72343630  1
  O2-  O126  1  0.75009260  -0.01018692  0.06081221  1
  O2-  O127  1  0.75463904  0.00418134  0.39512880  1
  O2-  O128  1  0.75527535  0.00177406  0.72538777  1
  O2-  O129  1  0.74837568  0.50033057  0.05680420  1
  O2-  O130  1  0.75708732  0.50209189  0.39376862  1
  O2-  O131  1  0.75551347  0.50153148  0.72857751  1
  O2-  O132  1  0.00125666  0.25285258  0.26830248  1
  O2-  O133  1  0.00084243  0.25176552  0.61142244  1
  O2-  O134  1  -0.00243453  0.25658421  0.93656717  1
  O2-  O135  1  0.00429200  0.74554485  0.27447515  1
  O2-  O136  1  0.00604741  0.74719024  0.60501945  1
  O2-  O137  1  -0.00094050  0.74973217  0.93354381  1
  O2-  O138  1  0.50030072  0.24912643  0.26703785  1
  O2-  O139  1  0.49445926  0.25298038  0.60866203  1
  O2-  O140  1  0.50139815  0.25073665  0.94082779  1
  O2-  O141  1  0.49644175  0.74824737  0.27044270  1
  O2-  O142  1  0.50128904  0.75009272  0.61082083  1
  O2-  O143  1  0.50319776  0.74530119  0.93730191  1
  O2-  O144  1  0.07308715  0.18077164  0.09570001  1
  O2-  O145  1  0.07061378  0.18055843  0.43329050  1
  O2-  O146  1  0.07224001  0.18150614  0.75697576  1
  O2-  O147  1  0.06842981  0.68200496  0.09947808  1
  O2-  O148  1  0.07213087  0.67626753  0.42396371  1
  O2-  O149  1  0.07127299  0.67258039  0.75363802  1
  O2-  O150  1  0.57107702  0.17944057  0.08851302  1
  O2-  O151  1  0.57013547  0.17606924  0.43109303  1
  O2-  O152  1  0.57134588  0.18219200  0.76736312  1
  O2-  O153  1  0.57197605  0.67113084  0.08523404  1
  O2-  O154  1  0.56966723  0.67907062  0.43428569  1
  O2-  O155  1  0.56774756  0.67557152  0.75845278  1
  O2-  O156  1  0.17783579  0.42950988  0.24638892  1
  O2-  O157  1  0.17390707  0.43080115  0.57671276  1
  O2-  O158  1  0.18186427  0.42683718  0.90199728  1
  O2-  O159  1  0.17439827  0.92753133  0.24263703  1
  O2-  O160  1  0.17799967  0.93287531  0.56909221  1
  O2-  O161  1  0.18011819  0.93325396  0.90918632  1
  O2-  O162  1  0.68149507  0.43163593  0.23315951  1
  O2-  O163  1  0.67955750  0.42833804  0.56828157  1
  O2-  O164  1  0.68006591  0.42749409  0.90991934  1
  O2-  O165  1  0.68258586  0.93049324  0.23190359  1
  O2-  O166  1  0.67859091  0.92529240  0.56814052  1
  O2-  O167  1  0.67477504  0.93006284  0.91147427  1
  O2-  O168  1  0.43212362  0.32193482  0.08867537  1
  O2-  O169  1  0.43234380  0.32135515  0.43265080  1
  O2-  O170  1  0.42943576  0.32497075  0.75781674  1
  O2-  O171  1  0.43144018  0.82514431  0.09692255  1
  O2-  O172  1  0.42935898  0.82202738  0.43585493  1
  O2-  O173  1  0.42915698  0.81785671  0.75762121  1
  O2-  O174  1  0.92070514  0.31798348  0.08665356  1
  O2-  O175  1  0.92936004  0.32012805  0.43318766  1
  O2-  O176  1  0.93029473  0.32432909  0.75807523  1
  O2-  O177  1  0.92814786  0.82066788  0.09674953  1
  O2-  O178  1  0.92917359  0.81986524  0.43292669  1
  O2-  O179  1  0.92931998  0.81831978  0.76402038  1
  O2-  O180  1  0.31956148  0.06908936  0.23134546  1
  O2-  O181  1  0.32102423  0.07290134  0.56981088  1
  O2-  O182  1  0.32348082  0.07018057  0.90964620  1
  O2-  O183  1  0.31827166  0.57312083  0.23645388  1
  O2-  O184  1  0.32295612  0.57059599  0.57813961  1
  O2-  O185  1  0.32076747  0.56862411  0.90265120  1
  O2-  O186  1  0.82463089  0.06854003  0.24444482  1
  O2-  O187  1  0.82393145  0.07403964  0.57631220  1
  O2-  O188  1  0.81694142  0.07065012  0.90144922  1
  O2-  O189  1  0.82284238  0.57311844  0.24398787  1
  O2-  O190  1  0.82468868  0.57084067  0.57873003  1
  O2-  O191  1  0.81705329  0.56996050  0.90886054  1
  O2-  O192  1  0.04366315  0.08303397  0.26315408  1
  O2-  O193  1  0.04494000  0.08923472  0.60421262  1
  O2-  O194  1  0.03893630  0.08601092  0.92804918  1
  O2-  O195  1  0.05029931  0.58364941  0.27153458  1
  O2-  O196  1  0.04652108  0.58378684  0.60045186  1
  O2-  O197  1  0.04112598  0.57817541  0.93427427  1
  O2-  O198  1  0.54119904  0.08020213  0.26206969  1
  O2-  O199  1  0.54048893  0.08089051  0.60224294  1
  O2-  O200  1  0.54409574  0.08835806  0.93564423  1
  O2-  O201  1  0.54365035  0.58024456  0.26739829  1
  O2-  O202  1  0.53931986  0.58563821  0.60702322  1
  O2-  O203  1  0.54253267  0.58140096  0.93262939  1
  O2-  O204  1  0.16958520  0.20810516  0.26534044  1
  O2-  O205  1  0.16436845  0.21014644  0.60568729  1
  O2-  O206  1  0.16898000  0.21160375  0.92765051  1
  O2-  O207  1  0.16646329  0.70343098  0.27299730  1
  O2-  O208  1  0.16824941  0.70095911  0.60424353  1
  O2-  O209  1  0.16854854  0.70459732  0.93224154  1
  O2-  O210  1  0.67042352  0.20361862  0.26549280  1
  O2-  O211  1  0.66747380  0.21009698  0.60037411  1
  O2-  O212  1  0.66373084  0.20906041  0.93719837  1
  O2-  O213  1  0.66766424  0.70609938  0.26485100  1
  O2-  O214  1  0.66395051  0.70010156  0.60852092  1
  O2-  O215  1  0.66371957  0.69826123  0.93212088  1
  O2-  O216  1  0.07467081  0.44613349  0.06499286  1
  O2-  O217  1  0.08402241  0.45501786  0.39819161  1
  O2-  O218  1  0.08525758  0.45763121  0.73058292  1
  O2-  O219  1  0.08785418  0.96008402  0.06043450  1
  O2-  O220  1  0.08330949  0.95929169  0.39510548  1
  O2-  O221  1  0.07936590  0.95988465  0.73530028  1
  O2-  O222  1  0.58657240  0.45475593  0.06099926  1
  O2-  O223  1  0.58547713  0.45994741  0.40299747  1
  O2-  O224  1  0.58498815  0.46071904  0.73823158  1
  O2-  O225  1  0.58458271  0.95949102  0.06283524  1
  O2-  O226  1  0.58463529  0.95940436  0.39956113  1
  O2-  O227  1  0.58482108  0.95903504  0.73779853  1
  O2-  O228  1  0.21136521  0.32950732  0.06784333  1
  O2-  O229  1  0.20287989  0.33480123  0.39787943  1
  O2-  O230  1  0.20440718  0.33907319  0.72975936  1
  O2-  O231  1  0.20592008  0.83835140  0.05981213  1
  O2-  O232  1  0.19497487  0.83430916  0.39663573  1
  O2-  O233  1  0.20477451  0.83047257  0.73481903  1
  O2-  O234  1  0.70736700  0.33654266  0.06243558  1
  O2-  O235  1  0.71179031  0.33106596  0.40014241  1
  O2-  O236  1  0.71228853  0.33255060  0.73685589  1
  O2-  O237  1  0.69367643  0.82923158  0.05821806  1
  O2-  O238  1  0.71235999  0.83224442  0.39812635  1
  O2-  O239  1  0.70878548  0.83007539  0.73630609  1
  O2-  O240  1  0.46104119  0.41871690  0.26489531  1
  O2-  O241  1  0.45638203  0.41785963  0.60770678  1
  O2-  O242  1  0.45852135  0.41309011  0.93584187  1
  O2-  O243  1  0.45854598  0.91759017  0.26621638  1
  O2-  O244  1  0.45626134  0.91336855  0.60888411  1
  O2-  O245  1  0.46313993  0.91690625  0.92715882  1
  O2-  O246  1  0.95196760  0.42320065  0.26794211  1
  O2-  O247  1  0.95666343  0.41426758  0.60486427  1
  O2-  O248  1  0.94392912  0.41612488  0.93695511  1
  O2-  O249  1  0.95959216  0.91560447  0.26431321  1
  O2-  O250  1  0.95869954  0.91800980  0.59733462  1
  O2-  O251  1  0.95679182  0.92001125  0.93073756  1
  O2-  O252  1  0.33078647  0.29719518  0.26641544  1
  O2-  O253  1  0.33282485  0.30391152  0.60661729  1
  O2-  O254  1  0.33948147  0.29309275  0.93576898  1
  O2-  O255  1  0.32682078  0.79668603  0.27157242  1
  O2-  O256  1  0.33687839  0.79177425  0.60634766  1
  O2-  O257  1  0.33370506  0.79222415  0.92835640  1
  O2-  O258  1  0.83118242  0.29511609  0.26361822  1
  O2-  O259  1  0.83777465  0.29375248  0.60651033  1
  O2-  O260  1  0.83277803  0.28891968  0.93400515  1
  O2-  O261  1  0.83503206  0.78828976  0.26254858  1
  O2-  O262  1  0.83250817  0.78617901  0.59894973  1
  O2-  O263  1  0.82718562  0.79334503  0.93215270  1
  O2-  O264  1  0.41563293  0.04227139  0.06011354  1
  O2-  O265  1  0.41653615  0.03982056  0.40015295  1
  O2-  O266  1  0.41845652  0.04241254  0.73822176  1
  O2-  O267  1  0.41844500  0.54163116  0.06786165  1
  O2-  O268  1  0.41664998  0.53970660  0.40370887  1
  O2-  O269  1  0.41101204  0.54250241  0.73372298  1
  O2-  O270  1  0.91964081  0.04206456  0.06735753  1
  O2-  O271  1  0.91801920  0.04492781  0.39532316  1
  O2-  O272  1  0.91644444  0.04678127  0.72792480  1
  O2-  O273  1  0.91018464  0.54529055  0.06260287  1
  O2-  O274  1  0.91845071  0.55167655  0.39657113  1
  O2-  O275  1  0.91723014  0.54520761  0.73044886  1
  O2-  O276  1  0.29619586  0.16327991  0.05969739  1
  O2-  O277  1  0.29062149  0.16773801  0.39997255  1
  O2-  O278  1  0.29517745  0.17295206  0.73525612  1
  O2-  O279  1  0.29425756  0.67337011  0.06682050  1
  O2-  O280  1  0.28878864  0.66755732  0.40637538  1
  O2-  O281  1  0.29414530  0.66311869  0.73029136  1
  O2-  O282  1  0.78783357  0.16364946  0.07024947  1
  O2-  O283  1  0.80162259  0.16630534  0.39409321  1
  O2-  O284  1  0.79633754  0.16454373  0.73012473  1
  O2-  O285  1  0.78986920  0.66344787  0.06115958  1
  O2-  O286  1  0.79538209  0.66582275  0.39591982  1
  O2-  O287  1  0.79526107  0.66290055  0.73223225  1
