# generated using pymatgen
data_Ca2Al2SiO7
_symmetry_space_group_name_H-M   'P 1'
_cell_length_a   15.45815421
_cell_length_b   15.45758513
_cell_length_c   15.28297621
_cell_angle_alpha   89.99561188
_cell_angle_beta   89.99122214
_cell_angle_gamma   90.00677107
_symmetry_Int_Tables_number   1
_chemical_formula_structural   Ca2Al2SiO7
_chemical_formula_sum   'Ca48 Al48 Si24 O168'
_cell_volume   3651.80189754
_cell_formula_units_Z   24
loop_
 _symmetry_equiv_pos_site_id
 _symmetry_equiv_pos_as_xyz
  1  'x, y, z'
loop_
 _atom_type_symbol
 _atom_type_oxidation_number
  Ca2+  2.0
  Al0+  0.0
  Si0+  0.0
  O2-  -2.0
loop_
 _atom_site_type_symbol
 _atom_site_label
 _atom_site_symmetry_multiplicity
 _atom_site_fract_x
 _atom_site_fract_y
 _atom_site_fract_z
 _atom_site_occupancy
  Ca2+  Ca0  1  0.17425346  0.07696630  0.16351922  1
  Ca2+  Ca1  1  0.17382268  0.08185702  0.51052271  1
  Ca2+  Ca2  1  0.17869875  0.08173530  0.83737361  1
  Ca2+  Ca3  1  0.17946781  0.58967265  0.16578310  1
  Ca2+  Ca4  1  0.17174400  0.57682334  0.50688298  1
  Ca2+  Ca5  1  0.16679286  0.58013160  0.83719066  1
  Ca2+  Ca6  1  0.67664310  0.08558815  0.16952569  1
  Ca2+  Ca7  1  0.67442614  0.08945283  0.50745494  1
  Ca2+  Ca8  1  0.67421031  0.09198118  0.83545832  1
  Ca2+  Ca9  1  0.65695468  0.57353015  0.17060572  1
  Ca2+  Ca10  1  0.66313915  0.58013756  0.50217674  1
  Ca2+  Ca11  1  0.67776870  0.58021817  0.84168010  1
  Ca2+  Ca12  1  0.07888314  0.33122983  0.16182348  1
  Ca2+  Ca13  1  0.08669820  0.32916955  0.50362926  1
  Ca2+  Ca14  1  0.08397115  0.32830517  0.82228616  1
  Ca2+  Ca15  1  0.08475765  0.82905759  0.15584653  1
  Ca2+  Ca16  1  0.08312925  0.82578907  0.49995427  1
  Ca2+  Ca17  1  0.09028387  0.82229413  0.83210783  1
  Ca2+  Ca18  1  0.57776114  0.34041898  0.16298301  1
  Ca2+  Ca19  1  0.57632138  0.33267472  0.49679473  1
  Ca2+  Ca20  1  0.57386514  0.33146065  0.83067823  1
  Ca2+  Ca21  1  0.57343580  0.82742730  0.16316517  1
  Ca2+  Ca22  1  0.57290155  0.82732584  0.49426769  1
  Ca2+  Ca23  1  0.57142084  0.83608316  0.82843927  1
  Ca2+  Ca24  1  0.34672973  0.42878454  0.16954617  1
  Ca2+  Ca25  1  0.33626986  0.41947595  0.50442334  1
  Ca2+  Ca26  1  0.33009171  0.41464962  0.83861990  1
  Ca2+  Ca27  1  0.33219721  0.91035784  0.16539405  1
  Ca2+  Ca28  1  0.34025603  0.91993875  0.50726589  1
  Ca2+  Ca29  1  0.33587424  0.92591985  0.84109712  1
  Ca2+  Ca30  1  0.81882406  0.42086859  0.16749859  1
  Ca2+  Ca31  1  0.82296593  0.42109398  0.50603585  1
  Ca2+  Ca32  1  0.82725965  0.42485914  0.83946899  1
  Ca2+  Ca33  1  0.83623193  0.92754742  0.17024194  1
  Ca2+  Ca34  1  0.82892725  0.92478768  0.50589180  1
  Ca2+  Ca35  1  0.83330922  0.92737838  0.83652671  1
  Ca2+  Ca36  1  0.41399886  0.18012808  0.15800186  1
  Ca2+  Ca37  1  0.41683725  0.17676417  0.50128340  1
  Ca2+  Ca38  1  0.41564204  0.17335072  0.82296183  1
  Ca2+  Ca39  1  0.41538257  0.66975903  0.16230980  1
  Ca2+  Ca40  1  0.41600450  0.67645544  0.49007426  1
  Ca2+  Ca41  1  0.40599657  0.67910250  0.83272019  1
  Ca2+  Ca42  1  0.91281145  0.16394299  0.16160333  1
  Ca2+  Ca43  1  0.92159563  0.15754341  0.49807653  1
  Ca2+  Ca44  1  0.92119690  0.16333097  0.82633053  1
  Ca2+  Ca45  1  0.92507079  0.66258299  0.15599017  1
  Ca2+  Ca46  1  0.92223987  0.65700101  0.50176336  1
  Ca2+  Ca47  1  0.92497127  0.65764155  0.82740483  1
  Al0+  Al48  1  0.00092539  -0.00105469  0.00636391  1
  Al0+  Al49  1  0.00226161  -0.00112944  0.33658812  1
  Al0+  Al50  1  -0.00030759  -0.00209926  0.66612372  1
  Al0+  Al51  1  -0.00088057  0.49817096  -0.00055365  1
  Al0+  Al52  1  0.00021967  0.49690430  0.33100154  1
  Al0+  Al53  1  0.00130544  0.49875389  0.66787978  1
  Al0+  Al54  1  0.50273188  0.00221926  0.00160602  1
  Al0+  Al55  1  0.50065448  0.00045897  0.32898397  1
  Al0+  Al56  1  0.50113714  0.00125278  0.66173830  1
  Al0+  Al57  1  0.49931836  0.49955892  -0.00110172  1
  Al0+  Al58  1  0.49965083  0.50060303  0.33834500  1
  Al0+  Al59  1  0.49909495  0.50244181  0.66681552  1
  Al0+  Al60  1  0.24853078  0.24901175  0.00094893  1
  Al0+  Al61  1  0.24854827  0.24841261  0.32732111  1
  Al0+  Al62  1  0.24824915  0.24991917  0.66532899  1
  Al0+  Al63  1  0.24877540  0.74901421  -0.00207334  1
  Al0+  Al64  1  0.24791065  0.74960688  0.33526294  1
  Al0+  Al65  1  0.24798119  0.74912943  0.65580847  1
  Al0+  Al66  1  0.74995754  0.25173286  0.00695659  1
  Al0+  Al67  1  0.75177449  0.25200046  0.34263979  1
  Al0+  Al68  1  0.74954603  0.25185253  0.66870555  1
  Al0+  Al69  1  0.75208032  0.75216495  0.00248851  1
  Al0+  Al70  1  0.75166615  0.75119170  0.32902762  1
  Al0+  Al71  1  0.75001764  0.75129065  0.67141764  1
  Al0+  Al72  1  0.57140071  0.67863983  0.31854876  1
  Al0+  Al73  1  0.32136715  0.06957767  0.67764426  1
  Al0+  Al74  1  0.06910520  0.67733883  0.65092007  1
  Al0+  Al75  1  0.31839257  0.56958582  0.01077642  1
  Al0+  Al76  1  0.42933344  0.31913510  0.31885641  1
  Al0+  Al77  1  0.82150746  0.07168006  0.68093812  1
  Al0+  Al78  1  0.67865194  0.43182902  0.35019895  1
  Al0+  Al79  1  0.42835973  0.32140334  0.98542246  1
  Al0+  Al80  1  0.18236311  0.92889391  0.01318384  1
  Al0+  Al81  1  0.82006338  0.57081612  0.67937211  1
  Al0+  Al82  1  0.06929288  0.17703934  0.65404735  1
  Al0+  Al83  1  0.18160325  0.42949638  0.67935558  1
  Al0+  Al84  1  0.42692391  0.32291204  0.65188378  1
  Al0+  Al85  1  0.82346290  0.57297073  0.01559407  1
  Al0+  Al86  1  0.82022943  0.06969737  0.01358537  1
  Al0+  Al87  1  0.42654021  0.82241012  0.31584712  1
  Al0+  Al88  1  0.06919720  0.67864778  0.98558834  1
  Al0+  Al89  1  0.42895217  0.82060985  0.65329164  1
  Al0+  Al90  1  0.57287432  0.18033665  0.65191315  1
  Al0+  Al91  1  0.31897117  0.57016755  0.34799116  1
  Al0+  Al92  1  0.82057912  0.06963286  0.34969157  1
  Al0+  Al93  1  0.67873402  0.43171649  0.01489804  1
  Al0+  Al94  1  0.43020097  0.82088423  0.98540020  1
  Al0+  Al95  1  0.32464983  0.07355826  0.01544035  1
  Si0+  Si96  1  0.92844784  0.31979439  0.31813955  1
  Si0+  Si97  1  0.06853502  0.67744646  0.31769089  1
  Si0+  Si98  1  0.32110505  0.07239907  0.34765006  1
  Si0+  Si99  1  0.92775391  0.82478758  0.98310348  1
  Si0+  Si100  1  0.82533835  0.57330075  0.34885350  1
  Si0+  Si101  1  0.57552363  0.17929523  0.31668890  1
  Si0+  Si102  1  0.67780823  0.92869416  0.68356282  1
  Si0+  Si103  1  0.93107224  0.82288915  0.31836481  1
  Si0+  Si104  1  0.67746548  0.92682504  0.35006617  1
  Si0+  Si105  1  0.67515364  0.42854095  0.68526007  1
  Si0+  Si106  1  0.07003018  0.17651745  0.31598045  1
  Si0+  Si107  1  0.17794092  0.92537863  0.68154092  1
  Si0+  Si108  1  0.92837493  0.32188137  0.65016161  1
  Si0+  Si109  1  0.67618580  0.92670943  0.01832328  1
  Si0+  Si110  1  0.57353053  0.67750260  0.98251455  1
  Si0+  Si111  1  0.57431101  0.17946684  0.98553060  1
  Si0+  Si112  1  0.17646735  0.42529115  0.01693216  1
  Si0+  Si113  1  0.06946043  0.17747142  0.98545116  1
  Si0+  Si114  1  0.92615021  0.82169564  0.64981882  1
  Si0+  Si115  1  0.32185869  0.57453454  0.68252294  1
  Si0+  Si116  1  0.57494094  0.67959924  0.65251248  1
  Si0+  Si117  1  0.17996066  0.92927315  0.35041814  1
  Si0+  Si118  1  0.92811266  0.31898359  0.98529213  1
  Si0+  Si119  1  0.17557606  0.42547477  0.34914989  1
  O2-  O120  1  0.25660799  -0.00260226  0.06581359  1
  O2-  O121  1  0.25528596  -0.00358761  0.39052659  1
  O2-  O122  1  0.24801860  -0.00695510  0.72404943  1
  O2-  O123  1  0.24670710  0.49242760  0.06014589  1
  O2-  O124  1  0.24562441  0.49275146  0.39243615  1
  O2-  O125  1  0.25781492  0.50181636  0.72669851  1
  O2-  O126  1  0.74709022  -0.00556118  0.06134490  1
  O2-  O127  1  0.74326534  -0.00220722  0.39588936  1
  O2-  O128  1  0.74492113  -0.00058229  0.72777613  1
  O2-  O129  1  0.74620209  0.50796552  0.06637197  1
  O2-  O130  1  0.75225923  0.51000190  0.39358812  1
  O2-  O131  1  0.74330958  0.49914374  0.72680453  1
  O2-  O132  1  -0.00183242  0.24742406  0.27496770  1
  O2-  O133  1  -0.00836100  0.24811908  0.60513800  1
  O2-  O134  1  -0.00010601  0.24931023  0.94264101  1
  O2-  O135  1  -0.00436244  0.74636822  0.27588872  1
  O2-  O136  1  -0.00741015  0.75095683  0.60454123  1
  O2-  O137  1  -0.00912519  0.75075424  0.93942303  1
  O2-  O138  1  0.50438717  0.24453717  0.27137336  1
  O2-  O139  1  0.50129123  0.25283347  0.60207794  1
  O2-  O140  1  0.50007034  0.24227652  0.94179501  1
  O2-  O141  1  0.49868316  0.74965848  0.26767833  1
  O2-  O142  1  0.50222353  0.74380761  0.60821289  1
  O2-  O143  1  0.50672185  0.74789354  0.93775289  1
  O2-  O144  1  0.06762687  0.17873024  0.09116402  1
  O2-  O145  1  0.07087716  0.17556029  0.42096538  1
  O2-  O146  1  0.06865276  0.17827920  0.76722218  1
  O2-  O147  1  0.06921723  0.68100145  0.09942632  1
  O2-  O148  1  0.06714082  0.67723369  0.42279444  1
  O2-  O149  1  0.06966505  0.67835775  0.76371927  1
  O2-  O150  1  0.57761169  0.18215574  0.09129097  1
  O2-  O151  1  0.57523016  0.18088224  0.42213390  1
  O2-  O152  1  0.57396714  0.18192377  0.76561779  1
  O2-  O153  1  0.57137041  0.67776577  0.08804815  1
  O2-  O154  1  0.57126324  0.68185347  0.43261173  1
  O2-  O155  1  0.57825414  0.68275483  0.75791840  1
  O2-  O156  1  0.17031791  0.42663961  0.24380047  1
  O2-  O157  1  0.18014534  0.43130185  0.56598046  1
  O2-  O158  1  0.17501538  0.42425124  0.91139283  1
  O2-  O159  1  0.17592756  0.93006424  0.24558426  1
  O2-  O160  1  0.17736699  0.92685893  0.57530083  1
  O2-  O161  1  0.18139667  0.93090190  0.89977999  1
  O2-  O162  1  0.68105426  0.42981823  0.23744103  1
  O2-  O163  1  0.67619959  0.42877157  0.57945634  1
  O2-  O164  1  0.68232425  0.43005670  0.90140319  1
  O2-  O165  1  0.68103043  0.92741239  0.24460050  1
  O2-  O166  1  0.68093774  0.92603558  0.57797128  1
  O2-  O167  1  0.67571327  0.92679269  0.91273475  1
  O2-  O168  1  0.43081030  0.32247835  0.09878642  1
  O2-  O169  1  0.42744704  0.31708722  0.43165824  1
  O2-  O170  1  0.42707503  0.32125991  0.76554022  1
  O2-  O171  1  0.43044946  0.81739683  0.09816079  1
  O2-  O172  1  0.42763726  0.82205647  0.42961244  1
  O2-  O173  1  0.42816544  0.82067022  0.76654517  1
  O2-  O174  1  0.92912875  0.31737155  0.09090169  1
  O2-  O175  1  0.93069728  0.32185802  0.42293632  1
  O2-  O176  1  0.93094778  0.32214615  0.75602517  1
  O2-  O177  1  0.93170104  0.82755894  0.08912331  1
  O2-  O178  1  0.93433738  0.82570038  0.42328966  1
  O2-  O179  1  0.92685858  0.82361713  0.75506042  1
  O2-  O180  1  0.31642559  0.07483295  0.24293047  1
  O2-  O181  1  0.31883233  0.06870642  0.56381609  1
  O2-  O182  1  0.32138617  0.07473140  0.90178286  1
  O2-  O183  1  0.31665300  0.57141913  0.23467462  1
  O2-  O184  1  0.31932886  0.57519805  0.57674337  1
  O2-  O185  1  0.31485959  0.57052063  0.89784512  1
  O2-  O186  1  0.82183442  0.06819775  0.23642147  1
  O2-  O187  1  0.82206570  0.06729933  0.56782271  1
  O2-  O188  1  0.82073265  0.07026131  0.90070668  1
  O2-  O189  1  0.83091050  0.56908796  0.24401111  1
  O2-  O190  1  0.81878745  0.56809930  0.56577499  1
  O2-  O191  1  0.82437022  0.56788652  0.90195646  1
  O2-  O192  1  0.04088007  0.08470282  0.26916849  1
  O2-  O193  1  0.04106913  0.07987229  0.59839573  1
  O2-  O194  1  0.03967982  0.08585896  0.93993610  1
  O2-  O195  1  0.04359876  0.58477919  0.27038258  1
  O2-  O196  1  0.03691994  0.58123971  0.59602261  1
  O2-  O197  1  0.04062617  0.58029153  0.93304866  1
  O2-  O198  1  0.55528119  0.08394492  0.27188575  1
  O2-  O199  1  0.54752558  0.08214686  0.59703292  1
  O2-  O200  1  0.55818916  0.08343207  0.94128850  1
  O2-  O201  1  0.54137875  0.58019204  0.26794841  1
  O2-  O202  1  0.55363561  0.58437022  0.60837471  1
  O2-  O203  1  0.54784232  0.58460266  0.93605191  1
  O2-  O204  1  0.16008192  0.20495421  0.26563058  1
  O2-  O205  1  0.16308135  0.21139161  0.59702669  1
  O2-  O206  1  0.16150734  0.20398388  0.93865700  1
  O2-  O207  1  0.15936886  0.70915961  0.27159384  1
  O2-  O208  1  0.16251571  0.70951382  0.59154243  1
  O2-  O209  1  0.16366437  0.71204671  0.92987227  1
  O2-  O210  1  0.66993130  0.20787302  0.27343472  1
  O2-  O211  1  0.67198884  0.20887774  0.59886935  1
  O2-  O212  1  0.66623494  0.21163763  0.93873314  1
  O2-  O213  1  0.67127801  0.70436478  0.26548545  1
  O2-  O214  1  0.66697090  0.70837250  0.60421950  1
  O2-  O215  1  0.66952523  0.70180633  0.93973585  1
  O2-  O216  1  0.08311516  0.45164065  0.06315799  1
  O2-  O217  1  0.08272120  0.45282674  0.39689673  1
  O2-  O218  1  0.08555886  0.46063007  0.73439602  1
  O2-  O219  1  0.08566753  0.95962760  0.07004833  1
  O2-  O220  1  0.09071562  0.96176741  0.40033328  1
  O2-  O221  1  0.08421262  0.94954861  0.72693347  1
  O2-  O222  1  0.57988671  0.45790784  0.06759766  1
  O2-  O223  1  0.58355604  0.46151627  0.40669208  1
  O2-  O224  1  0.58117548  0.45315325  0.73077926  1
  O2-  O225  1  0.58497954  0.95446716  0.06758114  1
  O2-  O226  1  0.58204293  0.94965996  0.39380025  1
  O2-  O227  1  0.58394787  0.95381730  0.72822030  1
  O2-  O228  1  0.19773124  0.33122335  0.06363333  1
  O2-  O229  1  0.19947596  0.32989595  0.39212850  1
  O2-  O230  1  0.20777765  0.33233031  0.73409102  1
  O2-  O231  1  0.20791274  0.83042931  0.06740211  1
  O2-  O232  1  0.20169906  0.83597841  0.39768335  1
  O2-  O233  1  0.20262899  0.83026000  0.72402731  1
  O2-  O234  1  0.71242723  0.33635520  0.07139531  1
  O2-  O235  1  0.71402966  0.33781261  0.40662367  1
  O2-  O236  1  0.70328303  0.33633734  0.73184599  1
  O2-  O237  1  0.70026187  0.83317806  0.06515261  1
  O2-  O238  1  0.70686505  0.83413594  0.39668077  1
  O2-  O239  1  0.70486554  0.83712631  0.73326051  1
  O2-  O240  1  0.46148491  0.41687791  0.26931666  1
  O2-  O241  1  0.45283845  0.42355308  0.60119078  1
  O2-  O242  1  0.45994782  0.41709670  0.93018006  1
  O2-  O243  1  0.45365959  0.92171355  0.26341683  1
  O2-  O244  1  0.46179882  0.91546130  0.59751307  1
  O2-  O245  1  0.46030148  0.91989834  0.93479696  1
  O2-  O246  1  0.95814103  0.41004405  0.26771281  1
  O2-  O247  1  0.96042006  0.41214762  0.60157119  1
  O2-  O248  1  0.95499875  0.41049465  0.93737917  1
  O2-  O249  1  0.96605264  0.91216655  0.26936852  1
  O2-  O250  1  0.95496618  0.91327098  0.60079689  1
  O2-  O251  1  0.95893226  0.91680348  0.93650116  1
  O2-  O252  1  0.33219950  0.28957434  0.26399114  1
  O2-  O253  1  0.33004813  0.29177663  0.59774687  1
  O2-  O254  1  0.32911203  0.29304374  0.93508589  1
  O2-  O255  1  0.32619905  0.79331263  0.26691310  1
  O2-  O256  1  0.33339100  0.79228822  0.59579523  1
  O2-  O257  1  0.33418790  0.78821133  0.93178205  1
  O2-  O258  1  0.83643466  0.29146218  0.27184645  1
  O2-  O259  1  0.83276402  0.30242442  0.60654024  1
  O2-  O260  1  0.83666838  0.28981083  0.93868384  1
  O2-  O261  1  0.83751728  0.80392485  0.27112628  1
  O2-  O262  1  0.83163314  0.79840996  0.60424722  1
  O2-  O263  1  0.83132194  0.80794516  0.93945465  1
  O2-  O264  1  0.42535290  0.05366083  0.06623586  1
  O2-  O265  1  0.41597742  0.05029905  0.39131227  1
  O2-  O266  1  0.41921024  0.04199391  0.73001692  1
  O2-  O267  1  0.41568817  0.54159376  0.06438068  1
  O2-  O268  1  0.41474565  0.54196910  0.40350299  1
  O2-  O269  1  0.41779636  0.55748249  0.72683045  1
  O2-  O270  1  0.91573723  0.03914086  0.07034212  1
  O2-  O271  1  0.91742288  0.03496567  0.40166253  1
  O2-  O272  1  0.91769617  0.03774054  0.73429986  1
  O2-  O273  1  0.91945905  0.53734979  0.06946054  1
  O2-  O274  1  0.91695853  0.54052761  0.39660691  1
  O2-  O275  1  0.91561753  0.53652346  0.73241609  1
  O2-  O276  1  0.28741248  0.16871339  0.07064251  1
  O2-  O277  1  0.28623899  0.16221573  0.39503599  1
  O2-  O278  1  0.28668149  0.16463080  0.73105052  1
  O2-  O279  1  0.28421402  0.66403918  0.06643832  1
  O2-  O280  1  0.28440912  0.66584060  0.40248019  1
  O2-  O281  1  0.28876052  0.66710298  0.72613606  1
  O2-  O282  1  0.78963106  0.16526846  0.06976040  1
  O2-  O283  1  0.79576057  0.16710041  0.40399219  1
  O2-  O284  1  0.79521274  0.17013413  0.73365343  1
  O2-  O285  1  0.80713449  0.67571915  0.06384758  1
  O2-  O286  1  0.80747206  0.67040959  0.39066302  1
  O2-  O287  1  0.79499971  0.66869515  0.73393594  1
