# generated using pymatgen
data_Ca2Al2SiO7
_symmetry_space_group_name_H-M   'P 1'
_cell_length_a   15.46230283
_cell_length_b   15.46519968
_cell_length_c   15.28806520
_cell_angle_alpha   89.99296677
_cell_angle_beta   90.00143238
_cell_angle_gamma   89.99251984
_symmetry_Int_Tables_number   1
_chemical_formula_structural   Ca2Al2SiO7
_chemical_formula_sum   'Ca48 Al48 Si24 O168'
_cell_volume   3655.79829086
_cell_formula_units_Z   24
loop_
 _symmetry_equiv_pos_site_id
 _symmetry_equiv_pos_as_xyz
  1  'x, y, z'
loop_
 _atom_type_symbol
 _atom_type_oxidation_number
  Ca2+  2.0
  Al0+  0.0
  Si0+  0.0
  O2-  -2.0
loop_
 _atom_site_type_symbol
 _atom_site_label
 _atom_site_symmetry_multiplicity
 _atom_site_fract_x
 _atom_site_fract_y
 _atom_site_fract_z
 _atom_site_occupancy
  Ca2+  Ca0  1  0.15957927  0.08454508  0.17074522  1
  Ca2+  Ca1  1  0.16728441  0.08280504  0.50039424  1
  Ca2+  Ca2  1  0.16690435  0.08379923  0.84122003  1
  Ca2+  Ca3  1  0.16751798  0.56996742  0.17721278  1
  Ca2+  Ca4  1  0.17442307  0.58790037  0.50287393  1
  Ca2+  Ca5  1  0.17412840  0.58448539  0.83676979  1
  Ca2+  Ca6  1  0.67094036  0.08829337  0.16575546  1
  Ca2+  Ca7  1  0.66226534  0.07325687  0.50614203  1
  Ca2+  Ca8  1  0.66666067  0.07648124  0.84134878  1
  Ca2+  Ca9  1  0.67496069  0.58737535  0.17396631  1
  Ca2+  Ca10  1  0.67164575  0.58015068  0.50261194  1
  Ca2+  Ca11  1  0.67379168  0.58103179  0.83823211  1
  Ca2+  Ca12  1  0.08479859  0.32968525  0.15841090  1
  Ca2+  Ca13  1  0.08546378  0.32932898  0.49085111  1
  Ca2+  Ca14  1  0.07894992  0.33894135  0.83807520  1
  Ca2+  Ca15  1  0.07705970  0.82206631  0.16452021  1
  Ca2+  Ca16  1  0.08272395  0.81667314  0.49629960  1
  Ca2+  Ca17  1  0.07301100  0.82755101  0.82889526  1
  Ca2+  Ca18  1  0.57844159  0.33947308  0.16456163  1
  Ca2+  Ca19  1  0.57557989  0.34952479  0.49743673  1
  Ca2+  Ca20  1  0.58664870  0.32822939  0.82638200  1
  Ca2+  Ca21  1  0.58034238  0.81938698  0.16524166  1
  Ca2+  Ca22  1  0.57579490  0.82738152  0.49441665  1
  Ca2+  Ca23  1  0.58243268  0.82749539  0.82870514  1
  Ca2+  Ca24  1  0.32389316  0.41700838  0.17623110  1
  Ca2+  Ca25  1  0.33697717  0.42825237  0.50086598  1
  Ca2+  Ca26  1  0.32947804  0.41841717  0.83403705  1
  Ca2+  Ca27  1  0.33637597  0.91982074  0.17281752  1
  Ca2+  Ca28  1  0.33829992  0.91297683  0.50567379  1
  Ca2+  Ca29  1  0.33337678  0.91428107  0.83487809  1
  Ca2+  Ca30  1  0.83003797  0.42484069  0.17241840  1
  Ca2+  Ca31  1  0.82266612  0.42663652  0.50300243  1
  Ca2+  Ca32  1  0.83469359  0.42656083  0.83863332  1
  Ca2+  Ca33  1  0.84032430  0.92154488  0.16532958  1
  Ca2+  Ca34  1  0.82443255  0.91736254  0.50574829  1
  Ca2+  Ca35  1  0.82961596  0.91873256  0.84156093  1
  Ca2+  Ca36  1  0.42332420  0.17588191  0.16373013  1
  Ca2+  Ca37  1  0.41730199  0.18340032  0.49553535  1
  Ca2+  Ca38  1  0.42216403  0.17533044  0.82940915  1
  Ca2+  Ca39  1  0.42939065  0.65558863  0.16977598  1
  Ca2+  Ca40  1  0.41595820  0.67140080  0.48990326  1
  Ca2+  Ca41  1  0.42325395  0.66651083  0.82542641  1
  Ca2+  Ca42  1  0.92435129  0.17568158  0.15529771  1
  Ca2+  Ca43  1  0.92252053  0.17036858  0.49208770  1
  Ca2+  Ca44  1  0.91482565  0.17136107  0.83727592  1
  Ca2+  Ca45  1  0.91622919  0.66327913  0.16073112  1
  Ca2+  Ca46  1  0.92371866  0.65446799  0.49754894  1
  Ca2+  Ca47  1  0.91782813  0.66153258  0.83107261  1
  Al0+  Al48  1  -0.00038718  -0.00129450  -0.00329192  1
  Al0+  Al49  1  0.00107706  0.00067295  0.33280903  1
  Al0+  Al50  1  0.00082627  -0.00119024  0.66518530  1
  Al0+  Al51  1  0.00163833  0.49904631  0.00354341  1
  Al0+  Al52  1  -0.00076053  0.49750100  0.33623282  1
  Al0+  Al53  1  0.00049263  0.49708982  0.66447825  1
  Al0+  Al54  1  0.49883148  0.00052464  -0.00158394  1
  Al0+  Al55  1  0.49964963  0.00132526  0.33045539  1
  Al0+  Al56  1  0.49969218  0.00071055  0.66924247  1
  Al0+  Al57  1  0.49951134  0.50149364  -0.00692165  1
  Al0+  Al58  1  0.49821386  0.50108553  0.32957306  1
  Al0+  Al59  1  0.50010651  0.49943708  0.67225242  1
  Al0+  Al60  1  0.25090744  0.24846390  -0.00024964  1
  Al0+  Al61  1  0.25190679  0.24725627  0.32948298  1
  Al0+  Al62  1  0.25188568  0.24921959  0.66347669  1
  Al0+  Al63  1  0.25079654  0.75138441  0.00383462  1
  Al0+  Al64  1  0.24568956  0.75263306  0.32677013  1
  Al0+  Al65  1  0.24875731  0.75022063  0.66613887  1
  Al0+  Al66  1  0.74969554  0.24886965  -0.00423608  1
  Al0+  Al67  1  0.75078148  0.24914551  0.33954191  1
  Al0+  Al68  1  0.75232800  0.24789806  0.66604555  1
  Al0+  Al69  1  0.74802359  0.75018271  -0.00373861  1
  Al0+  Al70  1  0.74970173  0.75371305  0.33528807  1
  Al0+  Al71  1  0.75044059  0.75220222  0.67428251  1
  Al0+  Al72  1  0.67776555  0.42823182  0.34631864  1
  Al0+  Al73  1  0.67782603  0.93078894  0.68154862  1
  Al0+  Al74  1  0.43112464  0.32197317  0.31936723  1
  Al0+  Al75  1  0.57101961  0.17934464  0.98640224  1
  Al0+  Al76  1  0.17924659  0.42487972  0.34919216  1
  Al0+  Al77  1  0.06816864  0.67634519  0.31898831  1
  Al0+  Al78  1  0.31959882  0.57278579  0.68026071  1
  Al0+  Al79  1  0.92943403  0.81949081  0.98689027  1
  Al0+  Al80  1  0.06909894  0.67802979  0.65467042  1
  Al0+  Al81  1  0.57010983  0.67888787  0.98373676  1
  Al0+  Al82  1  0.92892246  0.32332804  0.98493788  1
  Al0+  Al83  1  0.42987984  0.82034749  0.65469826  1
  Al0+  Al84  1  0.82137995  0.57474901  0.34823253  1
  Al0+  Al85  1  0.57173598  0.67933566  0.32021628  1
  Al0+  Al86  1  0.07052488  0.17947972  0.31981663  1
  Al0+  Al87  1  0.82051176  0.07059539  0.01398440  1
  Al0+  Al88  1  0.42683104  0.82325136  0.31767110  1
  Al0+  Al89  1  0.67842951  0.42827536  0.68332812  1
  Al0+  Al90  1  0.43006897  0.32177681  0.65228739  1
  Al0+  Al91  1  0.31823490  0.57261063  0.34667029  1
  Al0+  Al92  1  0.81906894  0.57102961  0.01404143  1
  Al0+  Al93  1  0.07190345  0.17891368  0.98337958  1
  Al0+  Al94  1  0.18215298  0.42982411  0.01275480  1
  Al0+  Al95  1  0.82312965  0.56999793  0.68343628  1
  Si0+  Si96  1  0.32103067  0.06970719  0.01588605  1
  Si0+  Si97  1  0.17895111  0.92918058  0.68180417  1
  Si0+  Si98  1  0.67616677  0.42698747  0.01473447  1
  Si0+  Si99  1  0.42710816  0.82276167  0.98305440  1
  Si0+  Si100  1  0.17803667  0.92859471  0.01619001  1
  Si0+  Si101  1  0.82527842  0.07068799  0.68371349  1
  Si0+  Si102  1  0.57310322  0.17821588  0.64989114  1
  Si0+  Si103  1  0.82269671  0.07011586  0.34845363  1
  Si0+  Si104  1  0.07159821  0.17717542  0.65095009  1
  Si0+  Si105  1  0.17914188  0.42472476  0.68253917  1
  Si0+  Si106  1  0.32285906  0.06923288  0.34928056  1
  Si0+  Si107  1  0.92753195  0.82332470  0.31860810  1
  Si0+  Si108  1  0.31929613  0.07209479  0.68213333  1
  Si0+  Si109  1  0.92615312  0.32021427  0.31767759  1
  Si0+  Si110  1  0.07324032  0.67724961  0.98441407  1
  Si0+  Si111  1  0.92902774  0.31986524  0.64907642  1
  Si0+  Si112  1  0.67749790  0.93133558  0.34739122  1
  Si0+  Si113  1  0.57358733  0.67847500  0.65093498  1
  Si0+  Si114  1  0.32384929  0.57454164  0.01729677  1
  Si0+  Si115  1  0.42786806  0.32165671  0.98220886  1
  Si0+  Si116  1  0.17739905  0.93054801  0.34922331  1
  Si0+  Si117  1  0.92717322  0.82344719  0.64952720  1
  Si0+  Si118  1  0.67606660  0.92859136  0.01940196  1
  Si0+  Si119  1  0.57362420  0.17669625  0.31826587  1
  O2-  O120  1  0.24903002  -0.00014733  0.05839439  1
  O2-  O121  1  0.25288944  -0.00296757  0.39172671  1
  O2-  O122  1  0.24909596  0.00058300  0.72503283  1
  O2-  O123  1  0.25538123  0.50529965  0.05961894  1
  O2-  O124  1  0.24683231  0.50103734  0.39930964  1
  O2-  O125  1  0.24526317  0.49652913  0.72573546  1
  O2-  O126  1  0.74559766  -0.00303226  0.06344986  1
  O2-  O127  1  0.74931908  0.00170729  0.39023353  1
  O2-  O128  1  0.75420068  0.00446301  0.72701393  1
  O2-  O129  1  0.74438693  0.49558205  0.05938308  1
  O2-  O130  1  0.74746781  0.50304256  0.39558613  1
  O2-  O131  1  0.74978369  0.49991633  0.73441403  1
  O2-  O132  1  -0.00053363  0.25650751  0.27338938  1
  O2-  O133  1  0.00092087  0.24785628  0.60873224  1
  O2-  O134  1  0.00062146  0.25076661  0.93299898  1
  O2-  O135  1  -0.01174131  0.74743546  0.27496002  1
  O2-  O136  1  -0.00938824  0.74952721  0.60707720  1
  O2-  O137  1  0.00260828  0.74361949  0.93972674  1
  O2-  O138  1  0.51093605  0.25095532  0.27490186  1
  O2-  O139  1  0.51050917  0.25200204  0.60571907  1
  O2-  O140  1  0.50101775  0.25744537  0.93841495  1
  O2-  O141  1  0.49584035  0.74809287  0.26940418  1
  O2-  O142  1  0.50277040  0.74535424  0.60687063  1
  O2-  O143  1  0.49253204  0.75198488  0.93880683  1
  O2-  O144  1  0.07122590  0.17959834  0.09675771  1
  O2-  O145  1  0.06744358  0.17595266  0.43366693  1
  O2-  O146  1  0.07234397  0.17445210  0.75543156  1
  O2-  O147  1  0.07360912  0.67954587  0.08985801  1
  O2-  O148  1  0.07087577  0.68127510  0.43224600  1
  O2-  O149  1  0.07089872  0.68273037  0.76789866  1
  O2-  O150  1  0.56744336  0.17792074  0.09953345  1
  O2-  O151  1  0.56924326  0.16934812  0.42347133  1
  O2-  O152  1  0.56974445  0.17627920  0.75548111  1
  O2-  O153  1  0.57048973  0.67927320  0.09662267  1
  O2-  O154  1  0.57374591  0.68318976  0.43379321  1
  O2-  O155  1  0.57189634  0.68172082  0.75672296  1
  O2-  O156  1  0.18162758  0.42390735  0.23547770  1
  O2-  O157  1  0.18074264  0.42104850  0.57744444  1
  O2-  O158  1  0.18432865  0.43132870  0.89910549  1
  O2-  O159  1  0.17402175  0.93425135  0.24421063  1
  O2-  O160  1  0.17795542  0.93155061  0.57677066  1
  O2-  O161  1  0.18053068  0.92726583  0.91078394  1
  O2-  O162  1  0.68209490  0.42389160  0.23269170  1
  O2-  O163  1  0.67968874  0.43062230  0.56997303  1
  O2-  O164  1  0.67661016  0.42833083  0.90927400  1
  O2-  O165  1  0.67709574  0.93274713  0.24269569  1
  O2-  O166  1  0.67815818  0.93317710  0.56773657  1
  O2-  O167  1  0.67517560  0.93121684  0.91366350  1
  O2-  O168  1  0.42720554  0.31912744  0.08778552  1
  O2-  O169  1  0.42990683  0.31966644  0.43249947  1
  O2-  O170  1  0.42526056  0.31501961  0.76518452  1
  O2-  O171  1  0.42795480  0.82614289  0.08811554  1
  O2-  O172  1  0.43147829  0.82617514  0.43140818  1
  O2-  O173  1  0.43005504  0.82043200  0.76787679  1
  O2-  O174  1  0.92938978  0.32191322  0.09837588  1
  O2-  O175  1  0.92479406  0.31419871  0.42361615  1
  O2-  O176  1  0.92922345  0.31980563  0.75393186  1
  O2-  O177  1  0.93313495  0.82042196  0.10017876  1
  O2-  O178  1  0.93089348  0.82944213  0.42405327  1
  O2-  O179  1  0.93177100  0.82999602  0.75468941  1
  O2-  O180  1  0.32390062  0.06845110  0.24411000  1
  O2-  O181  1  0.31751490  0.07292912  0.57706104  1
  O2-  O182  1  0.32085018  0.06828337  0.91046886  1
  O2-  O183  1  0.31787984  0.56853480  0.23300987  1
  O2-  O184  1  0.31862082  0.57572349  0.56766554  1
  O2-  O185  1  0.32207988  0.57687430  0.91138735  1
  O2-  O186  1  0.82400446  0.06949166  0.24368216  1
  O2-  O187  1  0.82752345  0.06856708  0.57760126  1
  O2-  O188  1  0.81925975  0.06705250  0.90086050  1
  O2-  O189  1  0.82004187  0.57447895  0.23437786  1
  O2-  O190  1  0.82359064  0.56778313  0.57022576  1
  O2-  O191  1  0.81913696  0.57008675  0.90119756  1
  O2-  O192  1  0.03671937  0.08372412  0.26573315  1
  O2-  O193  1  0.04428165  0.08506021  0.60246244  1
  O2-  O194  1  0.04435361  0.08013704  0.93117909  1
  O2-  O195  1  0.04262410  0.57772040  0.26691937  1
  O2-  O196  1  0.04423919  0.58007103  0.60055278  1
  O2-  O197  1  0.05045902  0.58344325  0.93930001  1
  O2-  O198  1  0.54220813  0.08718820  0.26745722  1
  O2-  O199  1  0.53979357  0.08699835  0.60332557  1
  O2-  O200  1  0.53546761  0.08402103  0.93151296  1
  O2-  O201  1  0.54555246  0.58201562  0.26427942  1
  O2-  O202  1  0.55031243  0.58322506  0.60955488  1
  O2-  O203  1  0.54096203  0.58304737  0.92674683  1
  O2-  O204  1  0.16887984  0.20182847  0.26657714  1
  O2-  O205  1  0.16354799  0.20428310  0.60336352  1
  O2-  O206  1  0.17162979  0.20516452  0.93134416  1
  O2-  O207  1  0.16046013  0.71393037  0.26132043  1
  O2-  O208  1  0.16272667  0.71614707  0.59960830  1
  O2-  O209  1  0.16688671  0.70714299  0.93980221  1
  O2-  O210  1  0.67036788  0.19611083  0.27664822  1
  O2-  O211  1  0.66994042  0.19322903  0.60624269  1
  O2-  O212  1  0.66764760  0.20321771  0.93008765  1
  O2-  O213  1  0.66852284  0.71475363  0.26655699  1
  O2-  O214  1  0.66726225  0.70770010  0.60739508  1
  O2-  O215  1  0.66418297  0.71329669  0.92821109  1
  O2-  O216  1  0.08578457  0.45763064  0.06803791  1
  O2-  O217  1  0.07827557  0.44595762  0.39906005  1
  O2-  O218  1  0.08433587  0.44740596  0.72637908  1
  O2-  O219  1  0.08689327  0.95698091  0.06335710  1
  O2-  O220  1  0.08848702  0.96412366  0.39967597  1
  O2-  O221  1  0.08703675  0.95764869  0.72940627  1
  O2-  O222  1  0.58079896  0.45275029  0.05755437  1
  O2-  O223  1  0.57849486  0.45613822  0.39643574  1
  O2-  O224  1  0.57962324  0.45156018  0.73753701  1
  O2-  O225  1  0.58240162  0.95631220  0.06421183  1
  O2-  O226  1  0.58673304  0.96236816  0.39590141  1
  O2-  O227  1  0.58254576  0.96382357  0.73751543  1
  O2-  O228  1  0.21298735  0.33214549  0.06522631  1
  O2-  O229  1  0.21019153  0.32570957  0.40003946  1
  O2-  O230  1  0.20868763  0.33226027  0.72983006  1
  O2-  O231  1  0.20551852  0.83750295  0.06589233  1
  O2-  O232  1  0.20088955  0.83768213  0.39554186  1
  O2-  O233  1  0.20744163  0.83924337  0.73142650  1
  O2-  O234  1  0.69867479  0.33206282  0.05850507  1
  O2-  O235  1  0.70504287  0.32986635  0.40267619  1
  O2-  O236  1  0.70622002  0.32664433  0.73111579  1
  O2-  O237  1  0.70303825  0.83510408  0.06334490  1
  O2-  O238  1  0.70477220  0.84136745  0.39797917  1
  O2-  O239  1  0.70683398  0.83562027  0.73824380  1
  O2-  O240  1  0.45614528  0.41757372  0.26191149  1
  O2-  O241  1  0.45712530  0.42047681  0.60096272  1
  O2-  O242  1  0.44642075  0.41670405  0.93706392  1
  O2-  O243  1  0.45949484  0.92056133  0.26370640  1
  O2-  O244  1  0.45893723  0.91881596  0.60255113  1
  O2-  O245  1  0.45351265  0.91571386  0.93567170  1
  O2-  O246  1  0.94549549  0.41560318  0.27477796  1
  O2-  O247  1  0.95742329  0.41013435  0.60008389  1
  O2-  O248  1  0.96256384  0.42014108  0.93054671  1
  O2-  O249  1  0.96259756  0.91316900  0.26986350  1
  O2-  O250  1  0.95820293  0.91476376  0.60017301  1
  O2-  O251  1  0.96313155  0.91370440  0.93016698  1
  O2-  O252  1  0.33829238  0.28241240  0.26370337  1
  O2-  O253  1  0.33623900  0.28348194  0.59685383  1
  O2-  O254  1  0.33756808  0.28807039  0.93473035  1
  O2-  O255  1  0.32599901  0.80500103  0.26652316  1
  O2-  O256  1  0.33172395  0.79427743  0.60195376  1
  O2-  O257  1  0.33121491  0.80076508  0.93913652  1
  O2-  O258  1  0.83436188  0.28858912  0.27151208  1
  O2-  O259  1  0.83824549  0.28988433  0.60031288  1
  O2-  O260  1  0.83156325  0.29384475  0.93074912  1
  O2-  O261  1  0.83135981  0.80888788  0.27470862  1
  O2-  O262  1  0.83068392  0.80404877  0.60768262  1
  O2-  O263  1  0.83207754  0.79415867  0.93295384  1
  O2-  O264  1  0.41188541  0.04016749  0.06447351  1
  O2-  O265  1  0.41458179  0.04281529  0.39782311  1
  O2-  O266  1  0.41081029  0.04512509  0.73022319  1
  O2-  O267  1  0.41831979  0.54731709  0.06004752  1
  O2-  O268  1  0.41773526  0.54571134  0.39766411  1
  O2-  O269  1  0.41541682  0.54278934  0.73567446  1
  O2-  O270  1  0.91751704  0.03754448  0.06678111  1
  O2-  O271  1  0.91297016  0.03880560  0.39773573  1
  O2-  O272  1  0.91832760  0.04293522  0.73000982  1
  O2-  O273  1  0.91713201  0.54252154  0.06611990  1
  O2-  O274  1  0.91848830  0.54302168  0.40130723  1
  O2-  O275  1  0.92183736  0.53781143  0.73512422  1
  O2-  O276  1  0.29499160  0.16144963  0.06361336  1
  O2-  O277  1  0.29211605  0.15949063  0.39741606  1
  O2-  O278  1  0.28905445  0.16226834  0.73140848  1
  O2-  O279  1  0.30082071  0.66860119  0.06345785  1
  O2-  O280  1  0.28956968  0.67348618  0.39546718  1
  O2-  O281  1  0.28605344  0.66815135  0.73641419  1
  O2-  O282  1  0.78989919  0.16767182  0.06731548  1
  O2-  O283  1  0.79828052  0.16104345  0.39899303  1
  O2-  O284  1  0.80309700  0.16538625  0.72763337  1
  O2-  O285  1  0.78782651  0.66873123  0.06562763  1
  O2-  O286  1  0.79717795  0.67496439  0.40076922  1
  O2-  O287  1  0.80052576  0.67090326  0.73379297  1
