# generated using pymatgen
data_Ca2Al2SiO7
_symmetry_space_group_name_H-M   'P 1'
_cell_length_a   15.45536315
_cell_length_b   15.45564274
_cell_length_c   15.28157131
_cell_angle_alpha   89.99890155
_cell_angle_beta   89.98353328
_cell_angle_gamma   89.98539756
_symmetry_Int_Tables_number   1
_chemical_formula_structural   Ca2Al2SiO7
_chemical_formula_sum   'Ca48 Al48 Si24 O168'
_cell_volume   3650.34796086
_cell_formula_units_Z   24
loop_
 _symmetry_equiv_pos_site_id
 _symmetry_equiv_pos_as_xyz
  1  'x, y, z'
loop_
 _atom_type_symbol
 _atom_type_oxidation_number
  Ca2+  2.0
  Al0+  0.0
  Si0+  0.0
  O2-  -2.0
loop_
 _atom_site_type_symbol
 _atom_site_label
 _atom_site_symmetry_multiplicity
 _atom_site_fract_x
 _atom_site_fract_y
 _atom_site_fract_z
 _atom_site_occupancy
  Ca2+  Ca0  1  0.17743228  0.08954842  0.17241489  1
  Ca2+  Ca1  1  0.17311001  0.09265104  0.50408679  1
  Ca2+  Ca2  1  0.17487767  0.08584679  0.83523895  1
  Ca2+  Ca3  1  0.16616369  0.59075914  0.16916726  1
  Ca2+  Ca4  1  0.16855642  0.58190162  0.50339407  1
  Ca2+  Ca5  1  0.17551352  0.58943838  0.83913649  1
  Ca2+  Ca6  1  0.67171806  0.07868903  0.17455130  1
  Ca2+  Ca7  1  0.66351308  0.07476905  0.50030561  1
  Ca2+  Ca8  1  0.67220521  0.07547541  0.83796372  1
  Ca2+  Ca9  1  0.67572724  0.57511013  0.17925488  1
  Ca2+  Ca10  1  0.67226907  0.57836881  0.49736043  1
  Ca2+  Ca11  1  0.66699781  0.58013521  0.83541328  1
  Ca2+  Ca12  1  0.07268672  0.32961514  0.16857087  1
  Ca2+  Ca13  1  0.08426144  0.32183709  0.49298628  1
  Ca2+  Ca14  1  0.07938130  0.32728872  0.83115612  1
  Ca2+  Ca15  1  0.07460858  0.82414558  0.16255277  1
  Ca2+  Ca16  1  0.07037005  0.82933929  0.49178148  1
  Ca2+  Ca17  1  0.07488353  0.83483625  0.83215046  1
  Ca2+  Ca18  1  0.58490259  0.32961819  0.16968492  1
  Ca2+  Ca19  1  0.57280159  0.32904710  0.48976365  1
  Ca2+  Ca20  1  0.57551938  0.32812066  0.82646706  1
  Ca2+  Ca21  1  0.57972082  0.83718672  0.16541892  1
  Ca2+  Ca22  1  0.58040900  0.84239146  0.49821487  1
  Ca2+  Ca23  1  0.57345693  0.83736094  0.82844002  1
  Ca2+  Ca24  1  0.33367337  0.42244306  0.17229398  1
  Ca2+  Ca25  1  0.33764872  0.41862468  0.50715945  1
  Ca2+  Ca26  1  0.33498648  0.42708394  0.83560204  1
  Ca2+  Ca27  1  0.33412651  0.92466064  0.17065567  1
  Ca2+  Ca28  1  0.33377346  0.93061947  0.50698244  1
  Ca2+  Ca29  1  0.33910473  0.92501277  0.83974005  1
  Ca2+  Ca30  1  0.83560312  0.41913330  0.17906762  1
  Ca2+  Ca31  1  0.83541460  0.41616999  0.49582064  1
  Ca2+  Ca32  1  0.83286883  0.41423081  0.84130765  1
  Ca2+  Ca33  1  0.83310779  0.91572573  0.17344810  1
  Ca2+  Ca34  1  0.82396277  0.90665095  0.50449329  1
  Ca2+  Ca35  1  0.83358505  0.91694791  0.83704303  1
  Ca2+  Ca36  1  0.41934088  0.16368896  0.16958615  1
  Ca2+  Ca37  1  0.41474691  0.17431550  0.49077366  1
  Ca2+  Ca38  1  0.41079988  0.16931685  0.82542466  1
  Ca2+  Ca39  1  0.41786691  0.67293029  0.15666873  1
  Ca2+  Ca40  1  0.41384423  0.67218013  0.50011047  1
  Ca2+  Ca41  1  0.40869465  0.67707346  0.82932088  1
  Ca2+  Ca42  1  0.91238814  0.17418838  0.16112640  1
  Ca2+  Ca43  1  0.93124349  0.16814819  0.49102932  1
  Ca2+  Ca44  1  0.92034789  0.16579422  0.83079060  1
  Ca2+  Ca45  1  0.92176960  0.67169147  0.16321292  1
  Ca2+  Ca46  1  0.91751345  0.67364797  0.48964220  1
  Ca2+  Ca47  1  0.92156538  0.67720911  0.83050236  1
  Al0+  Al48  1  0.00057378  0.00068805  0.00138675  1
  Al0+  Al49  1  0.00255396  -0.00149825  0.32499078  1
  Al0+  Al50  1  0.00008308  0.00005640  0.65760472  1
  Al0+  Al51  1  0.00055122  0.49838645  -0.00936828  1
  Al0+  Al52  1  0.00362492  0.50004701  0.33328387  1
  Al0+  Al53  1  -0.00069114  0.49980596  0.66967015  1
  Al0+  Al54  1  0.50136015  0.00055827  0.00040672  1
  Al0+  Al55  1  0.49949373  0.00257282  0.33785687  1
  Al0+  Al56  1  0.50106001  -0.00056083  0.67217502  1
  Al0+  Al57  1  0.49920880  0.49881404  0.00416010  1
  Al0+  Al58  1  0.50075662  0.50136244  0.33393034  1
  Al0+  Al59  1  0.50044275  0.50048056  0.66818471  1
  Al0+  Al60  1  0.25021081  0.25196478  0.00516850  1
  Al0+  Al61  1  0.25101136  0.25375341  0.32815403  1
  Al0+  Al62  1  0.24894189  0.25207267  0.66525141  1
  Al0+  Al63  1  0.25135731  0.75132560  -0.00247044  1
  Al0+  Al64  1  0.24919808  0.75275727  0.33197521  1
  Al0+  Al65  1  0.24970849  0.75122096  0.66516506  1
  Al0+  Al66  1  0.74858433  0.24732263  -0.00222760  1
  Al0+  Al67  1  0.74767630  0.24820878  0.33382371  1
  Al0+  Al68  1  0.74974920  0.24983740  0.66727349  1
  Al0+  Al69  1  0.74875650  0.74720193  -0.00309957  1
  Al0+  Al70  1  0.74797222  0.74946650  0.33785660  1
  Al0+  Al71  1  0.74837355  0.74829230  0.67022338  1
  Al0+  Al72  1  0.07358332  0.17728738  0.31562677  1
  Al0+  Al73  1  0.92761573  0.31870592  0.98567735  1
  Al0+  Al74  1  0.82147153  0.06982297  0.01300037  1
  Al0+  Al75  1  0.68040315  0.92988104  0.34685738  1
  Al0+  Al76  1  0.31922421  0.07174879  0.67999615  1
  Al0+  Al77  1  0.42890414  0.82226405  0.65202284  1
  Al0+  Al78  1  0.07148591  0.67894762  0.98229893  1
  Al0+  Al79  1  0.32055202  0.57184617  0.67994024  1
  Al0+  Al80  1  0.31801288  0.07120395  0.34806619  1
  Al0+  Al81  1  0.92907193  0.31873439  0.32097775  1
  Al0+  Al82  1  0.92474629  0.81980897  0.31773953  1
  Al0+  Al83  1  0.67802415  0.42598708  0.34958286  1
  Al0+  Al84  1  0.43053308  0.32090698  0.65520035  1
  Al0+  Al85  1  0.82361698  0.56942931  0.34781865  1
  Al0+  Al86  1  0.06985813  0.18080903  0.65426875  1
  Al0+  Al87  1  0.31947181  0.57174994  0.01473327  1
  Al0+  Al88  1  0.32176714  0.07203806  0.01510597  1
  Al0+  Al89  1  0.43188014  0.82157450  0.98754805  1
  Al0+  Al90  1  0.42925742  0.32424294  0.31591395  1
  Al0+  Al91  1  0.56950507  0.17699112  0.31849704  1
  Al0+  Al92  1  0.07261515  0.67868715  0.31927275  1
  Al0+  Al93  1  0.92811635  0.81938173  0.65199259  1
  Al0+  Al94  1  0.92669273  0.82282222  0.98402083  1
  Al0+  Al95  1  0.67985623  0.92834779  0.68305394  1
  Si0+  Si96  1  0.42840829  0.32204027  0.98465636  1
  Si0+  Si97  1  0.07202509  0.67686463  0.64987217  1
  Si0+  Si98  1  0.17611990  0.92861849  0.68193473  1
  Si0+  Si99  1  0.56988607  0.67902824  0.31950271  1
  Si0+  Si100  1  0.57329046  0.17724083  0.65133766  1
  Si0+  Si101  1  0.32232745  0.57451614  0.34814168  1
  Si0+  Si102  1  0.42979309  0.82199342  0.32020315  1
  Si0+  Si103  1  0.67872681  0.42747700  0.01439242  1
  Si0+  Si104  1  0.17688484  0.42836407  0.68466066  1
  Si0+  Si105  1  0.17647918  0.42864382  0.01820825  1
  Si0+  Si106  1  0.18126968  0.43085752  0.34848312  1
  Si0+  Si107  1  0.82392813  0.07199004  0.68125127  1
  Si0+  Si108  1  0.92536446  0.32378055  0.65002428  1
  Si0+  Si109  1  0.17794023  0.92811600  0.01709565  1
  Si0+  Si110  1  0.82526652  0.07197354  0.34946024  1
  Si0+  Si111  1  0.17774251  0.92642418  0.35066854  1
  Si0+  Si112  1  0.57158083  0.67734726  0.64907507  1
  Si0+  Si113  1  0.82130675  0.56887706  0.01266774  1
  Si0+  Si114  1  0.67937762  0.42827401  0.68283484  1
  Si0+  Si115  1  0.82131437  0.57011608  0.68434014  1
  Si0+  Si116  1  0.07445560  0.17860941  0.98356976  1
  Si0+  Si117  1  0.67910757  0.92675514  0.01633261  1
  Si0+  Si118  1  0.57126345  0.67417804  0.98377038  1
  Si0+  Si119  1  0.56982209  0.17940612  0.98322377  1
  O2-  O120  1  0.24555283  -0.00139248  0.06087694  1
  O2-  O121  1  0.24059000  0.00008248  0.39576683  1
  O2-  O122  1  0.24697411  -0.00523577  0.72757612  1
  O2-  O123  1  0.24319946  0.49961014  0.06252677  1
  O2-  O124  1  0.25284957  0.50222673  0.39002617  1
  O2-  O125  1  0.24367490  0.49961175  0.72772720  1
  O2-  O126  1  0.75300990  -0.01051334  0.05993043  1
  O2-  O127  1  0.75958831  0.00020104  0.39395504  1
  O2-  O128  1  0.75584662  0.00324006  0.72693266  1
  O2-  O129  1  0.75084109  0.49763107  0.05538029  1
  O2-  O130  1  0.75394060  0.49478695  0.39883419  1
  O2-  O131  1  0.75353776  0.49534374  0.72672789  1
  O2-  O132  1  -0.00602150  0.24221666  0.26758910  1
  O2-  O133  1  -0.00621190  0.25471672  0.60816330  1
  O2-  O134  1  0.00214894  0.24374415  0.93913073  1
  O2-  O135  1  -0.00235070  0.74762847  0.27000187  1
  O2-  O136  1  0.00243550  0.74403703  0.60588206  1
  O2-  O137  1  -0.00039712  0.75180013  0.93334239  1
  O2-  O138  1  0.50122803  0.25187790  0.26642827  1
  O2-  O139  1  0.50289861  0.24453849  0.60861185  1
  O2-  O140  1  0.49585056  0.24799952  0.94168337  1
  O2-  O141  1  0.49885870  0.74962127  0.27708215  1
  O2-  O142  1  0.50370403  0.74723268  0.60510875  1
  O2-  O143  1  0.50403991  0.74423118  0.94011962  1
  O2-  O144  1  0.07579991  0.18202155  0.08852781  1
  O2-  O145  1  0.07522623  0.18202556  0.42948490  1
  O2-  O146  1  0.06920121  0.18212983  0.76778939  1
  O2-  O147  1  0.06869845  0.67870257  0.09559825  1
  O2-  O148  1  0.07498708  0.68095034  0.43317543  1
  O2-  O149  1  0.07077196  0.67688905  0.75531051  1
  O2-  O150  1  0.57161697  0.18002101  0.08778247  1
  O2-  O151  1  0.56487757  0.17530289  0.43223898  1
  O2-  O152  1  0.57538942  0.18094815  0.75757652  1
  O2-  O153  1  0.57138745  0.67263442  0.08939055  1
  O2-  O154  1  0.56814185  0.67745619  0.42455177  1
  O2-  O155  1  0.57146857  0.67558444  0.75495501  1
  O2-  O156  1  0.18100532  0.43154093  0.24346850  1
  O2-  O157  1  0.17608251  0.42860651  0.57905594  1
  O2-  O158  1  0.17987877  0.42559201  0.91241750  1
  O2-  O159  1  0.18394879  0.92149718  0.24538074  1
  O2-  O160  1  0.17690288  0.92968982  0.57651415  1
  O2-  O161  1  0.17817969  0.92953881  0.91109617  1
  O2-  O162  1  0.67699475  0.43132113  0.23543723  1
  O2-  O163  1  0.67874693  0.42906338  0.57855970  1
  O2-  O164  1  0.67789215  0.42886662  0.90859740  1
  O2-  O165  1  0.67814169  0.93052135  0.23359693  1
  O2-  O166  1  0.67986183  0.92971721  0.57009960  1
  O2-  O167  1  0.67678767  0.93025493  0.91074570  1
  O2-  O168  1  0.43130872  0.32516347  0.08904771  1
  O2-  O169  1  0.42899407  0.32454893  0.42986459  1
  O2-  O170  1  0.43281115  0.32112195  0.76906166  1
  O2-  O171  1  0.43493206  0.82127804  0.10117389  1
  O2-  O172  1  0.43015358  0.82057924  0.42534793  1
  O2-  O173  1  0.43044777  0.82175458  0.76522305  1
  O2-  O174  1  0.92616443  0.31991455  0.09808911  1
  O2-  O175  1  0.93432376  0.31884689  0.43489572  1
  O2-  O176  1  0.92429854  0.32327483  0.75590412  1
  O2-  O177  1  0.92449266  0.81857949  0.09691080  1
  O2-  O178  1  0.92503013  0.81692135  0.43172514  1
  O2-  O179  1  0.92974840  0.81912867  0.76505455  1
  O2-  O180  1  0.32011267  0.06661212  0.23478586  1
  O2-  O181  1  0.31821179  0.07326634  0.56719744  1
  O2-  O182  1  0.32069029  0.07272695  0.90163513  1
  O2-  O183  1  0.32240449  0.57538713  0.24302416  1
  O2-  O184  1  0.32011631  0.56985292  0.56650954  1
  O2-  O185  1  0.32134919  0.56881536  0.90158095  1
  O2-  O186  1  0.82115914  0.07235268  0.24364679  1
  O2-  O187  1  0.82289910  0.07395503  0.57612847  1
  O2-  O188  1  0.81729909  0.07225828  0.89950979  1
  O2-  O189  1  0.82053941  0.56949985  0.23363929  1
  O2-  O190  1  0.82131497  0.57016789  0.57974374  1
  O2-  O191  1  0.81780571  0.56775745  0.90707544  1
  O2-  O192  1  0.05741206  0.07623267  0.26459677  1
  O2-  O193  1  0.04242759  0.08557080  0.59649474  1
  O2-  O194  1  0.05277091  0.08377493  0.93909716  1
  O2-  O195  1  0.04983010  0.57944348  0.26694211  1
  O2-  O196  1  0.04704730  0.58157231  0.60629194  1
  O2-  O197  1  0.04452537  0.58094270  0.92728000  1
  O2-  O198  1  0.53607782  0.08060234  0.26336793  1
  O2-  O199  1  0.54976888  0.08262277  0.60879929  1
  O2-  O200  1  0.54422792  0.08715042  0.93590608  1
  O2-  O201  1  0.54279066  0.58848037  0.26963929  1
  O2-  O202  1  0.54447300  0.58451603  0.60259887  1
  O2-  O203  1  0.54455756  0.58070475  0.93701936  1
  O2-  O204  1  0.16754214  0.21568690  0.26135711  1
  O2-  O205  1  0.16420670  0.21577821  0.59886872  1
  O2-  O206  1  0.16696058  0.20984309  0.93699467  1
  O2-  O207  1  0.17001621  0.71071186  0.26451875  1
  O2-  O208  1  0.16565872  0.70117042  0.60411100  1
  O2-  O209  1  0.17023666  0.70825619  0.93081850  1
  O2-  O210  1  0.66899565  0.20133094  0.26594345  1
  O2-  O211  1  0.66657090  0.20378060  0.60498383  1
  O2-  O212  1  0.65912732  0.21050666  0.93255067  1
  O2-  O213  1  0.66100592  0.70707678  0.27172651  1
  O2-  O214  1  0.66574506  0.70149711  0.60448119  1
  O2-  O215  1  0.66485825  0.69691188  0.93610250  1
  O2-  O216  1  0.08094021  0.45280308  0.06046742  1
  O2-  O217  1  0.09121155  0.45813665  0.39956527  1
  O2-  O218  1  0.08212591  0.45058566  0.73153492  1
  O2-  O219  1  0.08388065  0.95063503  0.06330247  1
  O2-  O220  1  0.08096222  0.94615226  0.39244783  1
  O2-  O221  1  0.08297325  0.95788661  0.72762062  1
  O2-  O222  1  0.58795673  0.45565567  0.06306737  1
  O2-  O223  1  0.58148346  0.46208800  0.40316493  1
  O2-  O224  1  0.58975465  0.46020111  0.73291914  1
  O2-  O225  1  0.58820010  0.95896329  0.06386324  1
  O2-  O226  1  0.58548652  0.96467088  0.40272048  1
  O2-  O227  1  0.58498670  0.96088282  0.73972586  1
  O2-  O228  1  0.20447618  0.33708267  0.06683709  1
  O2-  O229  1  0.21068413  0.33994422  0.39667430  1
  O2-  O230  1  0.20585463  0.33684972  0.73273745  1
  O2-  O231  1  0.20698465  0.83572273  0.06307088  1
  O2-  O232  1  0.20836994  0.83544890  0.40042944  1
  O2-  O233  1  0.19842752  0.83391581  0.72708363  1
  O2-  O234  1  0.70484982  0.33485614  0.05939725  1
  O2-  O235  1  0.69983725  0.32616777  0.40240742  1
  O2-  O236  1  0.70381312  0.33526835  0.73129627  1
  O2-  O237  1  0.69636867  0.82936777  0.05841975  1
  O2-  O238  1  0.70416152  0.83235029  0.40289976  1
  O2-  O239  1  0.70742640  0.83062123  0.73712989  1
  O2-  O240  1  0.45811734  0.42344390  0.26405566  1
  O2-  O241  1  0.46362259  0.41678487  0.60151364  1
  O2-  O242  1  0.46058817  0.41269826  0.93654046  1
  O2-  O243  1  0.46087321  0.91248938  0.27350497  1
  O2-  O244  1  0.46220306  0.91915386  0.60005543  1
  O2-  O245  1  0.46545230  0.91711856  0.93225113  1
  O2-  O246  1  0.96305420  0.41573397  0.26850961  1
  O2-  O247  1  0.95061734  0.41841648  0.60632748  1
  O2-  O248  1  0.95803505  0.41341806  0.92750086  1
  O2-  O249  1  0.95212760  0.91788723  0.26468405  1
  O2-  O250  1  0.95633194  0.91532481  0.59633102  1
  O2-  O251  1  0.95503440  0.92248116  0.93241623  1
  O2-  O252  1  0.33191591  0.29768922  0.26174216  1
  O2-  O253  1  0.33293336  0.29519933  0.60214555  1
  O2-  O254  1  0.33482069  0.29727837  0.93952801  1
  O2-  O255  1  0.33823232  0.79564737  0.27236467  1
  O2-  O256  1  0.33207544  0.79244962  0.59780268  1
  O2-  O257  1  0.33533451  0.79387834  0.93300029  1
  O2-  O258  1  0.82773180  0.29889924  0.27110871  1
  O2-  O259  1  0.83084310  0.30032869  0.60514781  1
  O2-  O260  1  0.83094330  0.28786457  0.93026103  1
  O2-  O261  1  0.82570021  0.79105118  0.26663980  1
  O2-  O262  1  0.83069472  0.78557701  0.60202789  1
  O2-  O263  1  0.82795955  0.79243097  0.93099092  1
  O2-  O264  1  0.41863584  0.03931001  0.06739385  1
  O2-  O265  1  0.41274402  0.03725129  0.40320585  1
  O2-  O266  1  0.41649180  0.04377871  0.73446284  1
  O2-  O267  1  0.41601211  0.53917037  0.06916939  1
  O2-  O268  1  0.41428420  0.54855612  0.39569467  1
  O2-  O269  1  0.41691586  0.53979834  0.73458228  1
  O2-  O270  1  0.92062408  0.04896393  0.06596029  1
  O2-  O271  1  0.92197042  0.05016172  0.39071361  1
  O2-  O272  1  0.91783564  0.04560396  0.72637407  1
  O2-  O273  1  0.91419208  0.54090651  0.05621906  1
  O2-  O274  1  0.92268616  0.54363194  0.40132040  1
  O2-  O275  1  0.91391926  0.54534274  0.73262694  1
  O2-  O276  1  0.29348031  0.16948046  0.06895661  1
  O2-  O277  1  0.29043028  0.17120950  0.39683681  1
  O2-  O278  1  0.28611214  0.16837556  0.73395962  1
  O2-  O279  1  0.29326653  0.67019407  0.06730199  1
  O2-  O280  1  0.29341625  0.66623895  0.39566521  1
  O2-  O281  1  0.29080221  0.66951164  0.73331929  1
  O2-  O282  1  0.78332044  0.16447318  0.06680796  1
  O2-  O283  1  0.79780031  0.16414206  0.39712948  1
  O2-  O284  1  0.79823888  0.16609754  0.72854682  1
  O2-  O285  1  0.79300556  0.66064343  0.05980215  1
  O2-  O286  1  0.78794273  0.66473077  0.40282998  1
  O2-  O287  1  0.78862912  0.65906940  0.73429493  1
