# generated using pymatgen
data_Ca2Al2SiO7
_symmetry_space_group_name_H-M   'P 1'
_cell_length_a   15.46087802
_cell_length_b   15.45975572
_cell_length_c   15.28499134
_cell_angle_alpha   90.00073548
_cell_angle_beta   89.99724280
_cell_angle_gamma   89.98941826
_symmetry_Int_Tables_number   1
_chemical_formula_structural   Ca2Al2SiO7
_chemical_formula_sum   'Ca48 Al48 Si24 O168'
_cell_volume   3653.43992200
_cell_formula_units_Z   24
loop_
 _symmetry_equiv_pos_site_id
 _symmetry_equiv_pos_as_xyz
  1  'x, y, z'
loop_
 _atom_type_symbol
 _atom_type_oxidation_number
  Ca2+  2.0
  Al0+  0.0
  Si0+  0.0
  O2-  -2.0
loop_
 _atom_site_type_symbol
 _atom_site_label
 _atom_site_symmetry_multiplicity
 _atom_site_fract_x
 _atom_site_fract_y
 _atom_site_fract_z
 _atom_site_occupancy
  Ca2+  Ca0  1  0.16339993  0.08142305  0.17068631  1
  Ca2+  Ca1  1  0.16834384  0.09502917  0.50026240  1
  Ca2+  Ca2  1  0.15814043  0.07963050  0.83875169  1
  Ca2+  Ca3  1  0.16572441  0.58057159  0.16525818  1
  Ca2+  Ca4  1  0.16551542  0.57571092  0.51068414  1
  Ca2+  Ca5  1  0.16267507  0.57384650  0.84241097  1
  Ca2+  Ca6  1  0.68158578  0.08643410  0.17438697  1
  Ca2+  Ca7  1  0.68208997  0.07766322  0.50951114  1
  Ca2+  Ca8  1  0.68090398  0.07813637  0.83515053  1
  Ca2+  Ca9  1  0.66424357  0.57942576  0.17042339  1
  Ca2+  Ca10  1  0.66543668  0.57981651  0.50277461  1
  Ca2+  Ca11  1  0.66572155  0.58809021  0.83635532  1
  Ca2+  Ca12  1  0.08365618  0.32125352  0.16291401  1
  Ca2+  Ca13  1  0.07252665  0.32643947  0.49826970  1
  Ca2+  Ca14  1  0.08427230  0.32626916  0.82443623  1
  Ca2+  Ca15  1  0.08033188  0.83337411  0.16096947  1
  Ca2+  Ca16  1  0.07174330  0.83335939  0.49865863  1
  Ca2+  Ca17  1  0.08464120  0.82398996  0.82926038  1
  Ca2+  Ca18  1  0.57969500  0.33780431  0.16821399  1
  Ca2+  Ca19  1  0.57195798  0.33818279  0.49334346  1
  Ca2+  Ca20  1  0.57316870  0.33286586  0.82697188  1
  Ca2+  Ca21  1  0.57405243  0.83184658  0.16209985  1
  Ca2+  Ca22  1  0.58546450  0.83162218  0.49752688  1
  Ca2+  Ca23  1  0.58661925  0.82427364  0.82591304  1
  Ca2+  Ca24  1  0.32904958  0.42018758  0.16812763  1
  Ca2+  Ca25  1  0.32712435  0.41037177  0.50720685  1
  Ca2+  Ca26  1  0.32068974  0.41932571  0.83688122  1
  Ca2+  Ca27  1  0.32556725  0.91857275  0.17456905  1
  Ca2+  Ca28  1  0.33648628  0.92240828  0.50000941  1
  Ca2+  Ca29  1  0.32430367  0.91913055  0.84018281  1
  Ca2+  Ca30  1  0.82757292  0.41651149  0.17779895  1
  Ca2+  Ca31  1  0.83087831  0.40817822  0.50383197  1
  Ca2+  Ca32  1  0.83607495  0.41566397  0.83467421  1
  Ca2+  Ca33  1  0.83941090  0.92724966  0.17266408  1
  Ca2+  Ca34  1  0.83867082  0.92283837  0.50748847  1
  Ca2+  Ca35  1  0.84328237  0.92609750  0.83219142  1
  Ca2+  Ca36  1  0.41076688  0.17085834  0.16883079  1
  Ca2+  Ca37  1  0.41450230  0.17663601  0.49181019  1
  Ca2+  Ca38  1  0.41519778  0.17483901  0.82503645  1
  Ca2+  Ca39  1  0.41831635  0.66877570  0.16007076  1
  Ca2+  Ca40  1  0.42310746  0.67314377  0.49612090  1
  Ca2+  Ca41  1  0.42524204  0.65819242  0.83189327  1
  Ca2+  Ca42  1  0.92231086  0.16427452  0.16377800  1
  Ca2+  Ca43  1  0.92338611  0.16587775  0.49429723  1
  Ca2+  Ca44  1  0.92490491  0.16670755  0.82708751  1
  Ca2+  Ca45  1  0.92098782  0.67480963  0.16231058  1
  Ca2+  Ca46  1  0.91898916  0.67710580  0.49976551  1
  Ca2+  Ca47  1  0.92987052  0.67094504  0.82381797  1
  Al0+  Al48  1  0.00043683  0.00229040  0.00493702  1
  Al0+  Al49  1  0.00084761  -0.00276275  0.33071984  1
  Al0+  Al50  1  0.00348145  -0.00046643  0.66402287  1
  Al0+  Al51  1  -0.00224941  0.50039850  0.00392764  1
  Al0+  Al52  1  -0.00032254  0.49994205  0.33207013  1
  Al0+  Al53  1  -0.00044640  0.49769444  0.66432255  1
  Al0+  Al54  1  0.50130185  0.00115708  -0.00184124  1
  Al0+  Al55  1  0.49884587  -0.00038716  0.33231811  1
  Al0+  Al56  1  0.50136903  -0.00022891  0.67334484  1
  Al0+  Al57  1  0.49899421  0.50088575  -0.00075090  1
  Al0+  Al58  1  0.49966589  0.49970516  0.33346366  1
  Al0+  Al59  1  0.49956970  0.50102435  0.65875278  1
  Al0+  Al60  1  0.24889382  0.25063810  -0.00124790  1
  Al0+  Al61  1  0.25030551  0.25019429  0.32810483  1
  Al0+  Al62  1  0.25033948  0.25172342  0.66500073  1
  Al0+  Al63  1  0.24928766  0.75098049  0.00409225  1
  Al0+  Al64  1  0.25184504  0.74945596  0.33211939  1
  Al0+  Al65  1  0.25436695  0.74975472  0.66401275  1
  Al0+  Al66  1  0.74853708  0.25029716  0.00346592  1
  Al0+  Al67  1  0.74850721  0.25040718  0.34127955  1
  Al0+  Al68  1  0.74848466  0.24907443  0.67242910  1
  Al0+  Al69  1  0.74753731  0.75190913  -0.00244531  1
  Al0+  Al70  1  0.75159915  0.74838311  0.32773648  1
  Al0+  Al71  1  0.74911727  0.74794868  0.66195997  1
  Al0+  Al72  1  0.31977248  0.07089675  0.34659724  1
  Al0+  Al73  1  0.67899267  0.92605981  0.68233721  1
  Al0+  Al74  1  0.82225214  0.06919833  0.34880009  1
  Al0+  Al75  1  0.32134891  0.56968284  0.01504275  1
  Al0+  Al76  1  0.07067247  0.67860541  0.98764790  1
  Al0+  Al77  1  0.07488095  0.67634671  0.65282807  1
  Al0+  Al78  1  0.18018462  0.93028915  0.01320193  1
  Al0+  Al79  1  0.42889442  0.32178459  0.31696739  1
  Al0+  Al80  1  0.67903278  0.43054430  0.34831177  1
  Al0+  Al81  1  0.17847788  0.43013345  0.67922654  1
  Al0+  Al82  1  0.57084092  0.67973731  0.65108523  1
  Al0+  Al83  1  0.92544189  0.32153459  0.31804972  1
  Al0+  Al84  1  0.81950840  0.07021732  0.01548787  1
  Al0+  Al85  1  0.07130215  0.17827168  0.65185354  1
  Al0+  Al86  1  0.17583057  0.42733913  0.01719364  1
  Al0+  Al87  1  0.82450516  0.07078560  0.68336470  1
  Al0+  Al88  1  0.92569938  0.32072633  0.65382399  1
  Al0+  Al89  1  0.07010843  0.18041113  0.98531843  1
  Al0+  Al90  1  0.92953035  0.81955705  0.31790019  1
  Al0+  Al91  1  0.42920871  0.82237242  0.31928419  1
  Al0+  Al92  1  0.43076958  0.31941024  0.65329028  1
  Al0+  Al93  1  0.56915515  0.68002463  0.98610384  1
  Al0+  Al94  1  0.06984825  0.17992319  0.31635424  1
  Al0+  Al95  1  0.93093385  0.82001847  0.65356887  1
  Si0+  Si96  1  0.42856976  0.82557707  0.65053849  1
  Si0+  Si97  1  0.18115221  0.92681877  0.68032056  1
  Si0+  Si98  1  0.67863701  0.43059671  0.01360784  1
  Si0+  Si99  1  0.57388516  0.17903850  0.98475063  1
  Si0+  Si100  1  0.32081333  0.07201521  0.68108880  1
  Si0+  Si101  1  0.42701543  0.82402657  0.98259885  1
  Si0+  Si102  1  0.82320200  0.57327429  0.35088440  1
  Si0+  Si103  1  0.92843832  0.82284393  0.98376349  1
  Si0+  Si104  1  0.57157300  0.17626818  0.65151768  1
  Si0+  Si105  1  0.67579195  0.42972148  0.68264287  1
  Si0+  Si106  1  0.67777587  0.92638831  0.34746673  1
  Si0+  Si107  1  0.57092453  0.67832379  0.31545030  1
  Si0+  Si108  1  0.17895777  0.92573027  0.35232461  1
  Si0+  Si109  1  0.57111382  0.17805181  0.31794182  1
  Si0+  Si110  1  0.67650453  0.92697157  0.01840651  1
  Si0+  Si111  1  0.32340454  0.57276207  0.68158265  1
  Si0+  Si112  1  0.82029341  0.57387745  0.01392590  1
  Si0+  Si113  1  0.07379790  0.67688371  0.31649469  1
  Si0+  Si114  1  0.32515107  0.07335433  0.01527010  1
  Si0+  Si115  1  0.17964379  0.42949160  0.34863942  1
  Si0+  Si116  1  0.43014453  0.31998015  0.98463545  1
  Si0+  Si117  1  0.32124306  0.57179410  0.34977226  1
  Si0+  Si118  1  0.81988578  0.56967104  0.68100699  1
  Si0+  Si119  1  0.92477928  0.32232113  0.98535701  1
  O2-  O120  1  0.25752105  0.00353522  0.05830947  1
  O2-  O121  1  0.24563107  -0.00301222  0.39604815  1
  O2-  O122  1  0.25085068  -0.00014622  0.72241494  1
  O2-  O123  1  0.24729833  0.50079259  0.06687662  1
  O2-  O124  1  0.24893234  0.50241388  0.39161840  1
  O2-  O125  1  0.24927634  0.50992830  0.72490504  1
  O2-  O126  1  0.74465163  -0.00467630  0.06279179  1
  O2-  O127  1  0.74739723  -0.00719587  0.39275176  1
  O2-  O128  1  0.75345249  -0.00412254  0.73208218  1
  O2-  O129  1  0.75042804  0.50096937  0.05535290  1
  O2-  O130  1  0.75699210  0.50198760  0.39509163  1
  O2-  O131  1  0.74987706  0.49742494  0.72498821  1
  O2-  O132  1  -0.00463839  0.24944183  0.26580392  1
  O2-  O133  1  -0.00594085  0.24564097  0.60406510  1
  O2-  O134  1  -0.00313355  0.25775358  0.94116040  1
  O2-  O135  1  0.00506908  0.74532550  0.27223035  1
  O2-  O136  1  0.00416975  0.74919072  0.60288624  1
  O2-  O137  1  -0.00486757  0.75203825  0.94028729  1
  O2-  O138  1  0.50349645  0.24667265  0.27062736  1
  O2-  O139  1  0.50494839  0.24521445  0.60527429  1
  O2-  O140  1  0.49792971  0.24527475  0.94289135  1
  O2-  O141  1  0.50432165  0.74878421  0.27171545  1
  O2-  O142  1  0.49905254  0.75821423  0.60721102  1
  O2-  O143  1  0.49547347  0.75520250  0.93823664  1
  O2-  O144  1  0.06942415  0.17899253  0.09795845  1
  O2-  O145  1  0.07166159  0.18311483  0.42962492  1
  O2-  O146  1  0.07267306  0.17933824  0.76574430  1
  O2-  O147  1  0.06699784  0.68009078  0.10082645  1
  O2-  O148  1  0.07419242  0.67703916  0.42196360  1
  O2-  O149  1  0.07315969  0.67771066  0.76669173  1
  O2-  O150  1  0.57632996  0.18155626  0.08967628  1
  O2-  O151  1  0.56790033  0.17858707  0.42333765  1
  O2-  O152  1  0.56828022  0.17900184  0.75774902  1
  O2-  O153  1  0.56828494  0.67982596  0.09905349  1
  O2-  O154  1  0.57013476  0.67840062  0.42102159  1
  O2-  O155  1  0.56767014  0.67659492  0.76429246  1
  O2-  O156  1  0.18110353  0.43132994  0.24361803  1
  O2-  O157  1  0.18196946  0.42953625  0.56583206  1
  O2-  O158  1  0.17835868  0.42674267  0.90345553  1
  O2-  O159  1  0.18122458  0.92396034  0.24659753  1
  O2-  O160  1  0.18353969  0.92389433  0.57556909  1
  O2-  O161  1  0.18106721  0.93077168  0.89952433  1
  O2-  O162  1  0.67690581  0.43508270  0.23443491  1
  O2-  O163  1  0.67348730  0.43203412  0.57792138  1
  O2-  O164  1  0.67763218  0.43015226  0.90841304  1
  O2-  O165  1  0.67759820  0.92822172  0.24167276  1
  O2-  O166  1  0.67665239  0.92984159  0.56855694  1
  O2-  O167  1  0.67543486  0.92678964  0.91330609  1
  O2-  O168  1  0.43228554  0.32081253  0.08968250  1
  O2-  O169  1  0.42919967  0.32160387  0.42996608  1
  O2-  O170  1  0.43173265  0.31879476  0.76697575  1
  O2-  O171  1  0.43002894  0.82526900  0.08819590  1
  O2-  O172  1  0.43036858  0.82007671  0.43245541  1
  O2-  O173  1  0.42584739  0.82603060  0.75597300  1
  O2-  O174  1  0.92060718  0.32006265  0.09057321  1
  O2-  O175  1  0.92814850  0.32133200  0.43118500  1
  O2-  O176  1  0.92774397  0.32218987  0.76784162  1
  O2-  O177  1  0.92861341  0.82064743  0.08961235  1
  O2-  O178  1  0.92920906  0.81801954  0.43070572  1
  O2-  O179  1  0.93345041  0.81848739  0.76746486  1
  O2-  O180  1  0.31907298  0.06899750  0.23341388  1
  O2-  O181  1  0.32252722  0.07187635  0.57616341  1
  O2-  O182  1  0.32723373  0.07274392  0.90932055  1
  O2-  O183  1  0.32189504  0.57145345  0.24479993  1
  O2-  O184  1  0.32495843  0.57148934  0.57574281  1
  O2-  O185  1  0.32542294  0.56436366  0.90157247  1
  O2-  O186  1  0.82003487  0.06879364  0.23529615  1
  O2-  O187  1  0.82285653  0.07000129  0.56990537  1
  O2-  O188  1  0.81904835  0.07046000  0.90280071  1
  O2-  O189  1  0.82050441  0.57478828  0.24487934  1
  O2-  O190  1  0.81761751  0.57020458  0.57604048  1
  O2-  O191  1  0.81989121  0.57391006  0.90877590  1
  O2-  O192  1  0.04576757  0.07914515  0.26684753  1
  O2-  O193  1  0.05148778  0.07853851  0.59890503  1
  O2-  O194  1  0.03680650  0.08344364  0.93320466  1
  O2-  O195  1  0.04803187  0.58367190  0.27009488  1
  O2-  O196  1  0.04329440  0.57992549  0.59933805  1
  O2-  O197  1  0.03893020  0.58116158  0.93529834  1
  O2-  O198  1  0.54613688  0.08508453  0.27024515  1
  O2-  O199  1  0.54579384  0.08241597  0.60734007  1
  O2-  O200  1  0.55109362  0.08562459  0.93783833  1
  O2-  O201  1  0.54126606  0.58615312  0.26943073  1
  O2-  O202  1  0.53692639  0.58603989  0.59358731  1
  O2-  O203  1  0.53873560  0.58303127  0.93136137  1
  O2-  O204  1  0.16710088  0.21080235  0.26231575  1
  O2-  O205  1  0.16814962  0.21156381  0.59914641  1
  O2-  O206  1  0.16875364  0.20641277  0.93193418  1
  O2-  O207  1  0.16750099  0.70223315  0.27083854  1
  O2-  O208  1  0.17484427  0.70099781  0.60151422  1
  O2-  O209  1  0.16817272  0.70881065  0.93555190  1
  O2-  O210  1  0.66444935  0.20604051  0.27314686  1
  O2-  O211  1  0.66595501  0.20041520  0.60841958  1
  O2-  O212  1  0.66248269  0.21289834  0.93489939  1
  O2-  O213  1  0.66538034  0.69940107  0.26935244  1
  O2-  O214  1  0.66698038  0.70536578  0.59453553  1
  O2-  O215  1  0.66626620  0.70921137  0.93118647  1
  O2-  O216  1  0.07692627  0.45427640  0.07036689  1
  O2-  O217  1  0.08660561  0.45563916  0.39476070  1
  O2-  O218  1  0.08069244  0.45625981  0.73332899  1
  O2-  O219  1  0.08542674  0.96219395  0.06968250  1
  O2-  O220  1  0.08444417  0.94918397  0.39582430  1
  O2-  O221  1  0.08985528  0.95305080  0.72839566  1
  O2-  O222  1  0.58804981  0.46053688  0.06201278  1
  O2-  O223  1  0.58307163  0.46524133  0.40267204  1
  O2-  O224  1  0.58488903  0.46252100  0.72973499  1
  O2-  O225  1  0.58189319  0.95295564  0.06335221  1
  O2-  O226  1  0.58402830  0.95123255  0.39328882  1
  O2-  O227  1  0.58134874  0.95522683  0.73887108  1
  O2-  O228  1  0.20929932  0.32978185  0.06919374  1
  O2-  O229  1  0.21173797  0.33865320  0.39390526  1
  O2-  O230  1  0.21595649  0.33563885  0.73412881  1
  O2-  O231  1  0.20845350  0.83466837  0.07026762  1
  O2-  O232  1  0.20783641  0.83276530  0.39840282  1
  O2-  O233  1  0.21192797  0.83587449  0.72939942  1
  O2-  O234  1  0.70390539  0.33910368  0.06275784  1
  O2-  O235  1  0.70212669  0.33359431  0.40475346  1
  O2-  O236  1  0.69750664  0.33705002  0.73165746  1
  O2-  O237  1  0.70034598  0.83268758  0.06460598  1
  O2-  O238  1  0.70172737  0.83064228  0.39013581  1
  O2-  O239  1  0.70330824  0.82495577  0.73177709  1
  O2-  O240  1  0.46241205  0.41790434  0.26345487  1
  O2-  O241  1  0.46132795  0.41443995  0.59709899  1
  O2-  O242  1  0.46348237  0.40951138  0.93680146  1
  O2-  O243  1  0.45808407  0.91843483  0.26303362  1
  O2-  O244  1  0.45355233  0.91995119  0.60565913  1
  O2-  O245  1  0.45173393  0.91834215  0.93634320  1
  O2-  O246  1  0.95150490  0.42199022  0.26695571  1
  O2-  O247  1  0.95416449  0.41766901  0.59872966  1
  O2-  O248  1  0.94490038  0.41857236  0.94266695  1
  O2-  O249  1  0.96164138  0.91435461  0.26220049  1
  O2-  O250  1  0.96094483  0.91679986  0.59925482  1
  O2-  O251  1  0.95785670  0.91571391  0.94013052  1
  O2-  O252  1  0.33445338  0.28990601  0.26083367  1
  O2-  O253  1  0.33583921  0.28719302  0.59853443  1
  O2-  O254  1  0.33802241  0.29442139  0.93725290  1
  O2-  O255  1  0.33329875  0.79006801  0.26477158  1
  O2-  O256  1  0.33715971  0.79867474  0.60097858  1
  O2-  O257  1  0.33293823  0.79934432  0.93838863  1
  O2-  O258  1  0.82365947  0.29737579  0.26980146  1
  O2-  O259  1  0.82355697  0.29893822  0.60576647  1
  O2-  O260  1  0.83140953  0.29522301  0.93834231  1
  O2-  O261  1  0.83377465  0.78872423  0.26111162  1
  O2-  O262  1  0.83364613  0.79030016  0.59998593  1
  O2-  O263  1  0.83338975  0.80040709  0.93974188  1
  O2-  O264  1  0.42008403  0.05105518  0.06116247  1
  O2-  O265  1  0.41694054  0.04039774  0.40073877  1
  O2-  O266  1  0.41220785  0.04633596  0.73131746  1
  O2-  O267  1  0.41878036  0.53754957  0.06979855  1
  O2-  O268  1  0.41292669  0.54340605  0.39662977  1
  O2-  O269  1  0.41525370  0.53957425  0.72732523  1
  O2-  O270  1  0.91478536  0.03889232  0.07057004  1
  O2-  O271  1  0.91918906  0.03624603  0.40000260  1
  O2-  O272  1  0.92392018  0.04104433  0.73476491  1
  O2-  O273  1  0.91073707  0.54870664  0.06466598  1
  O2-  O274  1  0.91843366  0.55243124  0.39544474  1
  O2-  O275  1  0.91159792  0.54242245  0.72899476  1
  O2-  O276  1  0.29919979  0.16697427  0.05999867  1
  O2-  O277  1  0.28998128  0.16897987  0.39908847  1
  O2-  O278  1  0.29249747  0.16310620  0.72941211  1
  O2-  O279  1  0.29768943  0.66959598  0.06678798  1
  O2-  O280  1  0.29592468  0.66440211  0.39732987  1
  O2-  O281  1  0.30766709  0.66902585  0.72639062  1
  O2-  O282  1  0.78552202  0.16651814  0.06929477  1
  O2-  O283  1  0.79018587  0.16468726  0.40338196  1
  O2-  O284  1  0.79205705  0.16784405  0.73850530  1
  O2-  O285  1  0.78992972  0.66514948  0.06178538  1
  O2-  O286  1  0.79307823  0.66589619  0.39710176  1
  O2-  O287  1  0.79000809  0.66027376  0.72915437  1
