# generated using pymatgen
data_Ca2Al2SiO7
_symmetry_space_group_name_H-M   'P 1'
_cell_length_a   15.46528222
_cell_length_b   15.46784441
_cell_length_c   15.29005450
_cell_angle_alpha   89.99016712
_cell_angle_beta   90.01008589
_cell_angle_gamma   90.00892130
_symmetry_Int_Tables_number   1
_chemical_formula_structural   Ca2Al2SiO7
_chemical_formula_sum   'Ca48 Al48 Si24 O168'
_cell_volume   3657.60379616
_cell_formula_units_Z   24
loop_
 _symmetry_equiv_pos_site_id
 _symmetry_equiv_pos_as_xyz
  1  'x, y, z'
loop_
 _atom_type_symbol
 _atom_type_oxidation_number
  Ca2+  2.0
  Al0+  0.0
  Si0+  0.0
  O2-  -2.0
loop_
 _atom_site_type_symbol
 _atom_site_label
 _atom_site_symmetry_multiplicity
 _atom_site_fract_x
 _atom_site_fract_y
 _atom_site_fract_z
 _atom_site_occupancy
  Ca2+  Ca0  1  0.17658654  0.09501038  0.17227208  1
  Ca2+  Ca1  1  0.18048414  0.09909485  0.49905510  1
  Ca2+  Ca2  1  0.17996608  0.09281843  0.84144390  1
  Ca2+  Ca3  1  0.15668359  0.57441583  0.16998763  1
  Ca2+  Ca4  1  0.16404058  0.57861923  0.49857309  1
  Ca2+  Ca5  1  0.16770393  0.57610664  0.84341709  1
  Ca2+  Ca6  1  0.66955396  0.08182130  0.17702540  1
  Ca2+  Ca7  1  0.66054955  0.08412621  0.49815673  1
  Ca2+  Ca8  1  0.66310160  0.08750280  0.83784795  1
  Ca2+  Ca9  1  0.66642737  0.57493991  0.16804375  1
  Ca2+  Ca10  1  0.67034457  0.56676234  0.50738537  1
  Ca2+  Ca11  1  0.67193069  0.56975384  0.84323667  1
  Ca2+  Ca12  1  0.08848980  0.32802476  0.16416030  1
  Ca2+  Ca13  1  0.07428051  0.33399569  0.49218863  1
  Ca2+  Ca14  1  0.07990506  0.33475822  0.83287245  1
  Ca2+  Ca15  1  0.07791644  0.82153879  0.15767981  1
  Ca2+  Ca16  1  0.08303952  0.82448173  0.49100253  1
  Ca2+  Ca17  1  0.07746378  0.82844669  0.83579181  1
  Ca2+  Ca18  1  0.58546084  0.32633235  0.16258116  1
  Ca2+  Ca19  1  0.57709997  0.32950260  0.49110297  1
  Ca2+  Ca20  1  0.58497745  0.32525798  0.82464881  1
  Ca2+  Ca21  1  0.58772165  0.82982164  0.16091840  1
  Ca2+  Ca22  1  0.58677303  0.83299924  0.49503095  1
  Ca2+  Ca23  1  0.58769117  0.82366434  0.83455898  1
  Ca2+  Ca24  1  0.32268854  0.41125788  0.17237115  1
  Ca2+  Ca25  1  0.32837620  0.40156978  0.49903410  1
  Ca2+  Ca26  1  0.32744867  0.40842204  0.83860990  1
  Ca2+  Ca27  1  0.33550041  0.93205304  0.17188182  1
  Ca2+  Ca28  1  0.33424892  0.93324329  0.50423855  1
  Ca2+  Ca29  1  0.33370425  0.93028906  0.83871584  1
  Ca2+  Ca30  1  0.82132318  0.41783814  0.16747134  1
  Ca2+  Ca31  1  0.82176592  0.41315428  0.50779471  1
  Ca2+  Ca32  1  0.82673813  0.42046340  0.83684109  1
  Ca2+  Ca33  1  0.83089789  0.92049746  0.17268007  1
  Ca2+  Ca34  1  0.83229611  0.92650107  0.49544994  1
  Ca2+  Ca35  1  0.83526050  0.91797208  0.83886218  1
  Ca2+  Ca36  1  0.42370596  0.16726742  0.16461012  1
  Ca2+  Ca37  1  0.42325426  0.17296246  0.49545608  1
  Ca2+  Ca38  1  0.42390623  0.16882758  0.82795208  1
  Ca2+  Ca39  1  0.42364754  0.67012238  0.16082005  1
  Ca2+  Ca40  1  0.41669097  0.67190317  0.49449892  1
  Ca2+  Ca41  1  0.42546936  0.66192557  0.83342121  1
  Ca2+  Ca42  1  0.92776484  0.16101288  0.16242670  1
  Ca2+  Ca43  1  0.91899931  0.17199510  0.49241073  1
  Ca2+  Ca44  1  0.92453947  0.17551420  0.82860173  1
  Ca2+  Ca45  1  0.92100792  0.66945548  0.15652400  1
  Ca2+  Ca46  1  0.91818170  0.66314059  0.49508866  1
  Ca2+  Ca47  1  0.91366788  0.66023994  0.83479499  1
  Al0+  Al48  1  0.00257399  -0.00084552  -0.00968490  1
  Al0+  Al49  1  -0.00005917  -0.00097486  0.33407810  1
  Al0+  Al50  1  0.00069825  -0.00431473  0.66567466  1
  Al0+  Al51  1  -0.00095443  0.50002783  0.00435021  1
  Al0+  Al52  1  0.00057240  0.50009714  0.33291368  1
  Al0+  Al53  1  0.00079549  0.49949681  0.66517535  1
  Al0+  Al54  1  0.50018841  0.00197891  0.00046074  1
  Al0+  Al55  1  0.49931996  0.00022853  0.33871868  1
  Al0+  Al56  1  0.49896155  -0.00146207  0.66948585  1
  Al0+  Al57  1  0.49747064  0.49994518  -0.00029151  1
  Al0+  Al58  1  0.49792086  0.50221496  0.33369021  1
  Al0+  Al59  1  0.49825845  0.49957120  0.66533749  1
  Al0+  Al60  1  0.25128575  0.25028670  0.00484320  1
  Al0+  Al61  1  0.24859945  0.25282633  0.33560533  1
  Al0+  Al62  1  0.25230263  0.24884170  0.67081637  1
  Al0+  Al63  1  0.24887489  0.75233756  -0.00482023  1
  Al0+  Al64  1  0.25013879  0.75016904  0.32749202  1
  Al0+  Al65  1  0.24926385  0.74951767  0.66819538  1
  Al0+  Al66  1  0.75079096  0.24883380  -0.00008750  1
  Al0+  Al67  1  0.74987916  0.25094766  0.33712521  1
  Al0+  Al68  1  0.75236685  0.24643452  0.66352749  1
  Al0+  Al69  1  0.74910745  0.75024549  -0.00514002  1
  Al0+  Al70  1  0.75015221  0.75111077  0.33729542  1
  Al0+  Al71  1  0.75254182  0.75122346  0.66691017  1
  Al0+  Al72  1  0.17977025  0.43062956  0.01380322  1
  Al0+  Al73  1  0.67862173  0.92860683  0.34812302  1
  Al0+  Al74  1  0.31952917  0.07203912  0.34829302  1
  Al0+  Al75  1  0.82184025  0.57059810  0.68141847  1
  Al0+  Al76  1  0.07337426  0.18070137  0.98627794  1
  Al0+  Al77  1  0.06899557  0.17994453  0.32122211  1
  Al0+  Al78  1  0.32095382  0.06995559  0.01606429  1
  Al0+  Al79  1  0.81897439  0.57230925  0.01626623  1
  Al0+  Al80  1  0.07070288  0.67854611  0.31896058  1
  Al0+  Al81  1  0.93146219  0.32087446  0.65336502  1
  Al0+  Al82  1  0.57222085  0.17943562  0.98685792  1
  Al0+  Al83  1  0.92801359  0.82050321  0.98377344  1
  Al0+  Al84  1  0.57112526  0.17890566  0.31735368  1
  Al0+  Al85  1  0.67637364  0.42600869  0.01530058  1
  Al0+  Al86  1  0.31915920  0.06993297  0.68308317  1
  Al0+  Al87  1  0.67652205  0.42958513  0.34726555  1
  Al0+  Al88  1  0.42830338  0.32272319  0.31598546  1
  Al0+  Al89  1  0.07063590  0.67602327  0.98268644  1
  Al0+  Al90  1  0.67726996  0.42583410  0.68183114  1
  Al0+  Al91  1  0.57172766  0.17639348  0.65084217  1
  Al0+  Al92  1  0.17931804  0.43117743  0.34898850  1
  Al0+  Al93  1  0.56932193  0.67799798  0.98681869  1
  Al0+  Al94  1  0.42824812  0.32202635  0.65198183  1
  Al0+  Al95  1  0.82363963  0.07227438  0.34727719  1
  Si0+  Si96  1  0.07101887  0.67970946  0.65090194  1
  Si0+  Si97  1  0.92638230  0.32329298  0.31542830  1
  Si0+  Si98  1  0.42891448  0.81875693  0.65273668  1
  Si0+  Si99  1  0.32069910  0.57540006  0.68156117  1
  Si0+  Si100  1  0.17761018  0.92381013  0.68502984  1
  Si0+  Si101  1  0.18104968  0.43035830  0.68091238  1
  Si0+  Si102  1  0.67949267  0.92945160  0.68369177  1
  Si0+  Si103  1  0.17905336  0.92575174  0.34832907  1
  Si0+  Si104  1  0.82112153  0.57144321  0.34888579  1
  Si0+  Si105  1  0.67974893  0.93037045  0.01212027  1
  Si0+  Si106  1  0.82470039  0.06920282  0.68324008  1
  Si0+  Si107  1  0.32165144  0.57525839  0.34980367  1
  Si0+  Si108  1  0.32178146  0.57594780  0.01613367  1
  Si0+  Si109  1  0.92735657  0.32132272  0.98472642  1
  Si0+  Si110  1  0.42818126  0.32104862  0.98493359  1
  Si0+  Si111  1  0.17672867  0.92792602  0.01693942  1
  Si0+  Si112  1  0.07235160  0.17653923  0.65149239  1
  Si0+  Si113  1  0.92725961  0.82111143  0.31713951  1
  Si0+  Si114  1  0.57244983  0.67972982  0.65117783  1
  Si0+  Si115  1  0.92785464  0.82231083  0.64680837  1
  Si0+  Si116  1  0.42904774  0.82200896  0.31912259  1
  Si0+  Si117  1  0.57184088  0.68039969  0.32031189  1
  Si0+  Si118  1  0.82396464  0.07039955  0.01141732  1
  Si0+  Si119  1  0.42859499  0.82428030  0.98325605  1
  O2-  O120  1  0.24485594  -0.00400948  0.06228432  1
  O2-  O121  1  0.24250322  -0.00190219  0.39457354  1
  O2-  O122  1  0.24081857  -0.00234252  0.72847799  1
  O2-  O123  1  0.25070876  0.51008832  0.05967823  1
  O2-  O124  1  0.25526830  0.50518362  0.39544590  1
  O2-  O125  1  0.25505508  0.49893162  0.72222577  1
  O2-  O126  1  0.75183731  0.00023067  0.05305216  1
  O2-  O127  1  0.74736881  0.00402498  0.39789341  1
  O2-  O128  1  0.74935182  0.00189161  0.72519416  1
  O2-  O129  1  0.74632019  0.50065806  0.06513902  1
  O2-  O130  1  0.75350258  0.50258873  0.39340709  1
  O2-  O131  1  0.74835865  0.49984683  0.73059357  1
  O2-  O132  1  -0.00814167  0.25085462  0.27232684  1
  O2-  O133  1  0.00340068  0.24352839  0.60623250  1
  O2-  O134  1  -0.00169324  0.25463865  0.94009184  1
  O2-  O135  1  -0.00421798  0.75285262  0.27341013  1
  O2-  O136  1  -0.00136450  0.74931835  0.60794389  1
  O2-  O137  1  -0.00309467  0.74586859  0.93192497  1
  O2-  O138  1  0.50189459  0.25264445  0.26572646  1
  O2-  O139  1  0.50495549  0.25446479  0.60300559  1
  O2-  O140  1  0.50179486  0.25809994  0.94080012  1
  O2-  O141  1  0.50225964  0.75297495  0.27783504  1
  O2-  O142  1  0.49994870  0.74912047  0.60798792  1
  O2-  O143  1  0.49281317  0.75126436  0.93892265  1
  O2-  O144  1  0.07172772  0.18039878  0.09923490  1
  O2-  O145  1  0.06902181  0.18365156  0.43472726  1
  O2-  O146  1  0.07125211  0.17846929  0.75729057  1
  O2-  O147  1  0.07018306  0.67934923  0.09604832  1
  O2-  O148  1  0.07043222  0.68058904  0.43298029  1
  O2-  O149  1  0.07308200  0.68065608  0.75533302  1
  O2-  O150  1  0.57229928  0.17492951  0.09922096  1
  O2-  O151  1  0.56789773  0.17825416  0.43073103  1
  O2-  O152  1  0.56813028  0.17455134  0.76486362  1
  O2-  O153  1  0.56832058  0.68205590  0.10022907  1
  O2-  O154  1  0.56988608  0.68187677  0.42577430  1
  O2-  O155  1  0.57096613  0.68190878  0.75616149  1
  O2-  O156  1  0.17921649  0.43222771  0.23626467  1
  O2-  O157  1  0.17995042  0.43204510  0.57600495  1
  O2-  O158  1  0.18273088  0.43006625  0.89981754  1
  O2-  O159  1  0.18316489  0.92255500  0.24321964  1
  O2-  O160  1  0.18075133  0.91679875  0.57974890  1
  O2-  O161  1  0.17886386  0.92788683  0.91111993  1
  O2-  O162  1  0.67658007  0.43233683  0.23444845  1
  O2-  O163  1  0.67763534  0.42928057  0.56809733  1
  O2-  O164  1  0.67793906  0.42504332  0.90182685  1
  O2-  O165  1  0.68117860  0.92400965  0.23441477  1
  O2-  O166  1  0.67983832  0.92696462  0.57893481  1
  O2-  O167  1  0.67872450  0.93122539  0.90662723  1
  O2-  O168  1  0.42622236  0.31874942  0.09009878  1
  O2-  O169  1  0.42912208  0.32008522  0.42958151  1
  O2-  O170  1  0.42360545  0.31903133  0.76557454  1
  O2-  O171  1  0.43151843  0.82528337  0.08900669  1
  O2-  O172  1  0.42672784  0.81888367  0.42459130  1
  O2-  O173  1  0.42966288  0.81671128  0.75761517  1
  O2-  O174  1  0.92503345  0.31795147  0.09005527  1
  O2-  O175  1  0.92977470  0.32502332  0.42143375  1
  O2-  O176  1  0.93532174  0.32084375  0.76661680  1
  O2-  O177  1  0.92946597  0.82246980  0.09731715  1
  O2-  O178  1  0.92808437  0.81954727  0.42315744  1
  O2-  O179  1  0.92732790  0.82652161  0.75116898  1
  O2-  O180  1  0.32000522  0.06920357  0.23535496  1
  O2-  O181  1  0.31771984  0.06844594  0.57005504  1
  O2-  O182  1  0.32103688  0.06809361  0.90275615  1
  O2-  O183  1  0.32168820  0.57910786  0.24464998  1
  O2-  O184  1  0.31625468  0.58557029  0.57731430  1
  O2-  O185  1  0.32261563  0.57440038  0.91006615  1
  O2-  O186  1  0.82666531  0.06674980  0.23335795  1
  O2-  O187  1  0.83019615  0.06526622  0.57885286  1
  O2-  O188  1  0.82307880  0.06987833  0.90595514  1
  O2-  O189  1  0.81868100  0.57376583  0.24371835  1
  O2-  O190  1  0.82014473  0.57103652  0.56745812  1
  O2-  O191  1  0.81714727  0.56958081  0.90269736  1
  O2-  O192  1  0.04398365  0.08073257  0.26879092  1
  O2-  O193  1  0.05027078  0.08083484  0.60826282  1
  O2-  O194  1  0.04571246  0.08484986  0.92960350  1
  O2-  O195  1  0.03985661  0.58233832  0.26578813  1
  O2-  O196  1  0.04471918  0.58797433  0.60293436  1
  O2-  O197  1  0.04432788  0.57626081  0.93163937  1
  O2-  O198  1  0.54210784  0.07819311  0.26842916  1
  O2-  O199  1  0.53804925  0.07787545  0.60009262  1
  O2-  O200  1  0.53849742  0.08365992  0.93207782  1
  O2-  O201  1  0.54171849  0.59076189  0.27145142  1
  O2-  O202  1  0.54485186  0.58813587  0.60407052  1
  O2-  O203  1  0.53718893  0.58250582  0.93061705  1
  O2-  O204  1  0.16418789  0.21475148  0.26812759  1
  O2-  O205  1  0.16596539  0.20483241  0.60854309  1
  O2-  O206  1  0.16927427  0.21491690  0.93298938  1
  O2-  O207  1  0.16685584  0.70878812  0.26419454  1
  O2-  O208  1  0.16244264  0.71010047  0.60324187  1
  O2-  O209  1  0.16953301  0.70589686  0.92942647  1
  O2-  O210  1  0.67259893  0.20325723  0.26867134  1
  O2-  O211  1  0.67409064  0.19276947  0.60243556  1
  O2-  O212  1  0.67041823  0.20493703  0.93271357  1
  O2-  O213  1  0.66387432  0.70813067  0.27378090  1
  O2-  O214  1  0.66312517  0.71162741  0.60421621  1
  O2-  O215  1  0.66266271  0.71234272  0.92960248  1
  O2-  O216  1  0.08245751  0.45575462  0.06821937  1
  O2-  O217  1  0.08309333  0.46428176  0.40364587  1
  O2-  O218  1  0.09084859  0.46173929  0.72861466  1
  O2-  O219  1  0.08211969  0.95255373  0.06017786  1
  O2-  O220  1  0.08345913  0.94449559  0.39265646  1
  O2-  O221  1  0.08137807  0.94385877  0.72777024  1
  O2-  O222  1  0.57676880  0.45440417  0.06551725  1
  O2-  O223  1  0.58106306  0.46482597  0.40126150  1
  O2-  O224  1  0.57726909  0.45449338  0.73208251  1
  O2-  O225  1  0.58866497  0.95763453  0.06059469  1
  O2-  O226  1  0.57979122  0.95168564  0.40292829  1
  O2-  O227  1  0.58693417  0.95315902  0.73144590  1
  O2-  O228  1  0.21452778  0.33646360  0.06934359  1
  O2-  O229  1  0.20862942  0.33563368  0.40517671  1
  O2-  O230  1  0.20631161  0.33829781  0.72914409  1
  O2-  O231  1  0.20175522  0.83333848  0.06168069  1
  O2-  O232  1  0.20960371  0.83365698  0.39621135  1
  O2-  O233  1  0.20888652  0.83321440  0.73478159  1
  O2-  O234  1  0.70963204  0.32871130  0.06852605  1
  O2-  O235  1  0.70561527  0.33346355  0.40184184  1
  O2-  O236  1  0.70770723  0.32626034  0.73096675  1
  O2-  O237  1  0.70551513  0.83809660  0.05869867  1
  O2-  O238  1  0.70978815  0.83179256  0.40521156  1
  O2-  O239  1  0.71035161  0.83827345  0.73104272  1
  O2-  O240  1  0.44971298  0.42490023  0.26729500  1
  O2-  O241  1  0.44485215  0.42435023  0.60065156  1
  O2-  O242  1  0.44390899  0.41737882  0.94052208  1
  O2-  O243  1  0.45594405  0.91361374  0.27243723  1
  O2-  O244  1  0.45723456  0.91008281  0.60550208  1
  O2-  O245  1  0.46079603  0.91464887  0.93485119  1
  O2-  O246  1  0.95659495  0.41512044  0.26925749  1
  O2-  O247  1  0.96490375  0.41586787  0.59720432  1
  O2-  O248  1  0.95266624  0.41521458  0.94033265  1
  O2-  O249  1  0.95166890  0.91469947  0.27173095  1
  O2-  O250  1  0.95848248  0.91249477  0.59710652  1
  O2-  O251  1  0.96054403  0.91611564  0.92558984  1
  O2-  O252  1  0.32934974  0.29268454  0.26619084  1
  O2-  O253  1  0.33044796  0.28762444  0.59967816  1
  O2-  O254  1  0.33699665  0.28895727  0.93773779  1
  O2-  O255  1  0.33974359  0.79250681  0.26815964  1
  O2-  O256  1  0.33731664  0.78973412  0.60517846  1
  O2-  O257  1  0.33365705  0.80496129  0.93752264  1
  O2-  O258  1  0.83148942  0.30193344  0.27184642  1
  O2-  O259  1  0.83563338  0.29003810  0.59869602  1
  O2-  O260  1  0.83630032  0.29211148  0.93553481  1
  O2-  O261  1  0.83323428  0.79547125  0.27196133  1
  O2-  O262  1  0.83586674  0.79545784  0.59911269  1
  O2-  O263  1  0.82915660  0.79691612  0.92918463  1
  O2-  O264  1  0.41675721  0.03553035  0.06967132  1
  O2-  O265  1  0.41334592  0.03685402  0.40409300  1
  O2-  O266  1  0.41406840  0.03280621  0.73688435  1
  O2-  O267  1  0.41461428  0.55024003  0.06318553  1
  O2-  O268  1  0.41576779  0.55447818  0.39688453  1
  O2-  O269  1  0.41469550  0.55302635  0.72654172  1
  O2-  O270  1  0.91617203  0.04037298  0.05648716  1
  O2-  O271  1  0.91971380  0.03834284  0.40439185  1
  O2-  O272  1  0.91514556  0.03633855  0.73186340  1
  O2-  O273  1  0.91758244  0.54564994  0.06861338  1
  O2-  O274  1  0.91518345  0.54684312  0.39412233  1
  O2-  O275  1  0.92113181  0.54186361  0.73262392  1
  O2-  O276  1  0.28963203  0.16539449  0.07006816  1
  O2-  O277  1  0.28690475  0.16752858  0.40235641  1
  O2-  O278  1  0.28940242  0.16590058  0.73914029  1
  O2-  O279  1  0.30109675  0.67224135  0.05907267  1
  O2-  O280  1  0.29290166  0.66836545  0.39711279  1
  O2-  O281  1  0.28866579  0.66369706  0.73401215  1
  O2-  O282  1  0.79877605  0.16160175  0.05970017  1
  O2-  O283  1  0.80121260  0.17151878  0.40008247  1
  O2-  O284  1  0.80170912  0.16204947  0.72989495  1
  O2-  O285  1  0.79025881  0.67220227  0.06616616  1
  O2-  O286  1  0.79662709  0.66498603  0.39626952  1
  O2-  O287  1  0.79698593  0.67154990  0.73134121  1
