# generated using pymatgen
data_Ca2Al2SiO7
_symmetry_space_group_name_H-M   'P 1'
_cell_length_a   15.45393647
_cell_length_b   15.45366222
_cell_length_c   15.28087680
_cell_angle_alpha   89.99566889
_cell_angle_beta   90.00097030
_cell_angle_gamma   90.00030065
_symmetry_Int_Tables_number   1
_chemical_formula_structural   Ca2Al2SiO7
_chemical_formula_sum   'Ca48 Al48 Si24 O168'
_cell_volume   3649.37767639
_cell_formula_units_Z   24
loop_
 _symmetry_equiv_pos_site_id
 _symmetry_equiv_pos_as_xyz
  1  'x, y, z'
loop_
 _atom_type_symbol
 _atom_type_oxidation_number
  Ca2+  2.0
  Al0+  0.0
  Si0+  0.0
  O2-  -2.0
loop_
 _atom_site_type_symbol
 _atom_site_label
 _atom_site_symmetry_multiplicity
 _atom_site_fract_x
 _atom_site_fract_y
 _atom_site_fract_z
 _atom_site_occupancy
  Ca2+  Ca0  1  0.17134438  0.08594580  0.17278671  1
  Ca2+  Ca1  1  0.18379171  0.07816984  0.50726672  1
  Ca2+  Ca2  1  0.16958621  0.07960339  0.83560990  1
  Ca2+  Ca3  1  0.16689180  0.57736007  0.16996808  1
  Ca2+  Ca4  1  0.17015428  0.57968112  0.50299510  1
  Ca2+  Ca5  1  0.18163514  0.58190642  0.84227224  1
  Ca2+  Ca6  1  0.67204486  0.08775902  0.17766612  1
  Ca2+  Ca7  1  0.66459649  0.08449864  0.50396789  1
  Ca2+  Ca8  1  0.65461692  0.07603146  0.82996647  1
  Ca2+  Ca9  1  0.65845420  0.57144098  0.16734558  1
  Ca2+  Ca10  1  0.66732776  0.57787747  0.50712227  1
  Ca2+  Ca11  1  0.66768575  0.58675323  0.84113390  1
  Ca2+  Ca12  1  0.08179247  0.33559611  0.16127493  1
  Ca2+  Ca13  1  0.07610057  0.33791991  0.49008316  1
  Ca2+  Ca14  1  0.09186631  0.32959456  0.83599347  1
  Ca2+  Ca15  1  0.08637217  0.81843303  0.16304420  1
  Ca2+  Ca16  1  0.09063264  0.82658923  0.49618296  1
  Ca2+  Ca17  1  0.08603500  0.82969902  0.82973425  1
  Ca2+  Ca18  1  0.57475819  0.33742852  0.16435054  1
  Ca2+  Ca19  1  0.57749691  0.32439940  0.48958206  1
  Ca2+  Ca20  1  0.57853548  0.33304314  0.83150687  1
  Ca2+  Ca21  1  0.57552030  0.82838787  0.16368327  1
  Ca2+  Ca22  1  0.57582589  0.83273555  0.50007655  1
  Ca2+  Ca23  1  0.57877876  0.82256732  0.82151566  1
  Ca2+  Ca24  1  0.32780982  0.41581888  0.16959345  1
  Ca2+  Ca25  1  0.33019185  0.41786628  0.50046310  1
  Ca2+  Ca26  1  0.33649321  0.42757106  0.84330577  1
  Ca2+  Ca27  1  0.33575582  0.92321907  0.17569736  1
  Ca2+  Ca28  1  0.33971029  0.92289134  0.50686185  1
  Ca2+  Ca29  1  0.33787742  0.92019757  0.82811207  1
  Ca2+  Ca30  1  0.82014850  0.40902636  0.17409340  1
  Ca2+  Ca31  1  0.82826695  0.41837566  0.50038595  1
  Ca2+  Ca32  1  0.82350617  0.42210660  0.83582549  1
  Ca2+  Ca33  1  0.83170479  0.92503178  0.17297555  1
  Ca2+  Ca34  1  0.82644016  0.92363031  0.50552094  1
  Ca2+  Ca35  1  0.82433212  0.91440307  0.83364759  1
  Ca2+  Ca36  1  0.41391589  0.17843378  0.16856171  1
  Ca2+  Ca37  1  0.42469327  0.16252176  0.49193250  1
  Ca2+  Ca38  1  0.41614926  0.17656225  0.82624683  1
  Ca2+  Ca39  1  0.41728273  0.66967109  0.16057655  1
  Ca2+  Ca40  1  0.41068729  0.67786393  0.50060980  1
  Ca2+  Ca41  1  0.42476235  0.66265107  0.82554984  1
  Ca2+  Ca42  1  0.91996686  0.17124145  0.16496182  1
  Ca2+  Ca43  1  0.91699345  0.17186749  0.49055618  1
  Ca2+  Ca44  1  0.92455461  0.16745850  0.83208196  1
  Ca2+  Ca45  1  0.93051968  0.65980694  0.16499873  1
  Ca2+  Ca46  1  0.92148519  0.66420513  0.49522423  1
  Ca2+  Ca47  1  0.92355039  0.65885440  0.82921839  1
  Al0+  Al48  1  -0.00021203  0.00105859  -0.00358846  1
  Al0+  Al49  1  -0.00092871  -0.00140034  0.33865817  1
  Al0+  Al50  1  0.00056817  -0.00026990  0.66894525  1
  Al0+  Al51  1  -0.00057272  0.50023446  -0.00423825  1
  Al0+  Al52  1  -0.00005676  0.49880738  0.32805142  1
  Al0+  Al53  1  -0.00222051  0.49869423  0.67114632  1
  Al0+  Al54  1  0.49971344  0.00006763  0.00276846  1
  Al0+  Al55  1  0.50100602  -0.00135479  0.32695276  1
  Al0+  Al56  1  0.50075618  0.00102437  0.66950604  1
  Al0+  Al57  1  0.50055589  0.50152790  0.00029190  1
  Al0+  Al58  1  0.49897895  0.49997134  0.33742826  1
  Al0+  Al59  1  0.49950161  0.49768693  0.66439074  1
  Al0+  Al60  1  0.25023149  0.25047634  -0.00647748  1
  Al0+  Al61  1  0.25057445  0.24947995  0.34146433  1
  Al0+  Al62  1  0.24833162  0.24854650  0.66803944  1
  Al0+  Al63  1  0.24922970  0.75279544  -0.00110095  1
  Al0+  Al64  1  0.25064957  0.74908261  0.32309086  1
  Al0+  Al65  1  0.24991638  0.74837379  0.67092135  1
  Al0+  Al66  1  0.75060229  0.24909620  0.00114986  1
  Al0+  Al67  1  0.75119091  0.24989351  0.33588225  1
  Al0+  Al68  1  0.75157333  0.25119111  0.66479732  1
  Al0+  Al69  1  0.74990963  0.75202032  0.00122250  1
  Al0+  Al70  1  0.75084622  0.75016254  0.33157057  1
  Al0+  Al71  1  0.75238393  0.74957536  0.66995971  1
  Al0+  Al72  1  0.42650186  0.32257562  0.31920477  1
  Al0+  Al73  1  0.32218756  0.57351270  0.01669236  1
  Al0+  Al74  1  0.32069000  0.56885359  0.67889944  1
  Al0+  Al75  1  0.32317149  0.07173931  0.68393440  1
  Al0+  Al76  1  0.57127858  0.17930380  0.31760367  1
  Al0+  Al77  1  0.43042869  0.82025839  0.31870358  1
  Al0+  Al78  1  0.07078802  0.67817863  0.98300595  1
  Al0+  Al79  1  0.57011940  0.18086263  0.65389422  1
  Al0+  Al80  1  0.56913808  0.68100093  0.98771664  1
  Al0+  Al81  1  0.82026771  0.57063133  0.67995259  1
  Al0+  Al82  1  0.57461336  0.67614734  0.65058007  1
  Al0+  Al83  1  0.17974671  0.42829967  0.01454749  1
  Al0+  Al84  1  0.67999314  0.93045072  0.67943803  1
  Al0+  Al85  1  0.07064487  0.17975617  0.98641354  1
  Al0+  Al86  1  0.17840125  0.92827471  0.68218473  1
  Al0+  Al87  1  0.92981123  0.32003041  0.31956993  1
  Al0+  Al88  1  0.82130671  0.07101335  0.34738669  1
  Al0+  Al89  1  0.17835680  0.42975300  0.34668492  1
  Al0+  Al90  1  0.32107916  0.06974403  0.34567190  1
  Al0+  Al91  1  0.67725769  0.42986535  0.34851119  1
  Al0+  Al92  1  0.42897153  0.81895083  0.65282426  1
  Al0+  Al93  1  0.43026664  0.32025125  0.98641964  1
  Al0+  Al94  1  0.68009559  0.42922111  0.01335903  1
  Al0+  Al95  1  0.07001741  0.67931089  0.32064874  1
  Si0+  Si96  1  0.42747355  0.82572503  0.98172142  1
  Si0+  Si97  1  0.57471723  0.67700470  0.31729554  1
  Si0+  Si98  1  0.17549104  0.42797466  0.68353624  1
  Si0+  Si99  1  0.07221995  0.17651726  0.32071612  1
  Si0+  Si100  1  0.92902156  0.82299648  0.98236914  1
  Si0+  Si101  1  0.82238379  0.57192610  0.34763337  1
  Si0+  Si102  1  0.42497544  0.32229726  0.64870663  1
  Si0+  Si103  1  0.82190612  0.06929994  0.01430688  1
  Si0+  Si104  1  0.92641972  0.82384145  0.31734950  1
  Si0+  Si105  1  0.06962990  0.67854821  0.65291788  1
  Si0+  Si106  1  0.93120885  0.32068228  0.65138656  1
  Si0+  Si107  1  0.32144953  0.57457363  0.35019148  1
  Si0+  Si108  1  0.92881104  0.82242721  0.65146765  1
  Si0+  Si109  1  0.17879800  0.92496665  0.34738057  1
  Si0+  Si110  1  0.17655477  0.93101490  0.01654607  1
  Si0+  Si111  1  0.82232822  0.57404348  0.01802206  1
  Si0+  Si112  1  0.67834001  0.42706914  0.68262549  1
  Si0+  Si113  1  0.07113624  0.17688185  0.64948579  1
  Si0+  Si114  1  0.57436468  0.17697280  0.98376220  1
  Si0+  Si115  1  0.32068354  0.07115757  0.01544562  1
  Si0+  Si116  1  0.67809995  0.92883399  0.01664254  1
  Si0+  Si117  1  0.67823639  0.92643497  0.34934488  1
  Si0+  Si118  1  0.82278967  0.07440387  0.68513110  1
  Si0+  Si119  1  0.92491439  0.32169168  0.98125020  1
  O2-  O120  1  0.25016752  -0.00057620  0.05825231  1
  O2-  O121  1  0.24653608  -0.00605442  0.39141624  1
  O2-  O122  1  0.24981549  0.00024890  0.73353726  1
  O2-  O123  1  0.24867922  0.50224860  0.06603912  1
  O2-  O124  1  0.25412997  0.50348187  0.39325194  1
  O2-  O125  1  0.24878797  0.49166963  0.72607213  1
  O2-  O126  1  0.74729109  0.00241358  0.05730748  1
  O2-  O127  1  0.74652053  -0.00396302  0.39281738  1
  O2-  O128  1  0.75288644  0.00691270  0.72903396  1
  O2-  O129  1  0.75518035  0.50383151  0.06151807  1
  O2-  O130  1  0.75005080  0.50811834  0.39300950  1
  O2-  O131  1  0.73984045  0.50242266  0.72689445  1
  O2-  O132  1  0.00493133  0.24498890  0.27407499  1
  O2-  O133  1  0.00185301  0.24969956  0.60816201  1
  O2-  O134  1  -0.00163880  0.25699145  0.93825933  1
  O2-  O135  1  -0.00481944  0.75504434  0.27405868  1
  O2-  O136  1  0.00052282  0.75149297  0.60991463  1
  O2-  O137  1  -0.00621515  0.75140219  0.93681573  1
  O2-  O138  1  0.50038755  0.25252582  0.26829326  1
  O2-  O139  1  0.49311577  0.25224485  0.60638347  1
  O2-  O140  1  0.50594318  0.24563120  0.94021473  1
  O2-  O141  1  0.50464895  0.74449161  0.27340876  1
  O2-  O142  1  0.50102512  0.74719910  0.60152680  1
  O2-  O143  1  0.49342305  0.75379543  0.93984604  1
  O2-  O144  1  0.06711941  0.17584572  0.09940399  1
  O2-  O145  1  0.06905743  0.17716162  0.42637878  1
  O2-  O146  1  0.06967004  0.17707128  0.75486449  1
  O2-  O147  1  0.06911176  0.68001320  0.09625160  1
  O2-  O148  1  0.06904195  0.68052097  0.43439628  1
  O2-  O149  1  0.06702055  0.67870938  0.75783063  1
  O2-  O150  1  0.57582157  0.17571099  0.08892058  1
  O2-  O151  1  0.56974796  0.17855409  0.43136274  1
  O2-  O152  1  0.57042163  0.18459249  0.76753236  1
  O2-  O153  1  0.56929669  0.68450205  0.10109642  1
  O2-  O154  1  0.57836494  0.67939437  0.42247125  1
  O2-  O155  1  0.57452982  0.67860073  0.76439976  1
  O2-  O156  1  0.17642226  0.43056573  0.23409798  1
  O2-  O157  1  0.17084451  0.43087430  0.57783497  1
  O2-  O158  1  0.18360015  0.42878679  0.90066166  1
  O2-  O159  1  0.17839068  0.92615805  0.24141326  1
  O2-  O160  1  0.17591956  0.93033793  0.56847489  1
  O2-  O161  1  0.17413629  0.93260063  0.91173584  1
  O2-  O162  1  0.67811642  0.43069430  0.23513092  1
  O2-  O163  1  0.68338089  0.42478008  0.57724114  1
  O2-  O164  1  0.68264642  0.42860233  0.90004900  1
  O2-  O165  1  0.68142994  0.92528817  0.24324528  1
  O2-  O166  1  0.68306328  0.93147606  0.56647866  1
  O2-  O167  1  0.67850813  0.92841304  0.91158208  1
  O2-  O168  1  0.42837532  0.31792834  0.09914460  1
  O2-  O169  1  0.42726992  0.32091121  0.43282213  1
  O2-  O170  1  0.42628939  0.32318440  0.75461750  1
  O2-  O171  1  0.43060208  0.82988729  0.08748423  1
  O2-  O172  1  0.42947331  0.82069103  0.43149406  1
  O2-  O173  1  0.43099755  0.81758888  0.76647850  1
  O2-  O174  1  0.92150265  0.31781167  0.08664192  1
  O2-  O175  1  0.93155455  0.32068989  0.43324475  1
  O2-  O176  1  0.93080716  0.31950168  0.75648863  1
  O2-  O177  1  0.93142137  0.82600804  0.08797741  1
  O2-  O178  1  0.92490477  0.82382114  0.42292215  1
  O2-  O179  1  0.92887255  0.82313580  0.75664036  1
  O2-  O180  1  0.31717761  0.06973104  0.23192772  1
  O2-  O181  1  0.32243943  0.07089019  0.57032861  1
  O2-  O182  1  0.32117509  0.06914442  0.91060217  1
  O2-  O183  1  0.32008703  0.57671402  0.24482441  1
  O2-  O184  1  0.31509570  0.57069166  0.56565924  1
  O2-  O185  1  0.32256658  0.57192361  0.90281018  1
  O2-  O186  1  0.82309410  0.06809766  0.23361472  1
  O2-  O187  1  0.82451840  0.07353664  0.57968191  1
  O2-  O188  1  0.82391242  0.06728177  0.90930425  1
  O2-  O189  1  0.82286719  0.57118966  0.24212967  1
  O2-  O190  1  0.82642566  0.56602967  0.56703424  1
  O2-  O191  1  0.82036766  0.57421787  0.91213515  1
  O2-  O192  1  0.04664593  0.08200340  0.27540574  1
  O2-  O193  1  0.04134272  0.08554140  0.60286888  1
  O2-  O194  1  0.03516586  0.08531053  0.92948045  1
  O2-  O195  1  0.03660985  0.58540816  0.26367647  1
  O2-  O196  1  0.03816296  0.58672068  0.60714269  1
  O2-  O197  1  0.04110072  0.58177198  0.92757061  1
  O2-  O198  1  0.54552836  0.08101903  0.26311173  1
  O2-  O199  1  0.54352148  0.08283276  0.60168569  1
  O2-  O200  1  0.54667459  0.08261254  0.93950085  1
  O2-  O201  1  0.54819541  0.58300295  0.27358355  1
  O2-  O202  1  0.54880712  0.57616787  0.59994026  1
  O2-  O203  1  0.54287095  0.58415816  0.93293423  1
  O2-  O204  1  0.16630698  0.20116724  0.27684517  1
  O2-  O205  1  0.16406143  0.20221924  0.60329167  1
  O2-  O206  1  0.16576830  0.20803423  0.92829368  1
  O2-  O207  1  0.16382049  0.70991234  0.26154822  1
  O2-  O208  1  0.16133511  0.70512011  0.60575229  1
  O2-  O209  1  0.16682734  0.71323661  0.93044987  1
  O2-  O210  1  0.67106163  0.20643626  0.26774331  1
  O2-  O211  1  0.66825853  0.21038326  0.60108798  1
  O2-  O212  1  0.66849903  0.20001588  0.93733508  1
  O2-  O213  1  0.66785475  0.70269908  0.26900918  1
  O2-  O214  1  0.67429273  0.70523294  0.60024398  1
  O2-  O215  1  0.66717373  0.71276404  0.93574366  1
  O2-  O216  1  0.07748210  0.45279198  0.06191843  1
  O2-  O217  1  0.08164037  0.46340697  0.40029744  1
  O2-  O218  1  0.08407780  0.45587532  0.73247003  1
  O2-  O219  1  0.08531965  0.96145117  0.06380640  1
  O2-  O220  1  0.08432146  0.94602473  0.39385045  1
  O2-  O221  1  0.07990255  0.95757149  0.73661486  1
  O2-  O222  1  0.58487915  0.46181450  0.06784721  1
  O2-  O223  1  0.58080862  0.45746767  0.40460974  1
  O2-  O224  1  0.58181160  0.44364604  0.72485766  1
  O2-  O225  1  0.58586940  0.95467557  0.06449611  1
  O2-  O226  1  0.58447251  0.95215707  0.39312216  1
  O2-  O227  1  0.58537934  0.96070872  0.73714464  1
  O2-  O228  1  0.20730773  0.32820101  0.06468764  1
  O2-  O229  1  0.20556867  0.33391991  0.40436045  1
  O2-  O230  1  0.19564073  0.33166830  0.72575723  1
  O2-  O231  1  0.20215490  0.83840873  0.06296978  1
  O2-  O232  1  0.20567295  0.83093855  0.39140656  1
  O2-  O233  1  0.20452983  0.82997055  0.73584848  1
  O2-  O234  1  0.71101219  0.33184702  0.06692405  1
  O2-  O235  1  0.71322251  0.33529325  0.40247300  1
  O2-  O236  1  0.71319027  0.33702049  0.73121828  1
  O2-  O237  1  0.70879720  0.83904682  0.06643933  1
  O2-  O238  1  0.70500866  0.83312229  0.39580088  1
  O2-  O239  1  0.71445020  0.83575468  0.73546380  1
  O2-  O240  1  0.45238530  0.42287702  0.26876179  1
  O2-  O241  1  0.45051725  0.41481398  0.60115726  1
  O2-  O242  1  0.46271491  0.41633100  0.93279267  1
  O2-  O243  1  0.46277888  0.91407895  0.26009266  1
  O2-  O244  1  0.45868857  0.91833961  0.60299122  1
  O2-  O245  1  0.45764579  0.91833387  0.93539774  1
  O2-  O246  1  0.95869785  0.41506963  0.26267662  1
  O2-  O247  1  0.96033928  0.41230724  0.60397506  1
  O2-  O248  1  0.94485858  0.41687728  0.93660088  1
  O2-  O249  1  0.95253646  0.91749694  0.27085903  1
  O2-  O250  1  0.95511006  0.91515738  0.60436186  1
  O2-  O251  1  0.95722387  0.91463570  0.93355851  1
  O2-  O252  1  0.32800808  0.28992336  0.26826960  1
  O2-  O253  1  0.32939999  0.29887649  0.60534218  1
  O2-  O254  1  0.33605804  0.28832803  0.92863890  1
  O2-  O255  1  0.33499582  0.79189910  0.26074079  1
  O2-  O256  1  0.32950635  0.79013502  0.60072910  1
  O2-  O257  1  0.33147842  0.80684146  0.93931350  1
  O2-  O258  1  0.83473019  0.28647482  0.26551610  1
  O2-  O259  1  0.83965480  0.29376986  0.60313046  1
  O2-  O260  1  0.83444407  0.28901747  0.93198932  1
  O2-  O261  1  0.83330287  0.79976234  0.26869037  1
  O2-  O262  1  0.83845497  0.79358702  0.60287542  1
  O2-  O263  1  0.83341137  0.80082450  0.93881653  1
  O2-  O264  1  0.41276695  0.04414377  0.06349818  1
  O2-  O265  1  0.41861145  0.03671208  0.39597809  1
  O2-  O266  1  0.42036834  0.04440053  0.73901658  1
  O2-  O267  1  0.42030913  0.54526292  0.06894186  1
  O2-  O268  1  0.41525538  0.55290547  0.39695405  1
  O2-  O269  1  0.41863470  0.53973893  0.73193234  1
  O2-  O270  1  0.91201943  0.03736833  0.06295947  1
  O2-  O271  1  0.91708684  0.04021096  0.40474813  1
  O2-  O272  1  0.91541767  0.04590033  0.73176510  1
  O2-  O273  1  0.91718767  0.54900291  0.06073057  1
  O2-  O274  1  0.91436271  0.54193243  0.39419638  1
  O2-  O275  1  0.91348946  0.53314994  0.73818069  1
  O2-  O276  1  0.29020531  0.16268160  0.06037484  1
  O2-  O277  1  0.29109683  0.16358819  0.40464479  1
  O2-  O278  1  0.29164211  0.17022694  0.73630772  1
  O2-  O279  1  0.29454485  0.67423158  0.06627330  1
  O2-  O280  1  0.29012400  0.66751637  0.39484924  1
  O2-  O281  1  0.28836461  0.66309846  0.73555173  1
  O2-  O282  1  0.79768855  0.16211105  0.06118291  1
  O2-  O283  1  0.79241488  0.16649253  0.40345052  1
  O2-  O284  1  0.79952013  0.16888242  0.73038747  1
  O2-  O285  1  0.79844016  0.66847212  0.06363719  1
  O2-  O286  1  0.80288750  0.66819356  0.39214237  1
  O2-  O287  1  0.79943170  0.66863214  0.73537284  1
