# generated using pymatgen
data_Ca2Al2SiO7
_symmetry_space_group_name_H-M   'P 1'
_cell_length_a   15.46521269
_cell_length_b   15.46795017
_cell_length_c   15.29042282
_cell_angle_alpha   89.99151631
_cell_angle_beta   90.00278288
_cell_angle_gamma   90.01813090
_symmetry_Int_Tables_number   1
_chemical_formula_structural   Ca2Al2SiO7
_chemical_formula_sum   'Ca48 Al48 Si24 O168'
_cell_volume   3657.70039530
_cell_formula_units_Z   24
loop_
 _symmetry_equiv_pos_site_id
 _symmetry_equiv_pos_as_xyz
  1  'x, y, z'
loop_
 _atom_type_symbol
 _atom_type_oxidation_number
  Ca2+  2.0
  Al0+  0.0
  Si0+  0.0
  O2-  -2.0
loop_
 _atom_site_type_symbol
 _atom_site_label
 _atom_site_symmetry_multiplicity
 _atom_site_fract_x
 _atom_site_fract_y
 _atom_site_fract_z
 _atom_site_occupancy
  Ca2+  Ca0  1  0.17431040  0.08448912  0.17551809  1
  Ca2+  Ca1  1  0.16308794  0.08347410  0.50521016  1
  Ca2+  Ca2  1  0.18021278  0.10067266  0.83306393  1
  Ca2+  Ca3  1  0.16238988  0.57072184  0.17347782  1
  Ca2+  Ca4  1  0.15760013  0.58042997  0.50077947  1
  Ca2+  Ca5  1  0.16484393  0.57586139  0.83832570  1
  Ca2+  Ca6  1  0.67491705  0.08827293  0.17445414  1
  Ca2+  Ca7  1  0.67533585  0.07799877  0.50321661  1
  Ca2+  Ca8  1  0.67769464  0.08894740  0.83687821  1
  Ca2+  Ca9  1  0.66825946  0.57639059  0.16590205  1
  Ca2+  Ca10  1  0.67560601  0.57659845  0.51200879  1
  Ca2+  Ca11  1  0.67705059  0.56960275  0.83564910  1
  Ca2+  Ca12  1  0.08689719  0.33220906  0.16666494  1
  Ca2+  Ca13  1  0.07697904  0.32258182  0.49821957  1
  Ca2+  Ca14  1  0.07507866  0.33195078  0.82381898  1
  Ca2+  Ca15  1  0.07934692  0.83550583  0.16959477  1
  Ca2+  Ca16  1  0.07905847  0.82426954  0.48747385  1
  Ca2+  Ca17  1  0.08111089  0.82227250  0.82474243  1
  Ca2+  Ca18  1  0.58109079  0.32196082  0.15614989  1
  Ca2+  Ca19  1  0.57874750  0.33156748  0.49572622  1
  Ca2+  Ca20  1  0.57573951  0.33880674  0.82991299  1
  Ca2+  Ca21  1  0.58796179  0.83548357  0.16431746  1
  Ca2+  Ca22  1  0.58853218  0.84013878  0.49580052  1
  Ca2+  Ca23  1  0.58692987  0.83471026  0.82789806  1
  Ca2+  Ca24  1  0.32337959  0.40787740  0.16698051  1
  Ca2+  Ca25  1  0.32650786  0.41052181  0.50341761  1
  Ca2+  Ca26  1  0.32756727  0.40580468  0.83988659  1
  Ca2+  Ca27  1  0.32803695  0.92398495  0.17130527  1
  Ca2+  Ca28  1  0.32474824  0.92468290  0.50441986  1
  Ca2+  Ca29  1  0.33150524  0.93253331  0.83608783  1
  Ca2+  Ca30  1  0.83075256  0.41986177  0.16565973  1
  Ca2+  Ca31  1  0.83006082  0.41939195  0.51147406  1
  Ca2+  Ca32  1  0.83208843  0.42136423  0.83817092  1
  Ca2+  Ca33  1  0.83078078  0.92736312  0.17607281  1
  Ca2+  Ca34  1  0.83153186  0.92462083  0.50226998  1
  Ca2+  Ca35  1  0.83219898  0.92927804  0.83291645  1
  Ca2+  Ca36  1  0.42970038  0.16553823  0.15731201  1
  Ca2+  Ca37  1  0.42253682  0.16652328  0.49934935  1
  Ca2+  Ca38  1  0.41996786  0.17238368  0.82986120  1
  Ca2+  Ca39  1  0.41651122  0.67076912  0.16350767  1
  Ca2+  Ca40  1  0.42072059  0.67085563  0.49566452  1
  Ca2+  Ca41  1  0.41891054  0.67000757  0.82754692  1
  Ca2+  Ca42  1  0.92198509  0.15640747  0.16533321  1
  Ca2+  Ca43  1  0.91771152  0.16479962  0.49493254  1
  Ca2+  Ca44  1  0.91930535  0.16945543  0.82424568  1
  Ca2+  Ca45  1  0.91526310  0.67223845  0.16553871  1
  Ca2+  Ca46  1  0.92220369  0.67038598  0.49436906  1
  Ca2+  Ca47  1  0.91685598  0.66167534  0.82516982  1
  Al0+  Al48  1  -0.00052725  -0.00316787  -0.00106032  1
  Al0+  Al49  1  0.00170656  -0.00019874  0.33217826  1
  Al0+  Al50  1  -0.00009379  -0.00418235  0.66868748  1
  Al0+  Al51  1  0.00114303  0.50025952  0.00852977  1
  Al0+  Al52  1  0.00110192  0.49914625  0.33441224  1
  Al0+  Al53  1  0.00092814  0.49855708  0.66190528  1
  Al0+  Al54  1  0.49957524  -0.00045455  -0.00179021  1
  Al0+  Al55  1  0.50040433  0.00093130  0.33158866  1
  Al0+  Al56  1  0.49613948  -0.00023361  0.67281213  1
  Al0+  Al57  1  0.49947393  0.50156864  -0.00017914  1
  Al0+  Al58  1  0.49852174  0.50202334  0.33159059  1
  Al0+  Al59  1  0.49831791  0.50232221  0.66404561  1
  Al0+  Al60  1  0.25192627  0.24849390  0.00791741  1
  Al0+  Al61  1  0.24879643  0.25293546  0.33593600  1
  Al0+  Al62  1  0.25077713  0.25047870  0.66142580  1
  Al0+  Al63  1  0.24935453  0.74928340  -0.00201032  1
  Al0+  Al64  1  0.25172003  0.74975043  0.33166802  1
  Al0+  Al65  1  0.25061455  0.74961697  0.66243082  1
  Al0+  Al66  1  0.75253231  0.24972891  0.00521478  1
  Al0+  Al67  1  0.74904895  0.25215196  0.33340172  1
  Al0+  Al68  1  0.74637104  0.24915478  0.67001729  1
  Al0+  Al69  1  0.75136060  0.75071039  0.00014357  1
  Al0+  Al70  1  0.74973442  0.74946610  0.33086970  1
  Al0+  Al71  1  0.75016644  0.74850132  0.67316682  1
  Al0+  Al72  1  0.07181593  0.67848862  0.65286598  1
  Al0+  Al73  1  0.07051665  0.17948655  0.31913199  1
  Al0+  Al74  1  0.82309078  0.07186959  0.68193647  1
  Al0+  Al75  1  0.17900092  0.42939750  0.35165255  1
  Al0+  Al76  1  0.42897303  0.32030292  0.98581975  1
  Al0+  Al77  1  0.07017763  0.17778693  0.65366464  1
  Al0+  Al78  1  0.67459864  0.42719718  0.67971268  1
  Al0+  Al79  1  0.18047962  0.42900290  0.01262418  1
  Al0+  Al80  1  0.67809002  0.92824979  0.34639143  1
  Al0+  Al81  1  0.82345973  0.56746637  0.68017123  1
  Al0+  Al82  1  0.67731291  0.42882560  0.01658451  1
  Al0+  Al83  1  0.92487575  0.31975376  0.65382383  1
  Al0+  Al84  1  0.31730238  0.07197715  0.67973212  1
  Al0+  Al85  1  0.32069626  0.06992580  0.01514654  1
  Al0+  Al86  1  0.82186317  0.57220473  0.01728822  1
  Al0+  Al87  1  0.82196785  0.07298780  0.34843414  1
  Al0+  Al88  1  0.07210596  0.67768292  0.31497914  1
  Al0+  Al89  1  0.57028937  0.18024649  0.32095936  1
  Al0+  Al90  1  0.18019803  0.92907998  0.34621979  1
  Al0+  Al91  1  0.67800144  0.92910872  0.68243541  1
  Al0+  Al92  1  0.92806841  0.82083683  0.31716935  1
  Al0+  Al93  1  0.43020846  0.32220769  0.65149724  1
  Al0+  Al94  1  0.82259389  0.07102786  0.01456332  1
  Al0+  Al95  1  0.57444399  0.17773239  0.98289030  1
  Si0+  Si96  1  0.67854307  0.92875577  0.01547750  1
  Si0+  Si97  1  0.07128333  0.17720822  0.98759754  1
  Si0+  Si98  1  0.42760658  0.82026419  0.98337689  1
  Si0+  Si99  1  0.17819188  0.92486201  0.68295949  1
  Si0+  Si100  1  0.81992872  0.57037389  0.34801866  1
  Si0+  Si101  1  0.32228911  0.07269645  0.35027356  1
  Si0+  Si102  1  0.32185644  0.57540436  0.01560218  1
  Si0+  Si103  1  0.42889134  0.82243605  0.65069714  1
  Si0+  Si104  1  0.93198247  0.32244240  0.98807119  1
  Si0+  Si105  1  0.32119128  0.57392696  0.68077610  1
  Si0+  Si106  1  0.06985726  0.67792538  0.98522193  1
  Si0+  Si107  1  0.92624603  0.81991343  0.65026573  1
  Si0+  Si108  1  0.92700621  0.32248728  0.31547466  1
  Si0+  Si109  1  0.42973513  0.82166661  0.31784467  1
  Si0+  Si110  1  0.17888906  0.92439379  0.01567322  1
  Si0+  Si111  1  0.57220151  0.67992974  0.98331735  1
  Si0+  Si112  1  0.57111659  0.67810397  0.31759012  1
  Si0+  Si113  1  0.18191575  0.43056687  0.68023736  1
  Si0+  Si114  1  0.92853899  0.82064854  0.98181020  1
  Si0+  Si115  1  0.57049826  0.68148134  0.65202355  1
  Si0+  Si116  1  0.32337309  0.57254687  0.35104743  1
  Si0+  Si117  1  0.57062720  0.17481796  0.65054872  1
  Si0+  Si118  1  0.42826762  0.32429070  0.31602871  1
  Si0+  Si119  1  0.67689939  0.43055180  0.34792303  1
  O2-  O120  1  0.24471216  -0.00444318  0.05966794  1
  O2-  O121  1  0.25032039  0.00735191  0.39426636  1
  O2-  O122  1  0.23905930  0.00032375  0.72747277  1
  O2-  O123  1  0.25708298  0.50309361  0.05849646  1
  O2-  O124  1  0.25411217  0.50550494  0.39620520  1
  O2-  O125  1  0.25198646  0.50214143  0.72350435  1
  O2-  O126  1  0.74284900  0.00057091  0.05960199  1
  O2-  O127  1  0.75048876  -0.00096686  0.39612595  1
  O2-  O128  1  0.74771048  0.00276341  0.73235145  1
  O2-  O129  1  0.74937195  0.50089508  0.06751501  1
  O2-  O130  1  0.74922746  0.49955127  0.39033465  1
  O2-  O131  1  0.75440527  0.49167835  0.72866174  1
  O2-  O132  1  -0.00667562  0.25124716  0.27103504  1
  O2-  O133  1  -0.00892523  0.24205549  0.60369359  1
  O2-  O134  1  0.00029387  0.24845356  0.94609054  1
  O2-  O135  1  0.00074745  0.74986749  0.26468156  1
  O2-  O136  1  -0.00276907  0.75310485  0.60703247  1
  O2-  O137  1  -0.00139873  0.74737118  0.94120253  1
  O2-  O138  1  0.49578116  0.25480045  0.27317426  1
  O2-  O139  1  0.50755806  0.24955739  0.60644118  1
  O2-  O140  1  0.50355850  0.25214033  0.93405316  1
  O2-  O141  1  0.50275669  0.75215324  0.27580041  1
  O2-  O142  1  0.50353605  0.75556151  0.60792333  1
  O2-  O143  1  0.50036487  0.75081409  0.94125080  1
  O2-  O144  1  0.07078497  0.17659507  0.09268966  1
  O2-  O145  1  0.07165941  0.18131978  0.43180733  1
  O2-  O146  1  0.07406080  0.18580184  0.76785472  1
  O2-  O147  1  0.07174077  0.67994553  0.08961629  1
  O2-  O148  1  0.06951529  0.67911068  0.42859181  1
  O2-  O149  1  0.07422743  0.67922017  0.76674569  1
  O2-  O150  1  0.57120364  0.17722480  0.09684917  1
  O2-  O151  1  0.56813520  0.18157221  0.43414118  1
  O2-  O152  1  0.56657281  0.17195861  0.75572043  1
  O2-  O153  1  0.57080181  0.68166048  0.08888711  1
  O2-  O154  1  0.56890144  0.67477938  0.42252708  1
  O2-  O155  1  0.56598199  0.68159996  0.75705828  1
  O2-  O156  1  0.18179821  0.42944604  0.23831832  1
  O2-  O157  1  0.18375642  0.43202159  0.57546567  1
  O2-  O158  1  0.17857363  0.43135163  0.89914245  1
  O2-  O159  1  0.18536205  0.92931654  0.23283193  1
  O2-  O160  1  0.18352660  0.92128378  0.57768581  1
  O2-  O161  1  0.18195072  0.91836145  0.91029570  1
  O2-  O162  1  0.67523369  0.43327353  0.24314017  1
  O2-  O163  1  0.67179078  0.43452069  0.56556261  1
  O2-  O164  1  0.67729877  0.43229595  0.90348588  1
  O2-  O165  1  0.67726977  0.92888824  0.23278919  1
  O2-  O166  1  0.67847078  0.92911451  0.56911606  1
  O2-  O167  1  0.68145194  0.92577110  0.91021023  1
  O2-  O168  1  0.42780071  0.31733415  0.09941795  1
  O2-  O169  1  0.43106554  0.32706353  0.42178819  1
  O2-  O170  1  0.42685042  0.32186892  0.76419861  1
  O2-  O171  1  0.42586221  0.81800790  0.08868150  1
  O2-  O172  1  0.42900569  0.81976027  0.42292454  1
  O2-  O173  1  0.42607065  0.81840341  0.75581031  1
  O2-  O174  1  0.93500371  0.32485736  0.09312717  1
  O2-  O175  1  0.92725836  0.32404033  0.42083801  1
  O2-  O176  1  0.93160579  0.32452593  0.76788173  1
  O2-  O177  1  0.92888491  0.82207794  0.08646105  1
  O2-  O178  1  0.92703253  0.81667922  0.43075061  1
  O2-  O179  1  0.92817996  0.81831833  0.75640362  1
  O2-  O180  1  0.32296994  0.06904754  0.24452382  1
  O2-  O181  1  0.31934326  0.06839878  0.56682529  1
  O2-  O182  1  0.31815661  0.07062142  0.90194319  1
  O2-  O183  1  0.32681664  0.57219139  0.24550910  1
  O2-  O184  1  0.32230319  0.57639763  0.57602402  1
  O2-  O185  1  0.31832407  0.58171363  0.91011914  1
  O2-  O186  1  0.81969903  0.07178055  0.23469109  1
  O2-  O187  1  0.82390213  0.06894296  0.56877851  1
  O2-  O188  1  0.82726451  0.06837242  0.90191727  1
  O2-  O189  1  0.81739308  0.56997676  0.24295037  1
  O2-  O190  1  0.81962425  0.57020799  0.56616811  1
  O2-  O191  1  0.82330535  0.57009757  0.90402699  1
  O2-  O192  1  0.04612991  0.08191245  0.26413520  1
  O2-  O193  1  0.05320507  0.07400933  0.60752382  1
  O2-  O194  1  0.04601237  0.08488398  0.93992819  1
  O2-  O195  1  0.04219405  0.57863562  0.26461500  1
  O2-  O196  1  0.04263665  0.58273199  0.59788627  1
  O2-  O197  1  0.04288752  0.58503063  0.93958160  1
  O2-  O198  1  0.53961203  0.08394418  0.26560418  1
  O2-  O199  1  0.53573156  0.08371888  0.60407682  1
  O2-  O200  1  0.54404744  0.07881707  0.93164360  1
  O2-  O201  1  0.53848962  0.58888983  0.26682262  1
  O2-  O202  1  0.53813878  0.59275148  0.60137978  1
  O2-  O203  1  0.54368402  0.58900876  0.93545548  1
  O2-  O204  1  0.16761642  0.21384577  0.26625340  1
  O2-  O205  1  0.16526597  0.21234974  0.59795903  1
  O2-  O206  1  0.16373928  0.20705205  0.94369718  1
  O2-  O207  1  0.17269078  0.70383920  0.26495990  1
  O2-  O208  1  0.16844040  0.70857641  0.59782227  1
  O2-  O209  1  0.16187415  0.70599118  0.93683503  1
  O2-  O210  1  0.66631815  0.21248582  0.26658816  1
  O2-  O211  1  0.66644589  0.19268554  0.60717181  1
  O2-  O212  1  0.67571779  0.20365303  0.93524891  1
  O2-  O213  1  0.66241559  0.70253421  0.26834972  1
  O2-  O214  1  0.66378211  0.70580268  0.60623056  1
  O2-  O215  1  0.66356017  0.70920176  0.93610911  1
  O2-  O216  1  0.08736120  0.46189012  0.07115289  1
  O2-  O217  1  0.08211082  0.46035235  0.40462686  1
  O2-  O218  1  0.09007742  0.45837617  0.72674996  1
  O2-  O219  1  0.08411604  0.94772923  0.05870539  1
  O2-  O220  1  0.08285759  0.95403972  0.39950404  1
  O2-  O221  1  0.08203671  0.93851360  0.72691504  1
  O2-  O222  1  0.57899387  0.46058009  0.06935597  1
  O2-  O223  1  0.58510726  0.46103071  0.39419977  1
  O2-  O224  1  0.57970496  0.46715935  0.73334319  1
  O2-  O225  1  0.58195299  0.94638953  0.05822068  1
  O2-  O226  1  0.57871143  0.95538311  0.39862248  1
  O2-  O227  1  0.57713850  0.95066373  0.73368425  1
  O2-  O228  1  0.21055897  0.33422036  0.07032947  1
  O2-  O229  1  0.21136483  0.33392791  0.40687674  1
  O2-  O230  1  0.21158778  0.33950527  0.72683405  1
  O2-  O231  1  0.20787972  0.83245103  0.06381922  1
  O2-  O232  1  0.21527325  0.83316089  0.39956094  1
  O2-  O233  1  0.21311055  0.83419335  0.73080372  1
  O2-  O234  1  0.70766447  0.33182977  0.07027291  1
  O2-  O235  1  0.70251040  0.33893363  0.39530505  1
  O2-  O236  1  0.68853891  0.32590211  0.72970497  1
  O2-  O237  1  0.70653717  0.83590265  0.06208795  1
  O2-  O238  1  0.70181619  0.82714911  0.39694398  1
  O2-  O239  1  0.70603586  0.83078518  0.73654519  1
  O2-  O240  1  0.45284363  0.41834236  0.26976626  1
  O2-  O241  1  0.45597116  0.42071717  0.59719845  1
  O2-  O242  1  0.44964092  0.42276748  0.93584310  1
  O2-  O243  1  0.45539469  0.91300682  0.26878225  1
  O2-  O244  1  0.45230131  0.91520576  0.60389082  1
  O2-  O245  1  0.45360216  0.91178496  0.93530762  1
  O2-  O246  1  0.95709009  0.41471656  0.26906586  1
  O2-  O247  1  0.95968114  0.41498464  0.59771513  1
  O2-  O248  1  0.96336520  0.41371565  0.94088274  1
  O2-  O249  1  0.95802501  0.91854240  0.26379256  1
  O2-  O250  1  0.94967200  0.91390454  0.60517130  1
  O2-  O251  1  0.95977672  0.91048057  0.93188317  1
  O2-  O252  1  0.33341379  0.29989560  0.27359365  1
  O2-  O253  1  0.33580919  0.28815937  0.59522151  1
  O2-  O254  1  0.32982529  0.28795655  0.93506436  1
  O2-  O255  1  0.34058799  0.79049129  0.26715325  1
  O2-  O256  1  0.34002807  0.78933447  0.60054483  1
  O2-  O257  1  0.33709342  0.78956127  0.93436748  1
  O2-  O258  1  0.83190121  0.30228133  0.27031968  1
  O2-  O259  1  0.82279016  0.30162536  0.60385927  1
  O2-  O260  1  0.83890555  0.29836218  0.94300352  1
  O2-  O261  1  0.83019446  0.79019790  0.26250514  1
  O2-  O262  1  0.83300307  0.79153475  0.60560138  1
  O2-  O263  1  0.83652763  0.79358145  0.93462052  1
  O2-  O264  1  0.41673173  0.03513892  0.06801264  1
  O2-  O265  1  0.41387226  0.04165160  0.39643507  1
  O2-  O266  1  0.41034790  0.03702531  0.73724060  1
  O2-  O267  1  0.41707040  0.55618674  0.06018621  1
  O2-  O268  1  0.41705854  0.54683969  0.39842756  1
  O2-  O269  1  0.41328643  0.54912911  0.72835963  1
  O2-  O270  1  0.91813893  0.03371934  0.06783456  1
  O2-  O271  1  0.92122442  0.04552149  0.39827205  1
  O2-  O272  1  0.92085865  0.04003148  0.73670388  1
  O2-  O273  1  0.91887775  0.54379672  0.07230870  1
  O2-  O274  1  0.91205524  0.54341111  0.39386016  1
  O2-  O275  1  0.92315535  0.54204484  0.73240065  1
  O2-  O276  1  0.29078755  0.16381861  0.07335317  1
  O2-  O277  1  0.30105814  0.16792759  0.39341509  1
  O2-  O278  1  0.28734427  0.16926708  0.73339349  1
  O2-  O279  1  0.29289947  0.66712936  0.06470726  1
  O2-  O280  1  0.30105902  0.66717183  0.39605016  1
  O2-  O281  1  0.29272208  0.66510891  0.72988226  1
  O2-  O282  1  0.80003060  0.16851049  0.06952639  1
  O2-  O283  1  0.79255439  0.17202250  0.39979650  1
  O2-  O284  1  0.79776392  0.17109947  0.73485842  1
  O2-  O285  1  0.79158582  0.67095266  0.06859986  1
  O2-  O286  1  0.79083224  0.66175649  0.39446291  1
  O2-  O287  1  0.79183932  0.66383079  0.73509169  1
