# generated using pymatgen
data_Ca2Al2SiO7
_symmetry_space_group_name_H-M   'P 1'
_cell_length_a   15.45872381
_cell_length_b   15.45845713
_cell_length_c   15.28316721
_cell_angle_alpha   90.00622148
_cell_angle_beta   89.99460390
_cell_angle_gamma   90.01005128
_symmetry_Int_Tables_number   1
_chemical_formula_structural   Ca2Al2SiO7
_chemical_formula_sum   'Ca48 Al48 Si24 O168'
_cell_volume   3652.18810181
_cell_formula_units_Z   24
loop_
 _symmetry_equiv_pos_site_id
 _symmetry_equiv_pos_as_xyz
  1  'x, y, z'
loop_
 _atom_type_symbol
 _atom_type_oxidation_number
  Ca2+  2.0
  Al0+  0.0
  Si0+  0.0
  O2-  -2.0
loop_
 _atom_site_type_symbol
 _atom_site_label
 _atom_site_symmetry_multiplicity
 _atom_site_fract_x
 _atom_site_fract_y
 _atom_site_fract_z
 _atom_site_occupancy
  Ca2+  Ca0  1  0.17592892  0.08897577  0.17176495  1
  Ca2+  Ca1  1  0.16640515  0.08196810  0.50232945  1
  Ca2+  Ca2  1  0.17120599  0.07465520  0.83777813  1
  Ca2+  Ca3  1  0.16711717  0.58183061  0.16726968  1
  Ca2+  Ca4  1  0.17676410  0.58138523  0.51108048  1
  Ca2+  Ca5  1  0.15830678  0.57705896  0.83664107  1
  Ca2+  Ca6  1  0.67499724  0.07603123  0.17047969  1
  Ca2+  Ca7  1  0.67377960  0.07063784  0.50581361  1
  Ca2+  Ca8  1  0.67666123  0.07925531  0.83484185  1
  Ca2+  Ca9  1  0.66598493  0.57135423  0.17208696  1
  Ca2+  Ca10  1  0.67322973  0.57991524  0.50603883  1
  Ca2+  Ca11  1  0.67071317  0.58332543  0.83289570  1
  Ca2+  Ca12  1  0.07495685  0.33144673  0.16244508  1
  Ca2+  Ca13  1  0.07947504  0.32904230  0.49184676  1
  Ca2+  Ca14  1  0.08310027  0.33709354  0.83131135  1
  Ca2+  Ca15  1  0.07423054  0.82698768  0.15870819  1
  Ca2+  Ca16  1  0.08044909  0.83128534  0.49707264  1
  Ca2+  Ca17  1  0.08321263  0.82332144  0.82801884  1
  Ca2+  Ca18  1  0.57917358  0.34039670  0.16374854  1
  Ca2+  Ca19  1  0.57705179  0.33411584  0.49034582  1
  Ca2+  Ca20  1  0.58549347  0.33387556  0.83085366  1
  Ca2+  Ca21  1  0.57877873  0.83552541  0.16176170  1
  Ca2+  Ca22  1  0.59223669  0.82887127  0.49829658  1
  Ca2+  Ca23  1  0.57588241  0.83428542  0.82568866  1
  Ca2+  Ca24  1  0.32729953  0.42108022  0.17482786  1
  Ca2+  Ca25  1  0.32951809  0.42384237  0.50368859  1
  Ca2+  Ca26  1  0.32070105  0.42411754  0.83513176  1
  Ca2+  Ca27  1  0.33723528  0.92614294  0.17010149  1
  Ca2+  Ca28  1  0.32631257  0.92443830  0.50428256  1
  Ca2+  Ca29  1  0.32855623  0.91404749  0.83942593  1
  Ca2+  Ca30  1  0.82601088  0.40814813  0.16903954  1
  Ca2+  Ca31  1  0.83064835  0.41639756  0.50379893  1
  Ca2+  Ca32  1  0.83317851  0.42387840  0.84166361  1
  Ca2+  Ca33  1  0.83645355  0.91637186  0.17295718  1
  Ca2+  Ca34  1  0.82782904  0.91561064  0.50660028  1
  Ca2+  Ca35  1  0.83519897  0.92553548  0.83826757  1
  Ca2+  Ca36  1  0.41417270  0.16747399  0.16351139  1
  Ca2+  Ca37  1  0.41452502  0.17470019  0.48932981  1
  Ca2+  Ca38  1  0.41459927  0.16628545  0.83170503  1
  Ca2+  Ca39  1  0.41558441  0.67140205  0.16144092  1
  Ca2+  Ca40  1  0.42060661  0.65859495  0.49811586  1
  Ca2+  Ca41  1  0.42197535  0.66713395  0.82637130  1
  Ca2+  Ca42  1  0.91847297  0.17333492  0.16267846  1
  Ca2+  Ca43  1  0.92221558  0.16937680  0.49159348  1
  Ca2+  Ca44  1  0.90533399  0.17187414  0.83190529  1
  Ca2+  Ca45  1  0.91901629  0.67882923  0.15859757  1
  Ca2+  Ca46  1  0.92129134  0.66705338  0.49788430  1
  Ca2+  Ca47  1  0.92620283  0.66526682  0.82861255  1
  Al0+  Al48  1  0.00154908  0.00150917  0.00176284  1
  Al0+  Al49  1  0.00218027  -0.00052426  0.32503905  1
  Al0+  Al50  1  0.00124411  0.00206679  0.67440720  1
  Al0+  Al51  1  -0.00156665  0.49896196  0.00001203  1
  Al0+  Al52  1  -0.00026553  0.49984168  0.32830837  1
  Al0+  Al53  1  -0.00107305  0.50043200  0.66702512  1
  Al0+  Al54  1  0.50044219  0.00085275  -0.00187208  1
  Al0+  Al55  1  0.50012958  -0.00042601  0.34280594  1
  Al0+  Al56  1  0.50087824  0.00204179  0.66688512  1
  Al0+  Al57  1  0.49882643  0.49954258  0.00132016  1
  Al0+  Al58  1  0.50094759  0.49928023  0.33605981  1
  Al0+  Al59  1  0.49892204  0.50070856  0.66565819  1
  Al0+  Al60  1  0.24968961  0.25167637  0.00585195  1
  Al0+  Al61  1  0.25167361  0.25166491  0.32974360  1
  Al0+  Al62  1  0.24869544  0.25151758  0.66843603  1
  Al0+  Al63  1  0.25077808  0.74943118  -0.00675309  1
  Al0+  Al64  1  0.25232145  0.75060045  0.33665777  1
  Al0+  Al65  1  0.25140709  0.75180403  0.66801831  1
  Al0+  Al66  1  0.74911084  0.24813062  0.00414104  1
  Al0+  Al67  1  0.74821239  0.24703403  0.33554793  1
  Al0+  Al68  1  0.74790740  0.24885446  0.66547467  1
  Al0+  Al69  1  0.74889370  0.75016873  -0.00394129  1
  Al0+  Al70  1  0.74986617  0.74781886  0.33160979  1
  Al0+  Al71  1  0.74744257  0.74890522  0.67100966  1
  Al0+  Al72  1  0.17692415  0.42988167  0.01652864  1
  Al0+  Al73  1  0.32055851  0.57221492  0.34669548  1
  Al0+  Al74  1  0.32038618  0.07263870  0.34754681  1
  Al0+  Al75  1  0.92747503  0.31734150  0.98503025  1
  Al0+  Al76  1  0.57043534  0.67948065  0.65146739  1
  Al0+  Al77  1  0.43146173  0.82215339  0.98725051  1
  Al0+  Al78  1  0.17930870  0.92931787  0.68000040  1
  Al0+  Al79  1  0.67802942  0.92759653  0.68320989  1
  Al0+  Al80  1  0.07234755  0.17875988  0.31751356  1
  Al0+  Al81  1  0.82168483  0.07164597  0.68075679  1
  Al0+  Al82  1  0.92598113  0.32170571  0.31843647  1
  Al0+  Al83  1  0.07166350  0.67829787  0.65093479  1
  Al0+  Al84  1  0.67892664  0.42960844  0.01287688  1
  Al0+  Al85  1  0.32141851  0.06962323  0.01325631  1
  Al0+  Al86  1  0.92866627  0.81859530  0.32203754  1
  Al0+  Al87  1  0.68016486  0.42680656  0.34789558  1
  Al0+  Al88  1  0.17796460  0.42947118  0.68045909  1
  Al0+  Al89  1  0.82221044  0.06994118  0.01621771  1
  Al0+  Al90  1  0.32284771  0.57188563  0.68248275  1
  Al0+  Al91  1  0.68031966  0.92701583  0.34637003  1
  Al0+  Al92  1  0.82126381  0.57016029  0.67937623  1
  Al0+  Al93  1  0.92680113  0.82492797  0.98279557  1
  Al0+  Al94  1  0.06963821  0.67897475  0.98444616  1
  Al0+  Al95  1  0.43151652  0.32212644  0.31877205  1
  Si0+  Si96  1  0.42948608  0.82186555  0.32048403  1
  Si0+  Si97  1  0.82153682  0.57310533  0.01744666  1
  Si0+  Si98  1  0.17695665  0.42929089  0.34909699  1
  Si0+  Si99  1  0.56996156  0.17496202  0.31676886  1
  Si0+  Si100  1  0.57066361  0.67508213  0.98342501  1
  Si0+  Si101  1  0.92739638  0.32079633  0.65250951  1
  Si0+  Si102  1  0.07505373  0.17987203  0.98154827  1
  Si0+  Si103  1  0.42806029  0.82526088  0.64708756  1
  Si0+  Si104  1  0.56939991  0.18006661  0.98481594  1
  Si0+  Si105  1  0.82172423  0.57161549  0.34803639  1
  Si0+  Si106  1  0.57075147  0.67894890  0.31803272  1
  Si0+  Si107  1  0.17932160  0.92584939  0.01760487  1
  Si0+  Si108  1  0.07158272  0.17937659  0.65333738  1
  Si0+  Si109  1  0.32164097  0.57207239  0.01671758  1
  Si0+  Si110  1  0.92954441  0.82318140  0.65190987  1
  Si0+  Si111  1  0.57189274  0.17904732  0.64948275  1
  Si0+  Si112  1  0.67808943  0.92795809  0.01583702  1
  Si0+  Si113  1  0.07560626  0.67855353  0.31777766  1
  Si0+  Si114  1  0.42750912  0.32229394  0.98398909  1
  Si0+  Si115  1  0.17809249  0.92849024  0.34843327  1
  Si0+  Si116  1  0.32140612  0.07347335  0.68238313  1
  Si0+  Si117  1  0.67773324  0.42772286  0.68198828  1
  Si0+  Si118  1  0.82441355  0.06973538  0.34936926  1
  Si0+  Si119  1  0.42845150  0.31938948  0.65229162  1
  O2-  O120  1  0.24726238  -0.00451941  0.06170974  1
  O2-  O121  1  0.24356093  0.00025553  0.39329712  1
  O2-  O122  1  0.25761771  0.00099406  0.72643805  1
  O2-  O123  1  0.25170054  0.50546336  0.06151531  1
  O2-  O124  1  0.24221441  0.50118396  0.39299024  1
  O2-  O125  1  0.24555058  0.50543595  0.73167488  1
  O2-  O126  1  0.75344215  -0.01153658  0.06118732  1
  O2-  O127  1  0.75806872  -0.00139581  0.39302444  1
  O2-  O128  1  0.75242098  -0.00257794  0.73171851  1
  O2-  O129  1  0.75151880  0.50535769  0.06119223  1
  O2-  O130  1  0.75955168  0.49697645  0.39285742  1
  O2-  O131  1  0.74751569  0.49422200  0.72632786  1
  O2-  O132  1  -0.00140067  0.24993915  0.26895594  1
  O2-  O133  1  -0.00085863  0.24956007  0.61176669  1
  O2-  O134  1  0.00259845  0.24394752  0.93591506  1
  O2-  O135  1  0.00408538  0.74472852  0.27477261  1
  O2-  O136  1  -0.00275055  0.75438776  0.60530834  1
  O2-  O137  1  -0.00166552  0.75193012  0.93400534  1
  O2-  O138  1  0.50532769  0.24664691  0.27078049  1
  O2-  O139  1  0.49897803  0.24850611  0.60867916  1
  O2-  O140  1  0.49861830  0.25143885  0.94141554  1
  O2-  O141  1  0.49983100  0.75067178  0.27694571  1
  O2-  O142  1  0.49651169  0.75544437  0.60358252  1
  O2-  O143  1  0.50550357  0.74734589  0.94016561  1
  O2-  O144  1  0.07659941  0.18288238  0.08691060  1
  O2-  O145  1  0.07067921  0.17878613  0.43214575  1
  O2-  O146  1  0.07545648  0.18106131  0.75809597  1
  O2-  O147  1  0.07023161  0.68118421  0.09881049  1
  O2-  O148  1  0.07605514  0.67974723  0.42338360  1
  O2-  O149  1  0.06829024  0.67768400  0.76345184  1
  O2-  O150  1  0.56746405  0.17854807  0.08979420  1
  O2-  O151  1  0.56730516  0.17588353  0.42265453  1
  O2-  O152  1  0.57310999  0.18066533  0.75480163  1
  O2-  O153  1  0.56835479  0.67326387  0.08945243  1
  O2-  O154  1  0.57171253  0.67911236  0.42298993  1
  O2-  O155  1  0.56726814  0.67740345  0.76452203  1
  O2-  O156  1  0.17873897  0.43038561  0.24350286  1
  O2-  O157  1  0.18052263  0.42557755  0.56680921  1
  O2-  O158  1  0.18032328  0.42892543  0.90351011  1
  O2-  O159  1  0.18206897  0.92529902  0.24319175  1
  O2-  O160  1  0.17838238  0.93371072  0.56647699  1
  O2-  O161  1  0.18170557  0.92715405  0.91182500  1
  O2-  O162  1  0.67744304  0.43146137  0.23487756  1
  O2-  O163  1  0.67844620  0.42685232  0.57634439  1
  O2-  O164  1  0.67872038  0.43025694  0.89959067  1
  O2-  O165  1  0.67868118  0.92903397  0.23314655  1
  O2-  O166  1  0.68055001  0.92950383  0.56923122  1
  O2-  O167  1  0.67395186  0.93247444  0.91083482  1
  O2-  O168  1  0.42950181  0.32330753  0.08890266  1
  O2-  O169  1  0.43216208  0.32073528  0.43246963  1
  O2-  O170  1  0.42893861  0.31725522  0.75765820  1
  O2-  O171  1  0.43377843  0.82222583  0.10117303  1
  O2-  O172  1  0.42900284  0.82170586  0.42528127  1
  O2-  O173  1  0.43054689  0.82752697  0.75280749  1
  O2-  O174  1  0.92699574  0.31505464  0.09773318  1
  O2-  O175  1  0.92757866  0.32071901  0.43282531  1
  O2-  O176  1  0.92476389  0.31936989  0.75747732  1
  O2-  O177  1  0.92794476  0.82109397  0.09702327  1
  O2-  O178  1  0.92901499  0.81754112  0.43539875  1
  O2-  O179  1  0.93236891  0.82322304  0.75706143  1
  O2-  O180  1  0.32274693  0.06842620  0.23456364  1
  O2-  O181  1  0.31879515  0.07602258  0.57680049  1
  O2-  O182  1  0.32032255  0.06935168  0.89985273  1
  O2-  O183  1  0.32049849  0.57285978  0.23342040  1
  O2-  O184  1  0.32363577  0.56591884  0.56865225  1
  O2-  O185  1  0.32549624  0.56935065  0.91162475  1
  O2-  O186  1  0.82150067  0.06971375  0.24382251  1
  O2-  O187  1  0.82121624  0.07295661  0.56702883  1
  O2-  O188  1  0.81533442  0.07315911  0.90342073  1
  O2-  O189  1  0.81662390  0.57560079  0.24274818  1
  O2-  O190  1  0.82090451  0.56678362  0.56585065  1
  O2-  O191  1  0.82071881  0.57126175  0.91171360  1
  O2-  O192  1  0.04904142  0.08035960  0.26207358  1
  O2-  O193  1  0.04414559  0.08722280  0.60628872  1
  O2-  O194  1  0.05526321  0.08330442  0.93993151  1
  O2-  O195  1  0.05389397  0.58400069  0.27233933  1
  O2-  O196  1  0.03909861  0.58180705  0.59650975  1
  O2-  O197  1  0.03910226  0.58071651  0.93263030  1
  O2-  O198  1  0.53996830  0.08219762  0.27137939  1
  O2-  O199  1  0.54586378  0.08674749  0.60209131  1
  O2-  O200  1  0.54023278  0.08999092  0.93467930  1
  O2-  O201  1  0.54110207  0.58784349  0.27080955  1
  O2-  O202  1  0.53924686  0.58223690  0.59668073  1
  O2-  O203  1  0.54068937  0.58343832  0.93530888  1
  O2-  O204  1  0.17012792  0.20835690  0.26454376  1
  O2-  O205  1  0.16282821  0.20817362  0.60410132  1
  O2-  O206  1  0.16760883  0.21002298  0.93508587  1
  O2-  O207  1  0.16824440  0.70762777  0.27101976  1
  O2-  O208  1  0.16985146  0.70894403  0.59950506  1
  O2-  O209  1  0.16875888  0.70398329  0.93109054  1
  O2-  O210  1  0.66549275  0.19558041  0.27328865  1
  O2-  O211  1  0.66200563  0.20836875  0.59921108  1
  O2-  O212  1  0.66010996  0.21008497  0.93715842  1
  O2-  O213  1  0.66135047  0.70609320  0.26831272  1
  O2-  O214  1  0.66822862  0.70843060  0.59716511  1
  O2-  O215  1  0.66578533  0.69543729  0.93900818  1
  O2-  O216  1  0.08000268  0.45970600  0.07015309  1
  O2-  O217  1  0.08104358  0.44982496  0.39294199  1
  O2-  O218  1  0.07876672  0.45369923  0.73260607  1
  O2-  O219  1  0.08537844  0.95009185  0.06289581  1
  O2-  O220  1  0.08348727  0.95249753  0.39309180  1
  O2-  O221  1  0.08635590  0.96269627  0.73823607  1
  O2-  O222  1  0.58158021  0.45989489  0.06714948  1
  O2-  O223  1  0.58580864  0.46226695  0.40304249  1
  O2-  O224  1  0.58462575  0.45430959  0.72760989  1
  O2-  O225  1  0.58759511  0.96197809  0.06376913  1
  O2-  O226  1  0.58613206  0.95887835  0.40401897  1
  O2-  O227  1  0.58011264  0.96104390  0.73501871  1
  O2-  O228  1  0.21045686  0.33513111  0.07154159  1
  O2-  O229  1  0.20671136  0.33683838  0.39443997  1
  O2-  O230  1  0.21078754  0.33286279  0.73572114  1
  O2-  O231  1  0.20656036  0.83206623  0.06207419  1
  O2-  O232  1  0.20715947  0.83701189  0.39731256  1
  O2-  O233  1  0.20858251  0.83347064  0.73506273  1
  O2-  O234  1  0.70835330  0.33356377  0.06786704  1
  O2-  O235  1  0.70336525  0.32803120  0.40201085  1
  O2-  O236  1  0.70059080  0.33317375  0.72690865  1
  O2-  O237  1  0.69360818  0.83042368  0.05807031  1
  O2-  O238  1  0.70949575  0.82939194  0.39936010  1
  O2-  O239  1  0.69850420  0.82826561  0.73549042  1
  O2-  O240  1  0.46475597  0.41790224  0.26419873  1
  O2-  O241  1  0.45690847  0.41069049  0.60491095  1
  O2-  O242  1  0.45610506  0.41364872  0.93600551  1
  O2-  O243  1  0.45940667  0.91388103  0.27448493  1
  O2-  O244  1  0.45365281  0.91995515  0.60168993  1
  O2-  O245  1  0.46248292  0.91770686  0.93077506  1
  O2-  O246  1  0.95099495  0.42091940  0.26453758  1
  O2-  O247  1  0.95439499  0.41194410  0.60438996  1
  O2-  O248  1  0.95573050  0.41563373  0.93386101  1
  O2-  O249  1  0.95705187  0.91441612  0.26588000  1
  O2-  O250  1  0.95660693  0.91775062  0.60748864  1
  O2-  O251  1  0.95477079  0.92484295  0.93309185  1
  O2-  O252  1  0.33521473  0.29367690  0.26423449  1
  O2-  O253  1  0.33699897  0.29053720  0.60433018  1
  O2-  O254  1  0.33611637  0.29235631  0.93742447  1
  O2-  O255  1  0.33794055  0.79467076  0.27187712  1
  O2-  O256  1  0.33364228  0.80251896  0.60209372  1
  O2-  O257  1  0.33561635  0.79316848  0.93183639  1
  O2-  O258  1  0.82643116  0.29211702  0.26779580  1
  O2-  O259  1  0.83537182  0.29269921  0.60449673  1
  O2-  O260  1  0.83027059  0.28531538  0.93184854  1
  O2-  O261  1  0.83323173  0.78645973  0.26546902  1
  O2-  O262  1  0.83433196  0.79733423  0.60963773  1
  O2-  O263  1  0.82626553  0.80042998  0.93214805  1
  O2-  O264  1  0.41842666  0.03897450  0.06708334  1
  O2-  O265  1  0.41429815  0.03991627  0.40548708  1
  O2-  O266  1  0.41722945  0.05372988  0.72574170  1
  O2-  O267  1  0.41420436  0.54452806  0.06437430  1
  O2-  O268  1  0.41576882  0.53771912  0.40068017  1
  O2-  O269  1  0.41890922  0.53714707  0.73666814  1
  O2-  O270  1  0.92177344  0.04789931  0.06843490  1
  O2-  O271  1  0.91997573  0.04653025  0.39194117  1
  O2-  O272  1  0.91985827  0.04994358  0.73618770  1
  O2-  O273  1  0.91388405  0.54676611  0.06413149  1
  O2-  O274  1  0.91866712  0.55308589  0.39039449  1
  O2-  O275  1  0.91598354  0.53880542  0.73527415  1
  O2-  O276  1  0.29264851  0.16651642  0.06737525  1
  O2-  O277  1  0.29228501  0.17070578  0.40010269  1
  O2-  O278  1  0.29251957  0.16513610  0.73028592  1
  O2-  O279  1  0.29739850  0.66714914  0.06071368  1
  O2-  O280  1  0.29518095  0.66957098  0.40241288  1
  O2-  O281  1  0.30459051  0.67366642  0.73012904  1
  O2-  O282  1  0.78306258  0.16262948  0.07200539  1
  O2-  O283  1  0.79638388  0.16193595  0.39678143  1
  O2-  O284  1  0.78623002  0.16866817  0.73380412  1
  O2-  O285  1  0.79633356  0.66798115  0.06182959  1
  O2-  O286  1  0.78929079  0.66151181  0.39733161  1
  O2-  O287  1  0.78948679  0.66473981  0.73523874  1
