# generated using pymatgen
data_Ca2Al2SiO7
_symmetry_space_group_name_H-M   'P 1'
_cell_length_a   15.46350947
_cell_length_b   15.46374389
_cell_length_c   15.28812665
_cell_angle_alpha   90.00233446
_cell_angle_beta   89.98218507
_cell_angle_gamma   89.97512391
_symmetry_Int_Tables_number   1
_chemical_formula_structural   Ca2Al2SiO7
_chemical_formula_sum   'Ca48 Al48 Si24 O168'
_cell_volume   3655.75365080
_cell_formula_units_Z   24
loop_
 _symmetry_equiv_pos_site_id
 _symmetry_equiv_pos_as_xyz
  1  'x, y, z'
loop_
 _atom_type_symbol
 _atom_type_oxidation_number
  Ca2+  2.0
  Al0+  0.0
  Si0+  0.0
  O2-  -2.0
loop_
 _atom_site_type_symbol
 _atom_site_label
 _atom_site_symmetry_multiplicity
 _atom_site_fract_x
 _atom_site_fract_y
 _atom_site_fract_z
 _atom_site_occupancy
  Ca2+  Ca0  1  0.17812240  0.07984760  0.17304286  1
  Ca2+  Ca1  1  0.18205445  0.07644079  0.50968937  1
  Ca2+  Ca2  1  0.17343000  0.07694872  0.83167211  1
  Ca2+  Ca3  1  0.16059690  0.57992586  0.16281637  1
  Ca2+  Ca4  1  0.16898950  0.58206210  0.50485981  1
  Ca2+  Ca5  1  0.16560886  0.57790440  0.84372549  1
  Ca2+  Ca6  1  0.67375342  0.08922854  0.16945301  1
  Ca2+  Ca7  1  0.67181788  0.08731201  0.50380430  1
  Ca2+  Ca8  1  0.67363916  0.09082013  0.83772485  1
  Ca2+  Ca9  1  0.66171149  0.58280698  0.16255540  1
  Ca2+  Ca10  1  0.66408190  0.58302278  0.50722666  1
  Ca2+  Ca11  1  0.66499165  0.58039059  0.84481642  1
  Ca2+  Ca12  1  0.08417422  0.33083944  0.15916411  1
  Ca2+  Ca13  1  0.07540964  0.33185940  0.50054830  1
  Ca2+  Ca14  1  0.07719464  0.33415719  0.82951193  1
  Ca2+  Ca15  1  0.07167243  0.83029074  0.15831843  1
  Ca2+  Ca16  1  0.07420842  0.84850900  0.50168304  1
  Ca2+  Ca17  1  0.07485502  0.83417307  0.83175695  1
  Ca2+  Ca18  1  0.58181675  0.32335659  0.15737957  1
  Ca2+  Ca19  1  0.57737462  0.32001780  0.50097204  1
  Ca2+  Ca20  1  0.58314600  0.32661939  0.82931363  1
  Ca2+  Ca21  1  0.57181514  0.83341000  0.15863890  1
  Ca2+  Ca22  1  0.57385676  0.83667399  0.50002384  1
  Ca2+  Ca23  1  0.57786204  0.82373716  0.83029325  1
  Ca2+  Ca24  1  0.33113408  0.41210341  0.16391414  1
  Ca2+  Ca25  1  0.33605147  0.41680225  0.50759104  1
  Ca2+  Ca26  1  0.33326699  0.41211173  0.84214371  1
  Ca2+  Ca27  1  0.33878425  0.91829356  0.17428919  1
  Ca2+  Ca28  1  0.33506907  0.92078443  0.50982308  1
  Ca2+  Ca29  1  0.33721068  0.91413460  0.83326573  1
  Ca2+  Ca30  1  0.82528777  0.42439724  0.16243535  1
  Ca2+  Ca31  1  0.83100783  0.41745283  0.50750449  1
  Ca2+  Ca32  1  0.82716520  0.42309777  0.84435681  1
  Ca2+  Ca33  1  0.83631576  0.92355771  0.17096336  1
  Ca2+  Ca34  1  0.83705054  0.92550497  0.50794672  1
  Ca2+  Ca35  1  0.83770813  0.92482956  0.83893036  1
  Ca2+  Ca36  1  0.42946434  0.16468676  0.15892708  1
  Ca2+  Ca37  1  0.42689486  0.15380963  0.49799324  1
  Ca2+  Ca38  1  0.42706700  0.17548370  0.82659518  1
  Ca2+  Ca39  1  0.41909387  0.67993154  0.15726341  1
  Ca2+  Ca40  1  0.42016022  0.67769894  0.50036137  1
  Ca2+  Ca41  1  0.42620788  0.67198907  0.82931692  1
  Ca2+  Ca42  1  0.91435913  0.16302268  0.16165742  1
  Ca2+  Ca43  1  0.91053158  0.16684252  0.49938149  1
  Ca2+  Ca44  1  0.91049421  0.17072916  0.82536298  1
  Ca2+  Ca45  1  0.91655871  0.67780238  0.15555305  1
  Ca2+  Ca46  1  0.91764436  0.68421678  0.49638346  1
  Ca2+  Ca47  1  0.91433936  0.67550291  0.83182967  1
  Al0+  Al48  1  0.00285671  0.00087271  0.00179200  1
  Al0+  Al49  1  0.00078472  0.00236227  0.33228182  1
  Al0+  Al50  1  0.00222561  0.00160378  0.67141609  1
  Al0+  Al51  1  -0.00002930  0.49946092  0.00721206  1
  Al0+  Al52  1  -0.00181129  0.49921497  0.33509963  1
  Al0+  Al53  1  -0.00065753  0.50042526  0.66138885  1
  Al0+  Al54  1  0.50215159  0.00221706  -0.00853601  1
  Al0+  Al55  1  0.50337398  -0.00026118  0.32803532  1
  Al0+  Al56  1  0.50274839  -0.00081259  0.66614184  1
  Al0+  Al57  1  0.49660001  0.50019586  0.00280616  1
  Al0+  Al58  1  0.49829155  0.49799702  0.33573771  1
  Al0+  Al59  1  0.50031733  0.49791014  0.66031427  1
  Al0+  Al60  1  0.24980448  0.24834485  0.00186990  1
  Al0+  Al61  1  0.24850480  0.24972160  0.33991978  1
  Al0+  Al62  1  0.24834289  0.24995857  0.66759371  1
  Al0+  Al63  1  0.24617482  0.74974240  -0.00523720  1
  Al0+  Al64  1  0.24824060  0.74690597  0.33138529  1
  Al0+  Al65  1  0.24997880  0.74689721  0.66899469  1
  Al0+  Al66  1  0.75167061  0.25150988  0.00635798  1
  Al0+  Al67  1  0.74939195  0.25194183  0.33338432  1
  Al0+  Al68  1  0.74928386  0.25251139  0.66197870  1
  Al0+  Al69  1  0.74867566  0.75375511  -0.00204326  1
  Al0+  Al70  1  0.75011383  0.74932797  0.33031288  1
  Al0+  Al71  1  0.75312391  0.75053350  0.65842695  1
  Al0+  Al72  1  0.92810318  0.82420853  0.98447520  1
  Al0+  Al73  1  0.57186360  0.17828035  0.65070928  1
  Al0+  Al74  1  0.93023708  0.82302877  0.31891104  1
  Al0+  Al75  1  0.82190608  0.07054047  0.01382670  1
  Al0+  Al76  1  0.18027216  0.92683827  0.68387136  1
  Al0+  Al77  1  0.42942021  0.81957742  0.32058082  1
  Al0+  Al78  1  0.42654950  0.82342109  0.98404790  1
  Al0+  Al79  1  0.32355850  0.06875983  0.34544111  1
  Al0+  Al80  1  0.57104306  0.18032041  0.31772247  1
  Al0+  Al81  1  0.32536255  0.07148828  0.68432034  1
  Al0+  Al82  1  0.57301036  0.67776452  0.65134107  1
  Al0+  Al83  1  0.92927842  0.32159606  0.65425943  1
  Al0+  Al84  1  0.67545424  0.42972291  0.01522816  1
  Al0+  Al85  1  0.82123115  0.07085043  0.34823798  1
  Al0+  Al86  1  0.17935724  0.42768634  0.01350790  1
  Al0+  Al87  1  0.81995769  0.57466276  0.01423590  1
  Al0+  Al88  1  0.42821937  0.81974106  0.65166855  1
  Al0+  Al89  1  0.06814167  0.67681173  0.98506025  1
  Al0+  Al90  1  0.57057395  0.67854415  0.98731478  1
  Al0+  Al91  1  0.93198822  0.82331490  0.65283732  1
  Al0+  Al92  1  0.42671566  0.31951775  0.98804996  1
  Al0+  Al93  1  0.42623082  0.31971669  0.65148257  1
  Al0+  Al94  1  0.81870609  0.07166981  0.67996643  1
  Al0+  Al95  1  0.57525322  0.18149035  0.98385997  1
  Si0+  Si96  1  0.07150065  0.18144827  0.31850350  1
  Si0+  Si97  1  0.57113887  0.67448549  0.31652534  1
  Si0+  Si98  1  0.92883905  0.32209903  0.31599933  1
  Si0+  Si99  1  0.82077832  0.57142121  0.35046725  1
  Si0+  Si100  1  0.67960548  0.43181833  0.68017843  1
  Si0+  Si101  1  0.17943855  0.92790842  0.01678296  1
  Si0+  Si102  1  0.93091125  0.31959373  0.98826177  1
  Si0+  Si103  1  0.07286566  0.17844523  0.98564019  1
  Si0+  Si104  1  0.82220883  0.57206397  0.67927346  1
  Si0+  Si105  1  0.17895058  0.92671058  0.34763892  1
  Si0+  Si106  1  0.07153274  0.67651047  0.64939252  1
  Si0+  Si107  1  0.67948849  0.92609695  0.34959398  1
  Si0+  Si108  1  0.67853801  0.42995941  0.35086224  1
  Si0+  Si109  1  0.42549310  0.32247637  0.31669265  1
  Si0+  Si110  1  0.67627286  0.92968481  0.01603320  1
  Si0+  Si111  1  0.32132197  0.06904139  0.01424789  1
  Si0+  Si112  1  0.17628094  0.42978966  0.68102873  1
  Si0+  Si113  1  0.07160269  0.17803993  0.64945725  1
  Si0+  Si114  1  0.32023876  0.57045591  0.34933763  1
  Si0+  Si115  1  0.07039336  0.67462538  0.31619500  1
  Si0+  Si116  1  0.32184582  0.56769221  0.68202554  1
  Si0+  Si117  1  0.67979047  0.92472841  0.68332191  1
  Si0+  Si118  1  0.17707331  0.42842951  0.35119488  1
  Si0+  Si119  1  0.32018234  0.57394129  0.01745800  1
  O2-  O120  1  0.25608683  -0.00692369  0.05845957  1
  O2-  O121  1  0.25273822  -0.01025039  0.39136889  1
  O2-  O122  1  0.25619518  -0.00447082  0.73353201  1
  O2-  O123  1  0.25319892  0.50259897  0.06178322  1
  O2-  O124  1  0.24939584  0.49852226  0.39217181  1
  O2-  O125  1  0.25122646  0.49561536  0.72342052  1
  O2-  O126  1  0.74726544  -0.00374891  0.06093828  1
  O2-  O127  1  0.75029325  -0.00726789  0.39437674  1
  O2-  O128  1  0.74573805  -0.00359089  0.72751704  1
  O2-  O129  1  0.74379679  0.50648609  0.06485933  1
  O2-  O130  1  0.74705903  0.50362970  0.39369686  1
  O2-  O131  1  0.74777645  0.50558832  0.72179614  1
  O2-  O132  1  -0.00084007  0.25029439  0.27427466  1
  O2-  O133  1  0.00145097  0.24564953  0.60507047  1
  O2-  O134  1  -0.00076981  0.24714677  0.94449613  1
  O2-  O135  1  0.00399732  0.74613483  0.27430821  1
  O2-  O136  1  0.00883416  0.75051534  0.60511960  1
  O2-  O137  1  -0.00441460  0.74745433  0.93515787  1
  O2-  O138  1  0.49229505  0.25237593  0.27336121  1
  O2-  O139  1  0.49176931  0.24237261  0.60086138  1
  O2-  O140  1  0.50396492  0.25538006  0.93657331  1
  O2-  O141  1  0.50352830  0.74443180  0.27381364  1
  O2-  O142  1  0.50298494  0.75104306  0.60060888  1
  O2-  O143  1  0.49764154  0.74900289  0.93735751  1
  O2-  O144  1  0.07446975  0.18002522  0.09133267  1
  O2-  O145  1  0.07199379  0.18447396  0.42328083  1
  O2-  O146  1  0.07192569  0.18070244  0.75516817  1
  O2-  O147  1  0.06803083  0.67963280  0.09923327  1
  O2-  O148  1  0.06923002  0.66969218  0.42173121  1
  O2-  O149  1  0.06672049  0.66961170  0.75399347  1
  O2-  O150  1  0.57347975  0.18056110  0.09789342  1
  O2-  O151  1  0.57220323  0.18186420  0.43043807  1
  O2-  O152  1  0.57736829  0.18560323  0.76336682  1
  O2-  O153  1  0.56686717  0.68130731  0.10144989  1
  O2-  O154  1  0.56953419  0.67269627  0.42193285  1
  O2-  O155  1  0.57126988  0.67498436  0.76430743  1
  O2-  O156  1  0.17541098  0.42714587  0.24648679  1
  O2-  O157  1  0.17381601  0.43384710  0.57541799  1
  O2-  O158  1  0.17864184  0.42731913  0.90047366  1
  O2-  O159  1  0.17820398  0.92943289  0.24187741  1
  O2-  O160  1  0.17896351  0.93132223  0.56952105  1
  O2-  O161  1  0.17581797  0.93122619  0.91226949  1
  O2-  O162  1  0.67931557  0.43048125  0.24617275  1
  O2-  O163  1  0.68201092  0.43234332  0.57446681  1
  O2-  O164  1  0.68111489  0.42742066  0.90148703  1
  O2-  O165  1  0.67956991  0.92613706  0.24414650  1
  O2-  O166  1  0.68272238  0.92358932  0.57727056  1
  O2-  O167  1  0.67628182  0.93030752  0.91068102  1
  O2-  O168  1  0.42350485  0.31261167  0.10196666  1
  O2-  O169  1  0.42715372  0.32576318  0.42195669  1
  O2-  O170  1  0.42956829  0.32376197  0.76437667  1
  O2-  O171  1  0.42710802  0.82315506  0.09844902  1
  O2-  O172  1  0.42901242  0.81808228  0.43314776  1
  O2-  O173  1  0.42843847  0.81445638  0.76446078  1
  O2-  O174  1  0.93316558  0.31827653  0.09383403  1
  O2-  O175  1  0.93067408  0.32429602  0.42124629  1
  O2-  O176  1  0.93148782  0.32406734  0.76729088  1
  O2-  O177  1  0.93262708  0.82595818  0.09850398  1
  O2-  O178  1  0.93305244  0.82331835  0.43209476  1
  O2-  O179  1  0.93053015  0.82125788  0.76506893  1
  O2-  O180  1  0.32005253  0.06979851  0.23191926  1
  O2-  O181  1  0.32176440  0.07008304  0.57004028  1
  O2-  O182  1  0.31666766  0.07146604  0.90981137  1
  O2-  O183  1  0.32011017  0.57062795  0.24478792  1
  O2-  O184  1  0.31906030  0.56734893  0.57619034  1
  O2-  O185  1  0.31872162  0.57378441  0.91198573  1
  O2-  O186  1  0.82137224  0.07102362  0.23531650  1
  O2-  O187  1  0.81832700  0.07079698  0.56652573  1
  O2-  O188  1  0.82290488  0.07255131  0.90094861  1
  O2-  O189  1  0.82296493  0.56969570  0.24594279  1
  O2-  O190  1  0.82323820  0.56860507  0.57362877  1
  O2-  O191  1  0.82283234  0.56926610  0.90039472  1
  O2-  O192  1  0.04659061  0.08961465  0.27008826  1
  O2-  O193  1  0.04681941  0.08501805  0.60338753  1
  O2-  O194  1  0.04798614  0.08664947  0.93878936  1
  O2-  O195  1  0.04193798  0.58151038  0.26995073  1
  O2-  O196  1  0.04091271  0.58641077  0.59760722  1
  O2-  O197  1  0.04346825  0.57587187  0.93579323  1
  O2-  O198  1  0.54496327  0.08334946  0.26279155  1
  O2-  O199  1  0.55240034  0.07728818  0.59947578  1
  O2-  O200  1  0.54767267  0.08457247  0.93003420  1
  O2-  O201  1  0.54341495  0.58078435  0.27159682  1
  O2-  O202  1  0.54154454  0.58118632  0.59586184  1
  O2-  O203  1  0.54420574  0.57883213  0.93680319  1
  O2-  O204  1  0.16273803  0.21218782  0.27059294  1
  O2-  O205  1  0.16356621  0.20633361  0.60146109  1
  O2-  O206  1  0.16199375  0.20978202  0.93666313  1
  O2-  O207  1  0.16513425  0.69562288  0.27097736  1
  O2-  O208  1  0.16741078  0.69543940  0.60570058  1
  O2-  O209  1  0.16552541  0.70375277  0.93069623  1
  O2-  O210  1  0.66667246  0.21670115  0.26489491  1
  O2-  O211  1  0.66588483  0.21652292  0.59422240  1
  O2-  O212  1  0.67457847  0.21136619  0.93412617  1
  O2-  O213  1  0.66623106  0.69659362  0.27264395  1
  O2-  O214  1  0.67164551  0.70258561  0.59656963  1
  O2-  O215  1  0.66862484  0.70529304  0.93399294  1
  O2-  O216  1  0.08459148  0.45734332  0.07270868  1
  O2-  O217  1  0.08536184  0.45820873  0.39916436  1
  O2-  O218  1  0.08557665  0.46241100  0.72819343  1
  O2-  O219  1  0.09137378  0.96287988  0.06770851  1
  O2-  O220  1  0.08828427  0.96075514  0.39467099  1
  O2-  O221  1  0.08452256  0.96169653  0.73869364  1
  O2-  O222  1  0.57605833  0.45268115  0.06999759  1
  O2-  O223  1  0.58531565  0.45436778  0.39800414  1
  O2-  O224  1  0.58663749  0.45667359  0.72583060  1
  O2-  O225  1  0.58297099  0.95842481  0.06255819  1
  O2-  O226  1  0.58707692  0.95576171  0.39562443  1
  O2-  O227  1  0.58493997  0.94531992  0.72756154  1
  O2-  O228  1  0.21055923  0.33147278  0.07046111  1
  O2-  O229  1  0.20223619  0.33721571  0.40109160  1
  O2-  O230  1  0.19547261  0.33563506  0.72632302  1
  O2-  O231  1  0.19988756  0.83354069  0.06229376  1
  O2-  O232  1  0.19550754  0.82999389  0.39096793  1
  O2-  O233  1  0.20167910  0.82555913  0.73411855  1
  O2-  O234  1  0.71313332  0.33587507  0.07253456  1
  O2-  O235  1  0.71172836  0.34045246  0.39908816  1
  O2-  O236  1  0.71170623  0.34160461  0.72665471  1
  O2-  O237  1  0.69775196  0.83565148  0.06308902  1
  O2-  O238  1  0.70092787  0.83073689  0.39480256  1
  O2-  O239  1  0.70951118  0.83141208  0.72792473  1
  O2-  O240  1  0.45181676  0.41623533  0.27076973  1
  O2-  O241  1  0.46038433  0.41488610  0.59451016  1
  O2-  O242  1  0.44251467  0.42240485  0.94167600  1
  O2-  O243  1  0.46153129  0.91450010  0.26470513  1
  O2-  O244  1  0.45510211  0.91904484  0.60044636  1
  O2-  O245  1  0.45596520  0.92010074  0.93020363  1
  O2-  O246  1  0.95913177  0.41349020  0.26931130  1
  O2-  O247  1  0.96346357  0.41552552  0.59506669  1
  O2-  O248  1  0.96070213  0.41073728  0.94222526  1
  O2-  O249  1  0.96245521  0.91933827  0.26516433  1
  O2-  O250  1  0.96385541  0.92051174  0.60000753  1
  O2-  O251  1  0.96472642  0.92067358  0.93252314  1
  O2-  O252  1  0.32900032  0.29998616  0.27555085  1
  O2-  O253  1  0.32370577  0.30234165  0.60192225  1
  O2-  O254  1  0.33018017  0.28667992  0.93367551  1
  O2-  O255  1  0.33147145  0.78926549  0.26777738  1
  O2-  O256  1  0.33001859  0.78732018  0.59939316  1
  O2-  O257  1  0.32734860  0.79720124  0.93362030  1
  O2-  O258  1  0.83687179  0.29567820  0.26991457  1
  O2-  O259  1  0.83425249  0.29333704  0.59659810  1
  O2-  O260  1  0.83895748  0.29414296  0.94179923  1
  O2-  O261  1  0.83293082  0.79239768  0.26664565  1
  O2-  O262  1  0.83827938  0.79085701  0.59438890  1
  O2-  O263  1  0.82806881  0.80348983  0.93383105  1
  O2-  O264  1  0.41589113  0.04583815  0.05815347  1
  O2-  O265  1  0.42148837  0.03991101  0.39653650  1
  O2-  O266  1  0.42586018  0.04841211  0.73443688  1
  O2-  O267  1  0.41289105  0.55144880  0.06652550  1
  O2-  O268  1  0.41159568  0.54249022  0.39824180  1
  O2-  O269  1  0.41409072  0.53883529  0.72705972  1
  O2-  O270  1  0.92003246  0.04170955  0.06798556  1
  O2-  O271  1  0.92049291  0.04494171  0.40026550  1
  O2-  O272  1  0.91704271  0.04588307  0.73236821  1
  O2-  O273  1  0.91487550  0.53924690  0.07126949  1
  O2-  O274  1  0.91130602  0.53929555  0.39886439  1
  O2-  O275  1  0.91276512  0.53946140  0.72576639  1
  O2-  O276  1  0.28657632  0.15746193  0.06438496  1
  O2-  O277  1  0.28908570  0.16403321  0.40056041  1
  O2-  O278  1  0.29035800  0.16958351  0.73515664  1
  O2-  O279  1  0.28952294  0.66652126  0.06414842  1
  O2-  O280  1  0.28999941  0.66106263  0.39875048  1
  O2-  O281  1  0.29403074  0.65825538  0.73048698  1
  O2-  O282  1  0.79374279  0.16696104  0.07026410  1
  O2-  O283  1  0.79000864  0.16910933  0.39958911  1
  O2-  O284  1  0.78868582  0.17052047  0.73071794  1
  O2-  O285  1  0.79582589  0.67477535  0.06611883  1
  O2-  O286  1  0.79581888  0.66470675  0.39688286  1
  O2-  O287  1  0.80009598  0.66618171  0.72325964  1
