# generated using pymatgen
data_Ca2Al2SiO7
_symmetry_space_group_name_H-M   'P 1'
_cell_length_a   15.45429109
_cell_length_b   15.45540093
_cell_length_c   15.28044446
_cell_angle_alpha   89.98705366
_cell_angle_beta   90.00165578
_cell_angle_gamma   90.00076051
_symmetry_Int_Tables_number   1
_chemical_formula_structural   Ca2Al2SiO7
_chemical_formula_sum   'Ca48 Al48 Si24 O168'
_cell_volume   3649.76867232
_cell_formula_units_Z   24
loop_
 _symmetry_equiv_pos_site_id
 _symmetry_equiv_pos_as_xyz
  1  'x, y, z'
loop_
 _atom_type_symbol
 _atom_type_oxidation_number
  Ca2+  2.0
  Al0+  0.0
  Si0+  0.0
  O2-  -2.0
loop_
 _atom_site_type_symbol
 _atom_site_label
 _atom_site_symmetry_multiplicity
 _atom_site_fract_x
 _atom_site_fract_y
 _atom_site_fract_z
 _atom_site_occupancy
  Ca2+  Ca0  1  0.17571969  0.08873395  0.17165217  1
  Ca2+  Ca1  1  0.17230186  0.09253519  0.50039608  1
  Ca2+  Ca2  1  0.16982446  0.08806775  0.84171825  1
  Ca2+  Ca3  1  0.15942856  0.57047107  0.17484623  1
  Ca2+  Ca4  1  0.16981831  0.57137158  0.50602769  1
  Ca2+  Ca5  1  0.16963837  0.57117598  0.83700141  1
  Ca2+  Ca6  1  0.67829249  0.08628424  0.17547706  1
  Ca2+  Ca7  1  0.67610569  0.09565876  0.50429975  1
  Ca2+  Ca8  1  0.67989723  0.09004965  0.83717299  1
  Ca2+  Ca9  1  0.67648631  0.59370260  0.16741045  1
  Ca2+  Ca10  1  0.66729174  0.57895165  0.50685996  1
  Ca2+  Ca11  1  0.66238969  0.58187392  0.83811530  1
  Ca2+  Ca12  1  0.09019564  0.32526960  0.16394616  1
  Ca2+  Ca13  1  0.08931825  0.32741946  0.49491393  1
  Ca2+  Ca14  1  0.08802328  0.32662560  0.83142591  1
  Ca2+  Ca15  1  0.07797995  0.82520723  0.16264311  1
  Ca2+  Ca16  1  0.08345611  0.82300091  0.49287243  1
  Ca2+  Ca17  1  0.07404397  0.83765885  0.83196696  1
  Ca2+  Ca18  1  0.57815225  0.32917440  0.16895336  1
  Ca2+  Ca19  1  0.58030214  0.32851992  0.49560359  1
  Ca2+  Ca20  1  0.58386076  0.33045051  0.82318447  1
  Ca2+  Ca21  1  0.57400952  0.83263086  0.16062058  1
  Ca2+  Ca22  1  0.57806987  0.82698443  0.49560658  1
  Ca2+  Ca23  1  0.58109138  0.82196471  0.83288918  1
  Ca2+  Ca24  1  0.32295751  0.41206386  0.17289402  1
  Ca2+  Ca25  1  0.32522045  0.41359058  0.50359702  1
  Ca2+  Ca26  1  0.32474327  0.41829850  0.83450322  1
  Ca2+  Ca27  1  0.34222323  0.92464700  0.17084774  1
  Ca2+  Ca28  1  0.33653390  0.91923098  0.49713949  1
  Ca2+  Ca29  1  0.33344057  0.92303719  0.84076290  1
  Ca2+  Ca30  1  0.83503927  0.42923248  0.17137602  1
  Ca2+  Ca31  1  0.82774653  0.42087306  0.50279792  1
  Ca2+  Ca32  1  0.82465794  0.42104166  0.83749003  1
  Ca2+  Ca33  1  0.83635051  0.92279706  0.16856126  1
  Ca2+  Ca34  1  0.83295261  0.92956522  0.50272258  1
  Ca2+  Ca35  1  0.83441606  0.92513889  0.84043795  1
  Ca2+  Ca36  1  0.41388343  0.16719380  0.16654642  1
  Ca2+  Ca37  1  0.42806627  0.17069440  0.48717285  1
  Ca2+  Ca38  1  0.42228996  0.16598419  0.82848270  1
  Ca2+  Ca39  1  0.41971255  0.68084492  0.15765042  1
  Ca2+  Ca40  1  0.41669723  0.66727197  0.49557948  1
  Ca2+  Ca41  1  0.42266777  0.66495786  0.82742552  1
  Ca2+  Ca42  1  0.92741946  0.15871598  0.16203888  1
  Ca2+  Ca43  1  0.92481585  0.16443452  0.49494477  1
  Ca2+  Ca44  1  0.92675449  0.16013227  0.82755001  1
  Ca2+  Ca45  1  0.91670445  0.66574299  0.16053881  1
  Ca2+  Ca46  1  0.92221681  0.66364547  0.49038136  1
  Ca2+  Ca47  1  0.90922534  0.67189354  0.83561365  1
  Al0+  Al48  1  0.00200810  -0.00153555  -0.00368440  1
  Al0+  Al49  1  0.00028929  -0.00142186  0.33467157  1
  Al0+  Al50  1  0.00085993  0.00086648  0.66386242  1
  Al0+  Al51  1  -0.00209423  0.49725997  0.00577190  1
  Al0+  Al52  1  -0.00002984  0.49884033  0.33977754  1
  Al0+  Al53  1  -0.00076838  0.50037284  0.67225448  1
  Al0+  Al54  1  0.50075782  0.00043065  -0.00182844  1
  Al0+  Al55  1  0.50200276  -0.00142263  0.33125677  1
  Al0+  Al56  1  0.50173118  -0.00152981  0.66293715  1
  Al0+  Al57  1  0.49762847  0.49806944  -0.00150833  1
  Al0+  Al58  1  0.50036331  0.49962737  0.32652015  1
  Al0+  Al59  1  0.50010025  0.50079194  0.66865095  1
  Al0+  Al60  1  0.25052357  0.24927660  0.00233836  1
  Al0+  Al61  1  0.25056528  0.24892013  0.33559859  1
  Al0+  Al62  1  0.24995149  0.24934521  0.66736991  1
  Al0+  Al63  1  0.24884221  0.74970651  -0.00558151  1
  Al0+  Al64  1  0.24920337  0.74933884  0.32297424  1
  Al0+  Al65  1  0.24863136  0.75179591  0.67155380  1
  Al0+  Al66  1  0.75135051  0.25162110  0.00647292  1
  Al0+  Al67  1  0.75109083  0.25217054  0.33310186  1
  Al0+  Al68  1  0.75272808  0.25225159  0.67236677  1
  Al0+  Al69  1  0.74935580  0.75054645  -0.00431349  1
  Al0+  Al70  1  0.75104573  0.75200927  0.33993227  1
  Al0+  Al71  1  0.74804965  0.75342458  0.66016881  1
  Al0+  Al72  1  0.93053978  0.81973032  0.98650742  1
  Al0+  Al73  1  0.81679368  0.57089623  0.01236225  1
  Al0+  Al74  1  0.68006021  0.43077615  0.67914759  1
  Al0+  Al75  1  0.18080251  0.42854068  0.34857033  1
  Al0+  Al76  1  0.32120198  0.06878009  0.01300085  1
  Al0+  Al77  1  0.32115843  0.06906153  0.34807450  1
  Al0+  Al78  1  0.56953535  0.67821000  0.65078502  1
  Al0+  Al79  1  0.56935433  0.67876258  0.98489283  1
  Al0+  Al80  1  0.42703049  0.82412687  0.98181358  1
  Al0+  Al81  1  0.57317498  0.17909508  0.65500705  1
  Al0+  Al82  1  0.06953679  0.17882094  0.31965327  1
  Al0+  Al83  1  0.42916303  0.81969300  0.31945052  1
  Al0+  Al84  1  0.07020066  0.18111332  0.98680407  1
  Al0+  Al85  1  0.82094184  0.07008271  0.68124085  1
  Al0+  Al86  1  0.07097579  0.18011446  0.65169378  1
  Al0+  Al87  1  0.42799446  0.32078338  0.31785066  1
  Al0+  Al88  1  0.82332465  0.07120843  0.01438360  1
  Al0+  Al89  1  0.32061269  0.57299814  0.68108482  1
  Al0+  Al90  1  0.06944263  0.67657058  0.32083831  1
  Al0+  Al91  1  0.18043288  0.43001130  0.01574555  1
  Al0+  Al92  1  0.17785861  0.42644559  0.68364482  1
  Al0+  Al93  1  0.81980374  0.57204246  0.34815744  1
  Al0+  Al94  1  0.57394102  0.17874257  0.31729177  1
  Al0+  Al95  1  0.82222644  0.07169848  0.34778898  1
  Si0+  Si96  1  0.42846115  0.31862685  0.98362483  1
  Si0+  Si97  1  0.92626778  0.32340015  0.98350060  1
  Si0+  Si98  1  0.67777399  0.92873823  0.35200781  1
  Si0+  Si99  1  0.42851213  0.32093345  0.65122697  1
  Si0+  Si100  1  0.32262038  0.06963705  0.67956890  1
  Si0+  Si101  1  0.17869793  0.92930555  0.68141528  1
  Si0+  Si102  1  0.17806974  0.92552705  0.34883836  1
  Si0+  Si103  1  0.57435080  0.67777168  0.31716926  1
  Si0+  Si104  1  0.92829092  0.32456270  0.65106277  1
  Si0+  Si105  1  0.92899254  0.82214353  0.64955894  1
  Si0+  Si106  1  0.07041891  0.67326488  0.98219941  1
  Si0+  Si107  1  0.32240748  0.57308627  0.01748383  1
  Si0+  Si108  1  0.92758920  0.82120393  0.31789277  1
  Si0+  Si109  1  0.57393047  0.18014772  0.98546387  1
  Si0+  Si110  1  0.67382487  0.42651668  0.01933302  1
  Si0+  Si111  1  0.42525637  0.82192626  0.64867737  1
  Si0+  Si112  1  0.67594579  0.42926193  0.34951905  1
  Si0+  Si113  1  0.17699339  0.92576323  0.01649154  1
  Si0+  Si114  1  0.67981104  0.92930269  0.01574146  1
  Si0+  Si115  1  0.32273691  0.57405895  0.34553842  1
  Si0+  Si116  1  0.67699882  0.92693307  0.68459182  1
  Si0+  Si117  1  0.06998547  0.67922963  0.65406612  1
  Si0+  Si118  1  0.82169353  0.57587817  0.68307052  1
  Si0+  Si119  1  0.92765567  0.32280985  0.31693067  1
  O2-  O120  1  0.25004696  -0.00991464  0.05956202  1
  O2-  O121  1  0.24561143  -0.00542933  0.39493157  1
  O2-  O122  1  0.25034083  0.00026390  0.72222201  1
  O2-  O123  1  0.25089116  0.50863734  0.06300305  1
  O2-  O124  1  0.25712956  0.50373611  0.39198999  1
  O2-  O125  1  0.24945180  0.50011814  0.73149672  1
  O2-  O126  1  0.74635401  -0.00079793  0.06143015  1
  O2-  O127  1  0.74379681  0.00093076  0.39522436  1
  O2-  O128  1  0.74362114  -0.00208536  0.72841727  1
  O2-  O129  1  0.74067262  0.49838321  0.06099736  1
  O2-  O130  1  0.74205856  0.50061229  0.39386693  1
  O2-  O131  1  0.75138828  0.50878589  0.72641244  1
  O2-  O132  1  -0.00673887  0.25146271  0.27232872  1
  O2-  O133  1  -0.00117354  0.25797280  0.60642961  1
  O2-  O134  1  -0.00756882  0.25233651  0.93909249  1
  O2-  O135  1  -0.00676744  0.74974722  0.27404767  1
  O2-  O136  1  -0.00421457  0.74612058  0.60954427  1
  O2-  O137  1  0.00479093  0.74492736  0.93740817  1
  O2-  O138  1  0.49917343  0.24777669  0.26700870  1
  O2-  O139  1  0.49705133  0.25172935  0.60778227  1
  O2-  O140  1  0.50368263  0.25149392  0.94197269  1
  O2-  O141  1  0.50305671  0.74358035  0.27380894  1
  O2-  O142  1  0.49225353  0.75108220  0.60530963  1
  O2-  O143  1  0.49405030  0.74685907  0.93333248  1
  O2-  O144  1  0.07103996  0.18178339  0.09971371  1
  O2-  O145  1  0.06901717  0.18039472  0.43300386  1
  O2-  O146  1  0.07089088  0.17771147  0.76487447  1
  O2-  O147  1  0.06802131  0.67336254  0.08786434  1
  O2-  O148  1  0.06954882  0.67870178  0.43472560  1
  O2-  O149  1  0.06906686  0.68181915  0.75907452  1
  O2-  O150  1  0.57420869  0.18080979  0.09012134  1
  O2-  O151  1  0.57445172  0.18277357  0.43126349  1
  O2-  O152  1  0.57082616  0.18054256  0.76876070  1
  O2-  O153  1  0.57062260  0.68313365  0.09873202  1
  O2-  O154  1  0.57386447  0.67811161  0.42295739  1
  O2-  O155  1  0.57108521  0.68070279  0.76349629  1
  O2-  O156  1  0.17996096  0.42944602  0.23542372  1
  O2-  O157  1  0.17902708  0.42733203  0.57010023  1
  O2-  O158  1  0.18298762  0.42936393  0.90274839  1
  O2-  O159  1  0.17689292  0.92539333  0.24354889  1
  O2-  O160  1  0.17843584  0.92509259  0.57653301  1
  O2-  O161  1  0.17461583  0.92944475  0.91031060  1
  O2-  O162  1  0.67708102  0.42915706  0.24400294  1
  O2-  O163  1  0.68190797  0.43124363  0.56606431  1
  O2-  O164  1  0.67502882  0.42383960  0.91354580  1
  O2-  O165  1  0.68025154  0.92540286  0.24645673  1
  O2-  O166  1  0.67880509  0.92438183  0.57912936  1
  O2-  O167  1  0.68169513  0.93043096  0.90993853  1
  O2-  O168  1  0.42774091  0.31757290  0.08839028  1
  O2-  O169  1  0.42977268  0.32063137  0.43176621  1
  O2-  O170  1  0.42839444  0.31820494  0.75741366  1
  O2-  O171  1  0.43112960  0.82481524  0.09538287  1
  O2-  O172  1  0.42954986  0.81735518  0.43297587  1
  O2-  O173  1  0.42572527  0.82430558  0.75382947  1
  O2-  O174  1  0.92673831  0.32524405  0.08888581  1
  O2-  O175  1  0.92743199  0.32273969  0.42283125  1
  O2-  O176  1  0.92729232  0.32377423  0.75666276  1
  O2-  O177  1  0.93191751  0.81850087  0.09953860  1
  O2-  O178  1  0.92979831  0.82095845  0.42393510  1
  O2-  O179  1  0.93011161  0.82343138  0.75475272  1
  O2-  O180  1  0.31972594  0.06820062  0.23504993  1
  O2-  O181  1  0.32249068  0.06836158  0.57467588  1
  O2-  O182  1  0.31976277  0.07025398  0.89900656  1
  O2-  O183  1  0.31992551  0.57416811  0.24011652  1
  O2-  O184  1  0.31717220  0.57518767  0.56720765  1
  O2-  O185  1  0.32294792  0.56930683  0.91184411  1
  O2-  O186  1  0.82367105  0.06688120  0.23474060  1
  O2-  O187  1  0.82167749  0.06852427  0.56809876  1
  O2-  O188  1  0.82225848  0.07005831  0.90098998  1
  O2-  O189  1  0.81892037  0.57280981  0.23496920  1
  O2-  O190  1  0.82326793  0.57397834  0.57743822  1
  O2-  O191  1  0.81550663  0.56926185  0.89909806  1
  O2-  O192  1  0.04131003  0.08038410  0.26770864  1
  O2-  O193  1  0.03949659  0.08372706  0.59714489  1
  O2-  O194  1  0.04331963  0.08342659  0.93268391  1
  O2-  O195  1  0.03693619  0.58017212  0.26835294  1
  O2-  O196  1  0.04530039  0.58571970  0.60824592  1
  O2-  O197  1  0.04013363  0.58086673  0.93660390  1
  O2-  O198  1  0.55030077  0.07868873  0.26709944  1
  O2-  O199  1  0.54631040  0.08145905  0.60097294  1
  O2-  O200  1  0.54688673  0.08858229  0.93770580  1
  O2-  O201  1  0.55553829  0.58355157  0.27045633  1
  O2-  O202  1  0.54123247  0.58075406  0.59724141  1
  O2-  O203  1  0.54439639  0.57772964  0.93420507  1
  O2-  O204  1  0.16620753  0.21074281  0.26783056  1
  O2-  O205  1  0.16916758  0.20850709  0.59907358  1
  O2-  O206  1  0.16649707  0.21470834  0.93292307  1
  O2-  O207  1  0.16316179  0.70714738  0.26200357  1
  O2-  O208  1  0.16049870  0.71195501  0.60709594  1
  O2-  O209  1  0.16531467  0.69482004  0.93713690  1
  O2-  O210  1  0.67153064  0.21044871  0.26385868  1
  O2-  O211  1  0.67014938  0.21286138  0.60404170  1
  O2-  O212  1  0.66664315  0.20886040  0.93944339  1
  O2-  O213  1  0.66768172  0.70907725  0.27354261  1
  O2-  O214  1  0.66540059  0.71128148  0.59515749  1
  O2-  O215  1  0.66586836  0.71037856  0.92979662  1
  O2-  O216  1  0.08241226  0.45612629  0.06913223  1
  O2-  O217  1  0.08520603  0.45960982  0.40420317  1
  O2-  O218  1  0.07933269  0.45497625  0.73694673  1
  O2-  O219  1  0.08512370  0.95398584  0.06376663  1
  O2-  O220  1  0.08434498  0.94821564  0.39635995  1
  O2-  O221  1  0.08742384  0.95896991  0.72885432  1
  O2-  O222  1  0.57870355  0.44858838  0.06352372  1
  O2-  O223  1  0.58115873  0.45275847  0.39466392  1
  O2-  O224  1  0.58302994  0.45719057  0.73427424  1
  O2-  O225  1  0.58563934  0.95383664  0.06066648  1
  O2-  O226  1  0.58355987  0.94992025  0.39807226  1
  O2-  O227  1  0.58182698  0.94894293  0.72899300  1
  O2-  O228  1  0.21653947  0.33511918  0.06903845  1
  O2-  O229  1  0.21295756  0.33319426  0.40360225  1
  O2-  O230  1  0.20925402  0.32862263  0.73694871  1
  O2-  O231  1  0.19573383  0.82880051  0.05891200  1
  O2-  O232  1  0.20644601  0.83158362  0.39424019  1
  O2-  O233  1  0.20410170  0.83909773  0.73330890  1
  O2-  O234  1  0.70268094  0.33523452  0.06813498  1
  O2-  O235  1  0.70485840  0.33714093  0.39664304  1
  O2-  O236  1  0.71358545  0.33727751  0.73823003  1
  O2-  O237  1  0.70738850  0.83655775  0.06181060  1
  O2-  O238  1  0.70675729  0.83741214  0.40227131  1
  O2-  O239  1  0.70676533  0.83436199  0.73106569  1
  O2-  O240  1  0.45523176  0.41883527  0.26182881  1
  O2-  O241  1  0.45359032  0.41463250  0.60637657  1
  O2-  O242  1  0.45177926  0.41171497  0.93632387  1
  O2-  O243  1  0.46268328  0.91474195  0.26489969  1
  O2-  O244  1  0.45396053  0.91415103  0.60074091  1
  O2-  O245  1  0.46000951  0.92118955  0.92773468  1
  O2-  O246  1  0.95670166  0.41573281  0.27181151  1
  O2-  O247  1  0.95036762  0.42008394  0.60603127  1
  O2-  O248  1  0.95358963  0.41604308  0.93605103  1
  O2-  O249  1  0.95607751  0.91311078  0.27076041  1
  O2-  O250  1  0.96317018  0.91085682  0.60039872  1
  O2-  O251  1  0.96380720  0.91406881  0.92857788  1
  O2-  O252  1  0.33071111  0.28955666  0.26506503  1
  O2-  O253  1  0.33519825  0.29475812  0.60558233  1
  O2-  O254  1  0.33924974  0.28565316  0.93466969  1
  O2-  O255  1  0.33363790  0.79289556  0.26141823  1
  O2-  O256  1  0.33001352  0.79867813  0.60430478  1
  O2-  O257  1  0.32564717  0.80251114  0.93110425  1
  O2-  O258  1  0.83318601  0.30312027  0.27065602  1
  O2-  O259  1  0.83569440  0.29681463  0.60438244  1
  O2-  O260  1  0.83068549  0.30064750  0.93931525  1
  O2-  O261  1  0.83250721  0.79880513  0.27395039  1
  O2-  O262  1  0.83611160  0.80058390  0.60169274  1
  O2-  O263  1  0.83494354  0.78981389  0.92995896  1
  O2-  O264  1  0.41963781  0.04217499  0.06587887  1
  O2-  O265  1  0.41878577  0.03761923  0.40038268  1
  O2-  O266  1  0.41454816  0.04088854  0.72706201  1
  O2-  O267  1  0.41538384  0.54527037  0.06353541  1
  O2-  O268  1  0.41888738  0.55219697  0.38864719  1
  O2-  O269  1  0.41855447  0.54448561  0.73422625  1
  O2-  O270  1  0.91949174  0.03573795  0.06572732  1
  O2-  O271  1  0.91724123  0.03632061  0.40317956  1
  O2-  O272  1  0.91732258  0.03432486  0.73312534  1
  O2-  O273  1  0.91246242  0.53928485  0.06799803  1
  O2-  O274  1  0.91401942  0.53780507  0.40466672  1
  O2-  O275  1  0.91435751  0.55091652  0.73124596  1
  O2-  O276  1  0.28718545  0.16355265  0.06767820  1
  O2-  O277  1  0.29009718  0.16454965  0.40343357  1
  O2-  O278  1  0.29653393  0.16155176  0.72724982  1
  O2-  O279  1  0.30102913  0.66991959  0.05856650  1
  O2-  O280  1  0.29497278  0.66745443  0.39097736  1
  O2-  O281  1  0.29161592  0.67079876  0.73627116  1
  O2-  O282  1  0.79584615  0.16854463  0.06843753  1
  O2-  O283  1  0.79488768  0.17051438  0.39958618  1
  O2-  O284  1  0.79387418  0.16692850  0.73628631  1
  O2-  O285  1  0.78799289  0.66858653  0.06585237  1
  O2-  O286  1  0.79441149  0.66946043  0.40392045  1
  O2-  O287  1  0.79695939  0.67160691  0.72474551  1
