# generated using pymatgen
data_Ca2Al2SiO7
_symmetry_space_group_name_H-M   'P 1'
_cell_length_a   15.46557272
_cell_length_b   15.46511798
_cell_length_c   15.28907577
_cell_angle_alpha   89.98594221
_cell_angle_beta   89.99094579
_cell_angle_gamma   89.99427269
_symmetry_Int_Tables_number   1
_chemical_formula_structural   Ca2Al2SiO7
_chemical_formula_sum   'Ca48 Al48 Si24 O168'
_cell_volume   3656.79367610
_cell_formula_units_Z   24
loop_
 _symmetry_equiv_pos_site_id
 _symmetry_equiv_pos_as_xyz
  1  'x, y, z'
loop_
 _atom_type_symbol
 _atom_type_oxidation_number
  Ca2+  2.0
  Al0+  0.0
  Si0+  0.0
  O2-  -2.0
loop_
 _atom_site_type_symbol
 _atom_site_label
 _atom_site_symmetry_multiplicity
 _atom_site_fract_x
 _atom_site_fract_y
 _atom_site_fract_z
 _atom_site_occupancy
  Ca2+  Ca0  1  0.17548306  0.07928791  0.17027117  1
  Ca2+  Ca1  1  0.17255088  0.08961720  0.50484026  1
  Ca2+  Ca2  1  0.17020226  0.07758247  0.83956423  1
  Ca2+  Ca3  1  0.16126088  0.58653800  0.17150136  1
  Ca2+  Ca4  1  0.17155315  0.58588462  0.50570998  1
  Ca2+  Ca5  1  0.17216009  0.58707426  0.83551469  1
  Ca2+  Ca6  1  0.66847609  0.07261536  0.17740579  1
  Ca2+  Ca7  1  0.66959591  0.07759221  0.50537251  1
  Ca2+  Ca8  1  0.66285543  0.07367438  0.83272172  1
  Ca2+  Ca9  1  0.68156260  0.58533901  0.17274326  1
  Ca2+  Ca10  1  0.67524019  0.58562976  0.50878746  1
  Ca2+  Ca11  1  0.67882551  0.59143581  0.83183996  1
  Ca2+  Ca12  1  0.08156959  0.33095077  0.16502525  1
  Ca2+  Ca13  1  0.07802837  0.32900817  0.50584567  1
  Ca2+  Ca14  1  0.07747108  0.32404564  0.82446758  1
  Ca2+  Ca15  1  0.07852726  0.82593625  0.16230761  1
  Ca2+  Ca16  1  0.06594507  0.82970871  0.49333636  1
  Ca2+  Ca17  1  0.07880376  0.83223122  0.82759671  1
  Ca2+  Ca18  1  0.58131959  0.32558983  0.16872116  1
  Ca2+  Ca19  1  0.57710772  0.32303756  0.49544450  1
  Ca2+  Ca20  1  0.57769128  0.32403337  0.82007963  1
  Ca2+  Ca21  1  0.58791734  0.84019260  0.16538757  1
  Ca2+  Ca22  1  0.58719875  0.83530636  0.50233479  1
  Ca2+  Ca23  1  0.58112126  0.83439490  0.82290437  1
  Ca2+  Ca24  1  0.33168419  0.41581995  0.17456686  1
  Ca2+  Ca25  1  0.33825252  0.41734599  0.50727977  1
  Ca2+  Ca26  1  0.34039122  0.42196121  0.82958153  1
  Ca2+  Ca27  1  0.32840956  0.92661196  0.16898430  1
  Ca2+  Ca28  1  0.33331059  0.91891995  0.50367569  1
  Ca2+  Ca29  1  0.32892571  0.92027324  0.84044464  1
  Ca2+  Ca30  1  0.83743562  0.42922367  0.17155529  1
  Ca2+  Ca31  1  0.83987198  0.42917552  0.50756889  1
  Ca2+  Ca32  1  0.84130602  0.42672464  0.83314860  1
  Ca2+  Ca33  1  0.82301342  0.91702773  0.17654567  1
  Ca2+  Ca34  1  0.82644760  0.91901599  0.50703901  1
  Ca2+  Ca35  1  0.82389448  0.91497315  0.82979314  1
  Ca2+  Ca36  1  0.41639247  0.16055948  0.16900470  1
  Ca2+  Ca37  1  0.42927058  0.16782939  0.49292810  1
  Ca2+  Ca38  1  0.42082727  0.16867333  0.82238340  1
  Ca2+  Ca39  1  0.42126143  0.67077359  0.16270040  1
  Ca2+  Ca40  1  0.42119680  0.66943278  0.50367256  1
  Ca2+  Ca41  1  0.42404198  0.67504521  0.81828115  1
  Ca2+  Ca42  1  0.91155135  0.16472679  0.16613613  1
  Ca2+  Ca43  1  0.91624958  0.16095705  0.49767942  1
  Ca2+  Ca44  1  0.92158938  0.16912000  0.81722346  1
  Ca2+  Ca45  1  0.92078200  0.66734136  0.16458383  1
  Ca2+  Ca46  1  0.90883875  0.67743401  0.49431696  1
  Ca2+  Ca47  1  0.91803342  0.66958480  0.82733592  1
  Al0+  Al48  1  -0.00041852  -0.00105574  0.00294237  1
  Al0+  Al49  1  -0.00032389  -0.00162522  0.32799053  1
  Al0+  Al50  1  0.00106316  -0.00173245  0.66199189  1
  Al0+  Al51  1  0.00211145  0.50096336  -0.00057066  1
  Al0+  Al52  1  0.00188994  0.49865482  0.33564288  1
  Al0+  Al53  1  0.00338040  0.49732339  0.66945949  1
  Al0+  Al54  1  0.50039924  0.00072790  0.00654990  1
  Al0+  Al55  1  0.49820168  -0.00038707  0.33658688  1
  Al0+  Al56  1  0.49828738  -0.00004241  0.66317076  1
  Al0+  Al57  1  0.50126259  0.49926206  0.00038946  1
  Al0+  Al58  1  0.49899962  0.50007573  0.32781662  1
  Al0+  Al59  1  0.50067928  0.50171901  0.66552408  1
  Al0+  Al60  1  0.25005820  0.25288748  0.00216503  1
  Al0+  Al61  1  0.24884650  0.25138229  0.33442855  1
  Al0+  Al62  1  0.24776943  0.25133334  0.66248807  1
  Al0+  Al63  1  0.25012670  0.74972822  0.00054048  1
  Al0+  Al64  1  0.25078294  0.74899296  0.32932514  1
  Al0+  Al65  1  0.25140338  0.74951523  0.66797480  1
  Al0+  Al66  1  0.74745955  0.25187385  -0.00232207  1
  Al0+  Al67  1  0.74861931  0.25014659  0.32932766  1
  Al0+  Al68  1  0.75113189  0.25255422  0.66201139  1
  Al0+  Al69  1  0.75162817  0.74963793  0.00842367  1
  Al0+  Al70  1  0.74932520  0.74974825  0.33564030  1
  Al0+  Al71  1  0.75040325  0.75002153  0.66886784  1
  Al0+  Al72  1  0.42636710  0.82241708  0.65198789  1
  Al0+  Al73  1  0.92823755  0.32276352  0.65210299  1
  Al0+  Al74  1  0.32179255  0.57110460  0.68023987  1
  Al0+  Al75  1  0.31994711  0.07282719  0.01383011  1
  Al0+  Al76  1  0.67815745  0.92850165  0.35129464  1
  Al0+  Al77  1  0.68065484  0.93041828  0.01362081  1
  Al0+  Al78  1  0.57077813  0.17715781  0.31504626  1
  Al0+  Al79  1  0.06957883  0.17655824  0.65204881  1
  Al0+  Al80  1  0.82337891  0.07273001  0.68054917  1
  Al0+  Al81  1  0.92621242  0.82107967  0.31549626  1
  Al0+  Al82  1  0.31727716  0.07100853  0.34996468  1
  Al0+  Al83  1  0.92939683  0.81888232  0.65487721  1
  Al0+  Al84  1  0.82239577  0.57065962  0.68108105  1
  Al0+  Al85  1  0.82136795  0.56814738  0.34849436  1
  Al0+  Al86  1  0.42891955  0.32167007  0.65274389  1
  Al0+  Al87  1  0.67808930  0.93089582  0.68263479  1
  Al0+  Al88  1  0.57231927  0.68058384  0.65273859  1
  Al0+  Al89  1  0.82276487  0.07276433  0.34738093  1
  Al0+  Al90  1  0.42783284  0.32106655  0.31606677  1
  Al0+  Al91  1  0.82147484  0.56824990  0.01467394  1
  Al0+  Al92  1  0.07127163  0.67928952  0.98348339  1
  Al0+  Al93  1  0.07111754  0.67843192  0.31949995  1
  Al0+  Al94  1  0.17650693  0.92632788  0.01572702  1
  Al0+  Al95  1  0.57240838  0.17676621  0.65152319  1
  Si0+  Si96  1  0.56931662  0.17876442  0.98462951  1
  Si0+  Si97  1  0.92893765  0.32083725  0.98663093  1
  Si0+  Si98  1  0.18068823  0.43106499  0.01580107  1
  Si0+  Si99  1  0.31901404  0.07193570  0.67956762  1
  Si0+  Si100  1  0.42795610  0.82051490  0.31617312  1
  Si0+  Si101  1  0.42758741  0.32272016  0.98378728  1
  Si0+  Si102  1  0.07309022  0.67703850  0.65230494  1
  Si0+  Si103  1  0.67726295  0.42856591  0.68253894  1
  Si0+  Si104  1  0.17868258  0.92580190  0.35029882  1
  Si0+  Si105  1  0.57045665  0.67872227  0.31704449  1
  Si0+  Si106  1  0.43124244  0.82078063  0.98714450  1
  Si0+  Si107  1  0.67616267  0.42894745  0.34916075  1
  Si0+  Si108  1  0.17896531  0.92785123  0.67952674  1
  Si0+  Si109  1  0.32332485  0.57087855  0.01562081  1
  Si0+  Si110  1  0.07101851  0.17926745  0.98774225  1
  Si0+  Si111  1  0.17967921  0.42711789  0.68648141  1
  Si0+  Si112  1  0.67591238  0.42592944  0.01792074  1
  Si0+  Si113  1  0.32233255  0.57170522  0.34717715  1
  Si0+  Si114  1  0.57259962  0.67830093  0.98691052  1
  Si0+  Si115  1  0.07134515  0.17895092  0.31656572  1
  Si0+  Si116  1  0.92656992  0.82193707  0.98224991  1
  Si0+  Si117  1  0.92942095  0.32148050  0.31763616  1
  Si0+  Si118  1  0.82191126  0.07585132  0.01376167  1
  Si0+  Si119  1  0.17928094  0.42889830  0.35018937  1
  O2-  O120  1  0.24681160  0.00136379  0.06351147  1
  O2-  O121  1  0.24213704  -0.00259964  0.39757496  1
  O2-  O122  1  0.24977576  -0.00050390  0.72200087  1
  O2-  O123  1  0.25155323  0.50155535  0.05914296  1
  O2-  O124  1  0.25110096  0.50078304  0.38870807  1
  O2-  O125  1  0.24855237  0.49620620  0.72988971  1
  O2-  O126  1  0.75579259  0.00540005  0.05801990  1
  O2-  O127  1  0.75157909  0.00080618  0.39760221  1
  O2-  O128  1  0.74860802  0.00485244  0.73287237  1
  O2-  O129  1  0.74578463  0.49395650  0.06116426  1
  O2-  O130  1  0.74624152  0.49433823  0.39525929  1
  O2-  O131  1  0.74852284  0.49461611  0.72807926  1
  O2-  O132  1  -0.00472155  0.24541030  0.27444028  1
  O2-  O133  1  -0.00721911  0.24390699  0.60209876  1
  O2-  O134  1  -0.00636351  0.24335730  0.94579136  1
  O2-  O135  1  -0.00076294  0.74865453  0.26698782  1
  O2-  O136  1  0.00080075  0.74060519  0.60823503  1
  O2-  O137  1  -0.00171995  0.75582499  0.93796531  1
  O2-  O138  1  0.49721702  0.24813812  0.26384710  1
  O2-  O139  1  0.49968972  0.24938922  0.60327748  1
  O2-  O140  1  0.49761127  0.25017458  0.94338105  1
  O2-  O141  1  0.50176616  0.75194464  0.27412149  1
  O2-  O142  1  0.50098396  0.75306331  0.60229121  1
  O2-  O143  1  0.50184645  0.74951926  0.94488958  1
  O2-  O144  1  0.07268246  0.18364721  0.09295306  1
  O2-  O145  1  0.07445126  0.18213283  0.42100638  1
  O2-  O146  1  0.07299555  0.17874924  0.76657423  1
  O2-  O147  1  0.06915495  0.67650627  0.09618406  1
  O2-  O148  1  0.07428754  0.67985676  0.43272176  1
  O2-  O149  1  0.07399003  0.68028154  0.75830724  1
  O2-  O150  1  0.57049192  0.17977463  0.08921298  1
  O2-  O151  1  0.57003815  0.17925251  0.42783943  1
  O2-  O152  1  0.56739509  0.17668620  0.76643481  1
  O2-  O153  1  0.56942495  0.67690577  0.09228862  1
  O2-  O154  1  0.56785881  0.67495271  0.42136969  1
  O2-  O155  1  0.57082779  0.68197836  0.76734931  1
  O2-  O156  1  0.17815333  0.42790153  0.24439102  1
  O2-  O157  1  0.17797523  0.42766691  0.58101589  1
  O2-  O158  1  0.18147031  0.42904284  0.91133338  1
  O2-  O159  1  0.18291316  0.92659543  0.24457829  1
  O2-  O160  1  0.18051521  0.92656446  0.57471513  1
  O2-  O161  1  0.17837741  0.92803105  0.90160821  1
  O2-  O162  1  0.67752146  0.43291087  0.24289830  1
  O2-  O163  1  0.67569056  0.43247626  0.57722708  1
  O2-  O164  1  0.67399544  0.42362101  0.91291084  1
  O2-  O165  1  0.67914151  0.92968422  0.23684672  1
  O2-  O166  1  0.67952645  0.92966247  0.57011668  1
  O2-  O167  1  0.67720863  0.92999438  0.90115315  1
  O2-  O168  1  0.42692829  0.32599380  0.08833758  1
  O2-  O169  1  0.42989294  0.32323482  0.42875530  1
  O2-  O170  1  0.42967223  0.31879892  0.76747207  1
  O2-  O171  1  0.43183405  0.81847305  0.09252022  1
  O2-  O172  1  0.42291468  0.81687480  0.42052770  1
  O2-  O173  1  0.42428850  0.82135923  0.76647646  1
  O2-  O174  1  0.93176553  0.32191451  0.09207588  1
  O2-  O175  1  0.93337425  0.32549699  0.42179456  1
  O2-  O176  1  0.93492706  0.32477626  0.76653043  1
  O2-  O177  1  0.92587658  0.81949097  0.08747200  1
  O2-  O178  1  0.92699511  0.81930704  0.42906234  1
  O2-  O179  1  0.93176189  0.81862943  0.76846133  1
  O2-  O180  1  0.31467334  0.06941324  0.23655795  1
  O2-  O181  1  0.31661934  0.07226581  0.57474977  1
  O2-  O182  1  0.31935150  0.07279833  0.89985517  1
  O2-  O183  1  0.32254105  0.57112040  0.24143565  1
  O2-  O184  1  0.31829074  0.57153471  0.56703027  1
  O2-  O185  1  0.32486973  0.56929930  0.91096037  1
  O2-  O186  1  0.82005952  0.07216624  0.23268513  1
  O2-  O187  1  0.82502527  0.06762444  0.56776080  1
  O2-  O188  1  0.82106830  0.07918942  0.90872363  1
  O2-  O189  1  0.82176527  0.56572253  0.23478800  1
  O2-  O190  1  0.82186056  0.57020745  0.56828825  1
  O2-  O191  1  0.82126476  0.56796453  0.90178521  1
  O2-  O192  1  0.05029714  0.08608870  0.26814730  1
  O2-  O193  1  0.04964044  0.07809037  0.59713650  1
  O2-  O194  1  0.05140788  0.08445853  0.94297815  1
  O2-  O195  1  0.04448390  0.57818818  0.26759979  1
  O2-  O196  1  0.05514404  0.58077896  0.61052184  1
  O2-  O197  1  0.04135585  0.58174722  0.93011400  1
  O2-  O198  1  0.53869968  0.07836083  0.26403181  1
  O2-  O199  1  0.54120344  0.08081375  0.59753786  1
  O2-  O200  1  0.54001342  0.08669253  0.93886551  1
  O2-  O201  1  0.53983008  0.58927895  0.26568071  1
  O2-  O202  1  0.54195774  0.58373495  0.59917187  1
  O2-  O203  1  0.54536674  0.58605457  0.94010126  1
  O2-  O204  1  0.15981401  0.21486981  0.26737363  1
  O2-  O205  1  0.16431047  0.21311752  0.59665840  1
  O2-  O206  1  0.16050003  0.21413806  0.93979728  1
  O2-  O207  1  0.16997247  0.70560694  0.26430689  1
  O2-  O208  1  0.16531719  0.70545132  0.60629684  1
  O2-  O209  1  0.17053754  0.70670462  0.93187809  1
  O2-  O210  1  0.66835785  0.20834673  0.25973447  1
  O2-  O211  1  0.67051567  0.20387489  0.59960160  1
  O2-  O212  1  0.66090939  0.20715506  0.93643954  1
  O2-  O213  1  0.66239554  0.70528359  0.26959839  1
  O2-  O214  1  0.67029506  0.70702778  0.60007157  1
  O2-  O215  1  0.66570493  0.70569399  0.94309765  1
  O2-  O216  1  0.08935240  0.45866060  0.06450476  1
  O2-  O217  1  0.08900043  0.45680965  0.39951222  1
  O2-  O218  1  0.08766927  0.45294477  0.73580966  1
  O2-  O219  1  0.07785563  0.95260863  0.06935707  1
  O2-  O220  1  0.08242403  0.94735719  0.39075664  1
  O2-  O221  1  0.08824937  0.95575309  0.72835802  1
  O2-  O222  1  0.58287031  0.45286112  0.06527576  1
  O2-  O223  1  0.58242875  0.45700675  0.39289881  1
  O2-  O224  1  0.58505729  0.45607922  0.73120370  1
  O2-  O225  1  0.58508862  0.96102159  0.06982521  1
  O2-  O226  1  0.57837999  0.95380350  0.40122568  1
  O2-  O227  1  0.57730354  0.95772091  0.73397381  1
  O2-  O228  1  0.20812620  0.34016573  0.06602242  1
  O2-  O229  1  0.20693754  0.33829446  0.39869940  1
  O2-  O230  1  0.20584756  0.33362030  0.73349687  1
  O2-  O231  1  0.20866267  0.82909947  0.06911357  1
  O2-  O232  1  0.20959166  0.83335265  0.39525884  1
  O2-  O233  1  0.20735805  0.83725605  0.72941254  1
  O2-  O234  1  0.70154109  0.33247237  0.06503111  1
  O2-  O235  1  0.69834885  0.33362341  0.39080393  1
  O2-  O236  1  0.69934460  0.33386411  0.72814019  1
  O2-  O237  1  0.70903108  0.83428062  0.07004393  1
  O2-  O238  1  0.70394524  0.82892280  0.40160416  1
  O2-  O239  1  0.70917959  0.83304780  0.73621107  1
  O2-  O240  1  0.45635441  0.41969484  0.26083687  1
  O2-  O241  1  0.45565067  0.42035094  0.60140928  1
  O2-  O242  1  0.45706589  0.41457536  0.93634891  1
  O2-  O243  1  0.45369576  0.91291676  0.26969568  1
  O2-  O244  1  0.44978232  0.92055598  0.59861326  1
  O2-  O245  1  0.45851332  0.91354776  0.94164629  1
  O2-  O246  1  0.96559425  0.40992607  0.26772828  1
  O2-  O247  1  0.96780588  0.41749042  0.59752467  1
  O2-  O248  1  0.96439570  0.40954055  0.93867973  1
  O2-  O249  1  0.95422716  0.91924771  0.26079157  1
  O2-  O250  1  0.96352263  0.91216843  0.59831929  1
  O2-  O251  1  0.94917153  0.91767344  0.93864825  1
  O2-  O252  1  0.32747935  0.29441077  0.26484305  1
  O2-  O253  1  0.32924823  0.29834979  0.60179430  1
  O2-  O254  1  0.33452691  0.29786706  0.93738844  1
  O2-  O255  1  0.33900471  0.78846951  0.26486703  1
  O2-  O256  1  0.33015752  0.78904526  0.59738357  1
  O2-  O257  1  0.33916006  0.79347702  0.94061434  1
  O2-  O258  1  0.83646149  0.30104537  0.26884340  1
  O2-  O259  1  0.82764314  0.30958369  0.60055696  1
  O2-  O260  1  0.83434866  0.30183616  0.94094628  1
  O2-  O261  1  0.82786953  0.78989000  0.26371058  1
  O2-  O262  1  0.83356854  0.78883382  0.60142380  1
  O2-  O263  1  0.83348483  0.79111956  0.93799400  1
  O2-  O264  1  0.41603344  0.04160167  0.06926606  1
  O2-  O265  1  0.41332584  0.03908595  0.40185657  1
  O2-  O266  1  0.41083763  0.04577496  0.72704110  1
  O2-  O267  1  0.41486483  0.54215607  0.06404137  1
  O2-  O268  1  0.41425750  0.54362231  0.39325831  1
  O2-  O269  1  0.41814789  0.54114329  0.73611740  1
  O2-  O270  1  0.91690615  0.05457371  0.05905374  1
  O2-  O271  1  0.92470431  0.04889565  0.39463111  1
  O2-  O272  1  0.92235663  0.04116653  0.73277094  1
  O2-  O273  1  0.91771316  0.53412016  0.06785337  1
  O2-  O274  1  0.91779718  0.53602457  0.40105874  1
  O2-  O275  1  0.91970691  0.53888236  0.73451146  1
  O2-  O276  1  0.29175719  0.17154023  0.06709354  1
  O2-  O277  1  0.28578086  0.16816316  0.40165313  1
  O2-  O278  1  0.28944579  0.16356554  0.72675125  1
  O2-  O279  1  0.29724048  0.66292597  0.06290295  1
  O2-  O280  1  0.29451516  0.66346319  0.39381087  1
  O2-  O281  1  0.28976877  0.66671099  0.73692475  1
  O2-  O282  1  0.79545902  0.16959564  0.06040326  1
  O2-  O283  1  0.79844821  0.17424013  0.39559061  1
  O2-  O284  1  0.80260214  0.17552908  0.72864605  1
  O2-  O285  1  0.79040473  0.66319265  0.07110247  1
  O2-  O286  1  0.78878704  0.66432808  0.39955990  1
  O2-  O287  1  0.78994894  0.66547541  0.73742977  1
