# generated using pymatgen
data_Ca2Al2SiO7
_symmetry_space_group_name_H-M   'P 1'
_cell_length_a   15.45515411
_cell_length_b   15.45432461
_cell_length_c   15.28125532
_cell_angle_alpha   90.00145157
_cell_angle_beta   89.98775850
_cell_angle_gamma   89.98538252
_symmetry_Int_Tables_number   1
_chemical_formula_structural   Ca2Al2SiO7
_chemical_formula_sum   'Ca48 Al48 Si24 O168'
_cell_volume   3649.91186830
_cell_formula_units_Z   24
loop_
 _symmetry_equiv_pos_site_id
 _symmetry_equiv_pos_as_xyz
  1  'x, y, z'
loop_
 _atom_type_symbol
 _atom_type_oxidation_number
  Ca2+  2.0
  Al0+  0.0
  Si0+  0.0
  O2-  -2.0
loop_
 _atom_site_type_symbol
 _atom_site_label
 _atom_site_symmetry_multiplicity
 _atom_site_fract_x
 _atom_site_fract_y
 _atom_site_fract_z
 _atom_site_occupancy
  Ca2+  Ca0  1  0.17182577  0.07653621  0.16973608  1
  Ca2+  Ca1  1  0.16879018  0.09013288  0.50409540  1
  Ca2+  Ca2  1  0.16215119  0.07812027  0.83688562  1
  Ca2+  Ca3  1  0.17333815  0.58231442  0.17703482  1
  Ca2+  Ca4  1  0.17255857  0.58243861  0.50730819  1
  Ca2+  Ca5  1  0.16428897  0.57843020  0.83112782  1
  Ca2+  Ca6  1  0.66397858  0.07620387  0.17154807  1
  Ca2+  Ca7  1  0.66955033  0.07997507  0.50317923  1
  Ca2+  Ca8  1  0.68082468  0.08025971  0.84046683  1
  Ca2+  Ca9  1  0.67540540  0.58330325  0.16798619  1
  Ca2+  Ca10  1  0.66605079  0.58094991  0.50697312  1
  Ca2+  Ca11  1  0.67271725  0.58479554  0.83671110  1
  Ca2+  Ca12  1  0.07444595  0.33208161  0.16386751  1
  Ca2+  Ca13  1  0.07712409  0.33525457  0.50151626  1
  Ca2+  Ca14  1  0.07409097  0.32783428  0.82353924  1
  Ca2+  Ca15  1  0.08556935  0.82908776  0.16518299  1
  Ca2+  Ca16  1  0.07371874  0.82599577  0.49648196  1
  Ca2+  Ca17  1  0.07906585  0.82953942  0.82377413  1
  Ca2+  Ca18  1  0.57207100  0.32762137  0.16472353  1
  Ca2+  Ca19  1  0.57242789  0.32686930  0.49320578  1
  Ca2+  Ca20  1  0.57164747  0.33825865  0.82945926  1
  Ca2+  Ca21  1  0.57994093  0.84109572  0.16161438  1
  Ca2+  Ca22  1  0.58834093  0.82698310  0.49644548  1
  Ca2+  Ca23  1  0.58331030  0.83156375  0.83296597  1
  Ca2+  Ca24  1  0.33704500  0.41917639  0.17528369  1
  Ca2+  Ca25  1  0.33193866  0.42274307  0.51041792  1
  Ca2+  Ca26  1  0.33098922  0.41620036  0.83148021  1
  Ca2+  Ca27  1  0.33001906  0.91715754  0.17217592  1
  Ca2+  Ca28  1  0.33350368  0.92656811  0.50124874  1
  Ca2+  Ca29  1  0.32576092  0.91367062  0.84229064  1
  Ca2+  Ca30  1  0.84218769  0.41959555  0.16896415  1
  Ca2+  Ca31  1  0.83546048  0.41136308  0.50499182  1
  Ca2+  Ca32  1  0.84035267  0.42136643  0.84100900  1
  Ca2+  Ca33  1  0.82335363  0.92049992  0.17305271  1
  Ca2+  Ca34  1  0.83441930  0.91567081  0.50499949  1
  Ca2+  Ca35  1  0.83594666  0.92747719  0.84039136  1
  Ca2+  Ca36  1  0.41690751  0.16939727  0.16554831  1
  Ca2+  Ca37  1  0.41591945  0.17726972  0.48969988  1
  Ca2+  Ca38  1  0.41603985  0.17796229  0.82862397  1
  Ca2+  Ca39  1  0.41712633  0.67102601  0.16111292  1
  Ca2+  Ca40  1  0.41884033  0.65880006  0.49864764  1
  Ca2+  Ca41  1  0.42161215  0.67098268  0.82613926  1
  Ca2+  Ca42  1  0.90910134  0.17682682  0.16192714  1
  Ca2+  Ca43  1  0.91826887  0.17246598  0.50056238  1
  Ca2+  Ca44  1  0.91626395  0.16992629  0.82437928  1
  Ca2+  Ca45  1  0.92042823  0.67000194  0.16585732  1
  Ca2+  Ca46  1  0.92854629  0.67416654  0.49433801  1
  Ca2+  Ca47  1  0.92034171  0.67331794  0.82374037  1
  Al0+  Al48  1  0.00105559  -0.00073153  0.01207305  1
  Al0+  Al49  1  -0.00194185  -0.00045580  0.32962793  1
  Al0+  Al50  1  -0.00043034  0.00188454  0.66248305  1
  Al0+  Al51  1  0.00174849  0.49917983  0.00167372  1
  Al0+  Al52  1  0.00170047  0.50100501  0.32731467  1
  Al0+  Al53  1  0.00096006  0.50045696  0.66426763  1
  Al0+  Al54  1  0.49957788  0.00076747  -0.00463529  1
  Al0+  Al55  1  0.50055451  -0.00105321  0.34094314  1
  Al0+  Al56  1  0.49995977  -0.00047744  0.67041114  1
  Al0+  Al57  1  0.50090276  0.50026462  -0.00365678  1
  Al0+  Al58  1  0.50192900  0.49987188  0.33242833  1
  Al0+  Al59  1  0.50017696  0.50183007  0.66451373  1
  Al0+  Al60  1  0.24882903  0.25028975  -0.00369698  1
  Al0+  Al61  1  0.24724744  0.25085749  0.33249853  1
  Al0+  Al62  1  0.24891606  0.25199026  0.66508276  1
  Al0+  Al63  1  0.25116152  0.74902664  -0.00059130  1
  Al0+  Al64  1  0.25050453  0.74873421  0.33662293  1
  Al0+  Al65  1  0.25225119  0.75133863  0.66668447  1
  Al0+  Al66  1  0.74787597  0.25231620  -0.00073242  1
  Al0+  Al67  1  0.74867656  0.24920144  0.32552131  1
  Al0+  Al68  1  0.74754893  0.24871257  0.66930434  1
  Al0+  Al69  1  0.75168639  0.74892211  0.00811879  1
  Al0+  Al70  1  0.75112593  0.74979186  0.33406693  1
  Al0+  Al71  1  0.74681000  0.74933791  0.66045028  1
  Al0+  Al72  1  0.07342187  0.67849334  0.65257353  1
  Al0+  Al73  1  0.82301558  0.56939903  0.01382738  1
  Al0+  Al74  1  0.56921809  0.17626803  0.31850225  1
  Al0+  Al75  1  0.92950242  0.31944365  0.31883020  1
  Al0+  Al76  1  0.42990407  0.32021998  0.65239003  1
  Al0+  Al77  1  0.92598089  0.32168921  0.65331803  1
  Al0+  Al78  1  0.32273418  0.57018044  0.34680546  1
  Al0+  Al79  1  0.42882478  0.82145821  0.98764930  1
  Al0+  Al80  1  0.92793618  0.82247599  0.65409574  1
  Al0+  Al81  1  0.42790564  0.32184463  0.98422873  1
  Al0+  Al82  1  0.67862164  0.92953956  0.01464571  1
  Al0+  Al83  1  0.92916119  0.32057173  0.98553979  1
  Al0+  Al84  1  0.31891535  0.07084626  0.34636913  1
  Al0+  Al85  1  0.67980369  0.92886167  0.35023538  1
  Al0+  Al86  1  0.82176960  0.07406093  0.01756324  1
  Al0+  Al87  1  0.07100715  0.17848003  0.65234560  1
  Al0+  Al88  1  0.82029830  0.06991108  0.67913255  1
  Al0+  Al89  1  0.92738553  0.82168628  0.31479359  1
  Al0+  Al90  1  0.42733972  0.32200461  0.31867846  1
  Al0+  Al91  1  0.07283837  0.68063269  0.31650372  1
  Al0+  Al92  1  0.17999608  0.92646481  0.01376418  1
  Al0+  Al93  1  0.17762677  0.42887129  0.68305563  1
  Al0+  Al94  1  0.32274489  0.57216817  0.68454339  1
  Al0+  Al95  1  0.56904903  0.68086531  0.65318456  1
  Si0+  Si96  1  0.17636799  0.42878672  0.34956805  1
  Si0+  Si97  1  0.57230322  0.67762619  0.31715409  1
  Si0+  Si98  1  0.82190659  0.07427192  0.35099574  1
  Si0+  Si99  1  0.07090713  0.17609840  0.98501299  1
  Si0+  Si100  1  0.57137933  0.17747362  0.98050524  1
  Si0+  Si101  1  0.43068468  0.82011402  0.32131899  1
  Si0+  Si102  1  0.67739657  0.92524793  0.68470695  1
  Si0+  Si103  1  0.07302189  0.17611514  0.31420067  1
  Si0+  Si104  1  0.92943229  0.82038714  0.98763248  1
  Si0+  Si105  1  0.32179144  0.56937929  0.01418338  1
  Si0+  Si106  1  0.67522079  0.42951550  0.01734375  1
  Si0+  Si107  1  0.82036358  0.57121231  0.67838862  1
  Si0+  Si108  1  0.17999586  0.93065022  0.67948327  1
  Si0+  Si109  1  0.07217582  0.67900341  0.98452900  1
  Si0+  Si110  1  0.82211347  0.56933050  0.34965760  1
  Si0+  Si111  1  0.68038390  0.42851356  0.34754157  1
  Si0+  Si112  1  0.57392959  0.67886754  0.98485510  1
  Si0+  Si113  1  0.17659366  0.92748318  0.35190644  1
  Si0+  Si114  1  0.17998129  0.42826072  0.01577018  1
  Si0+  Si115  1  0.32201513  0.07271660  0.68253869  1
  Si0+  Si116  1  0.67876427  0.42891453  0.68072139  1
  Si0+  Si117  1  0.57103147  0.17622974  0.65138041  1
  Si0+  Si118  1  0.32096377  0.07345021  0.01419992  1
  Si0+  Si119  1  0.42719611  0.82476299  0.64855006  1
  O2-  O120  1  0.25592226  0.00128977  0.05847527  1
  O2-  O121  1  0.24132651  0.00008873  0.39598809  1
  O2-  O122  1  0.25147421  0.00077061  0.72373618  1
  O2-  O123  1  0.25380362  0.49654635  0.05783914  1
  O2-  O124  1  0.24995371  0.49327537  0.39187650  1
  O2-  O125  1  0.24912894  0.50163422  0.73462496  1
  O2-  O126  1  0.74851588  0.00243155  0.06630533  1
  O2-  O127  1  0.75634902  0.00245953  0.39550014  1
  O2-  O128  1  0.74758348  -0.00685542  0.72686246  1
  O2-  O129  1  0.74906331  0.49331889  0.06106789  1
  O2-  O130  1  0.75271796  0.49706684  0.39224610  1
  O2-  O131  1  0.75416464  0.49608776  0.72212721  1
  O2-  O132  1  0.00176840  0.24279979  0.27101693  1
  O2-  O133  1  -0.00085941  0.25123998  0.60342133  1
  O2-  O134  1  -0.00164062  0.24044677  0.94058137  1
  O2-  O135  1  0.00236054  0.75280103  0.26430816  1
  O2-  O136  1  -0.00072328  0.74934683  0.60483513  1
  O2-  O137  1  0.00100225  0.75064430  0.94344390  1
  O2-  O138  1  0.49527410  0.24650193  0.26815597  1
  O2-  O139  1  0.50014015  0.24165179  0.60624274  1
  O2-  O140  1  0.50263034  0.24714526  0.93740680  1
  O2-  O141  1  0.50045370  0.74854165  0.27702739  1
  O2-  O142  1  0.49526150  0.75545457  0.60480191  1
  O2-  O143  1  0.50648658  0.74934777  0.94180657  1
  O2-  O144  1  0.07528395  0.18024954  0.09049288  1
  O2-  O145  1  0.07405989  0.17715797  0.41948500  1
  O2-  O146  1  0.06900349  0.17523477  0.76624025  1
  O2-  O147  1  0.07367464  0.67927588  0.08941676  1
  O2-  O148  1  0.07164678  0.68073283  0.42963700  1
  O2-  O149  1  0.07025205  0.68102085  0.76715658  1
  O2-  O150  1  0.56891429  0.17632452  0.08596552  1
  O2-  O151  1  0.56950573  0.17958839  0.43239816  1
  O2-  O152  1  0.57000316  0.17767399  0.75706523  1
  O2-  O153  1  0.57127921  0.67561191  0.09058980  1
  O2-  O154  1  0.57251603  0.67646556  0.42217296  1
  O2-  O155  1  0.57168957  0.68263863  0.76646843  1
  O2-  O156  1  0.17577202  0.43096008  0.24322507  1
  O2-  O157  1  0.17911443  0.42868875  0.56954663  1
  O2-  O158  1  0.17805978  0.42980157  0.91119874  1
  O2-  O159  1  0.18149001  0.92612792  0.24603805  1
  O2-  O160  1  0.18242087  0.93136457  0.57455702  1
  O2-  O161  1  0.17952089  0.92622002  0.90019286  1
  O2-  O162  1  0.67908200  0.43250739  0.24249300  1
  O2-  O163  1  0.67811028  0.42994271  0.57533636  1
  O2-  O164  1  0.67236052  0.43359593  0.91150978  1
  O2-  O165  1  0.67766812  0.92954966  0.23731321  1
  O2-  O166  1  0.67559075  0.92616574  0.57919584  1
  O2-  O167  1  0.68200864  0.92852365  0.90092895  1
  O2-  O168  1  0.42866585  0.32249762  0.09701144  1
  O2-  O169  1  0.43092299  0.32290115  0.43206288  1
  O2-  O170  1  0.43226981  0.31945468  0.76592419  1
  O2-  O171  1  0.42728863  0.81795131  0.10115151  1
  O2-  O172  1  0.43198829  0.81969248  0.42635149  1
  O2-  O173  1  0.42763103  0.82566583  0.75437217  1
  O2-  O174  1  0.93440890  0.32250018  0.09864525  1
  O2-  O175  1  0.92917272  0.31981752  0.43154449  1
  O2-  O176  1  0.92627729  0.32054091  0.76696064  1
  O2-  O177  1  0.93003095  0.81697269  0.09222889  1
  O2-  O178  1  0.92770567  0.81825423  0.42842247  1
  O2-  O179  1  0.92927248  0.82184362  0.76870009  1
  O2-  O180  1  0.31880503  0.06665828  0.23292324  1
  O2-  O181  1  0.32369149  0.07111488  0.57747716  1
  O2-  O182  1  0.31771127  0.07432658  0.90835827  1
  O2-  O183  1  0.32263704  0.57066390  0.23269682  1
  O2-  O184  1  0.32385260  0.56876377  0.57097364  1
  O2-  O185  1  0.32112347  0.57042579  0.90966160  1
  O2-  O186  1  0.81891919  0.07479095  0.24552980  1
  O2-  O187  1  0.81723958  0.07146421  0.56622887  1
  O2-  O188  1  0.82344276  0.07111032  0.90352249  1
  O2-  O189  1  0.82038103  0.56860683  0.24426065  1
  O2-  O190  1  0.81683357  0.57166466  0.57327369  1
  O2-  O191  1  0.82204825  0.57110251  0.90020363  1
  O2-  O192  1  0.05165653  0.08126864  0.26918953  1
  O2-  O193  1  0.04363422  0.08209385  0.59546152  1
  O2-  O194  1  0.04970189  0.07928344  0.94366129  1
  O2-  O195  1  0.04326574  0.58337875  0.26166751  1
  O2-  O196  1  0.04643624  0.58088518  0.59910710  1
  O2-  O197  1  0.04312312  0.58717286  0.93860667  1
  O2-  O198  1  0.53959471  0.07707825  0.26800760  1
  O2-  O199  1  0.54886624  0.08080825  0.60768432  1
  O2-  O200  1  0.54624002  0.08506100  0.93173710  1
  O2-  O201  1  0.54542283  0.58667709  0.26795625  1
  O2-  O202  1  0.53964854  0.58503804  0.59694640  1
  O2-  O203  1  0.54696209  0.58678616  0.93649752  1
  O2-  O204  1  0.16495209  0.20417620  0.26567848  1
  O2-  O205  1  0.16915236  0.20628851  0.59905738  1
  O2-  O206  1  0.16271077  0.20423033  0.93629373  1
  O2-  O207  1  0.17237844  0.70910812  0.26421917  1
  O2-  O208  1  0.17172047  0.70822352  0.60112101  1
  O2-  O209  1  0.16362134  0.70646647  0.93684985  1
  O2-  O210  1  0.66531148  0.20634995  0.26252532  1
  O2-  O211  1  0.66292471  0.20477931  0.60461169  1
  O2-  O212  1  0.66477683  0.20445250  0.93486028  1
  O2-  O213  1  0.66404759  0.70539654  0.27044545  1
  O2-  O214  1  0.66378367  0.70933942  0.59389953  1
  O2-  O215  1  0.66861850  0.70372787  0.94037862  1
  O2-  O216  1  0.09038174  0.45957689  0.06543034  1
  O2-  O217  1  0.08448066  0.46000837  0.39592583  1
  O2-  O218  1  0.07850170  0.45779965  0.73657383  1
  O2-  O219  1  0.08639224  0.95583154  0.07355540  1
  O2-  O220  1  0.08048603  0.94946140  0.39368916  1
  O2-  O221  1  0.08824737  0.95880851  0.72682579  1
  O2-  O222  1  0.58406242  0.46117362  0.06590584  1
  O2-  O223  1  0.59010802  0.45931387  0.39657665  1
  O2-  O224  1  0.58996577  0.46355970  0.72971688  1
  O2-  O225  1  0.57766064  0.95692397  0.06449786  1
  O2-  O226  1  0.58428160  0.95795135  0.40722116  1
  O2-  O227  1  0.58355170  0.95100352  0.73144790  1
  O2-  O228  1  0.20531386  0.33520821  0.06208128  1
  O2-  O229  1  0.19465824  0.33307315  0.39313332  1
  O2-  O230  1  0.20709495  0.33030264  0.73668155  1
  O2-  O231  1  0.21349123  0.83073697  0.06884206  1
  O2-  O232  1  0.20698622  0.83595935  0.39895464  1
  O2-  O233  1  0.20748069  0.83939893  0.72854420  1
  O2-  O234  1  0.69403081  0.33397342  0.06079462  1
  O2-  O235  1  0.70622898  0.33537629  0.39283590  1
  O2-  O236  1  0.69948588  0.33623994  0.72941419  1
  O2-  O237  1  0.70465395  0.83114346  0.06902856  1
  O2-  O238  1  0.71018433  0.83060313  0.40265445  1
  O2-  O239  1  0.70064695  0.83028035  0.72887255  1
  O2-  O240  1  0.46243237  0.41853684  0.26468242  1
  O2-  O241  1  0.46477527  0.41537585  0.59991201  1
  O2-  O242  1  0.46100470  0.41800039  0.92987594  1
  O2-  O243  1  0.45958524  0.91128720  0.27424236  1
  O2-  O244  1  0.45372703  0.91890786  0.60358214  1
  O2-  O245  1  0.45361063  0.91852946  0.93127639  1
  O2-  O246  1  0.96244218  0.41523439  0.26411532  1
  O2-  O247  1  0.95180418  0.42048121  0.60062368  1
  O2-  O248  1  0.96505300  0.41667969  0.93300275  1
  O2-  O249  1  0.95022621  0.92202140  0.26361405  1
  O2-  O250  1  0.95783323  0.91834282  0.59853707  1
  O2-  O251  1  0.95760024  0.91406958  0.94446924  1
  O2-  O252  1  0.32692339  0.29851508  0.26777104  1
  O2-  O253  1  0.33277269  0.29276379  0.60005444  1
  O2-  O254  1  0.33121981  0.29107480  0.93019979  1
  O2-  O255  1  0.33831291  0.79369742  0.27461576  1
  O2-  O256  1  0.33376281  0.80196418  0.60214651  1
  O2-  O257  1  0.33419840  0.78665014  0.93139624  1
  O2-  O258  1  0.83278987  0.29285599  0.26275811  1
  O2-  O259  1  0.82684295  0.29270403  0.60170494  1
  O2-  O260  1  0.82818456  0.30105017  0.93563097  1
  O2-  O261  1  0.83004931  0.78759900  0.26267031  1
  O2-  O262  1  0.82990693  0.79508262  0.60096394  1
  O2-  O263  1  0.83741641  0.79138736  0.94150352  1
  O2-  O264  1  0.41618350  0.05131574  0.05710913  1
  O2-  O265  1  0.41265926  0.03696923  0.40400034  1
  O2-  O266  1  0.41374803  0.04572917  0.73150735  1
  O2-  O267  1  0.41527642  0.54459848  0.06022552  1
  O2-  O268  1  0.42109279  0.54210017  0.39920973  1
  O2-  O269  1  0.42163096  0.54201092  0.73664155  1
  O2-  O270  1  0.91924655  0.04748799  0.07263367  1
  O2-  O271  1  0.91800701  0.05216455  0.39357541  1
  O2-  O272  1  0.91800696  0.04099784  0.73271237  1
  O2-  O273  1  0.91902668  0.53811941  0.06950031  1
  O2-  O274  1  0.91513395  0.54214906  0.39413979  1
  O2-  O275  1  0.91339532  0.54937062  0.72556159  1
  O2-  O276  1  0.29188385  0.16572038  0.06178494  1
  O2-  O277  1  0.28998506  0.16891017  0.39929399  1
  O2-  O278  1  0.29368698  0.16407276  0.72967913  1
  O2-  O279  1  0.29178940  0.66026318  0.06224073  1
  O2-  O280  1  0.29304461  0.66656760  0.40190926  1
  O2-  O281  1  0.29839990  0.67329935  0.73495158  1
  O2-  O282  1  0.79251313  0.17398748  0.06705664  1
  O2-  O283  1  0.79274429  0.16778544  0.39550819  1
  O2-  O284  1  0.78664772  0.16520976  0.73577892  1
  O2-  O285  1  0.79070611  0.66324959  0.07229393  1
  O2-  O286  1  0.79192233  0.66025619  0.39648348  1
  O2-  O287  1  0.78700975  0.66164370  0.72617416  1
