# generated using pymatgen
data_Ca2Al2SiO7
_symmetry_space_group_name_H-M   'P 1'
_cell_length_a   15.46740680
_cell_length_b   15.46393430
_cell_length_c   15.28930455
_cell_angle_alpha   89.99716250
_cell_angle_beta   89.99219236
_cell_angle_gamma   89.98290574
_symmetry_Int_Tables_number   1
_chemical_formula_structural   Ca2Al2SiO7
_chemical_formula_sum   'Ca48 Al48 Si24 O168'
_cell_volume   3657.00211314
_cell_formula_units_Z   24
loop_
 _symmetry_equiv_pos_site_id
 _symmetry_equiv_pos_as_xyz
  1  'x, y, z'
loop_
 _atom_type_symbol
 _atom_type_oxidation_number
  Ca2+  2.0
  Al0+  0.0
  Si0+  0.0
  O2-  -2.0
loop_
 _atom_site_type_symbol
 _atom_site_label
 _atom_site_symmetry_multiplicity
 _atom_site_fract_x
 _atom_site_fract_y
 _atom_site_fract_z
 _atom_site_occupancy
  Ca2+  Ca0  1  0.17241923  0.08268910  0.17480108  1
  Ca2+  Ca1  1  0.17070866  0.09042930  0.50177882  1
  Ca2+  Ca2  1  0.16621333  0.08484650  0.83489847  1
  Ca2+  Ca3  1  0.18118246  0.58096780  0.16987106  1
  Ca2+  Ca4  1  0.17684148  0.57927581  0.51299071  1
  Ca2+  Ca5  1  0.17541423  0.58426455  0.83356840  1
  Ca2+  Ca6  1  0.66591740  0.08258346  0.16196360  1
  Ca2+  Ca7  1  0.66214564  0.07697885  0.51108107  1
  Ca2+  Ca8  1  0.66358670  0.07595704  0.84254697  1
  Ca2+  Ca9  1  0.65646307  0.57666310  0.16229663  1
  Ca2+  Ca10  1  0.66691698  0.58348486  0.50705413  1
  Ca2+  Ca11  1  0.65854304  0.57947770  0.84150768  1
  Ca2+  Ca12  1  0.07950516  0.32651607  0.16226097  1
  Ca2+  Ca13  1  0.08770896  0.32874837  0.50196201  1
  Ca2+  Ca14  1  0.07251135  0.33420200  0.82341541  1
  Ca2+  Ca15  1  0.07823374  0.83272412  0.15881128  1
  Ca2+  Ca16  1  0.08941827  0.82473911  0.50026847  1
  Ca2+  Ca17  1  0.07591481  0.82881831  0.83051373  1
  Ca2+  Ca18  1  0.57441915  0.33031115  0.15548055  1
  Ca2+  Ca19  1  0.57761951  0.32642867  0.49736521  1
  Ca2+  Ca20  1  0.58612918  0.32486078  0.83462159  1
  Ca2+  Ca21  1  0.57322265  0.82810864  0.15591152  1
  Ca2+  Ca22  1  0.57414803  0.83076841  0.50240445  1
  Ca2+  Ca23  1  0.57954878  0.82864396  0.82632872  1
  Ca2+  Ca24  1  0.34723224  0.42706681  0.17093386  1
  Ca2+  Ca25  1  0.33290719  0.42680508  0.50805168  1
  Ca2+  Ca26  1  0.33531087  0.42800841  0.83973057  1
  Ca2+  Ca27  1  0.34118798  0.92180722  0.17205152  1
  Ca2+  Ca28  1  0.34254257  0.92106842  0.50270561  1
  Ca2+  Ca29  1  0.33668338  0.91192594  0.83679702  1
  Ca2+  Ca30  1  0.82675895  0.40891563  0.16156322  1
  Ca2+  Ca31  1  0.83403614  0.41553824  0.50644875  1
  Ca2+  Ca32  1  0.83104538  0.41299482  0.84147131  1
  Ca2+  Ca33  1  0.82791991  0.91660282  0.16296602  1
  Ca2+  Ca34  1  0.82280383  0.91992442  0.50983121  1
  Ca2+  Ca35  1  0.82068444  0.92065054  0.84465796  1
  Ca2+  Ca36  1  0.41620289  0.17812247  0.16049585  1
  Ca2+  Ca37  1  0.41804044  0.17111047  0.49354531  1
  Ca2+  Ca38  1  0.42872259  0.16985098  0.83168198  1
  Ca2+  Ca39  1  0.41455116  0.67375773  0.15796117  1
  Ca2+  Ca40  1  0.40963590  0.67394301  0.49830827  1
  Ca2+  Ca41  1  0.42207945  0.67169155  0.83048297  1
  Ca2+  Ca42  1  0.92218638  0.16478212  0.15739105  1
  Ca2+  Ca43  1  0.92904924  0.17009153  0.50012460  1
  Ca2+  Ca44  1  0.91421500  0.17554263  0.82863340  1
  Ca2+  Ca45  1  0.92075980  0.67316122  0.15842592  1
  Ca2+  Ca46  1  0.92565880  0.66360334  0.50129679  1
  Ca2+  Ca47  1  0.91811087  0.67262635  0.82790048  1
  Al0+  Al48  1  0.00040061  -0.00231328  -0.00067662  1
  Al0+  Al49  1  -0.00113390  -0.00063149  0.33172765  1
  Al0+  Al50  1  -0.00024512  0.00313602  0.66349505  1
  Al0+  Al51  1  0.00235347  0.49751671  -0.00044990  1
  Al0+  Al52  1  -0.00114278  0.49950583  0.33128740  1
  Al0+  Al53  1  -0.00072215  0.50168943  0.66246255  1
  Al0+  Al54  1  0.49821552  0.00046447  0.00013988  1
  Al0+  Al55  1  0.50080632  -0.00178513  0.33457117  1
  Al0+  Al56  1  0.50007795  -0.00001970  0.66472008  1
  Al0+  Al57  1  0.49917640  0.50116619  0.00242593  1
  Al0+  Al58  1  0.50198489  0.49945803  0.33834767  1
  Al0+  Al59  1  0.50195179  0.50092847  0.66826397  1
  Al0+  Al60  1  0.24902362  0.25052904  -0.00376698  1
  Al0+  Al61  1  0.24944751  0.24948636  0.32852457  1
  Al0+  Al62  1  0.24874437  0.25095068  0.66963035  1
  Al0+  Al63  1  0.24954226  0.74898367  0.00191386  1
  Al0+  Al64  1  0.24972154  0.74956609  0.33170709  1
  Al0+  Al65  1  0.24890727  0.75271114  0.66419825  1
  Al0+  Al66  1  0.75188127  0.24938194  0.00277915  1
  Al0+  Al67  1  0.75149876  0.24901137  0.33633766  1
  Al0+  Al68  1  0.75024725  0.25055166  0.65670938  1
  Al0+  Al69  1  0.75113898  0.74992491  -0.00118982  1
  Al0+  Al70  1  0.75066903  0.74872651  0.33544599  1
  Al0+  Al71  1  0.74766001  0.75063553  0.66658354  1
  Al0+  Al72  1  0.42942106  0.81979309  0.31831332  1
  Al0+  Al73  1  0.42718934  0.32338194  0.98398547  1
  Al0+  Al74  1  0.43092888  0.32090250  0.32175271  1
  Al0+  Al75  1  0.68033753  0.42960145  0.01260829  1
  Al0+  Al76  1  0.32049169  0.07067302  0.34611259  1
  Al0+  Al77  1  0.93057460  0.31952297  0.98758179  1
  Al0+  Al78  1  0.82153964  0.07030782  0.01479963  1
  Al0+  Al79  1  0.56945182  0.17964524  0.65293796  1
  Al0+  Al80  1  0.57185313  0.67686375  0.65053435  1
  Al0+  Al81  1  0.57096891  0.67925347  0.98702078  1
  Al0+  Al82  1  0.42702560  0.82192977  0.98572729  1
  Al0+  Al83  1  0.42828841  0.82059465  0.65066689  1
  Al0+  Al84  1  0.07324745  0.17836639  0.65137306  1
  Al0+  Al85  1  0.32114398  0.57083731  0.34846651  1
  Al0+  Al86  1  0.31970191  0.56961607  0.01501369  1
  Al0+  Al87  1  0.92863227  0.32248833  0.65000123  1
  Al0+  Al88  1  0.57116454  0.17966297  0.98721923  1
  Al0+  Al89  1  0.92903244  0.82084232  0.98648110  1
  Al0+  Al90  1  0.17804299  0.42883314  0.68260799  1
  Al0+  Al91  1  0.67839941  0.93023099  0.68130965  1
  Al0+  Al92  1  0.06980340  0.17908706  0.31780814  1
  Al0+  Al93  1  0.06974415  0.68131581  0.65399932  1
  Al0+  Al94  1  0.67613866  0.92685059  0.01670473  1
  Al0+  Al95  1  0.32241703  0.57339169  0.68414652  1
  Si0+  Si96  1  0.32098363  0.07143250  0.68191718  1
  Si0+  Si97  1  0.07244226  0.17593647  0.98310873  1
  Si0+  Si98  1  0.17680762  0.42593349  0.01836219  1
  Si0+  Si99  1  0.82606283  0.57208860  0.01600336  1
  Si0+  Si100  1  0.57448228  0.67810968  0.31692894  1
  Si0+  Si101  1  0.17947221  0.92910798  0.01414157  1
  Si0+  Si102  1  0.17657658  0.93010058  0.68131001  1
  Si0+  Si103  1  0.07088737  0.67822080  0.31734079  1
  Si0+  Si104  1  0.92671053  0.82306440  0.64986201  1
  Si0+  Si105  1  0.32035980  0.07280252  0.01413680  1
  Si0+  Si106  1  0.57386748  0.17661799  0.31711227  1
  Si0+  Si107  1  0.68058587  0.92848858  0.34976108  1
  Si0+  Si108  1  0.92778630  0.81950738  0.31926105  1
  Si0+  Si109  1  0.68055024  0.42826924  0.34997260  1
  Si0+  Si110  1  0.17581262  0.42854703  0.34894936  1
  Si0+  Si111  1  0.07193525  0.67751972  0.98445816  1
  Si0+  Si112  1  0.17561675  0.92816048  0.34986217  1
  Si0+  Si113  1  0.82182315  0.07301615  0.68175236  1
  Si0+  Si114  1  0.82070265  0.57139083  0.68084680  1
  Si0+  Si115  1  0.92644842  0.32255370  0.31412171  1
  Si0+  Si116  1  0.68035068  0.42755173  0.68076917  1
  Si0+  Si117  1  0.42776500  0.32248893  0.65169358  1
  Si0+  Si118  1  0.82291720  0.07094718  0.35071704  1
  Si0+  Si119  1  0.82227145  0.57159337  0.34892147  1
  O2-  O120  1  0.25058521  -0.00021580  0.05600484  1
  O2-  O121  1  0.24574984  -0.00452596  0.39378009  1
  O2-  O122  1  0.24764002  0.00143194  0.72286617  1
  O2-  O123  1  0.24874375  0.49092847  0.06276833  1
  O2-  O124  1  0.24551070  0.49598625  0.39324083  1
  O2-  O125  1  0.25203008  0.49850876  0.73277849  1
  O2-  O126  1  0.74853725  -0.00040228  0.06671329  1
  O2-  O127  1  0.74853131  0.00306751  0.39222451  1
  O2-  O128  1  0.75431203  0.00430039  0.72626408  1
  O2-  O129  1  0.75476867  0.50572659  0.06026795  1
  O2-  O130  1  0.75255028  0.49930922  0.39101627  1
  O2-  O131  1  0.74957163  0.50078150  0.72230130  1
  O2-  O132  1  -0.00561175  0.25296421  0.27116922  1
  O2-  O133  1  0.00344718  0.25265568  0.60156539  1
  O2-  O134  1  0.00427673  0.24502446  0.94032498  1
  O2-  O135  1  0.00080315  0.75077171  0.27639777  1
  O2-  O136  1  -0.00353780  0.75652841  0.60383839  1
  O2-  O137  1  -0.00071695  0.74201751  0.94062781  1
  O2-  O138  1  0.50485455  0.24525580  0.27465572  1
  O2-  O139  1  0.49443055  0.25306111  0.60526928  1
  O2-  O140  1  0.49982039  0.25143499  0.93574565  1
  O2-  O141  1  0.50261812  0.74317184  0.27348944  1
  O2-  O142  1  0.49650390  0.74485162  0.60029746  1
  O2-  O143  1  0.50343674  0.75481350  0.93669920  1
  O2-  O144  1  0.07259642  0.17566746  0.08905869  1
  O2-  O145  1  0.06862001  0.17918094  0.43035563  1
  O2-  O146  1  0.06978568  0.17483890  0.76449683  1
  O2-  O147  1  0.07137537  0.68054436  0.09078905  1
  O2-  O148  1  0.06927757  0.67801337  0.42240206  1
  O2-  O149  1  0.06658390  0.68393941  0.76684550  1
  O2-  O150  1  0.56834976  0.18100382  0.10130617  1
  O2-  O151  1  0.57410286  0.17789341  0.42302997  1
  O2-  O152  1  0.57064579  0.18033417  0.76539053  1
  O2-  O153  1  0.56745985  0.67852360  0.10128389  1
  O2-  O154  1  0.57921694  0.68085225  0.42216071  1
  O2-  O155  1  0.57527199  0.67825131  0.76324313  1
  O2-  O156  1  0.17167562  0.43248754  0.24351686  1
  O2-  O157  1  0.18069706  0.43033125  0.56821301  1
  O2-  O158  1  0.17343357  0.42826548  0.91338684  1
  O2-  O159  1  0.17243870  0.92921686  0.24413681  1
  O2-  O160  1  0.17515719  0.92971667  0.57620515  1
  O2-  O161  1  0.17759813  0.92949293  0.90899217  1
  O2-  O162  1  0.68078708  0.42767553  0.24517221  1
  O2-  O163  1  0.68218029  0.42773379  0.57506923  1
  O2-  O164  1  0.68325763  0.42923575  0.89951942  1
  O2-  O165  1  0.68282801  0.92621583  0.24522644  1
  O2-  O166  1  0.68057612  0.93163823  0.56709743  1
  O2-  O167  1  0.67792728  0.92815087  0.90336660  1
  O2-  O168  1  0.42877810  0.32123939  0.09812868  1
  O2-  O169  1  0.43366089  0.31999866  0.43509323  1
  O2-  O170  1  0.43003093  0.32082475  0.75683558  1
  O2-  O171  1  0.42548589  0.81957634  0.09969285  1
  O2-  O172  1  0.43097813  0.82142512  0.43095072  1
  O2-  O173  1  0.42937137  0.82222169  0.76360817  1
  O2-  O174  1  0.93336986  0.31914367  0.10104285  1
  O2-  O175  1  0.92549593  0.32388423  0.41929526  1
  O2-  O176  1  0.92599492  0.32076806  0.76337266  1
  O2-  O177  1  0.93338173  0.82016029  0.10046354  1
  O2-  O178  1  0.92662165  0.81744864  0.42433971  1
  O2-  O179  1  0.92803879  0.82140250  0.75514706  1
  O2-  O180  1  0.31864245  0.06957146  0.23291378  1
  O2-  O181  1  0.32121663  0.07137820  0.57654724  1
  O2-  O182  1  0.31802051  0.07400722  0.90897328  1
  O2-  O183  1  0.31976107  0.57098883  0.23536799  1
  O2-  O184  1  0.31967909  0.57213431  0.56987837  1
  O2-  O185  1  0.31621588  0.57259018  0.90261708  1
  O2-  O186  1  0.82483415  0.07038515  0.24612418  1
  O2-  O187  1  0.82117561  0.06965623  0.57538647  1
  O2-  O188  1  0.82292869  0.06885444  0.90140684  1
  O2-  O189  1  0.82431960  0.57473760  0.24444921  1
  O2-  O190  1  0.82044398  0.57098673  0.57500318  1
  O2-  O191  1  0.83027135  0.57008938  0.91063444  1
  O2-  O192  1  0.03903926  0.08132597  0.26495889  1
  O2-  O193  1  0.04322182  0.08117733  0.59482596  1
  O2-  O194  1  0.04825434  0.08200214  0.93817766  1
  O2-  O195  1  0.04028856  0.58759167  0.26938372  1
  O2-  O196  1  0.03702280  0.58747244  0.59618904  1
  O2-  O197  1  0.05145190  0.58257541  0.94090172  1
  O2-  O198  1  0.55026639  0.08221644  0.27350135  1
  O2-  O199  1  0.53762773  0.08449337  0.59748902  1
  O2-  O200  1  0.54101927  0.08220690  0.93451317  1
  O2-  O201  1  0.55225741  0.58197725  0.27583685  1
  O2-  O202  1  0.55045524  0.57602343  0.59873508  1
  O2-  O203  1  0.54034999  0.58208252  0.93461736  1
  O2-  O204  1  0.16543678  0.20878996  0.26176510  1
  O2-  O205  1  0.17256091  0.20537983  0.59876780  1
  O2-  O206  1  0.16555501  0.20016271  0.93663801  1
  O2-  O207  1  0.16156565  0.70602549  0.26864146  1
  O2-  O208  1  0.16406279  0.71397558  0.59709553  1
  O2-  O209  1  0.16228270  0.70972830  0.93768945  1
  O2-  O210  1  0.66863759  0.20254440  0.27371959  1
  O2-  O211  1  0.66412780  0.21007804  0.59475317  1
  O2-  O212  1  0.66992984  0.20711022  0.93621862  1
  O2-  O213  1  0.66775318  0.70552435  0.27047976  1
  O2-  O214  1  0.66978597  0.70847899  0.59609628  1
  O2-  O215  1  0.67267843  0.69751739  0.93765990  1
  O2-  O216  1  0.08500948  0.45481791  0.06783511  1
  O2-  O217  1  0.08177335  0.45473762  0.39521240  1
  O2-  O218  1  0.07882621  0.46089759  0.73199384  1
  O2-  O219  1  0.08858381  0.95682990  0.06406166  1
  O2-  O220  1  0.08183729  0.95283356  0.39671624  1
  O2-  O221  1  0.08433767  0.95798642  0.72901479  1
  O2-  O222  1  0.58490271  0.46101247  0.06940659  1
  O2-  O223  1  0.59070846  0.45616240  0.40072708  1
  O2-  O224  1  0.58827544  0.45152512  0.72838399  1
  O2-  O225  1  0.57760457  0.95656842  0.06978692  1
  O2-  O226  1  0.58852836  0.95440414  0.39719375  1
  O2-  O227  1  0.58217419  0.96247281  0.73362867  1
  O2-  O228  1  0.19804062  0.32999667  0.06205337  1
  O2-  O229  1  0.20031493  0.33362781  0.39143036  1
  O2-  O230  1  0.19950532  0.32854058  0.73493374  1
  O2-  O231  1  0.20428815  0.83734583  0.06331476  1
  O2-  O232  1  0.20001120  0.83338317  0.39375034  1
  O2-  O233  1  0.20326212  0.83895575  0.72984675  1
  O2-  O234  1  0.71305402  0.33524329  0.07018422  1
  O2-  O235  1  0.70814210  0.33615680  0.39834259  1
  O2-  O236  1  0.71128284  0.33566506  0.72569026  1
  O2-  O237  1  0.70850084  0.82889685  0.06984586  1
  O2-  O238  1  0.71332271  0.83801827  0.39781927  1
  O2-  O239  1  0.70961267  0.83326942  0.73342655  1
  O2-  O240  1  0.46554936  0.41725562  0.26915633  1
  O2-  O241  1  0.45549726  0.41545433  0.60591460  1
  O2-  O242  1  0.45644127  0.42127921  0.93359175  1
  O2-  O243  1  0.46215563  0.91677759  0.26582702  1
  O2-  O244  1  0.46178874  0.91742417  0.59679627  1
  O2-  O245  1  0.44693754  0.92283167  0.93620946  1
  O2-  O246  1  0.95110940  0.41669028  0.26826240  1
  O2-  O247  1  0.95397095  0.42126386  0.59625003  1
  O2-  O248  1  0.95998935  0.41657115  0.93357025  1
  O2-  O249  1  0.95333174  0.91158571  0.27210364  1
  O2-  O250  1  0.95028572  0.91729388  0.60449953  1
  O2-  O251  1  0.96502423  0.91434847  0.93072043  1
  O2-  O252  1  0.33428715  0.29350710  0.26690029  1
  O2-  O253  1  0.33361749  0.29792459  0.60718116  1
  O2-  O254  1  0.32866780  0.29575473  0.93171184  1
  O2-  O255  1  0.33051113  0.79376822  0.26608675  1
  O2-  O256  1  0.32825310  0.79909782  0.59773590  1
  O2-  O257  1  0.32871756  0.79105154  0.93403394  1
  O2-  O258  1  0.83195871  0.29618187  0.27026935  1
  O2-  O259  1  0.83323528  0.29165621  0.59175456  1
  O2-  O260  1  0.83414768  0.29046995  0.93424439  1
  O2-  O261  1  0.83760976  0.78792090  0.27096951  1
  O2-  O262  1  0.83467527  0.79445691  0.60271200  1
  O2-  O263  1  0.83281333  0.79377798  0.93199487  1
  O2-  O264  1  0.41140015  0.04755464  0.06347612  1
  O2-  O265  1  0.41787090  0.04078319  0.40051388  1
  O2-  O266  1  0.41140814  0.04066454  0.72938141  1
  O2-  O267  1  0.41606880  0.54162833  0.07072012  1
  O2-  O268  1  0.41841996  0.54172245  0.40217971  1
  O2-  O269  1  0.42239609  0.54631041  0.73432504  1
  O2-  O270  1  0.91992095  0.03780205  0.06821996  1
  O2-  O271  1  0.91306304  0.03867151  0.39913484  1
  O2-  O272  1  0.91651774  0.05023831  0.72632874  1
  O2-  O273  1  0.91845031  0.54354779  0.06484908  1
  O2-  O274  1  0.91437289  0.54358956  0.39696143  1
  O2-  O275  1  0.91251522  0.54526830  0.72779207  1
  O2-  O276  1  0.29029103  0.16420730  0.06210308  1
  O2-  O277  1  0.28857793  0.16761412  0.39943827  1
  O2-  O278  1  0.29496156  0.16288318  0.73047091  1
  O2-  O279  1  0.28322123  0.66473942  0.07063271  1
  O2-  O280  1  0.28765879  0.66785980  0.40031042  1
  O2-  O281  1  0.28895960  0.67209596  0.73313731  1
  O2-  O282  1  0.79594867  0.16812567  0.07068400  1
  O2-  O283  1  0.79927749  0.16428054  0.39773004  1
  O2-  O284  1  0.79526069  0.16795796  0.72307345  1
  O2-  O285  1  0.80431596  0.66666191  0.06165756  1
  O2-  O286  1  0.79442452  0.66242989  0.39914082  1
  O2-  O287  1  0.79515779  0.66399161  0.72731636  1
