# generated using pymatgen
data_Ca2Al2SiO7
_symmetry_space_group_name_H-M   'P 1'
_cell_length_a   15.45484912
_cell_length_b   15.45475293
_cell_length_c   15.28052223
_cell_angle_alpha   90.00828203
_cell_angle_beta   90.00067946
_cell_angle_gamma   90.01278786
_symmetry_Int_Tables_number   1
_chemical_formula_structural   Ca2Al2SiO7
_chemical_formula_sum   'Ca48 Al48 Si24 O168'
_cell_volume   3649.76597372
_cell_formula_units_Z   24
loop_
 _symmetry_equiv_pos_site_id
 _symmetry_equiv_pos_as_xyz
  1  'x, y, z'
loop_
 _atom_type_symbol
 _atom_type_oxidation_number
  Ca2+  2.0
  Al0+  0.0
  Si0+  0.0
  O2-  -2.0
loop_
 _atom_site_type_symbol
 _atom_site_label
 _atom_site_symmetry_multiplicity
 _atom_site_fract_x
 _atom_site_fract_y
 _atom_site_fract_z
 _atom_site_occupancy
  Ca2+  Ca0  1  0.16205405  0.07071231  0.16945547  1
  Ca2+  Ca1  1  0.16174687  0.07061451  0.50369563  1
  Ca2+  Ca2  1  0.16648025  0.07118832  0.83693718  1
  Ca2+  Ca3  1  0.17239384  0.57899826  0.17032084  1
  Ca2+  Ca4  1  0.17722054  0.58209612  0.51050542  1
  Ca2+  Ca5  1  0.16383050  0.57758436  0.83092114  1
  Ca2+  Ca6  1  0.66989360  0.07754765  0.17372418  1
  Ca2+  Ca7  1  0.67507807  0.07686864  0.50745106  1
  Ca2+  Ca8  1  0.66751501  0.08648200  0.83205413  1
  Ca2+  Ca9  1  0.67458823  0.58181501  0.17512673  1
  Ca2+  Ca10  1  0.67880909  0.58101195  0.51024069  1
  Ca2+  Ca11  1  0.66678354  0.58310840  0.82836362  1
  Ca2+  Ca12  1  0.07238429  0.33739157  0.16092946  1
  Ca2+  Ca13  1  0.07971989  0.33284237  0.49443084  1
  Ca2+  Ca14  1  0.08096058  0.34217403  0.82946920  1
  Ca2+  Ca15  1  0.07344026  0.83930500  0.16241364  1
  Ca2+  Ca16  1  0.08101701  0.83073476  0.49564022  1
  Ca2+  Ca17  1  0.08168949  0.83220473  0.82669832  1
  Ca2+  Ca18  1  0.57753395  0.32708601  0.16245369  1
  Ca2+  Ca19  1  0.58461096  0.33208100  0.49840736  1
  Ca2+  Ca20  1  0.58909001  0.32389337  0.82439918  1
  Ca2+  Ca21  1  0.57876560  0.83445890  0.16073046  1
  Ca2+  Ca22  1  0.59401320  0.82982667  0.49965563  1
  Ca2+  Ca23  1  0.57554655  0.83130320  0.82348110  1
  Ca2+  Ca24  1  0.33003672  0.41893449  0.17456285  1
  Ca2+  Ca25  1  0.33281958  0.42398878  0.50707146  1
  Ca2+  Ca26  1  0.32377773  0.42166824  0.83550832  1
  Ca2+  Ca27  1  0.32243347  0.90971984  0.16886431  1
  Ca2+  Ca28  1  0.31973937  0.91270429  0.50419519  1
  Ca2+  Ca29  1  0.32300513  0.90806051  0.83743183  1
  Ca2+  Ca30  1  0.83743035  0.41993436  0.17287917  1
  Ca2+  Ca31  1  0.83437919  0.42567839  0.50664045  1
  Ca2+  Ca32  1  0.83317889  0.42199790  0.83267505  1
  Ca2+  Ca33  1  0.83208256  0.92122745  0.17984447  1
  Ca2+  Ca34  1  0.82834342  0.92402041  0.50345721  1
  Ca2+  Ca35  1  0.82998940  0.91911421  0.83393305  1
  Ca2+  Ca36  1  0.42278817  0.16913321  0.16188136  1
  Ca2+  Ca37  1  0.42307880  0.17355611  0.49524576  1
  Ca2+  Ca38  1  0.42968863  0.16433754  0.82644505  1
  Ca2+  Ca39  1  0.41573141  0.67083099  0.16474677  1
  Ca2+  Ca40  1  0.42179347  0.65730217  0.49919249  1
  Ca2+  Ca41  1  0.41697888  0.67035113  0.82542501  1
  Ca2+  Ca42  1  0.91070398  0.17685523  0.16468859  1
  Ca2+  Ca43  1  0.91050118  0.16896205  0.49523920  1
  Ca2+  Ca44  1  0.91362097  0.17246617  0.82911398  1
  Ca2+  Ca45  1  0.91141903  0.68017942  0.16447438  1
  Ca2+  Ca46  1  0.92029437  0.66578941  0.49473196  1
  Ca2+  Ca47  1  0.92132234  0.67250307  0.82494102  1
  Al0+  Al48  1  -0.00161608  0.00184603  -0.00006983  1
  Al0+  Al49  1  -0.00024445  -0.00080596  0.33740522  1
  Al0+  Al50  1  -0.00077903  0.00228633  0.67439631  1
  Al0+  Al51  1  -0.00001767  0.50130484  0.00154136  1
  Al0+  Al52  1  0.00191499  0.49947409  0.33125450  1
  Al0+  Al53  1  0.00029427  0.50272085  0.66779058  1
  Al0+  Al54  1  0.49991668  -0.00097242  -0.00855005  1
  Al0+  Al55  1  0.49844105  -0.00221573  0.33586870  1
  Al0+  Al56  1  0.49955721  0.00110752  0.66108700  1
  Al0+  Al57  1  0.50133760  0.49883812  0.00155964  1
  Al0+  Al58  1  0.49984232  0.49927281  0.32961981  1
  Al0+  Al59  1  0.50025896  0.50160173  0.67154590  1
  Al0+  Al60  1  0.24960034  0.24981590  0.00525825  1
  Al0+  Al61  1  0.25044008  0.24806243  0.32664183  1
  Al0+  Al62  1  0.24868314  0.24911261  0.66859832  1
  Al0+  Al63  1  0.24997925  0.74912917  0.00176603  1
  Al0+  Al64  1  0.25143169  0.74717149  0.34053676  1
  Al0+  Al65  1  0.24827173  0.74954777  0.66977441  1
  Al0+  Al66  1  0.75055138  0.25150949  -0.00646577  1
  Al0+  Al67  1  0.74981383  0.24907393  0.33048650  1
  Al0+  Al68  1  0.75019599  0.25008943  0.66710033  1
  Al0+  Al69  1  0.75050081  0.75060502  -0.00446309  1
  Al0+  Al70  1  0.75131377  0.74798285  0.33504680  1
  Al0+  Al71  1  0.74850075  0.75269324  0.67052653  1
  Al0+  Al72  1  0.57230186  0.17914177  0.64892120  1
  Al0+  Al73  1  0.42906639  0.32162828  0.31946391  1
  Al0+  Al74  1  0.17948368  0.92927368  0.34713593  1
  Al0+  Al75  1  0.06988546  0.67990794  0.65218280  1
  Al0+  Al76  1  0.93022093  0.81936480  0.32213051  1
  Al0+  Al77  1  0.42874241  0.81829288  0.98701816  1
  Al0+  Al78  1  0.32208604  0.57121894  0.68345729  1
  Al0+  Al79  1  0.56941469  0.18058702  0.98566132  1
  Al0+  Al80  1  0.82259851  0.56971609  0.34522321  1
  Al0+  Al81  1  0.92805745  0.82385436  0.98556738  1
  Al0+  Al82  1  0.32156203  0.56867927  0.34725566  1
  Al0+  Al83  1  0.67687954  0.92960943  0.68382885  1
  Al0+  Al84  1  0.17832226  0.42714321  0.67962766  1
  Al0+  Al85  1  0.67974804  0.42934579  0.68069802  1
  Al0+  Al86  1  0.67646546  0.92716076  0.34673611  1
  Al0+  Al87  1  0.17952881  0.92944001  0.68122276  1
  Al0+  Al88  1  0.82266401  0.57339765  0.68271719  1
  Al0+  Al89  1  0.17865486  0.92876135  0.01485667  1
  Al0+  Al90  1  0.93118348  0.32234850  0.98398384  1
  Al0+  Al91  1  0.92972050  0.32130533  0.32084504  1
  Al0+  Al92  1  0.57066911  0.67964148  0.65223183  1
  Al0+  Al93  1  0.82048126  0.07188654  0.68438910  1
  Al0+  Al94  1  0.82040059  0.07274426  0.34705238  1
  Al0+  Al95  1  0.17821807  0.42892381  0.01640940  1
  Si0+  Si96  1  0.42645929  0.82167474  0.64730189  1
  Si0+  Si97  1  0.57092776  0.17634307  0.31665225  1
  Si0+  Si98  1  0.67998585  0.42742056  0.01624613  1
  Si0+  Si99  1  0.07518510  0.67817634  0.31613056  1
  Si0+  Si100  1  0.32262677  0.07351611  0.34931975  1
  Si0+  Si101  1  0.57354959  0.67616454  0.98370190  1
  Si0+  Si102  1  0.07239416  0.17605589  0.31590743  1
  Si0+  Si103  1  0.92828694  0.82462372  0.65001932  1
  Si0+  Si104  1  0.32380256  0.57067364  0.01828159  1
  Si0+  Si105  1  0.81913774  0.07257707  0.01580556  1
  Si0+  Si106  1  0.17849754  0.42585540  0.34840007  1
  Si0+  Si107  1  0.93067428  0.32109314  0.65178427  1
  Si0+  Si108  1  0.07279105  0.17817877  0.98315718  1
  Si0+  Si109  1  0.42684573  0.82027293  0.31977307  1
  Si0+  Si110  1  0.32467175  0.07049459  0.01602050  1
  Si0+  Si111  1  0.07097958  0.67976002  0.98479297  1
  Si0+  Si112  1  0.81983532  0.57198562  0.01580964  1
  Si0+  Si113  1  0.32179901  0.07275841  0.68193592  1
  Si0+  Si114  1  0.42681582  0.32149869  0.65200560  1
  Si0+  Si115  1  0.67793794  0.42802454  0.34664277  1
  Si0+  Si116  1  0.07181334  0.17769356  0.65245142  1
  Si0+  Si117  1  0.42585652  0.32341715  0.98250174  1
  Si0+  Si118  1  0.57149754  0.67932799  0.31855266  1
  Si0+  Si119  1  0.67862236  0.92868168  0.01355211  1
  O2-  O120  1  0.25407419  0.00384158  0.06111476  1
  O2-  O121  1  0.25341430  0.00542068  0.39319046  1
  O2-  O122  1  0.25628743  0.00209545  0.72762203  1
  O2-  O123  1  0.25737333  0.49958572  0.06242786  1
  O2-  O124  1  0.24846856  0.49225769  0.39278220  1
  O2-  O125  1  0.25001532  0.49833794  0.73116857  1
  O2-  O126  1  0.75050130  -0.00163101  0.05710172  1
  O2-  O127  1  0.74741263  0.00091731  0.39493345  1
  O2-  O128  1  0.74813894  0.00105005  0.73579641  1
  O2-  O129  1  0.74809350  0.50124022  0.05845344  1
  O2-  O130  1  0.75054262  0.49210348  0.39038236  1
  O2-  O131  1  0.74976758  0.50223944  0.73302422  1
  O2-  O132  1  0.00423332  0.24629831  0.27288621  1
  O2-  O133  1  0.00272058  0.25051472  0.61038779  1
  O2-  O134  1  0.00880687  0.25052074  0.93755775  1
  O2-  O135  1  0.00543939  0.74603671  0.27194352  1
  O2-  O136  1  -0.00537110  0.75394569  0.60521118  1
  O2-  O137  1  0.00511781  0.75115071  0.94061274  1
  O2-  O138  1  0.50208847  0.24509245  0.27221848  1
  O2-  O139  1  0.49693920  0.25516321  0.60562897  1
  O2-  O140  1  0.49356467  0.25439806  0.93831982  1
  O2-  O141  1  0.50184053  0.75277002  0.27744556  1
  O2-  O142  1  0.49703150  0.75477309  0.60292789  1
  O2-  O143  1  0.50222622  0.74250778  0.94114845  1
  O2-  O144  1  0.06886947  0.17621158  0.08884006  1
  O2-  O145  1  0.07471374  0.17722191  0.42164938  1
  O2-  O146  1  0.07246112  0.17676946  0.75744037  1
  O2-  O147  1  0.06976466  0.67969768  0.09072212  1
  O2-  O148  1  0.07547433  0.67898444  0.42151541  1
  O2-  O149  1  0.06894240  0.68149223  0.76568318  1
  O2-  O150  1  0.56860456  0.18151055  0.09926655  1
  O2-  O151  1  0.57030334  0.17796866  0.42178035  1
  O2-  O152  1  0.57006856  0.18055946  0.76233082  1
  O2-  O153  1  0.57572553  0.67720875  0.08989561  1
  O2-  O154  1  0.57112229  0.67690092  0.42310322  1
  O2-  O155  1  0.56734726  0.68115706  0.76561125  1
  O2-  O156  1  0.17883688  0.42889124  0.24251211  1
  O2-  O157  1  0.17998423  0.42530493  0.56590693  1
  O2-  O158  1  0.17835121  0.43196636  0.90378204  1
  O2-  O159  1  0.18043279  0.92940789  0.23369338  1
  O2-  O160  1  0.17873613  0.93105816  0.56796188  1
  O2-  O161  1  0.18012454  0.92938245  0.90202816  1
  O2-  O162  1  0.67702227  0.43066673  0.24029274  1
  O2-  O163  1  0.68251294  0.42935456  0.56663014  1
  O2-  O164  1  0.67984600  0.42695903  0.91177407  1
  O2-  O165  1  0.67509415  0.92878597  0.23199515  1
  O2-  O166  1  0.68025513  0.93027940  0.57030275  1
  O2-  O167  1  0.67902535  0.92920127  0.90913178  1
  O2-  O168  1  0.42874931  0.32354079  0.08844392  1
  O2-  O169  1  0.43041913  0.32146012  0.43237388  1
  O2-  O170  1  0.42518841  0.31717744  0.75762411  1
  O2-  O171  1  0.43043831  0.81757526  0.10095870  1
  O2-  O172  1  0.42346511  0.81916662  0.42413516  1
  O2-  O173  1  0.42652317  0.82025621  0.75334687  1
  O2-  O174  1  0.92936518  0.32081722  0.09738259  1
  O2-  O175  1  0.93192868  0.32232494  0.43381446  1
  O2-  O176  1  0.93174510  0.32056499  0.75712660  1
  O2-  O177  1  0.92553804  0.82273572  0.09909953  1
  O2-  O178  1  0.93143113  0.81844118  0.43468767  1
  O2-  O179  1  0.93186449  0.82427139  0.75614610  1
  O2-  O180  1  0.32410783  0.07201746  0.24353840  1
  O2-  O181  1  0.31780207  0.07437084  0.57620052  1
  O2-  O182  1  0.32425446  0.06965525  0.91056569  1
  O2-  O183  1  0.32034162  0.56979896  0.23371428  1
  O2-  O184  1  0.32204594  0.56843348  0.56959524  1
  O2-  O185  1  0.32498540  0.57072718  0.91337050  1
  O2-  O186  1  0.81829617  0.07309731  0.23256066  1
  O2-  O187  1  0.82151866  0.07182046  0.57094487  1
  O2-  O188  1  0.81812616  0.07379867  0.91116208  1
  O2-  O189  1  0.81845687  0.57123561  0.23134613  1
  O2-  O190  1  0.82389899  0.56949370  0.56890185  1
  O2-  O191  1  0.81926516  0.57153233  0.91123464  1
  O2-  O192  1  0.04479982  0.08294370  0.27006947  1
  O2-  O193  1  0.04089704  0.08676085  0.60464877  1
  O2-  O194  1  0.04265036  0.08671949  0.93538201  1
  O2-  O195  1  0.05155625  0.58395507  0.27023507  1
  O2-  O196  1  0.04083224  0.58297127  0.59716342  1
  O2-  O197  1  0.04144837  0.58772446  0.93842670  1
  O2-  O198  1  0.54369087  0.08236965  0.27087923  1
  O2-  O199  1  0.54028363  0.08356813  0.59358835  1
  O2-  O200  1  0.54017201  0.08479655  0.92948227  1
  O2-  O201  1  0.54178977  0.58920832  0.26778109  1
  O2-  O202  1  0.54075699  0.58176242  0.59930292  1
  O2-  O203  1  0.55097115  0.58069151  0.94005955  1
  O2-  O204  1  0.16598527  0.19777666  0.26715593  1
  O2-  O205  1  0.16386856  0.20280306  0.60344300  1
  O2-  O206  1  0.16950131  0.19776932  0.94098839  1
  O2-  O207  1  0.16904861  0.70491025  0.27067764  1
  O2-  O208  1  0.16707139  0.71096204  0.59914690  1
  O2-  O209  1  0.16572703  0.70171788  0.94018023  1
  O2-  O210  1  0.66381970  0.20173793  0.26875735  1
  O2-  O211  1  0.66879464  0.21177091  0.59596501  1
  O2-  O212  1  0.66441707  0.21384567  0.93084453  1
  O2-  O213  1  0.66290618  0.70579380  0.26927352  1
  O2-  O214  1  0.66865269  0.70993622  0.59935226  1
  O2-  O215  1  0.66539206  0.70329498  0.93596884  1
  O2-  O216  1  0.08265287  0.46401421  0.07099838  1
  O2-  O217  1  0.08536051  0.45154464  0.39408710  1
  O2-  O218  1  0.08167026  0.45882099  0.73344507  1
  O2-  O219  1  0.08174087  0.96272658  0.06775862  1
  O2-  O220  1  0.08446612  0.96009726  0.40293491  1
  O2-  O221  1  0.08541290  0.96320056  0.73709774  1
  O2-  O222  1  0.58671499  0.45201657  0.06402990  1
  O2-  O223  1  0.58596514  0.45704591  0.39258315  1
  O2-  O224  1  0.58165933  0.45461432  0.73552298  1
  O2-  O225  1  0.58604185  0.95781735  0.05922236  1
  O2-  O226  1  0.57692379  0.95030528  0.39977603  1
  O2-  O227  1  0.57602585  0.95730107  0.73219621  1
  O2-  O228  1  0.20324838  0.33034427  0.07039933  1
  O2-  O229  1  0.20083818  0.32971234  0.39002466  1
  O2-  O230  1  0.20372092  0.32842715  0.73453629  1
  O2-  O231  1  0.20992132  0.83219384  0.06911707  1
  O2-  O232  1  0.21231104  0.83407708  0.40166482  1
  O2-  O233  1  0.20954016  0.83386245  0.73621445  1
  O2-  O234  1  0.71109080  0.33663675  0.06388855  1
  O2-  O235  1  0.69788025  0.33247433  0.38954840  1
  O2-  O236  1  0.71092736  0.33259772  0.73450280  1
  O2-  O237  1  0.70391004  0.83519099  0.05970456  1
  O2-  O238  1  0.70669253  0.82957587  0.39855991  1
  O2-  O239  1  0.70270573  0.83167373  0.73824090  1
  O2-  O240  1  0.46174108  0.41631672  0.26124089  1
  O2-  O241  1  0.45126489  0.41630161  0.60895102  1
  O2-  O242  1  0.45215057  0.41756211  0.93825631  1
  O2-  O243  1  0.44989222  0.91344415  0.27184632  1
  O2-  O244  1  0.44717678  0.91660513  0.60195370  1
  O2-  O245  1  0.45826428  0.91332288  0.93018292  1
  O2-  O246  1  0.96128047  0.41710381  0.26359293  1
  O2-  O247  1  0.95804871  0.41315889  0.60522044  1
  O2-  O248  1  0.96042763  0.42018201  0.93208480  1
  O2-  O249  1  0.96019694  0.91699339  0.26827937  1
  O2-  O250  1  0.95773106  0.91847691  0.60667655  1
  O2-  O251  1  0.95619931  0.92124224  0.93258689  1
  O2-  O252  1  0.33275851  0.29235453  0.26257237  1
  O2-  O253  1  0.33380636  0.29360214  0.60460803  1
  O2-  O254  1  0.33057484  0.29952410  0.93977801  1
  O2-  O255  1  0.33712694  0.78648211  0.27072491  1
  O2-  O256  1  0.33288746  0.79362593  0.60295072  1
  O2-  O257  1  0.33202076  0.78761971  0.93316336  1
  O2-  O258  1  0.83238367  0.29257003  0.26489729  1
  O2-  O259  1  0.83967075  0.29201947  0.60445019  1
  O2-  O260  1  0.83596267  0.28980895  0.92940586  1
  O2-  O261  1  0.83394334  0.78715704  0.26602867  1
  O2-  O262  1  0.83269353  0.80279380  0.60813629  1
  O2-  O263  1  0.83286301  0.79091099  0.93025409  1
  O2-  O264  1  0.41791547  0.04213890  0.06188223  1
  O2-  O265  1  0.41534803  0.04816780  0.39673533  1
  O2-  O266  1  0.41663308  0.04958675  0.72526413  1
  O2-  O267  1  0.41885931  0.54790771  0.06458425  1
  O2-  O268  1  0.41921533  0.53809621  0.39882040  1
  O2-  O269  1  0.41925245  0.54474040  0.73864714  1
  O2-  O270  1  0.91188498  0.04801201  0.06248006  1
  O2-  O271  1  0.91849693  0.04609016  0.40017470  1
  O2-  O272  1  0.91818430  0.04549939  0.74000510  1
  O2-  O273  1  0.91109888  0.54410229  0.06355117  1
  O2-  O274  1  0.92062637  0.54187750  0.39726272  1
  O2-  O275  1  0.91931090  0.54266633  0.73701837  1
  O2-  O276  1  0.30271741  0.16510339  0.06251004  1
  O2-  O277  1  0.29776802  0.16786780  0.39418973  1
  O2-  O278  1  0.29476646  0.16442055  0.73097997  1
  O2-  O279  1  0.29487605  0.66311890  0.06538632  1
  O2-  O280  1  0.29230146  0.66340714  0.40430482  1
  O2-  O281  1  0.29167410  0.66861691  0.73619703  1
  O2-  O282  1  0.78791204  0.16446294  0.06175670  1
  O2-  O283  1  0.79267790  0.17152345  0.39975619  1
  O2-  O284  1  0.79162635  0.17018033  0.73664673  1
  O2-  O285  1  0.79037083  0.66435629  0.06266921  1
  O2-  O286  1  0.78967903  0.66373163  0.40069123  1
  O2-  O287  1  0.79534292  0.67166391  0.73509552  1
