# generated using pymatgen
data_Ca2Al2SiO7
_symmetry_space_group_name_H-M   'P 1'
_cell_length_a   15.45482724
_cell_length_b   15.45495555
_cell_length_c   15.28163355
_cell_angle_alpha   90.00275582
_cell_angle_beta   90.00902414
_cell_angle_gamma   89.98302029
_symmetry_Int_Tables_number   1
_chemical_formula_structural   Ca2Al2SiO7
_chemical_formula_sum   'Ca48 Al48 Si24 O168'
_cell_volume   3650.07401758
_cell_formula_units_Z   24
loop_
 _symmetry_equiv_pos_site_id
 _symmetry_equiv_pos_as_xyz
  1  'x, y, z'
loop_
 _atom_type_symbol
 _atom_type_oxidation_number
  Ca2+  2.0
  Al0+  0.0
  Si0+  0.0
  O2-  -2.0
loop_
 _atom_site_type_symbol
 _atom_site_label
 _atom_site_symmetry_multiplicity
 _atom_site_fract_x
 _atom_site_fract_y
 _atom_site_fract_z
 _atom_site_occupancy
  Ca2+  Ca0  1  0.16595887  0.08265021  0.17544681  1
  Ca2+  Ca1  1  0.17312047  0.08202748  0.51036503  1
  Ca2+  Ca2  1  0.16858201  0.07641805  0.83090225  1
  Ca2+  Ca3  1  0.16808890  0.58289831  0.17205513  1
  Ca2+  Ca4  1  0.16128135  0.57630084  0.50339006  1
  Ca2+  Ca5  1  0.16372655  0.58384090  0.83695529  1
  Ca2+  Ca6  1  0.66469139  0.07871383  0.17602094  1
  Ca2+  Ca7  1  0.65749972  0.07424289  0.50591479  1
  Ca2+  Ca8  1  0.66375516  0.07846637  0.83054881  1
  Ca2+  Ca9  1  0.67584392  0.58866206  0.17237244  1
  Ca2+  Ca10  1  0.66398808  0.57987209  0.50873795  1
  Ca2+  Ca11  1  0.67182451  0.58015112  0.83555628  1
  Ca2+  Ca12  1  0.07714170  0.33613712  0.16975371  1
  Ca2+  Ca13  1  0.07716442  0.33628449  0.49211170  1
  Ca2+  Ca14  1  0.07146116  0.34185674  0.82685971  1
  Ca2+  Ca15  1  0.08768701  0.81880362  0.16160139  1
  Ca2+  Ca16  1  0.08703537  0.82572979  0.49833805  1
  Ca2+  Ca17  1  0.07999033  0.82204105  0.82248398  1
  Ca2+  Ca18  1  0.58040945  0.33058304  0.16871785  1
  Ca2+  Ca19  1  0.58140313  0.32226343  0.49455853  1
  Ca2+  Ca20  1  0.58450364  0.32844157  0.82101565  1
  Ca2+  Ca21  1  0.57469903  0.83412535  0.16964490  1
  Ca2+  Ca22  1  0.58556018  0.82671824  0.49352178  1
  Ca2+  Ca23  1  0.58008879  0.82687603  0.82480989  1
  Ca2+  Ca24  1  0.32974484  0.42369967  0.17676078  1
  Ca2+  Ca25  1  0.32135024  0.40967775  0.50468218  1
  Ca2+  Ca26  1  0.32470490  0.42597530  0.83771671  1
  Ca2+  Ca27  1  0.33872285  0.91389536  0.17141220  1
  Ca2+  Ca28  1  0.33134071  0.92125641  0.50767166  1
  Ca2+  Ca29  1  0.33280727  0.91755038  0.83249042  1
  Ca2+  Ca30  1  0.84094612  0.41872057  0.16744773  1
  Ca2+  Ca31  1  0.83140516  0.41413733  0.50689743  1
  Ca2+  Ca32  1  0.83146468  0.41699828  0.83643913  1
  Ca2+  Ca33  1  0.82482357  0.91891549  0.17765561  1
  Ca2+  Ca34  1  0.82394915  0.91506738  0.50846108  1
  Ca2+  Ca35  1  0.82765832  0.90721771  0.83183602  1
  Ca2+  Ca36  1  0.41903486  0.17301984  0.17126654  1
  Ca2+  Ca37  1  0.42292814  0.16660701  0.49553854  1
  Ca2+  Ca38  1  0.42103054  0.16657138  0.82531177  1
  Ca2+  Ca39  1  0.41569156  0.67650570  0.16196296  1
  Ca2+  Ca40  1  0.42988332  0.67102450  0.49287238  1
  Ca2+  Ca41  1  0.41668162  0.66975670  0.82984959  1
  Ca2+  Ca42  1  0.91962903  0.17768414  0.16605852  1
  Ca2+  Ca43  1  0.92162805  0.17914538  0.49374093  1
  Ca2+  Ca44  1  0.91435423  0.17941960  0.82670569  1
  Ca2+  Ca45  1  0.92817457  0.65868525  0.16272951  1
  Ca2+  Ca46  1  0.92706383  0.67052047  0.50113655  1
  Ca2+  Ca47  1  0.92524607  0.66486843  0.82661869  1
  Al0+  Al48  1  -0.00044591  -0.00000750  0.00197079  1
  Al0+  Al49  1  -0.00075743  0.00103489  0.33245318  1
  Al0+  Al50  1  -0.00093662  0.00138834  0.66912983  1
  Al0+  Al51  1  -0.00167042  0.49820282  -0.00388774  1
  Al0+  Al52  1  0.00063405  0.50180352  0.33120787  1
  Al0+  Al53  1  -0.00048548  0.50112235  0.66235287  1
  Al0+  Al54  1  0.49832978  -0.00039917  -0.00308219  1
  Al0+  Al55  1  0.50021448  -0.00044829  0.33096627  1
  Al0+  Al56  1  0.50075282  0.00060086  0.67323470  1
  Al0+  Al57  1  0.49888265  0.49906314  0.00496519  1
  Al0+  Al58  1  0.50273944  0.50153487  0.32662531  1
  Al0+  Al59  1  0.49915604  0.49941714  0.66783185  1
  Al0+  Al60  1  0.25060986  0.24761944  0.00028198  1
  Al0+  Al61  1  0.24964236  0.25047130  0.33019536  1
  Al0+  Al62  1  0.24870100  0.25166038  0.68047647  1
  Al0+  Al63  1  0.25090101  0.74994199  -0.00539044  1
  Al0+  Al64  1  0.25126850  0.74979275  0.32815384  1
  Al0+  Al65  1  0.25045343  0.75001495  0.66524616  1
  Al0+  Al66  1  0.75001810  0.24771721  -0.00242045  1
  Al0+  Al67  1  0.75114542  0.25104837  0.32537829  1
  Al0+  Al68  1  0.74834008  0.24946271  0.66181782  1
  Al0+  Al69  1  0.74897642  0.74878853  0.00755099  1
  Al0+  Al70  1  0.75091995  0.75049111  0.33559878  1
  Al0+  Al71  1  0.75078862  0.74974132  0.66513911  1
  Al0+  Al72  1  0.92919815  0.32275327  0.31711195  1
  Al0+  Al73  1  0.17670191  0.43106359  0.68128973  1
  Al0+  Al74  1  0.43097388  0.82041593  0.98274742  1
  Al0+  Al75  1  0.06935819  0.67981736  0.98561977  1
  Al0+  Al76  1  0.07317175  0.67946378  0.64976591  1
  Al0+  Al77  1  0.07238339  0.17733733  0.32051436  1
  Al0+  Al78  1  0.42992985  0.82017791  0.32016716  1
  Al0+  Al79  1  0.68045323  0.92762079  0.68169272  1
  Al0+  Al80  1  0.57504573  0.67788694  0.31687566  1
  Al0+  Al81  1  0.32162106  0.07116484  0.68309007  1
  Al0+  Al82  1  0.18092379  0.43112988  0.34631400  1
  Al0+  Al83  1  0.42723752  0.32220733  0.31998274  1
  Al0+  Al84  1  0.56889386  0.17896912  0.65365934  1
  Al0+  Al85  1  0.17691018  0.92687586  0.68139298  1
  Al0+  Al86  1  0.06992096  0.68097376  0.31875203  1
  Al0+  Al87  1  0.57065169  0.67758085  0.65559501  1
  Al0+  Al88  1  0.92925039  0.32062182  0.65233602  1
  Al0+  Al89  1  0.57062561  0.17832120  0.31826801  1
  Al0+  Al90  1  0.67826102  0.42757464  0.67747605  1
  Al0+  Al91  1  0.32043316  0.57194872  0.01480195  1
  Al0+  Al92  1  0.82024839  0.56909272  0.01340840  1
  Al0+  Al93  1  0.93093668  0.31812792  0.98379985  1
  Al0+  Al94  1  0.67958967  0.93123887  0.34820262  1
  Al0+  Al95  1  0.92837791  0.82366634  0.65240753  1
  Si0+  Si96  1  0.32200233  0.07049606  0.01838367  1
  Si0+  Si97  1  0.82283012  0.07453888  0.35052264  1
  Si0+  Si98  1  0.82144925  0.07324714  0.68302080  1
  Si0+  Si99  1  0.07414315  0.17454562  0.98107728  1
  Si0+  Si100  1  0.67806896  0.92998573  0.01595218  1
  Si0+  Si101  1  0.57403670  0.67666479  0.98368359  1
  Si0+  Si102  1  0.32440871  0.57405466  0.34999129  1
  Si0+  Si103  1  0.17935722  0.92978409  0.01564892  1
  Si0+  Si104  1  0.56905670  0.18005681  0.98364245  1
  Si0+  Si105  1  0.42944327  0.82244736  0.65093685  1
  Si0+  Si106  1  0.07366117  0.17891438  0.65343917  1
  Si0+  Si107  1  0.67848355  0.42818928  0.34742632  1
  Si0+  Si108  1  0.67773628  0.42467247  0.01760896  1
  Si0+  Si109  1  0.42779742  0.32242693  0.98408231  1
  Si0+  Si110  1  0.92772361  0.82296894  0.31698878  1
  Si0+  Si111  1  0.17800984  0.92698047  0.34605009  1
  Si0+  Si112  1  0.17783323  0.42764187  0.01735249  1
  Si0+  Si113  1  0.42527974  0.32255667  0.65367273  1
  Si0+  Si114  1  0.92566681  0.82389848  0.98644681  1
  Si0+  Si115  1  0.82167233  0.57028364  0.35029182  1
  Si0+  Si116  1  0.32312579  0.57214572  0.68162615  1
  Si0+  Si117  1  0.82079509  0.07208876  0.01572677  1
  Si0+  Si118  1  0.82080418  0.57093769  0.68191795  1
  Si0+  Si119  1  0.31966621  0.07038515  0.34671103  1
  O2-  O120  1  0.24841200  0.00199376  0.06018130  1
  O2-  O121  1  0.24643915  0.00085093  0.38754413  1
  O2-  O122  1  0.24965090  -0.00188181  0.73265474  1
  O2-  O123  1  0.24732452  0.49542432  0.06153611  1
  O2-  O124  1  0.25869341  0.50265755  0.39440587  1
  O2-  O125  1  0.25084194  0.50711426  0.72649093  1
  O2-  O126  1  0.75280979  -0.00225810  0.05749483  1
  O2-  O127  1  0.75370565  0.00676248  0.39505243  1
  O2-  O128  1  0.75727003  0.00048684  0.72904048  1
  O2-  O129  1  0.74409417  0.49582534  0.06155618  1
  O2-  O130  1  0.74851760  0.50014557  0.39036639  1
  O2-  O131  1  0.75181059  0.50220047  0.72594934  1
  O2-  O132  1  0.00075933  0.24884405  0.26921358  1
  O2-  O133  1  0.00658383  0.24784144  0.60772563  1
  O2-  O134  1  0.00713655  0.24473015  0.93716342  1
  O2-  O135  1  -0.00210203  0.75751613  0.27051347  1
  O2-  O136  1  0.00477235  0.75655722  0.60223769  1
  O2-  O137  1  -0.00671982  0.75477082  0.94219341  1
  O2-  O138  1  0.50133260  0.25280489  0.26797006  1
  O2-  O139  1  0.49278492  0.25305325  0.60931741  1
  O2-  O140  1  0.50098453  0.25382171  0.94148591  1
  O2-  O141  1  0.49983901  0.74702391  0.26818481  1
  O2-  O142  1  0.49792520  0.75349438  0.60772878  1
  O2-  O143  1  0.50476217  0.74390456  0.93817663  1
  O2-  O144  1  0.07340004  0.17243479  0.08655335  1
  O2-  O145  1  0.07239490  0.17692450  0.43400354  1
  O2-  O146  1  0.07064131  0.17959655  0.75940343  1
  O2-  O147  1  0.06926922  0.68056985  0.09899864  1
  O2-  O148  1  0.06932054  0.68107139  0.43117624  1
  O2-  O149  1  0.06979441  0.67770131  0.76357999  1
  O2-  O150  1  0.56797928  0.17902870  0.08858160  1
  O2-  O151  1  0.56810516  0.17710580  0.43154447  1
  O2-  O152  1  0.56923144  0.18083767  0.76758756  1
  O2-  O153  1  0.57524117  0.68002413  0.08890386  1
  O2-  O154  1  0.57460606  0.67825846  0.43068011  1
  O2-  O155  1  0.56951193  0.67819813  0.76909928  1
  O2-  O156  1  0.18072175  0.43394052  0.23289794  1
  O2-  O157  1  0.17805662  0.42860183  0.56822513  1
  O2-  O158  1  0.17906789  0.42877882  0.91154348  1
  O2-  O159  1  0.17935774  0.92715287  0.24046578  1
  O2-  O160  1  0.18024665  0.92869833  0.56726322  1
  O2-  O161  1  0.17924325  0.93216011  0.91105377  1
  O2-  O162  1  0.67993128  0.42788501  0.24202223  1
  O2-  O163  1  0.67894277  0.42766097  0.56441743  1
  O2-  O164  1  0.67830218  0.42286083  0.91186097  1
  O2-  O165  1  0.68100957  0.93340436  0.23410196  1
  O2-  O166  1  0.67883870  0.92896818  0.56899942  1
  O2-  O167  1  0.67847083  0.93021721  0.91091636  1
  O2-  O168  1  0.42754046  0.32001911  0.08894753  1
  O2-  O169  1  0.42622742  0.31811098  0.43353000  1
  O2-  O170  1  0.42837775  0.32265923  0.75986804  1
  O2-  O171  1  0.43313925  0.82325650  0.09553256  1
  O2-  O172  1  0.42969355  0.82085566  0.43352545  1
  O2-  O173  1  0.43085053  0.82056547  0.75695372  1
  O2-  O174  1  0.93137535  0.31682608  0.09646648  1
  O2-  O175  1  0.92906707  0.32254533  0.43055559  1
  O2-  O176  1  0.92832653  0.31966234  0.76577527  1
  O2-  O177  1  0.92754774  0.82641494  0.09210517  1
  O2-  O178  1  0.92816457  0.82173937  0.42216224  1
  O2-  O179  1  0.92674633  0.81776117  0.76664644  1
  O2-  O180  1  0.31978985  0.06902523  0.24103202  1
  O2-  O181  1  0.32146287  0.07151781  0.56901080  1
  O2-  O182  1  0.32374620  0.07066780  0.91385511  1
  O2-  O183  1  0.32039705  0.57481871  0.24407301  1
  O2-  O184  1  0.32595121  0.56958847  0.57632721  1
  O2-  O185  1  0.32044110  0.56968114  0.90155128  1
  O2-  O186  1  0.82254426  0.07137758  0.24418855  1
  O2-  O187  1  0.81921141  0.07434855  0.57778968  1
  O2-  O188  1  0.81899081  0.07475442  0.91099784  1
  O2-  O189  1  0.82252730  0.56925616  0.24472209  1
  O2-  O190  1  0.82032655  0.57018483  0.57614298  1
  O2-  O191  1  0.81853165  0.56878862  0.90048083  1
  O2-  O192  1  0.04437578  0.07905124  0.26477911  1
  O2-  O193  1  0.05051201  0.08486927  0.60814506  1
  O2-  O194  1  0.04609303  0.08103691  0.93572957  1
  O2-  O195  1  0.03598503  0.58659702  0.26337869  1
  O2-  O196  1  0.03837246  0.58400328  0.59534037  1
  O2-  O197  1  0.03872922  0.58331051  0.93243231  1
  O2-  O198  1  0.53803573  0.08270846  0.26257170  1
  O2-  O199  1  0.53784032  0.08158035  0.60217564  1
  O2-  O200  1  0.53765534  0.08945464  0.93604334  1
  O2-  O201  1  0.55378482  0.57903597  0.26253523  1
  O2-  O202  1  0.53929155  0.58149797  0.60046595  1
  O2-  O203  1  0.55056275  0.58051736  0.94189855  1
  O2-  O204  1  0.16926820  0.20449976  0.26434781  1
  O2-  O205  1  0.16910870  0.20392978  0.61194533  1
  O2-  O206  1  0.16965714  0.19686776  0.93736269  1
  O2-  O207  1  0.16629459  0.71044710  0.26378857  1
  O2-  O208  1  0.17303835  0.70316212  0.59741721  1
  O2-  O209  1  0.16462600  0.71184906  0.93117449  1
  O2-  O210  1  0.66867690  0.20429622  0.26338888  1
  O2-  O211  1  0.66357018  0.20937803  0.59737495  1
  O2-  O212  1  0.66199700  0.20403514  0.93692969  1
  O2-  O213  1  0.67267756  0.71042252  0.26444427  1
  O2-  O214  1  0.66719596  0.70593410  0.60188682  1
  O2-  O215  1  0.66779866  0.70443871  0.93870381  1
  O2-  O216  1  0.08390890  0.45402325  0.06112794  1
  O2-  O217  1  0.08450108  0.46498283  0.39916666  1
  O2-  O218  1  0.08007648  0.46359192  0.73458378  1
  O2-  O219  1  0.08643309  0.95477943  0.06379414  1
  O2-  O220  1  0.08455333  0.95058216  0.39192762  1
  O2-  O221  1  0.07878826  0.95551125  0.73631536  1
  O2-  O222  1  0.58292498  0.44604686  0.06285230  1
  O2-  O223  1  0.58550552  0.45364392  0.39366006  1
  O2-  O224  1  0.58172228  0.45637855  0.73377530  1
  O2-  O225  1  0.58741170  0.96419497  0.06183494  1
  O2-  O226  1  0.58229592  0.96186718  0.40062054  1
  O2-  O227  1  0.58607689  0.96083155  0.73867776  1
  O2-  O228  1  0.20251554  0.33209778  0.06045323  1
  O2-  O229  1  0.20887400  0.33250354  0.39856327  1
  O2-  O230  1  0.20542450  0.33702655  0.74167992  1
  O2-  O231  1  0.21004103  0.83813342  0.06119378  1
  O2-  O232  1  0.20903771  0.83625040  0.39349873  1
  O2-  O233  1  0.20566299  0.82818797  0.73433618  1
  O2-  O234  1  0.70643756  0.33136164  0.06334262  1
  O2-  O235  1  0.70711217  0.33525374  0.39248813  1
  O2-  O236  1  0.70989835  0.33134544  0.73244543  1
  O2-  O237  1  0.70121527  0.83770629  0.06457979  1
  O2-  O238  1  0.71120935  0.83423996  0.40113351  1
  O2-  O239  1  0.71121157  0.83097537  0.73699105  1
  O2-  O240  1  0.45411201  0.42007222  0.26522041  1
  O2-  O241  1  0.44956072  0.41531697  0.60694168  1
  O2-  O242  1  0.45256008  0.41566662  0.93816655  1
  O2-  O243  1  0.46020561  0.91688419  0.26429293  1
  O2-  O244  1  0.45531060  0.91673229  0.60823242  1
  O2-  O245  1  0.46249904  0.91712430  0.92883811  1
  O2-  O246  1  0.96137435  0.41941795  0.26344528  1
  O2-  O247  1  0.95739419  0.41707298  0.59848083  1
  O2-  O248  1  0.95971667  0.41442110  0.92895246  1
  O2-  O249  1  0.94830391  0.91800611  0.27175004  1
  O2-  O250  1  0.94853155  0.92527616  0.60263442  1
  O2-  O251  1  0.94965372  0.91794314  0.94016564  1
  O2-  O252  1  0.33201006  0.29067634  0.26247709  1
  O2-  O253  1  0.33007211  0.29666029  0.61199140  1
  O2-  O254  1  0.33630399  0.29188769  0.93711903  1
  O2-  O255  1  0.33245543  0.79384691  0.26331148  1
  O2-  O256  1  0.33546330  0.79967618  0.60553266  1
  O2-  O257  1  0.33458752  0.79082451  0.92865585  1
  O2-  O258  1  0.83229675  0.29544437  0.26051192  1
  O2-  O259  1  0.83427286  0.28738673  0.59758504  1
  O2-  O260  1  0.83358967  0.28518640  0.93131681  1
  O2-  O261  1  0.83517776  0.79511905  0.27047459  1
  O2-  O262  1  0.83216356  0.79113101  0.59774861  1
  O2-  O263  1  0.83045780  0.79845048  0.94372042  1
  O2-  O264  1  0.41333142  0.03946816  0.06546425  1
  O2-  O265  1  0.41070398  0.04039993  0.39379293  1
  O2-  O266  1  0.41819426  0.04155506  0.73978867  1
  O2-  O267  1  0.41757958  0.54320656  0.06980472  1
  O2-  O268  1  0.42103864  0.55246452  0.39120048  1
  O2-  O269  1  0.41395093  0.54312679  0.73244138  1
  O2-  O270  1  0.91400855  0.04800150  0.06315152  1
  O2-  O271  1  0.91677113  0.04958202  0.39658567  1
  O2-  O272  1  0.91620835  0.05508129  0.73016401  1
  O2-  O273  1  0.91629284  0.53479707  0.06749728  1
  O2-  O274  1  0.91255429  0.54068573  0.39775001  1
  O2-  O275  1  0.91385097  0.54376092  0.72770390  1
  O2-  O276  1  0.29656983  0.16354537  0.06544387  1
  O2-  O277  1  0.29401003  0.16247522  0.39369440  1
  O2-  O278  1  0.29408089  0.16773865  0.74152928  1
  O2-  O279  1  0.28890094  0.66955273  0.06669291  1
  O2-  O280  1  0.29617295  0.66722499  0.39544356  1
  O2-  O281  1  0.30158425  0.66713633  0.72655114  1
  O2-  O282  1  0.78864113  0.16182246  0.06514831  1
  O2-  O283  1  0.79893061  0.17005195  0.39263712  1
  O2-  O284  1  0.78820308  0.16419905  0.73086835  1
  O2-  O285  1  0.79272193  0.66572772  0.07127228  1
  O2-  O286  1  0.79590391  0.66277107  0.39682785  1
  O2-  O287  1  0.79535014  0.66374166  0.72916136  1
