# generated using pymatgen
data_Ca2Al2SiO7
_symmetry_space_group_name_H-M   'P 1'
_cell_length_a   15.46306332
_cell_length_b   15.46227913
_cell_length_c   15.28683548
_cell_angle_alpha   90.00961694
_cell_angle_beta   89.99671029
_cell_angle_gamma   90.00546620
_symmetry_Int_Tables_number   1
_chemical_formula_structural   Ca2Al2SiO7
_chemical_formula_sum   'Ca48 Al48 Si24 O168'
_cell_volume   3654.99364596
_cell_formula_units_Z   24
loop_
 _symmetry_equiv_pos_site_id
 _symmetry_equiv_pos_as_xyz
  1  'x, y, z'
loop_
 _atom_type_symbol
 _atom_type_oxidation_number
  Ca2+  2.0
  Al0+  0.0
  Si0+  0.0
  O2-  -2.0
loop_
 _atom_site_type_symbol
 _atom_site_label
 _atom_site_symmetry_multiplicity
 _atom_site_fract_x
 _atom_site_fract_y
 _atom_site_fract_z
 _atom_site_occupancy
  Ca2+  Ca0  1  0.17010014  0.08658056  0.15934243  1
  Ca2+  Ca1  1  0.16804574  0.07684188  0.50802110  1
  Ca2+  Ca2  1  0.17130395  0.07454042  0.84168329  1
  Ca2+  Ca3  1  0.17626800  0.57830412  0.16969644  1
  Ca2+  Ca4  1  0.17242417  0.57761361  0.50553519  1
  Ca2+  Ca5  1  0.18289938  0.58509129  0.83707027  1
  Ca2+  Ca6  1  0.65807518  0.07715204  0.16945515  1
  Ca2+  Ca7  1  0.67079399  0.07101224  0.50917100  1
  Ca2+  Ca8  1  0.66853625  0.08379861  0.83426488  1
  Ca2+  Ca9  1  0.66648280  0.57824000  0.16595616  1
  Ca2+  Ca10  1  0.67662485  0.57999998  0.51194980  1
  Ca2+  Ca11  1  0.65785997  0.57566639  0.83419972  1
  Ca2+  Ca12  1  0.07993583  0.33375964  0.16346610  1
  Ca2+  Ca13  1  0.07088477  0.34042873  0.49450448  1
  Ca2+  Ca14  1  0.07954815  0.32412729  0.82727508  1
  Ca2+  Ca15  1  0.08065051  0.83532930  0.15926192  1
  Ca2+  Ca16  1  0.07789620  0.83479200  0.50483531  1
  Ca2+  Ca17  1  0.08161107  0.83935632  0.82476353  1
  Ca2+  Ca18  1  0.57919234  0.32782688  0.15153119  1
  Ca2+  Ca19  1  0.58091475  0.33954370  0.50475929  1
  Ca2+  Ca20  1  0.57874960  0.33615896  0.83005820  1
  Ca2+  Ca21  1  0.57924270  0.82744349  0.15606104  1
  Ca2+  Ca22  1  0.59129059  0.82943358  0.50089958  1
  Ca2+  Ca23  1  0.57349364  0.82317610  0.82416386  1
  Ca2+  Ca24  1  0.33449193  0.42028957  0.16626165  1
  Ca2+  Ca25  1  0.32775229  0.41809560  0.50954287  1
  Ca2+  Ca26  1  0.34949417  0.42653855  0.83647970  1
  Ca2+  Ca27  1  0.33637245  0.92084215  0.16179018  1
  Ca2+  Ca28  1  0.32781170  0.91453045  0.51097218  1
  Ca2+  Ca29  1  0.32624626  0.91090370  0.84150466  1
  Ca2+  Ca30  1  0.82857647  0.41996263  0.17211277  1
  Ca2+  Ca31  1  0.83361136  0.42335974  0.51033109  1
  Ca2+  Ca32  1  0.82273628  0.41563148  0.83231611  1
  Ca2+  Ca33  1  0.82371340  0.92053999  0.17286889  1
  Ca2+  Ca34  1  0.82502943  0.92011269  0.51273302  1
  Ca2+  Ca35  1  0.82941076  0.91586254  0.82901253  1
  Ca2+  Ca36  1  0.42052595  0.17285262  0.15239837  1
  Ca2+  Ca37  1  0.41592553  0.17251761  0.50073271  1
  Ca2+  Ca38  1  0.41678783  0.17483169  0.83293217  1
  Ca2+  Ca39  1  0.42268024  0.67180187  0.15246801  1
  Ca2+  Ca40  1  0.42033757  0.66802025  0.50761211  1
  Ca2+  Ca41  1  0.42216479  0.66777816  0.82628951  1
  Ca2+  Ca42  1  0.92280443  0.17414208  0.15966364  1
  Ca2+  Ca43  1  0.90686957  0.17897773  0.50155723  1
  Ca2+  Ca44  1  0.92098077  0.16625168  0.82486549  1
  Ca2+  Ca45  1  0.91641793  0.66406172  0.16640350  1
  Ca2+  Ca46  1  0.90519700  0.66922253  0.49963652  1
  Ca2+  Ca47  1  0.92011998  0.67065219  0.82347845  1
  Al0+  Al48  1  -0.00085702  0.00161281  0.00200432  1
  Al0+  Al49  1  0.00090561  0.00097491  0.33173816  1
  Al0+  Al50  1  0.00123505  -0.00172895  0.66736333  1
  Al0+  Al51  1  -0.00100811  0.50226338  -0.00108279  1
  Al0+  Al52  1  0.00108188  0.50118369  0.33433467  1
  Al0+  Al53  1  0.00172272  0.49789195  0.66826061  1
  Al0+  Al54  1  0.49896708  0.00017514  -0.00391664  1
  Al0+  Al55  1  0.49809473  -0.00007535  0.33828776  1
  Al0+  Al56  1  0.49893403  0.00088170  0.66654034  1
  Al0+  Al57  1  0.50208192  0.50001739  0.00613053  1
  Al0+  Al58  1  0.50012874  0.50211855  0.33244015  1
  Al0+  Al59  1  0.49968375  0.49992309  0.66173263  1
  Al0+  Al60  1  0.24743684  0.24953604  -0.00540338  1
  Al0+  Al61  1  0.24951824  0.25004752  0.33702068  1
  Al0+  Al62  1  0.24984653  0.24770261  0.66114559  1
  Al0+  Al63  1  0.24721223  0.74836450  0.00856074  1
  Al0+  Al64  1  0.25019846  0.75126103  0.33246169  1
  Al0+  Al65  1  0.25028207  0.74828169  0.66890270  1
  Al0+  Al66  1  0.74983627  0.25086533  0.00282379  1
  Al0+  Al67  1  0.74928099  0.24972401  0.32717270  1
  Al0+  Al68  1  0.75108370  0.24960522  0.66879365  1
  Al0+  Al69  1  0.75137974  0.75006745  -0.00255080  1
  Al0+  Al70  1  0.74887777  0.74983274  0.33653649  1
  Al0+  Al71  1  0.75170536  0.75045724  0.66680426  1
  Al0+  Al72  1  0.81961569  0.56877854  0.34634012  1
  Al0+  Al73  1  0.57325131  0.17699702  0.98446794  1
  Al0+  Al74  1  0.42720558  0.82212735  0.65152418  1
  Al0+  Al75  1  0.06909999  0.17965578  0.98529475  1
  Al0+  Al76  1  0.57260481  0.67883426  0.98528051  1
  Al0+  Al77  1  0.82051546  0.07057295  0.68138862  1
  Al0+  Al78  1  0.82426759  0.57183135  0.68322800  1
  Al0+  Al79  1  0.17712742  0.92878778  0.01730240  1
  Al0+  Al80  1  0.68054285  0.42947725  0.01509725  1
  Al0+  Al81  1  0.92917097  0.32240013  0.31818422  1
  Al0+  Al82  1  0.67869821  0.93078546  0.34596356  1
  Al0+  Al83  1  0.18192778  0.92961177  0.67906828  1
  Al0+  Al84  1  0.18156225  0.42947227  0.34650882  1
  Al0+  Al85  1  0.32161994  0.56919634  0.01447388  1
  Al0+  Al86  1  0.32176445  0.07210401  0.01385192  1
  Al0+  Al87  1  0.67894324  0.42991901  0.68116730  1
  Al0+  Al88  1  0.93037696  0.81986049  0.65295511  1
  Al0+  Al89  1  0.42860388  0.32158762  0.98645475  1
  Al0+  Al90  1  0.92951285  0.32040309  0.65397718  1
  Al0+  Al91  1  0.57145851  0.67928063  0.64955491  1
  Al0+  Al92  1  0.31928242  0.56759263  0.67923242  1
  Al0+  Al93  1  0.42966670  0.32031207  0.65125488  1
  Al0+  Al94  1  0.42642706  0.82022449  0.98615076  1
  Al0+  Al95  1  0.67628456  0.92740279  0.68453241  1
  Si0+  Si96  1  0.82388817  0.57393182  0.01740996  1
  Si0+  Si97  1  0.07014992  0.67841519  0.98658314  1
  Si0+  Si98  1  0.82386313  0.07298102  0.34817739  1
  Si0+  Si99  1  0.67654341  0.42565268  0.34914956  1
  Si0+  Si100  1  0.17801309  0.42428854  0.68401264  1
  Si0+  Si101  1  0.32278366  0.07462137  0.68325504  1
  Si0+  Si102  1  0.42779676  0.82179512  0.31775630  1
  Si0+  Si103  1  0.92745970  0.32412586  0.98305615  1
  Si0+  Si104  1  0.07314281  0.67664137  0.65010888  1
  Si0+  Si105  1  0.68016085  0.92868489  0.01353415  1
  Si0+  Si106  1  0.57356291  0.17765458  0.64829326  1
  Si0+  Si107  1  0.82134702  0.07177208  0.01655539  1
  Si0+  Si108  1  0.31983665  0.07031495  0.34922870  1
  Si0+  Si109  1  0.32348332  0.57419542  0.35133312  1
  Si0+  Si110  1  0.07383512  0.17719853  0.31553753  1
  Si0+  Si111  1  0.56821263  0.17783410  0.31983833  1
  Si0+  Si112  1  0.07266292  0.68059930  0.31779332  1
  Si0+  Si113  1  0.92845449  0.82121055  0.31838249  1
  Si0+  Si114  1  0.07113065  0.17697608  0.64772554  1
  Si0+  Si115  1  0.17420481  0.42825720  0.01454142  1
  Si0+  Si116  1  0.92965481  0.82202637  0.98656269  1
  Si0+  Si117  1  0.17750096  0.92771564  0.34924420  1
  Si0+  Si118  1  0.42806413  0.32125682  0.31883325  1
  Si0+  Si119  1  0.57209450  0.68040264  0.31712701  1
  O2-  O120  1  0.25167096  -0.00111062  0.06688427  1
  O2-  O121  1  0.24774022  -0.00031609  0.39017014  1
  O2-  O122  1  0.25975990  0.00026735  0.72521046  1
  O2-  O123  1  0.24697498  0.49271809  0.05927065  1
  O2-  O124  1  0.25792548  0.50200033  0.39406444  1
  O2-  O125  1  0.24813405  0.49056434  0.72827590  1
  O2-  O126  1  0.74694729  0.00338801  0.05808835  1
  O2-  O127  1  0.75533977  0.00407992  0.39110813  1
  O2-  O128  1  0.74750805  0.00095135  0.73357973  1
  O2-  O129  1  0.75588723  0.50445968  0.06098140  1
  O2-  O130  1  0.74731984  0.49197651  0.39245795  1
  O2-  O131  1  0.74911559  0.50331955  0.73235733  1
  O2-  O132  1  0.00350951  0.24568028  0.27325629  1
  O2-  O133  1  0.00423820  0.24711681  0.60348799  1
  O2-  O134  1  -0.00433612  0.25529863  0.93911998  1
  O2-  O135  1  0.00089435  0.75183955  0.27553813  1
  O2-  O136  1  0.00036137  0.74078248  0.60470407  1
  O2-  O137  1  0.00225120  0.75235172  0.94568384  1
  O2-  O138  1  0.50278618  0.25400703  0.27737661  1
  O2-  O139  1  0.50390924  0.24549637  0.60303187  1
  O2-  O140  1  0.50054432  0.24922042  0.93680778  1
  O2-  O141  1  0.49820478  0.74966134  0.27636673  1
  O2-  O142  1  0.50355568  0.75598777  0.59877695  1
  O2-  O143  1  0.49792325  0.74826515  0.93670068  1
  O2-  O144  1  0.06619801  0.18079219  0.09905125  1
  O2-  O145  1  0.07559061  0.17412942  0.42060764  1
  O2-  O146  1  0.07107001  0.17795881  0.75318073  1
  O2-  O147  1  0.06739401  0.67632901  0.09227583  1
  O2-  O148  1  0.07637114  0.68279866  0.42230894  1
  O2-  O149  1  0.07408618  0.67910598  0.75581772  1
  O2-  O150  1  0.57191560  0.17842606  0.09950830  1
  O2-  O151  1  0.56615883  0.17565710  0.42449375  1
  O2-  O152  1  0.57359397  0.17836556  0.75333905  1
  O2-  O153  1  0.57387939  0.68256365  0.10021273  1
  O2-  O154  1  0.57371529  0.67994131  0.42150080  1
  O2-  O155  1  0.56710483  0.67674699  0.76258299  1
  O2-  O156  1  0.18383123  0.43047743  0.23318515  1
  O2-  O157  1  0.17842592  0.42657384  0.57781271  1
  O2-  O158  1  0.16748754  0.43339603  0.90980843  1
  O2-  O159  1  0.17628154  0.92619783  0.24474748  1
  O2-  O160  1  0.18116729  0.93187535  0.56487290  1
  O2-  O161  1  0.17433750  0.93010418  0.90433101  1
  O2-  O162  1  0.67551774  0.42709559  0.24356694  1
  O2-  O163  1  0.68085422  0.43015692  0.56672826  1
  O2-  O164  1  0.68121857  0.42834139  0.90290553  1
  O2-  O165  1  0.67879336  0.93186741  0.23214102  1
  O2-  O166  1  0.67983791  0.93006332  0.57010737  1
  O2-  O167  1  0.68464520  0.92636909  0.90959475  1
  O2-  O168  1  0.43028884  0.32041461  0.10136231  1
  O2-  O169  1  0.42716845  0.31961595  0.42374394  1
  O2-  O170  1  0.42923572  0.31936398  0.76349420  1
  O2-  O171  1  0.43127459  0.81984492  0.10118251  1
  O2-  O172  1  0.42483065  0.82211582  0.42221208  1
  O2-  O173  1  0.42363344  0.81703825  0.76429727  1
  O2-  O174  1  0.92975587  0.32384879  0.08935460  1
  O2-  O175  1  0.92922257  0.32119376  0.43094353  1
  O2-  O176  1  0.93219535  0.31836957  0.76685650  1
  O2-  O177  1  0.92808330  0.82069454  0.09258284  1
  O2-  O178  1  0.92961975  0.82207526  0.42285682  1
  O2-  O179  1  0.93540172  0.82217860  0.76618387  1
  O2-  O180  1  0.32208083  0.07094995  0.24461232  1
  O2-  O181  1  0.31829114  0.07688266  0.57660626  1
  O2-  O182  1  0.31832844  0.07325704  0.90111838  1
  O2-  O183  1  0.32253469  0.57504830  0.24572160  1
  O2-  O184  1  0.31594229  0.56666317  0.56549752  1
  O2-  O185  1  0.32008259  0.56994591  0.90182473  1
  O2-  O186  1  0.82475129  0.07069674  0.24222680  1
  O2-  O187  1  0.81875889  0.07030686  0.56699503  1
  O2-  O188  1  0.82457161  0.07002715  0.91223836  1
  O2-  O189  1  0.81771799  0.57002527  0.23292346  1
  O2-  O190  1  0.82343184  0.56817125  0.56902274  1
  O2-  O191  1  0.82872190  0.57497692  0.91297446  1
  O2-  O192  1  0.04879861  0.08337775  0.26815001  1
  O2-  O193  1  0.04438547  0.08400297  0.60129570  1
  O2-  O194  1  0.03575860  0.08331480  0.93276707  1
  O2-  O195  1  0.04404576  0.58969173  0.26944604  1
  O2-  O196  1  0.05320235  0.58093359  0.60603747  1
  O2-  O197  1  0.04079981  0.58876671  0.93628666  1
  O2-  O198  1  0.53494392  0.08740092  0.27183819  1
  O2-  O199  1  0.54749916  0.08424369  0.60125755  1
  O2-  O200  1  0.54779671  0.07904769  0.93136441  1
  O2-  O201  1  0.54573020  0.58731081  0.26990138  1
  O2-  O202  1  0.53842566  0.58345723  0.59320042  1
  O2-  O203  1  0.54536547  0.57924191  0.93780905  1
  O2-  O204  1  0.16718267  0.20557323  0.26973755  1
  O2-  O205  1  0.16477917  0.20027822  0.60019245  1
  O2-  O206  1  0.16439529  0.20706018  0.92862486  1
  O2-  O207  1  0.16388875  0.70943600  0.26826216  1
  O2-  O208  1  0.16371787  0.70752890  0.60107823  1
  O2-  O209  1  0.16312793  0.70302319  0.94174716  1
  O2-  O210  1  0.66200959  0.19770532  0.27221739  1
  O2-  O211  1  0.66647116  0.20437415  0.60143629  1
  O2-  O212  1  0.67303171  0.20441092  0.93507294  1
  O2-  O213  1  0.66277426  0.71095084  0.26864784  1
  O2-  O214  1  0.67153334  0.70539173  0.59837372  1
  O2-  O215  1  0.67096328  0.70702695  0.93330704  1
  O2-  O216  1  0.08292219  0.45940570  0.06450462  1
  O2-  O217  1  0.08626206  0.46365084  0.40045273  1
  O2-  O218  1  0.08548311  0.44943791  0.73070884  1
  O2-  O219  1  0.07948947  0.96171419  0.07189194  1
  O2-  O220  1  0.08479616  0.95495394  0.39578482  1
  O2-  O221  1  0.08672223  0.96209048  0.73299159  1
  O2-  O222  1  0.58635277  0.46060581  0.07415652  1
  O2-  O223  1  0.58260491  0.45320688  0.39405473  1
  O2-  O224  1  0.57946656  0.45730144  0.73092609  1
  O2-  O225  1  0.58713769  0.95349720  0.06017402  1
  O2-  O226  1  0.58307404  0.96182097  0.40130448  1
  O2-  O227  1  0.57634135  0.95388307  0.73397390  1
  O2-  O228  1  0.19511260  0.33286332  0.05796576  1
  O2-  O229  1  0.20872037  0.33257779  0.40219021  1
  O2-  O230  1  0.20133915  0.32871915  0.72568786  1
  O2-  O231  1  0.20018764  0.82993352  0.07256213  1
  O2-  O232  1  0.20645620  0.83623185  0.39647887  1
  O2-  O233  1  0.20718482  0.83203620  0.73247779  1
  O2-  O234  1  0.71106527  0.33303788  0.07176260  1
  O2-  O235  1  0.69837044  0.32978866  0.39180103  1
  O2-  O236  1  0.70773987  0.33192468  0.73320043  1
  O2-  O237  1  0.71309381  0.83867502  0.06339161  1
  O2-  O238  1  0.71002310  0.83494754  0.39934064  1
  O2-  O239  1  0.70798150  0.83023214  0.73573935  1
  O2-  O240  1  0.45098331  0.41587855  0.27386703  1
  O2-  O241  1  0.45968536  0.41510178  0.59342804  1
  O2-  O242  1  0.46120352  0.41946256  0.93724077  1
  O2-  O243  1  0.45698415  0.91439558  0.27216293  1
  O2-  O244  1  0.44642810  0.92431979  0.60114622  1
  O2-  O245  1  0.45103243  0.91884525  0.93467718  1
  O2-  O246  1  0.96287716  0.41848636  0.26435682  1
  O2-  O247  1  0.96191036  0.41668656  0.59886878  1
  O2-  O248  1  0.95200393  0.41826754  0.93846604  1
  O2-  O249  1  0.95519395  0.91372407  0.27036577  1
  O2-  O250  1  0.96628683  0.91449411  0.59659427  1
  O2-  O251  1  0.95619721  0.91395773  0.94061031  1
  O2-  O252  1  0.33702117  0.28990283  0.27232304  1
  O2-  O253  1  0.33321767  0.28768734  0.59507410  1
  O2-  O254  1  0.32931149  0.29884540  0.93405855  1
  O2-  O255  1  0.33554238  0.79540419  0.26966994  1
  O2-  O256  1  0.33043727  0.78660308  0.59681773  1
  O2-  O257  1  0.32506315  0.79286660  0.94064762  1
  O2-  O258  1  0.83220583  0.29277545  0.26254970  1
  O2-  O259  1  0.83334161  0.28901030  0.59862589  1
  O2-  O260  1  0.83389693  0.29759600  0.94012435  1
  O2-  O261  1  0.83705728  0.79142662  0.27050045  1
  O2-  O262  1  0.83348505  0.79424518  0.59729438  1
  O2-  O263  1  0.83948247  0.79348959  0.93778310  1
  O2-  O264  1  0.42113379  0.04481139  0.06823089  1
  O2-  O265  1  0.40975514  0.04155006  0.39958298  1
  O2-  O266  1  0.41895201  0.05883941  0.72505522  1
  O2-  O267  1  0.41646693  0.53971548  0.07278830  1
  O2-  O268  1  0.41866417  0.55181315  0.39513698  1
  O2-  O269  1  0.41622763  0.53768362  0.73050096  1
  O2-  O270  1  0.91019992  0.03957820  0.06761855  1
  O2-  O271  1  0.91804049  0.04888631  0.39341916  1
  O2-  O272  1  0.91859979  0.03973751  0.73284109  1
  O2-  O273  1  0.91719974  0.54763650  0.06581640  1
  O2-  O274  1  0.91821498  0.54450975  0.39830933  1
  O2-  O275  1  0.92286867  0.54222149  0.73537670  1
  O2-  O276  1  0.28879904  0.17040608  0.06737783  1
  O2-  O277  1  0.29230987  0.16161098  0.39800671  1
  O2-  O278  1  0.29071956  0.16592444  0.72951273  1
  O2-  O279  1  0.28709177  0.66269847  0.07331977  1
  O2-  O280  1  0.29304992  0.66689622  0.39637702  1
  O2-  O281  1  0.28554607  0.66205191  0.73416539  1
  O2-  O282  1  0.79788985  0.16432235  0.06487141  1
  O2-  O283  1  0.79670239  0.16723588  0.39166272  1
  O2-  O284  1  0.79533667  0.16866628  0.73526551  1
  O2-  O285  1  0.79775763  0.66774815  0.06445269  1
  O2-  O286  1  0.78798052  0.66519714  0.39979269  1
  O2-  O287  1  0.80363790  0.67290946  0.73159536  1
