# generated using pymatgen
data_Ca2Al2SiO7
_symmetry_space_group_name_H-M   'P 1'
_cell_length_a   15.46031524
_cell_length_b   15.46014404
_cell_length_c   15.28590914
_cell_angle_alpha   89.99411106
_cell_angle_beta   89.99102255
_cell_angle_gamma   90.00762504
_symmetry_Int_Tables_number   1
_chemical_formula_structural   Ca2Al2SiO7
_chemical_formula_sum   'Ca48 Al48 Si24 O168'
_cell_volume   3653.61804213
_cell_formula_units_Z   24
loop_
 _symmetry_equiv_pos_site_id
 _symmetry_equiv_pos_as_xyz
  1  'x, y, z'
loop_
 _atom_type_symbol
 _atom_type_oxidation_number
  Ca2+  2.0
  Al0+  0.0
  Si0+  0.0
  O2-  -2.0
loop_
 _atom_site_type_symbol
 _atom_site_label
 _atom_site_symmetry_multiplicity
 _atom_site_fract_x
 _atom_site_fract_y
 _atom_site_fract_z
 _atom_site_occupancy
  Ca2+  Ca0  1  0.17633633  0.08519251  0.16343119  1
  Ca2+  Ca1  1  0.17481585  0.07866878  0.50614512  1
  Ca2+  Ca2  1  0.16938587  0.07291523  0.84306431  1
  Ca2+  Ca3  1  0.17355124  0.58262903  0.16518279  1
  Ca2+  Ca4  1  0.17194106  0.58460452  0.51034948  1
  Ca2+  Ca5  1  0.17648312  0.58616756  0.83551319  1
  Ca2+  Ca6  1  0.67158329  0.08394103  0.17171031  1
  Ca2+  Ca7  1  0.67421382  0.07927625  0.50407058  1
  Ca2+  Ca8  1  0.67599369  0.09779927  0.83542758  1
  Ca2+  Ca9  1  0.66330724  0.57465659  0.16572616  1
  Ca2+  Ca10  1  0.66939566  0.57756991  0.51515649  1
  Ca2+  Ca11  1  0.65542065  0.57187399  0.83267575  1
  Ca2+  Ca12  1  0.07410807  0.32431173  0.16098620  1
  Ca2+  Ca13  1  0.07444837  0.33223418  0.49256106  1
  Ca2+  Ca14  1  0.08445679  0.32367984  0.83159556  1
  Ca2+  Ca15  1  0.08431412  0.83732155  0.16044420  1
  Ca2+  Ca16  1  0.08235695  0.83338057  0.50880324  1
  Ca2+  Ca17  1  0.08245898  0.83488537  0.82311360  1
  Ca2+  Ca18  1  0.57883231  0.32503720  0.15410988  1
  Ca2+  Ca19  1  0.58437628  0.33047518  0.50621549  1
  Ca2+  Ca20  1  0.58017193  0.32920375  0.83044279  1
  Ca2+  Ca21  1  0.57288151  0.84085991  0.16419869  1
  Ca2+  Ca22  1  0.58491501  0.82852936  0.49312491  1
  Ca2+  Ca23  1  0.57388277  0.82859844  0.82696072  1
  Ca2+  Ca24  1  0.34092640  0.42162519  0.16471035  1
  Ca2+  Ca25  1  0.33471127  0.42244083  0.51206811  1
  Ca2+  Ca26  1  0.34844691  0.42568810  0.83624484  1
  Ca2+  Ca27  1  0.33804899  0.92601942  0.16906582  1
  Ca2+  Ca28  1  0.33224660  0.91846500  0.50109970  1
  Ca2+  Ca29  1  0.32216194  0.91645960  0.84290502  1
  Ca2+  Ca30  1  0.82610793  0.40981672  0.16938207  1
  Ca2+  Ca31  1  0.82898919  0.42089398  0.51086308  1
  Ca2+  Ca32  1  0.82056917  0.42174732  0.83477296  1
  Ca2+  Ca33  1  0.82536381  0.93058105  0.17198238  1
  Ca2+  Ca34  1  0.83515182  0.92597561  0.50717333  1
  Ca2+  Ca35  1  0.83499413  0.92407595  0.83613416  1
  Ca2+  Ca36  1  0.42046722  0.16633224  0.15238674  1
  Ca2+  Ca37  1  0.42040995  0.16761387  0.49746721  1
  Ca2+  Ca38  1  0.42686810  0.17148253  0.82759238  1
  Ca2+  Ca39  1  0.41314114  0.67974062  0.15900816  1
  Ca2+  Ca40  1  0.42038163  0.67082042  0.50103355  1
  Ca2+  Ca41  1  0.41400344  0.66805942  0.82848065  1
  Ca2+  Ca42  1  0.91479978  0.16490420  0.16017219  1
  Ca2+  Ca43  1  0.91055266  0.16899366  0.49637433  1
  Ca2+  Ca44  1  0.92020570  0.15677004  0.83075160  1
  Ca2+  Ca45  1  0.92017065  0.67072809  0.16084420  1
  Ca2+  Ca46  1  0.91740047  0.66800866  0.50152684  1
  Ca2+  Ca47  1  0.92317158  0.67451402  0.81895649  1
  Al0+  Al48  1  -0.00124949  0.00043135  0.00544791  1
  Al0+  Al49  1  0.00247036  -0.00114033  0.33588997  1
  Al0+  Al50  1  0.00133773  -0.00037663  0.66797810  1
  Al0+  Al51  1  0.00014559  0.50116435  -0.00023980  1
  Al0+  Al52  1  0.00036250  0.49811041  0.32657672  1
  Al0+  Al53  1  0.00128846  0.49952127  0.66766852  1
  Al0+  Al54  1  0.50047075  -0.00142770  -0.01001430  1
  Al0+  Al55  1  0.49983029  -0.00056679  0.33823587  1
  Al0+  Al56  1  0.50122370  0.00173166  0.66174365  1
  Al0+  Al57  1  0.50055387  0.50014933  0.00939501  1
  Al0+  Al58  1  0.50053234  0.50038417  0.33464067  1
  Al0+  Al59  1  0.49893153  0.50109916  0.66537173  1
  Al0+  Al60  1  0.24641981  0.25175904  -0.00550311  1
  Al0+  Al61  1  0.24900835  0.25100652  0.33655905  1
  Al0+  Al62  1  0.25051122  0.25034521  0.66233352  1
  Al0+  Al63  1  0.24913301  0.74849863  0.00481216  1
  Al0+  Al64  1  0.25117676  0.74919837  0.32972577  1
  Al0+  Al65  1  0.24812611  0.74969052  0.66877780  1
  Al0+  Al66  1  0.74950159  0.25287600  0.00494709  1
  Al0+  Al67  1  0.74886585  0.25091666  0.33353479  1
  Al0+  Al68  1  0.75015440  0.24973818  0.67026774  1
  Al0+  Al69  1  0.75078549  0.74951985  0.00051021  1
  Al0+  Al70  1  0.75134243  0.74703471  0.33117464  1
  Al0+  Al71  1  0.75028915  0.75279419  0.66171536  1
  Al0+  Al72  1  0.06831168  0.17848617  0.98619322  1
  Al0+  Al73  1  0.18291741  0.93198895  0.67941940  1
  Al0+  Al74  1  0.81952157  0.06927160  0.68135188  1
  Al0+  Al75  1  0.42765500  0.82103532  0.98535665  1
  Al0+  Al76  1  0.67856608  0.92747109  0.34771335  1
  Al0+  Al77  1  0.32088926  0.07255453  0.34706999  1
  Al0+  Al78  1  0.42731651  0.32281408  0.98669403  1
  Al0+  Al79  1  0.68014133  0.43087555  0.01596809  1
  Al0+  Al80  1  0.42952524  0.32091360  0.65053585  1
  Al0+  Al81  1  0.92864984  0.82304833  0.65153290  1
  Al0+  Al82  1  0.32262696  0.07207430  0.01054507  1
  Al0+  Al83  1  0.57017257  0.68061981  0.65440986  1
  Al0+  Al84  1  0.92815953  0.31928198  0.31969694  1
  Al0+  Al85  1  0.57410102  0.17879104  0.64817252  1
  Al0+  Al86  1  0.82356372  0.57467167  0.68072850  1
  Al0+  Al87  1  0.31908754  0.56942056  0.67932994  1
  Al0+  Al88  1  0.32019700  0.56868929  0.01536603  1
  Al0+  Al89  1  0.17878684  0.92875950  0.01653749  1
  Al0+  Al90  1  0.81829364  0.07008709  0.01347156  1
  Al0+  Al91  1  0.82182051  0.07134555  0.34928030  1
  Al0+  Al92  1  0.07139608  0.67771788  0.65224893  1
  Al0+  Al93  1  0.57239153  0.17747499  0.98570695  1
  Al0+  Al94  1  0.43076287  0.81999550  0.31951284  1
  Al0+  Al95  1  0.67929909  0.43069697  0.68252982  1
  Si0+  Si96  1  0.93043825  0.32007355  0.65400670  1
  Si0+  Si97  1  0.17328138  0.42739467  0.01781437  1
  Si0+  Si98  1  0.32003700  0.57065654  0.34940795  1
  Si0+  Si99  1  0.57171005  0.67843254  0.98574100  1
  Si0+  Si100  1  0.57397175  0.67549217  0.31502433  1
  Si0+  Si101  1  0.17906827  0.92499843  0.35162124  1
  Si0+  Si102  1  0.67764687  0.92326266  0.01425634  1
  Si0+  Si103  1  0.82373487  0.56915095  0.34674014  1
  Si0+  Si104  1  0.82402827  0.57306399  0.01761414  1
  Si0+  Si105  1  0.42602845  0.82200247  0.65007506  1
  Si0+  Si106  1  0.67525434  0.92691852  0.68342175  1
  Si0+  Si107  1  0.92975570  0.82038746  0.98669244  1
  Si0+  Si108  1  0.07054912  0.67862668  0.31628836  1
  Si0+  Si109  1  0.07115500  0.17783832  0.65063970  1
  Si0+  Si110  1  0.07377493  0.17700371  0.31719557  1
  Si0+  Si111  1  0.32440922  0.07488384  0.68339959  1
  Si0+  Si112  1  0.07101275  0.67841592  0.98505782  1
  Si0+  Si113  1  0.42710654  0.32266288  0.31847842  1
  Si0+  Si114  1  0.92701737  0.32352024  0.98172134  1
  Si0+  Si115  1  0.92858195  0.82156059  0.31649840  1
  Si0+  Si116  1  0.67867095  0.43023383  0.34986263  1
  Si0+  Si117  1  0.56847297  0.18051034  0.31898211  1
  Si0+  Si118  1  0.17814387  0.43044891  0.34748027  1
  Si0+  Si119  1  0.17656428  0.42470202  0.68309530  1
  O2-  O120  1  0.25352733  -0.00108786  0.06481980  1
  O2-  O121  1  0.24550504  -0.00267915  0.39305956  1
  O2-  O122  1  0.25905918  0.00357683  0.72707478  1
  O2-  O123  1  0.24701553  0.49139303  0.06187600  1
  O2-  O124  1  0.25131195  0.49778583  0.39163004  1
  O2-  O125  1  0.24627593  0.49261361  0.72600892  1
  O2-  O126  1  0.74001583  -0.00175989  0.05809981  1
  O2-  O127  1  0.75372400  -0.00441840  0.39877254  1
  O2-  O128  1  0.74309409  -0.00380277  0.72799068  1
  O2-  O129  1  0.75675135  0.50414191  0.06336960  1
  O2-  O130  1  0.74971447  0.50220126  0.38992013  1
  O2-  O131  1  0.74856577  0.50669314  0.73145825  1
  O2-  O132  1  -0.00105168  0.24012555  0.27419550  1
  O2-  O133  1  0.00264905  0.25146412  0.60907105  1
  O2-  O134  1  -0.00608114  0.25330582  0.93774995  1
  O2-  O135  1  0.00116510  0.75143845  0.27404885  1
  O2-  O136  1  -0.00424698  0.74554509  0.60130794  1
  O2-  O137  1  0.00022134  0.74941646  0.94437087  1
  O2-  O138  1  0.49505914  0.24928323  0.27657256  1
  O2-  O139  1  0.49837035  0.24733034  0.59794377  1
  O2-  O140  1  0.49491390  0.24583660  0.93875365  1
  O2-  O141  1  0.50806113  0.74730062  0.27219278  1
  O2-  O142  1  0.49982212  0.75865631  0.60574194  1
  O2-  O143  1  0.50425058  0.74732144  0.94077761  1
  O2-  O144  1  0.06651822  0.17971057  0.09965976  1
  O2-  O145  1  0.07664699  0.18142177  0.42295047  1
  O2-  O146  1  0.06995351  0.17749587  0.75556796  1
  O2-  O147  1  0.06863432  0.67698883  0.09102911  1
  O2-  O148  1  0.07030574  0.67552200  0.42076332  1
  O2-  O149  1  0.07327432  0.68042223  0.76572533  1
  O2-  O150  1  0.57331832  0.17918548  0.10035617  1
  O2-  O151  1  0.56970604  0.18360292  0.42376769  1
  O2-  O152  1  0.57470304  0.18173887  0.76127818  1
  O2-  O153  1  0.57162757  0.67996382  0.09178237  1
  O2-  O154  1  0.57239421  0.67193184  0.42039485  1
  O2-  O155  1  0.56600076  0.68035175  0.76752813  1
  O2-  O156  1  0.17755758  0.43204988  0.24269928  1
  O2-  O157  1  0.17568974  0.42518091  0.57678784  1
  O2-  O158  1  0.16506393  0.43224346  0.91305180  1
  O2-  O159  1  0.17881693  0.92294696  0.24635042  1
  O2-  O160  1  0.18389606  0.93357712  0.56575078  1
  O2-  O161  1  0.17718147  0.92855273  0.90313314  1
  O2-  O162  1  0.67810859  0.43101551  0.24481346  1
  O2-  O163  1  0.68257911  0.43053538  0.56807990  1
  O2-  O164  1  0.67994600  0.43304041  0.90365025  1
  O2-  O165  1  0.67845416  0.93166023  0.23370256  1
  O2-  O166  1  0.67636373  0.92748419  0.57767245  1
  O2-  O167  1  0.68408779  0.91350998  0.90970775  1
  O2-  O168  1  0.43157092  0.32278001  0.10149030  1
  O2-  O169  1  0.42819006  0.32556001  0.42324334  1
  O2-  O170  1  0.42981021  0.32069743  0.76352257  1
  O2-  O171  1  0.42877169  0.82029270  0.09895295  1
  O2-  O172  1  0.42843653  0.81517243  0.43247823  1
  O2-  O173  1  0.42477258  0.81881655  0.75553038  1
  O2-  O174  1  0.92945154  0.32370641  0.08790303  1
  O2-  O175  1  0.93155775  0.32336166  0.43288177  1
  O2-  O176  1  0.93217098  0.31947493  0.75877809  1
  O2-  O177  1  0.93005256  0.81727276  0.09243325  1
  O2-  O178  1  0.92800400  0.81994287  0.42093166  1
  O2-  O179  1  0.93340069  0.82527223  0.76542274  1
  O2-  O180  1  0.32096864  0.07467197  0.23424597  1
  O2-  O181  1  0.32044162  0.07515869  0.57714592  1
  O2-  O182  1  0.31944331  0.06981883  0.89744035  1
  O2-  O183  1  0.31886124  0.56994559  0.24442044  1
  O2-  O184  1  0.31712126  0.56937506  0.56535294  1
  O2-  O185  1  0.31880358  0.56961872  0.90266822  1
  O2-  O186  1  0.81940865  0.07167614  0.23562773  1
  O2-  O187  1  0.82082727  0.06991664  0.56824866  1
  O2-  O188  1  0.82080008  0.06680208  0.90060911  1
  O2-  O189  1  0.82436060  0.56803267  0.24149000  1
  O2-  O190  1  0.82391241  0.56824167  0.56616486  1
  O2-  O191  1  0.82634717  0.57379869  0.91291788  1
  O2-  O192  1  0.05572836  0.08050342  0.27462788  1
  O2-  O193  1  0.04098176  0.08809281  0.60166521  1
  O2-  O194  1  0.03508112  0.08173818  0.93350042  1
  O2-  O195  1  0.04067663  0.58846113  0.26592531  1
  O2-  O196  1  0.04826238  0.57732192  0.59921972  1
  O2-  O197  1  0.04391038  0.58674406  0.93765406  1
  O2-  O198  1  0.54324663  0.08733810  0.27426975  1
  O2-  O199  1  0.54911733  0.07910117  0.59486393  1
  O2-  O200  1  0.55411827  0.07842895  0.93041286  1
  O2-  O201  1  0.54330610  0.58295848  0.26821120  1
  O2-  O202  1  0.53660896  0.58620514  0.59749047  1
  O2-  O203  1  0.54296887  0.58495186  0.94306403  1
  O2-  O204  1  0.16453265  0.21074987  0.26928204  1
  O2-  O205  1  0.16307357  0.20378347  0.60210737  1
  O2-  O206  1  0.16292824  0.20896367  0.92850576  1
  O2-  O207  1  0.16266054  0.70541773  0.26862941  1
  O2-  O208  1  0.16746115  0.71209077  0.59663293  1
  O2-  O209  1  0.16317160  0.70491772  0.93970618  1
  O2-  O210  1  0.65945981  0.21143816  0.27148024  1
  O2-  O211  1  0.67179200  0.21238329  0.59581190  1
  O2-  O212  1  0.66928691  0.21479028  0.93500341  1
  O2-  O213  1  0.66945419  0.69427555  0.26918362  1
  O2-  O214  1  0.66750979  0.70578985  0.59832100  1
  O2-  O215  1  0.66678639  0.70019034  0.94097721  1
  O2-  O216  1  0.08283013  0.46003504  0.06853234  1
  O2-  O217  1  0.08676131  0.46158574  0.39445961  1
  O2-  O218  1  0.08380393  0.44914770  0.73028388  1
  O2-  O219  1  0.08184935  0.95968758  0.07148522  1
  O2-  O220  1  0.08465882  0.94726940  0.39737241  1
  O2-  O221  1  0.08736440  0.96452638  0.73336169  1
  O2-  O222  1  0.58665650  0.46349223  0.07537643  1
  O2-  O223  1  0.58678604  0.45820527  0.39736850  1
  O2-  O224  1  0.58089977  0.46025807  0.73332407  1
  O2-  O225  1  0.58113984  0.94476967  0.05454798  1
  O2-  O226  1  0.58206955  0.95603434  0.40303191  1
  O2-  O227  1  0.58002405  0.95025540  0.72750053  1
  O2-  O228  1  0.19274756  0.33194856  0.06169403  1
  O2-  O229  1  0.20102077  0.33808694  0.39586721  1
  O2-  O230  1  0.20048258  0.33015622  0.72782090  1
  O2-  O231  1  0.20249590  0.82917689  0.06912289  1
  O2-  O232  1  0.20878406  0.83199583  0.39709642  1
  O2-  O233  1  0.20960451  0.83472630  0.73324137  1
  O2-  O234  1  0.71183095  0.33631550  0.07387008  1
  O2-  O235  1  0.70690176  0.33883337  0.39653646  1
  O2-  O236  1  0.71227556  0.33451511  0.73550165  1
  O2-  O237  1  0.70819124  0.83313326  0.06637207  1
  O2-  O238  1  0.70263587  0.82504614  0.39495499  1
  O2-  O239  1  0.69963840  0.83308614  0.72856899  1
  O2-  O240  1  0.45792414  0.41447655  0.27170258  1
  O2-  O241  1  0.45940560  0.41870104  0.59637110  1
  O2-  O242  1  0.46353772  0.42074367  0.93775749  1
  O2-  O243  1  0.46035830  0.91818740  0.26738710  1
  O2-  O244  1  0.44549208  0.91782317  0.60615864  1
  O2-  O245  1  0.45502395  0.91523692  0.92631830  1
  O2-  O246  1  0.96313210  0.41328211  0.26181340  1
  O2-  O247  1  0.95660943  0.41195761  0.60525622  1
  O2-  O248  1  0.95441487  0.41734845  0.93722878  1
  O2-  O249  1  0.95659043  0.91405155  0.27002040  1
  O2-  O250  1  0.96682073  0.91805465  0.59614382  1
  O2-  O251  1  0.95755042  0.91220157  0.94118071  1
  O2-  O252  1  0.33277251  0.30018661  0.27385749  1
  O2-  O253  1  0.32932256  0.29644258  0.59635195  1
  O2-  O254  1  0.32527870  0.30879013  0.93701977  1
  O2-  O255  1  0.33530710  0.78589552  0.26424777  1
  O2-  O256  1  0.33524737  0.78976690  0.60263026  1
  O2-  O257  1  0.33079229  0.78580844  0.93475916  1
  O2-  O258  1  0.83031662  0.29251744  0.26568018  1
  O2-  O259  1  0.83974866  0.29033297  0.60607567  1
  O2-  O260  1  0.83248603  0.30045303  0.93898555  1
  O2-  O261  1  0.83806669  0.79145806  0.26685692  1
  O2-  O262  1  0.82957375  0.80265924  0.59693633  1
  O2-  O263  1  0.83806254  0.79270895  0.93934770  1
  O2-  O264  1  0.42322417  0.04446187  0.06077650  1
  O2-  O265  1  0.41553791  0.04074792  0.40327611  1
  O2-  O266  1  0.42063414  0.05388820  0.72428095  1
  O2-  O267  1  0.41515869  0.54069228  0.07425725  1
  O2-  O268  1  0.41324580  0.54465428  0.39511673  1
  O2-  O269  1  0.41537426  0.54051350  0.73321717  1
  O2-  O270  1  0.91197842  0.03561599  0.07066326  1
  O2-  O271  1  0.92297282  0.04717184  0.39924138  1
  O2-  O272  1  0.91637561  0.03715431  0.73390388  1
  O2-  O273  1  0.91796395  0.54854288  0.06481635  1
  O2-  O274  1  0.91509858  0.53806131  0.39290722  1
  O2-  O275  1  0.92133311  0.54385911  0.73373267  1
  O2-  O276  1  0.29137689  0.17135828  0.06205121  1
  O2-  O277  1  0.28983385  0.16903416  0.40263616  1
  O2-  O278  1  0.29588184  0.16814440  0.72721197  1
  O2-  O279  1  0.28452397  0.66255646  0.07231949  1
  O2-  O280  1  0.28900571  0.66162706  0.39568276  1
  O2-  O281  1  0.28641795  0.66457919  0.73400965  1
  O2-  O282  1  0.79315069  0.16814958  0.06695475  1
  O2-  O283  1  0.79027900  0.16992014  0.40049301  1
  O2-  O284  1  0.79197603  0.16618877  0.73583589  1
  O2-  O285  1  0.79708659  0.66613408  0.06567059  1
  O2-  O286  1  0.80152356  0.66292690  0.39196938  1
  O2-  O287  1  0.80192843  0.67643593  0.72809942  1
