# generated using pymatgen
data_Ca2Al2SiO7
_symmetry_space_group_name_H-M   'P 1'
_cell_length_a   15.45868972
_cell_length_b   15.45850570
_cell_length_c   15.28468924
_cell_angle_alpha   89.99524559
_cell_angle_beta   90.00702207
_cell_angle_gamma   89.97904351
_symmetry_Int_Tables_number   1
_chemical_formula_structural   Ca2Al2SiO7
_chemical_formula_sum   'Ca48 Al48 Si24 O168'
_cell_volume   3652.55504931
_cell_formula_units_Z   24
loop_
 _symmetry_equiv_pos_site_id
 _symmetry_equiv_pos_as_xyz
  1  'x, y, z'
loop_
 _atom_type_symbol
 _atom_type_oxidation_number
  Ca2+  2.0
  Al0+  0.0
  Si0+  0.0
  O2-  -2.0
loop_
 _atom_site_type_symbol
 _atom_site_label
 _atom_site_symmetry_multiplicity
 _atom_site_fract_x
 _atom_site_fract_y
 _atom_site_fract_z
 _atom_site_occupancy
  Ca2+  Ca0  1  0.16801472  0.08222801  0.17749003  1
  Ca2+  Ca1  1  0.17798243  0.07532468  0.50173356  1
  Ca2+  Ca2  1  0.17137762  0.08016136  0.83590516  1
  Ca2+  Ca3  1  0.15755769  0.57273717  0.17230322  1
  Ca2+  Ca4  1  0.16413323  0.57881379  0.49928946  1
  Ca2+  Ca5  1  0.16928313  0.57880433  0.84404291  1
  Ca2+  Ca6  1  0.66778804  0.08689904  0.16867348  1
  Ca2+  Ca7  1  0.67124844  0.08521451  0.50998236  1
  Ca2+  Ca8  1  0.66782067  0.09104710  0.83676087  1
  Ca2+  Ca9  1  0.67081852  0.58332838  0.17828724  1
  Ca2+  Ca10  1  0.66023557  0.58376728  0.49753990  1
  Ca2+  Ca11  1  0.66417337  0.58743307  0.83961727  1
  Ca2+  Ca12  1  0.08789596  0.32571417  0.15981889  1
  Ca2+  Ca13  1  0.08544865  0.32528996  0.48870532  1
  Ca2+  Ca14  1  0.08316132  0.33074968  0.83860294  1
  Ca2+  Ca15  1  0.08354154  0.82279191  0.16320927  1
  Ca2+  Ca16  1  0.08869542  0.83268705  0.49194350  1
  Ca2+  Ca17  1  0.08393624  0.83372036  0.83207013  1
  Ca2+  Ca18  1  0.57168738  0.33552603  0.16258841  1
  Ca2+  Ca19  1  0.57787144  0.32828321  0.49256094  1
  Ca2+  Ca20  1  0.57767754  0.32497890  0.83151786  1
  Ca2+  Ca21  1  0.57955483  0.82418324  0.16501563  1
  Ca2+  Ca22  1  0.57094621  0.82976422  0.49361081  1
  Ca2+  Ca23  1  0.57795130  0.82243128  0.82559924  1
  Ca2+  Ca24  1  0.32639848  0.41051135  0.17231842  1
  Ca2+  Ca25  1  0.33018149  0.41248773  0.49637054  1
  Ca2+  Ca26  1  0.32968232  0.41611852  0.84224735  1
  Ca2+  Ca27  1  0.32897680  0.92528216  0.17963135  1
  Ca2+  Ca28  1  0.32923482  0.91774486  0.50597317  1
  Ca2+  Ca29  1  0.33589902  0.91828118  0.83126813  1
  Ca2+  Ca30  1  0.82775452  0.42051706  0.17569025  1
  Ca2+  Ca31  1  0.82732664  0.42418072  0.49756415  1
  Ca2+  Ca32  1  0.83220252  0.41621009  0.84129275  1
  Ca2+  Ca33  1  0.83431527  0.91299498  0.16856769  1
  Ca2+  Ca34  1  0.83103963  0.92380434  0.50657874  1
  Ca2+  Ca35  1  0.83471397  0.92127538  0.83782840  1
  Ca2+  Ca36  1  0.41397863  0.17732224  0.16338438  1
  Ca2+  Ca37  1  0.41432768  0.16467073  0.49457196  1
  Ca2+  Ca38  1  0.42282621  0.16724708  0.83042674  1
  Ca2+  Ca39  1  0.42503827  0.66770801  0.16612114  1
  Ca2+  Ca40  1  0.42139054  0.67869646  0.49327354  1
  Ca2+  Ca41  1  0.42711473  0.66838002  0.82492292  1
  Ca2+  Ca42  1  0.93083775  0.17356969  0.15984483  1
  Ca2+  Ca43  1  0.92259933  0.16452235  0.49533712  1
  Ca2+  Ca44  1  0.91976263  0.16877380  0.83267336  1
  Ca2+  Ca45  1  0.92564666  0.66496794  0.16354913  1
  Ca2+  Ca46  1  0.92147477  0.66766422  0.49102596  1
  Ca2+  Ca47  1  0.92298949  0.67199174  0.83694868  1
  Al0+  Al48  1  -0.00002982  0.00073379  -0.00469389  1
  Al0+  Al49  1  0.00045545  0.00046732  0.33289737  1
  Al0+  Al50  1  -0.00056181  0.00075069  0.67447562  1
  Al0+  Al51  1  0.00009902  0.50042858  -0.00315171  1
  Al0+  Al52  1  -0.00253131  0.50042759  0.34019668  1
  Al0+  Al53  1  -0.00312622  0.49988540  0.66779726  1
  Al0+  Al54  1  0.50154107  -0.00049037  0.00000642  1
  Al0+  Al55  1  0.50166546  0.00067427  0.33245137  1
  Al0+  Al56  1  0.50028189  -0.00038869  0.66413902  1
  Al0+  Al57  1  0.49963869  0.50047000  -0.00710183  1
  Al0+  Al58  1  0.49917142  0.49824905  0.33106771  1
  Al0+  Al59  1  0.49943449  0.49764025  0.66381727  1
  Al0+  Al60  1  0.25009054  0.25026760  -0.00486797  1
  Al0+  Al61  1  0.25070749  0.24860714  0.33478135  1
  Al0+  Al62  1  0.24820711  0.24834209  0.67138249  1
  Al0+  Al63  1  0.25136873  0.75061921  -0.00100636  1
  Al0+  Al64  1  0.24869167  0.74869149  0.32634834  1
  Al0+  Al65  1  0.24951630  0.74708057  0.66829269  1
  Al0+  Al66  1  0.75087341  0.25045951  -0.00182286  1
  Al0+  Al67  1  0.75034711  0.25157441  0.33841717  1
  Al0+  Al68  1  0.74978393  0.25243138  0.66675301  1
  Al0+  Al69  1  0.75021249  0.75132941  -0.00620471  1
  Al0+  Al70  1  0.75059510  0.75164461  0.33654092  1
  Al0+  Al71  1  0.75344464  0.74860609  0.66396498  1
  Al0+  Al72  1  0.57349538  0.67656373  0.64914814  1
  Al0+  Al73  1  0.57001651  0.68001286  0.98681255  1
  Al0+  Al74  1  0.18018698  0.43049096  0.01404782  1
  Al0+  Al75  1  0.42721391  0.82353255  0.31627404  1
  Al0+  Al76  1  0.17976424  0.92651177  0.68377484  1
  Al0+  Al77  1  0.92886748  0.32174698  0.98677166  1
  Al0+  Al78  1  0.07268023  0.17801473  0.98303029  1
  Al0+  Al79  1  0.57107685  0.17801630  0.98673945  1
  Al0+  Al80  1  0.67576380  0.42861153  0.34866507  1
  Al0+  Al81  1  0.57103166  0.18053197  0.65226500  1
  Al0+  Al82  1  0.81936142  0.07247475  0.68232548  1
  Al0+  Al83  1  0.32234350  0.07109340  0.34708222  1
  Al0+  Al84  1  0.92937579  0.82111513  0.98491866  1
  Al0+  Al85  1  0.17821978  0.92674602  0.34549430  1
  Al0+  Al86  1  0.57127255  0.67988523  0.31822490  1
  Al0+  Al87  1  0.81999088  0.57295114  0.34880959  1
  Al0+  Al88  1  0.07028570  0.17954509  0.32238118  1
  Al0+  Al89  1  0.17895280  0.42868438  0.34649594  1
  Al0+  Al90  1  0.07040089  0.67719332  0.32130618  1
  Al0+  Al91  1  0.42814427  0.32132962  0.98399869  1
  Al0+  Al92  1  0.42758637  0.81993997  0.65149940  1
  Al0+  Al93  1  0.42932790  0.31892182  0.32089231  1
  Al0+  Al94  1  0.32319015  0.07136852  0.68446747  1
  Al0+  Al95  1  0.07289411  0.67848208  0.98476418  1
  Si0+  Si96  1  0.67942955  0.92666698  0.68309981  1
  Si0+  Si97  1  0.93138473  0.82253368  0.65117396  1
  Si0+  Si98  1  0.42513609  0.32048555  0.64877729  1
  Si0+  Si99  1  0.82189310  0.07216696  0.01680101  1
  Si0+  Si100  1  0.81914331  0.57221416  0.01378698  1
  Si0+  Si101  1  0.92871197  0.32267594  0.64934055  1
  Si0+  Si102  1  0.32438515  0.57335184  0.01670405  1
  Si0+  Si103  1  0.32227077  0.57203375  0.34886448  1
  Si0+  Si104  1  0.67828197  0.42874513  0.01355112  1
  Si0+  Si105  1  0.06976721  0.17927739  0.65119518  1
  Si0+  Si106  1  0.67895003  0.43106128  0.68350853  1
  Si0+  Si107  1  0.68029830  0.92845448  0.01499713  1
  Si0+  Si108  1  0.92720149  0.32195964  0.31927990  1
  Si0+  Si109  1  0.82127455  0.07158243  0.34682716  1
  Si0+  Si110  1  0.57605926  0.17776350  0.31774755  1
  Si0+  Si111  1  0.67950445  0.92948070  0.34849441  1
  Si0+  Si112  1  0.17613010  0.42854415  0.68221175  1
  Si0+  Si113  1  0.17745401  0.92889604  0.01626173  1
  Si0+  Si114  1  0.82236011  0.57162339  0.68557565  1
  Si0+  Si115  1  0.32031908  0.56818097  0.68030130  1
  Si0+  Si116  1  0.42814479  0.82355250  0.98351184  1
  Si0+  Si117  1  0.92800924  0.82366942  0.31919492  1
  Si0+  Si118  1  0.32179248  0.06949924  0.01518673  1
  Si0+  Si119  1  0.06961472  0.67737320  0.65157859  1
  O2-  O120  1  0.24944041  -0.00050873  0.05737093  1
  O2-  O121  1  0.25444207  -0.00592378  0.39557550  1
  O2-  O122  1  0.25275539  -0.00267517  0.73455243  1
  O2-  O123  1  0.25399370  0.50638678  0.06080627  1
  O2-  O124  1  0.25182379  0.50485564  0.39424624  1
  O2-  O125  1  0.24936270  0.49736125  0.72343969  1
  O2-  O126  1  0.75062749  0.00060211  0.05822575  1
  O2-  O127  1  0.74868233  0.00288180  0.38990392  1
  O2-  O128  1  0.74350013  -0.00112584  0.72954552  1
  O2-  O129  1  0.74841746  0.50077718  0.05557384  1
  O2-  O130  1  0.74480843  0.50391601  0.39909016  1
  O2-  O131  1  0.74619279  0.50563413  0.72675422  1
  O2-  O132  1  -0.00222007  0.25604623  0.27511612  1
  O2-  O133  1  0.00025569  0.25190940  0.60796605  1
  O2-  O134  1  -0.00058591  0.24993463  0.93395157  1
  O2-  O135  1  -0.00351283  0.75410533  0.27696364  1
  O2-  O136  1  0.00346478  0.75283985  0.60915730  1
  O2-  O137  1  0.00486623  0.75358741  0.93342940  1
  O2-  O138  1  0.50600757  0.24533774  0.27524160  1
  O2-  O139  1  0.49170625  0.24961063  0.60523848  1
  O2-  O140  1  0.49974141  0.24885765  0.93470678  1
  O2-  O141  1  0.49898714  0.75054300  0.26701532  1
  O2-  O142  1  0.50261200  0.75057495  0.60195628  1
  O2-  O143  1  0.49282172  0.75109640  0.93958867  1
  O2-  O144  1  0.07183752  0.17753048  0.09680005  1
  O2-  O145  1  0.06674734  0.17944230  0.43594747  1
  O2-  O146  1  0.06871539  0.18159370  0.75603543  1
  O2-  O147  1  0.06906298  0.67681770  0.09802922  1
  O2-  O148  1  0.06797408  0.67662239  0.43508692  1
  O2-  O149  1  0.06670677  0.67444756  0.75638483  1
  O2-  O150  1  0.57068076  0.17849900  0.10024670  1
  O2-  O151  1  0.57912054  0.17874005  0.42340453  1
  O2-  O152  1  0.57335998  0.18572186  0.76499531  1
  O2-  O153  1  0.57269227  0.68126870  0.09934124  1
  O2-  O154  1  0.56978469  0.68384799  0.43147210  1
  O2-  O155  1  0.57148992  0.67728124  0.76322112  1
  O2-  O156  1  0.17877302  0.42831762  0.23372889  1
  O2-  O157  1  0.17452997  0.42906207  0.57712942  1
  O2-  O158  1  0.18145018  0.43299234  0.90011085  1
  O2-  O159  1  0.17549830  0.93053337  0.23164523  1
  O2-  O160  1  0.17762946  0.92741352  0.57047530  1
  O2-  O161  1  0.17884280  0.92903131  0.91121113  1
  O2-  O162  1  0.67945352  0.42643392  0.23474203  1
  O2-  O163  1  0.68098784  0.43020932  0.57885063  1
  O2-  O164  1  0.68018499  0.42963157  0.90799090  1
  O2-  O165  1  0.68166609  0.92821999  0.24310764  1
  O2-  O166  1  0.68456828  0.92701395  0.57726225  1
  O2-  O167  1  0.68113747  0.92779181  0.91013059  1
  O2-  O168  1  0.42841045  0.32119822  0.09744446  1
  O2-  O169  1  0.42915513  0.31676818  0.43421794  1
  O2-  O170  1  0.42722172  0.32353350  0.75416254  1
  O2-  O171  1  0.43089487  0.82551553  0.08869379  1
  O2-  O172  1  0.42896318  0.82331012  0.42971288  1
  O2-  O173  1  0.42880716  0.81522955  0.76557654  1
  O2-  O174  1  0.92694374  0.31965556  0.10018878  1
  O2-  O175  1  0.92675561  0.31848114  0.42541180  1
  O2-  O176  1  0.92935105  0.32471898  0.75418469  1
  O2-  O177  1  0.92784845  0.81891307  0.09847661  1
  O2-  O178  1  0.92779860  0.82590694  0.42509753  1
  O2-  O179  1  0.92982368  0.82018734  0.75597778  1
  O2-  O180  1  0.31938138  0.07285750  0.23291115  1
  O2-  O181  1  0.31869915  0.07489795  0.57144387  1
  O2-  O182  1  0.32340906  0.06654268  0.91026818  1
  O2-  O183  1  0.32335411  0.57000185  0.24339312  1
  O2-  O184  1  0.31839318  0.56804994  0.57546263  1
  O2-  O185  1  0.32408808  0.57186869  0.91044238  1
  O2-  O186  1  0.82078110  0.07159312  0.24173051  1
  O2-  O187  1  0.82046677  0.06984482  0.56856337  1
  O2-  O188  1  0.82040801  0.07250261  0.91178053  1
  O2-  O189  1  0.82103662  0.57101687  0.23477315  1
  O2-  O190  1  0.82849329  0.56930770  0.58128620  1
  O2-  O191  1  0.81725424  0.57190786  0.90813764  1
  O2-  O192  1  0.03669838  0.08480007  0.26658605  1
  O2-  O193  1  0.03822311  0.08739977  0.60684125  1
  O2-  O194  1  0.04288879  0.08116309  0.92892762  1
  O2-  O195  1  0.03449122  0.58122183  0.26881240  1
  O2-  O196  1  0.03601627  0.58697973  0.60405512  1
  O2-  O197  1  0.04006473  0.58298990  0.92914645  1
  O2-  O198  1  0.55506077  0.08333697  0.27231455  1
  O2-  O199  1  0.54972530  0.08091201  0.60080460  1
  O2-  O200  1  0.54535502  0.07891688  0.93359899  1
  O2-  O201  1  0.54559016  0.58025447  0.26732534  1
  O2-  O202  1  0.54291635  0.57787026  0.59868697  1
  O2-  O203  1  0.54290229  0.58406797  0.92988182  1
  O2-  O204  1  0.16597824  0.20984112  0.26851556  1
  O2-  O205  1  0.16216007  0.20721596  0.60540684  1
  O2-  O206  1  0.16881619  0.20802143  0.92790255  1
  O2-  O207  1  0.16591278  0.70159212  0.26343551  1
  O2-  O208  1  0.16333036  0.69878019  0.60640830  1
  O2-  O209  1  0.17296495  0.70329780  0.93296013  1
  O2-  O210  1  0.66977222  0.20455770  0.27180336  1
  O2-  O211  1  0.66694110  0.21566692  0.59827292  1
  O2-  O212  1  0.66941457  0.20626588  0.93437080  1
  O2-  O213  1  0.67067064  0.71054705  0.26786515  1
  O2-  O214  1  0.67479780  0.70048219  0.60041760  1
  O2-  O215  1  0.66439893  0.71346779  0.93035164  1
  O2-  O216  1  0.08183100  0.46020172  0.06571206  1
  O2-  O217  1  0.08272330  0.45715595  0.40296279  1
  O2-  O218  1  0.08480827  0.45940216  0.72920679  1
  O2-  O219  1  0.08454378  0.95639205  0.06131747  1
  O2-  O220  1  0.08048355  0.95799636  0.39990280  1
  O2-  O221  1  0.08204894  0.95728678  0.73758269  1
  O2-  O222  1  0.58507751  0.45596310  0.05786741  1
  O2-  O223  1  0.57684220  0.45351498  0.40214301  1
  O2-  O224  1  0.58502466  0.45415718  0.72971097  1
  O2-  O225  1  0.58866684  0.95526613  0.06381641  1
  O2-  O226  1  0.58800442  0.95594729  0.39640486  1
  O2-  O227  1  0.58389269  0.94623392  0.72624599  1
  O2-  O228  1  0.21067729  0.33203954  0.06498259  1
  O2-  O229  1  0.21265416  0.33411947  0.40275848  1
  O2-  O230  1  0.20100287  0.33640645  0.72985626  1
  O2-  O231  1  0.20345452  0.83539242  0.06168836  1
  O2-  O232  1  0.20041271  0.82536973  0.39501875  1
  O2-  O233  1  0.20493770  0.82616733  0.73608721  1
  O2-  O234  1  0.70632486  0.33732304  0.06128010  1
  O2-  O235  1  0.70876280  0.33219588  0.40520216  1
  O2-  O236  1  0.71217086  0.34144673  0.73180929  1
  O2-  O237  1  0.71181057  0.83762419  0.06294285  1
  O2-  O238  1  0.70925322  0.84026954  0.39926792  1
  O2-  O239  1  0.71068523  0.83383692  0.72880117  1
  O2-  O240  1  0.45682584  0.41527581  0.26530855  1
  O2-  O241  1  0.45295160  0.41298634  0.60194294  1
  O2-  O242  1  0.45670693  0.41849968  0.92835488  1
  O2-  O243  1  0.45930992  0.92145143  0.26361787  1
  O2-  O244  1  0.45253388  0.91935404  0.60001527  1
  O2-  O245  1  0.45909299  0.91460204  0.93583093  1
  O2-  O246  1  0.94873927  0.41706824  0.27682227  1
  O2-  O247  1  0.95669572  0.41472666  0.60203552  1
  O2-  O248  1  0.95590672  0.41907518  0.93098739  1
  O2-  O249  1  0.95224077  0.91641028  0.27085771  1
  O2-  O250  1  0.95635229  0.91610421  0.60597380  1
  O2-  O251  1  0.95298358  0.92017378  0.93189823  1
  O2-  O252  1  0.33411226  0.28621875  0.26596234  1
  O2-  O253  1  0.32920665  0.29760500  0.60607350  1
  O2-  O254  1  0.33145227  0.29328011  0.92905904  1
  O2-  O255  1  0.32956035  0.79614808  0.26234853  1
  O2-  O256  1  0.32971340  0.78690573  0.59961828  1
  O2-  O257  1  0.33321237  0.80312483  0.93881201  1
  O2-  O258  1  0.83427530  0.29418436  0.27315960  1
  O2-  O259  1  0.83724550  0.29452709  0.60235754  1
  O2-  O260  1  0.83140795  0.29319843  0.93153665  1
  O2-  O261  1  0.83429275  0.79934518  0.27332118  1
  O2-  O262  1  0.84055372  0.79351404  0.60242276  1
  O2-  O263  1  0.83360521  0.78993164  0.92785476  1
  O2-  O264  1  0.41368842  0.04143455  0.06286269  1
  O2-  O265  1  0.42382733  0.04960074  0.39716435  1
  O2-  O266  1  0.42354965  0.04509759  0.73556335  1
  O2-  O267  1  0.41833289  0.54596063  0.06119347  1
  O2-  O268  1  0.41435566  0.54435853  0.39641572  1
  O2-  O269  1  0.41244404  0.53973947  0.72800659  1
  O2-  O270  1  0.91412527  0.04358439  0.06315819  1
  O2-  O271  1  0.91141139  0.04126002  0.39615502  1
  O2-  O272  1  0.91407263  0.04036803  0.73846950  1
  O2-  O273  1  0.91155567  0.54491572  0.05935738  1
  O2-  O274  1  0.91464656  0.54001823  0.40752387  1
  O2-  O275  1  0.91162055  0.53779011  0.73560999  1
  O2-  O276  1  0.29436439  0.16285038  0.05880588  1
  O2-  O277  1  0.28898700  0.16614459  0.40319128  1
  O2-  O278  1  0.29126025  0.16917688  0.73876766  1
  O2-  O279  1  0.30324598  0.66880317  0.06103664  1
  O2-  O280  1  0.29600851  0.66584869  0.39365368  1
  O2-  O281  1  0.29277742  0.65846381  0.73045820  1
  O2-  O282  1  0.79325352  0.16354842  0.06499830  1
  O2-  O283  1  0.79686305  0.16318352  0.39656364  1
  O2-  O284  1  0.79017167  0.17046981  0.73475143  1
  O2-  O285  1  0.79058372  0.66438355  0.05961664  1
  O2-  O286  1  0.79653613  0.67243261  0.40289030  1
  O2-  O287  1  0.79998352  0.66574071  0.73133079  1
