# generated using pymatgen
data_Ca2Al2SiO7
_symmetry_space_group_name_H-M   'P 1'
_cell_length_a   15.46297174
_cell_length_b   15.46404112
_cell_length_c   15.28792956
_cell_angle_alpha   90.00797565
_cell_angle_beta   90.00251209
_cell_angle_gamma   89.98413864
_symmetry_Int_Tables_number   1
_chemical_formula_structural   Ca2Al2SiO7
_chemical_formula_sum   'Ca48 Al48 Si24 O168'
_cell_volume   3655.65000889
_cell_formula_units_Z   24
loop_
 _symmetry_equiv_pos_site_id
 _symmetry_equiv_pos_as_xyz
  1  'x, y, z'
loop_
 _atom_type_symbol
 _atom_type_oxidation_number
  Ca2+  2.0
  Al0+  0.0
  Si0+  0.0
  O2-  -2.0
loop_
 _atom_site_type_symbol
 _atom_site_label
 _atom_site_symmetry_multiplicity
 _atom_site_fract_x
 _atom_site_fract_y
 _atom_site_fract_z
 _atom_site_occupancy
  Ca2+  Ca0  1  0.16524065  0.07805806  0.16983627  1
  Ca2+  Ca1  1  0.16385126  0.08566371  0.50451502  1
  Ca2+  Ca2  1  0.16708078  0.07761723  0.83969272  1
  Ca2+  Ca3  1  0.17171753  0.58396982  0.16958818  1
  Ca2+  Ca4  1  0.17098919  0.57980419  0.51462945  1
  Ca2+  Ca5  1  0.17234048  0.58604288  0.82811015  1
  Ca2+  Ca6  1  0.66305365  0.07259577  0.16840751  1
  Ca2+  Ca7  1  0.66397677  0.07653252  0.51097020  1
  Ca2+  Ca8  1  0.65617092  0.07241841  0.83256516  1
  Ca2+  Ca9  1  0.67150791  0.58647177  0.17342878  1
  Ca2+  Ca10  1  0.67460535  0.57868334  0.50317652  1
  Ca2+  Ca11  1  0.67577038  0.58827007  0.83709964  1
  Ca2+  Ca12  1  0.07701675  0.33138997  0.16744968  1
  Ca2+  Ca13  1  0.08162439  0.32793590  0.49664931  1
  Ca2+  Ca14  1  0.08455169  0.32891513  0.82210457  1
  Ca2+  Ca15  1  0.07124385  0.83478970  0.16090721  1
  Ca2+  Ca16  1  0.07614193  0.82305102  0.49656931  1
  Ca2+  Ca17  1  0.07781743  0.83064142  0.82931715  1
  Ca2+  Ca18  1  0.58100265  0.33699473  0.16060864  1
  Ca2+  Ca19  1  0.58498325  0.34246566  0.49997035  1
  Ca2+  Ca20  1  0.57579651  0.33104181  0.82289296  1
  Ca2+  Ca21  1  0.58123200  0.82202511  0.15780149  1
  Ca2+  Ca22  1  0.57573160  0.82770175  0.49541654  1
  Ca2+  Ca23  1  0.58162227  0.83175473  0.82942723  1
  Ca2+  Ca24  1  0.33569156  0.41621192  0.16950435  1
  Ca2+  Ca25  1  0.32827082  0.42440950  0.51328899  1
  Ca2+  Ca26  1  0.33391233  0.41484176  0.83203181  1
  Ca2+  Ca27  1  0.32976208  0.90574650  0.16746445  1
  Ca2+  Ca28  1  0.33700477  0.91473940  0.50697079  1
  Ca2+  Ca29  1  0.33089238  0.91236062  0.84029598  1
  Ca2+  Ca30  1  0.82786949  0.42913926  0.17895764  1
  Ca2+  Ca31  1  0.82886888  0.42399834  0.50622316  1
  Ca2+  Ca32  1  0.82952666  0.42852149  0.83472055  1
  Ca2+  Ca33  1  0.82944202  0.90743473  0.16809413  1
  Ca2+  Ca34  1  0.82758844  0.91489385  0.50464526  1
  Ca2+  Ca35  1  0.82042121  0.91204683  0.83934112  1
  Ca2+  Ca36  1  0.41839290  0.17477816  0.16165575  1
  Ca2+  Ca37  1  0.42358370  0.17375607  0.50518305  1
  Ca2+  Ca38  1  0.41954581  0.17810599  0.82538073  1
  Ca2+  Ca39  1  0.43172730  0.67182449  0.16126975  1
  Ca2+  Ca40  1  0.41797819  0.67448515  0.49491152  1
  Ca2+  Ca41  1  0.41968788  0.67603846  0.82764717  1
  Ca2+  Ca42  1  0.91683846  0.17267679  0.16848465  1
  Ca2+  Ca43  1  0.92653302  0.17434369  0.49265476  1
  Ca2+  Ca44  1  0.92413477  0.16694123  0.82576126  1
  Ca2+  Ca45  1  0.90681267  0.67316039  0.16300056  1
  Ca2+  Ca46  1  0.91611827  0.66249904  0.49737276  1
  Ca2+  Ca47  1  0.91633953  0.66615230  0.83076639  1
  Al0+  Al48  1  0.00049689  -0.00004797  0.00080894  1
  Al0+  Al49  1  0.00116074  -0.00182966  0.32771632  1
  Al0+  Al50  1  -0.00079337  0.00009922  0.66244882  1
  Al0+  Al51  1  0.00030820  0.49956180  0.00502518  1
  Al0+  Al52  1  0.00122418  0.49819622  0.33243097  1
  Al0+  Al53  1  0.00135215  0.50025502  0.67139990  1
  Al0+  Al54  1  0.49909842  0.00129472  0.00482423  1
  Al0+  Al55  1  0.49598179  0.00257101  0.33063516  1
  Al0+  Al56  1  0.49813391  0.00130444  0.66403284  1
  Al0+  Al57  1  0.49989445  0.50017909  -0.00874248  1
  Al0+  Al58  1  0.49914740  0.50121108  0.33312969  1
  Al0+  Al59  1  0.50008650  0.50256851  0.66993199  1
  Al0+  Al60  1  0.24980746  0.24931557  -0.00099683  1
  Al0+  Al61  1  0.25175582  0.24677456  0.33036669  1
  Al0+  Al62  1  0.25164343  0.24917326  0.66219676  1
  Al0+  Al63  1  0.24945751  0.74812717  0.00421791  1
  Al0+  Al64  1  0.24778638  0.75112772  0.33198502  1
  Al0+  Al65  1  0.24718164  0.75047203  0.66252080  1
  Al0+  Al66  1  0.75154911  0.25013193  -0.00188528  1
  Al0+  Al67  1  0.75004372  0.24823519  0.33180544  1
  Al0+  Al68  1  0.75188068  0.24879953  0.66817768  1
  Al0+  Al69  1  0.75112489  0.75114076  -0.00020645  1
  Al0+  Al70  1  0.74956893  0.74927595  0.33310107  1
  Al0+  Al71  1  0.74823419  0.75236057  0.67378138  1
  Al0+  Al72  1  0.82132142  0.57173632  0.68338099  1
  Al0+  Al73  1  0.42860879  0.82021112  0.65375500  1
  Al0+  Al74  1  0.67833318  0.42657466  0.68331350  1
  Al0+  Al75  1  0.82214185  0.57256539  0.34952476  1
  Al0+  Al76  1  0.43096126  0.32441552  0.64992623  1
  Al0+  Al77  1  0.67724878  0.42722289  0.34714291  1
  Al0+  Al78  1  0.56968722  0.67900360  0.31997074  1
  Al0+  Al79  1  0.82089856  0.56976719  0.01599217  1
  Al0+  Al80  1  0.92938427  0.81856847  0.32096829  1
  Al0+  Al81  1  0.93059890  0.82121092  0.98512997  1
  Al0+  Al82  1  0.67737572  0.93150811  0.67893456  1
  Al0+  Al83  1  0.07273649  0.17882587  0.31571632  1
  Al0+  Al84  1  0.92770185  0.32169086  0.31814140  1
  Al0+  Al85  1  0.32176301  0.57485569  0.68163218  1
  Al0+  Al86  1  0.57280195  0.67999256  0.98198928  1
  Al0+  Al87  1  0.42759816  0.82136015  0.98501739  1
  Al0+  Al88  1  0.67899155  0.93118112  0.01518944  1
  Al0+  Al89  1  0.42863028  0.32036509  0.98605542  1
  Al0+  Al90  1  0.42697656  0.82348124  0.31720191  1
  Al0+  Al91  1  0.07163760  0.17763145  0.65398976  1
  Al0+  Al92  1  0.57230309  0.17984259  0.65234001  1
  Al0+  Al93  1  0.17897999  0.92770724  0.01415462  1
  Al0+  Al94  1  0.18090740  0.42725504  0.68118466  1
  Al0+  Al95  1  0.06855127  0.67942740  0.65463937  1
  Si0+  Si96  1  0.92581434  0.82187163  0.65085352  1
  Si0+  Si97  1  0.17690941  0.92954190  0.67977133  1
  Si0+  Si98  1  0.32090506  0.07252514  0.35147804  1
  Si0+  Si99  1  0.32006267  0.07318197  0.01789872  1
  Si0+  Si100  1  0.67749490  0.42722906  0.01486277  1
  Si0+  Si101  1  0.92950269  0.32263836  0.98410614  1
  Si0+  Si102  1  0.43087312  0.32040417  0.31969475  1
  Si0+  Si103  1  0.82209913  0.06970150  0.34751059  1
  Si0+  Si104  1  0.67714660  0.93053520  0.34759608  1
  Si0+  Si105  1  0.57403764  0.17788719  0.98457327  1
  Si0+  Si106  1  0.17857353  0.92979176  0.35048636  1
  Si0+  Si107  1  0.31878592  0.57103854  0.34698880  1
  Si0+  Si108  1  0.07269718  0.67594564  0.31650179  1
  Si0+  Si109  1  0.18010138  0.42629249  0.01674968  1
  Si0+  Si110  1  0.18088033  0.42631845  0.34684849  1
  Si0+  Si111  1  0.82419098  0.07412136  0.01757960  1
  Si0+  Si112  1  0.31973556  0.06984104  0.68125947  1
  Si0+  Si113  1  0.06977496  0.18041465  0.98481042  1
  Si0+  Si114  1  0.57223019  0.17709830  0.31775547  1
  Si0+  Si115  1  0.92906861  0.32249789  0.65181093  1
  Si0+  Si116  1  0.32200446  0.56978154  0.01593895  1
  Si0+  Si117  1  0.07275799  0.67534373  0.98396751  1
  Si0+  Si118  1  0.82459399  0.07124683  0.68204771  1
  Si0+  Si119  1  0.57484718  0.67911937  0.64988594  1
  O2-  O120  1  0.25643387  -0.00030748  0.06237337  1
  O2-  O121  1  0.25177041  -0.00127375  0.39258275  1
  O2-  O122  1  0.24761677  -0.00002640  0.72300297  1
  O2-  O123  1  0.25158415  0.49724100  0.05868805  1
  O2-  O124  1  0.24689834  0.50117759  0.38920016  1
  O2-  O125  1  0.25403255  0.49799824  0.73176027  1
  O2-  O126  1  0.75397750  0.00669598  0.06171308  1
  O2-  O127  1  0.74886175  0.00106475  0.39023511  1
  O2-  O128  1  0.75263677  0.00612095  0.72584304  1
  O2-  O129  1  0.74482752  0.49560142  0.06095891  1
  O2-  O130  1  0.75184864  0.49711316  0.39629695  1
  O2-  O131  1  0.74737925  0.50136238  0.73341880  1
  O2-  O132  1  0.00052145  0.25060335  0.26616841  1
  O2-  O133  1  -0.00172727  0.25349074  0.60828432  1
  O2-  O134  1  -0.00074973  0.25055350  0.94142551  1
  O2-  O135  1  -0.00028492  0.74006002  0.27315189  1
  O2-  O136  1  -0.00952675  0.74966136  0.60678165  1
  O2-  O137  1  0.00526205  0.74558537  0.94064109  1
  O2-  O138  1  0.50629500  0.25401713  0.27714094  1
  O2-  O139  1  0.50877739  0.25825211  0.59974368  1
  O2-  O140  1  0.50642350  0.24812057  0.94206781  1
  O2-  O141  1  0.50103077  0.75384753  0.26876942  1
  O2-  O142  1  0.50157365  0.74417285  0.60692274  1
  O2-  O143  1  0.50099383  0.75315581  0.93291299  1
  O2-  O144  1  0.07061958  0.18224682  0.08970192  1
  O2-  O145  1  0.07230677  0.18008472  0.42914782  1
  O2-  O146  1  0.06930582  0.17527419  0.76762422  1
  O2-  O147  1  0.07353294  0.67457533  0.08989298  1
  O2-  O148  1  0.07679806  0.67881625  0.42186068  1
  O2-  O149  1  0.07106291  0.68435867  0.76757279  1
  O2-  O150  1  0.57370057  0.17911711  0.09080772  1
  O2-  O151  1  0.56958915  0.17113300  0.42189305  1
  O2-  O152  1  0.56477745  0.17631511  0.76581258  1
  O2-  O153  1  0.57093941  0.67863058  0.09578656  1
  O2-  O154  1  0.56713334  0.67961925  0.43352514  1
  O2-  O155  1  0.57712249  0.68403691  0.75520953  1
  O2-  O156  1  0.18424648  0.42606721  0.24108493  1
  O2-  O157  1  0.18086333  0.42813915  0.56699350  1
  O2-  O158  1  0.17936807  0.42267817  0.91250743  1
  O2-  O159  1  0.17894616  0.93047712  0.24537244  1
  O2-  O160  1  0.17623889  0.93120570  0.57447237  1
  O2-  O161  1  0.17747530  0.93186601  0.90078584  1
  O2-  O162  1  0.67577522  0.42783363  0.23312681  1
  O2-  O163  1  0.68298864  0.42753694  0.56968009  1
  O2-  O164  1  0.68099764  0.42480450  0.90993000  1
  O2-  O165  1  0.67791710  0.93263518  0.24245260  1
  O2-  O166  1  0.67889609  0.93140123  0.56519464  1
  O2-  O167  1  0.67843974  0.93411087  0.90225077  1
  O2-  O168  1  0.42777658  0.31853409  0.10024703  1
  O2-  O169  1  0.42769625  0.31894692  0.42380372  1
  O2-  O170  1  0.42693404  0.31693786  0.76329866  1
  O2-  O171  1  0.42817773  0.81655830  0.09838145  1
  O2-  O172  1  0.42751351  0.82255525  0.43092371  1
  O2-  O173  1  0.42795723  0.82193198  0.76644167  1
  O2-  O174  1  0.93078132  0.32126463  0.08900771  1
  O2-  O175  1  0.93019619  0.31937969  0.43157860  1
  O2-  O176  1  0.93105537  0.31988512  0.75791730  1
  O2-  O177  1  0.93183361  0.82015779  0.09845464  1
  O2-  O178  1  0.93230726  0.82183120  0.43399122  1
  O2-  O179  1  0.92937646  0.82541275  0.75623866  1
  O2-  O180  1  0.32042791  0.07724509  0.24654908  1
  O2-  O181  1  0.31993169  0.06851721  0.57583109  1
  O2-  O182  1  0.31587432  0.07717191  0.91252574  1
  O2-  O183  1  0.31796023  0.56824063  0.24140280  1
  O2-  O184  1  0.31664472  0.57578400  0.56729839  1
  O2-  O185  1  0.31911045  0.57139083  0.91159072  1
  O2-  O186  1  0.82060005  0.06921182  0.24231030  1
  O2-  O187  1  0.82761585  0.06766613  0.57625131  1
  O2-  O188  1  0.82659698  0.07499279  0.91223049  1
  O2-  O189  1  0.81972837  0.57257236  0.23586043  1
  O2-  O190  1  0.82192237  0.57127559  0.56992966  1
  O2-  O191  1  0.82431267  0.56677470  0.90334191  1
  O2-  O192  1  0.04339812  0.08094201  0.26305630  1
  O2-  O193  1  0.03971732  0.08250991  0.59692674  1
  O2-  O194  1  0.04261771  0.08845783  0.93807570  1
  O2-  O195  1  0.05576771  0.58018745  0.27194633  1
  O2-  O196  1  0.04350707  0.58085466  0.60186459  1
  O2-  O197  1  0.04619156  0.58154402  0.93906706  1
  O2-  O198  1  0.53647056  0.08967740  0.26594030  1
  O2-  O199  1  0.53418056  0.08560297  0.59622810  1
  O2-  O200  1  0.54556657  0.08475705  0.94037124  1
  O2-  O201  1  0.53750015  0.58218599  0.26451376  1
  O2-  O202  1  0.55445738  0.58366219  0.60731502  1
  O2-  O203  1  0.54521693  0.58197339  0.92910459  1
  O2-  O204  1  0.17116745  0.20734725  0.26208953  1
  O2-  O205  1  0.16775777  0.20535940  0.59879604  1
  O2-  O206  1  0.16152766  0.20807771  0.93780487  1
  O2-  O207  1  0.16357130  0.70717295  0.26761798  1
  O2-  O208  1  0.16143022  0.71450497  0.59594541  1
  O2-  O209  1  0.16675814  0.70040032  0.93975495  1
  O2-  O210  1  0.66544593  0.19650241  0.27005802  1
  O2-  O211  1  0.67532883  0.19506004  0.60396199  1
  O2-  O212  1  0.66855862  0.19892463  0.93847495  1
  O2-  O213  1  0.66810412  0.70645426  0.26762492  1
  O2-  O214  1  0.66651835  0.71114626  0.60332835  1
  O2-  O215  1  0.67053441  0.71057104  0.93070585  1
  O2-  O216  1  0.08929429  0.45535512  0.06597952  1
  O2-  O217  1  0.08719696  0.44792086  0.39203311  1
  O2-  O218  1  0.08362360  0.45498352  0.73605344  1
  O2-  O219  1  0.08407523  0.96355839  0.06945051  1
  O2-  O220  1  0.08721597  0.95997193  0.39737182  1
  O2-  O221  1  0.08513475  0.95809328  0.72726364  1
  O2-  O222  1  0.58151424  0.45081330  0.05735596  1
  O2-  O223  1  0.57864068  0.45740196  0.39965702  1
  O2-  O224  1  0.57751153  0.44897800  0.73275223  1
  O2-  O225  1  0.58287771  0.96208679  0.07194363  1
  O2-  O226  1  0.58462491  0.96084510  0.39222220  1
  O2-  O227  1  0.58159630  0.96537178  0.73292848  1
  O2-  O228  1  0.20897031  0.33511408  0.06581828  1
  O2-  O229  1  0.21277355  0.33529046  0.39275523  1
  O2-  O230  1  0.20895661  0.32756633  0.73293347  1
  O2-  O231  1  0.20531463  0.83041311  0.07012052  1
  O2-  O232  1  0.20377246  0.83661805  0.39722109  1
  O2-  O233  1  0.20429767  0.83830093  0.72683900  1
  O2-  O234  1  0.70251752  0.33247978  0.06053554  1
  O2-  O235  1  0.70046940  0.32566341  0.39671530  1
  O2-  O236  1  0.70712328  0.32736833  0.73604800  1
  O2-  O237  1  0.71273807  0.83564749  0.06870838  1
  O2-  O238  1  0.70453275  0.83886834  0.39429576  1
  O2-  O239  1  0.70791030  0.83755530  0.73698883  1
  O2-  O240  1  0.45306315  0.41312707  0.27143947  1
  O2-  O241  1  0.45079113  0.42608335  0.60012082  1
  O2-  O242  1  0.45315651  0.41672696  0.93091557  1
  O2-  O243  1  0.44868870  0.92426547  0.26634637  1
  O2-  O244  1  0.45954431  0.91626748  0.59898678  1
  O2-  O245  1  0.44888846  0.92453274  0.93931300  1
  O2-  O246  1  0.95848491  0.41901712  0.26327730  1
  O2-  O247  1  0.95597047  0.41543312  0.60664460  1
  O2-  O248  1  0.96093648  0.41357498  0.93806559  1
  O2-  O249  1  0.96350197  0.91258057  0.26409910  1
  O2-  O250  1  0.95521653  0.91328322  0.60228411  1
  O2-  O251  1  0.96156731  0.91841085  0.93222721  1
  O2-  O252  1  0.34175699  0.28682300  0.26963365  1
  O2-  O253  1  0.33534410  0.28786214  0.59549163  1
  O2-  O254  1  0.33274158  0.28606773  0.93275105  1
  O2-  O255  1  0.32800014  0.79333573  0.26663953  1
  O2-  O256  1  0.33158367  0.79236480  0.59873136  1
  O2-  O257  1  0.32792924  0.79128707  0.93536757  1
  O2-  O258  1  0.83046932  0.29030703  0.26343690  1
  O2-  O259  1  0.83643208  0.29613491  0.60542064  1
  O2-  O260  1  0.83759092  0.29602165  0.93653608  1
  O2-  O261  1  0.83182371  0.79267473  0.26705438  1
  O2-  O262  1  0.83044367  0.80025687  0.60750300  1
  O2-  O263  1  0.83446335  0.79159527  0.93174806  1
  O2-  O264  1  0.41530775  0.05555886  0.06384864  1
  O2-  O265  1  0.41337276  0.04681239  0.39901868  1
  O2-  O266  1  0.41008786  0.04122467  0.72995960  1
  O2-  O267  1  0.41420682  0.54007645  0.06195971  1
  O2-  O268  1  0.40967953  0.54270045  0.39431109  1
  O2-  O269  1  0.42153496  0.55465507  0.73347447  1
  O2-  O270  1  0.91702999  0.04800706  0.06477067  1
  O2-  O271  1  0.91406360  0.03929614  0.39327936  1
  O2-  O272  1  0.91676391  0.04192555  0.73035292  1
  O2-  O273  1  0.91772722  0.53888880  0.07089190  1
  O2-  O274  1  0.92337210  0.54586304  0.39860529  1
  O2-  O275  1  0.91915452  0.54261943  0.73724829  1
  O2-  O276  1  0.28768081  0.16428096  0.06706298  1
  O2-  O277  1  0.29022121  0.16299735  0.40039560  1
  O2-  O278  1  0.29203553  0.16136697  0.72843235  1
  O2-  O279  1  0.29208134  0.65920567  0.06718796  1
  O2-  O280  1  0.29106426  0.66351204  0.39303155  1
  O2-  O281  1  0.28401645  0.67069304  0.73493626  1
  O2-  O282  1  0.79923220  0.16861024  0.06361305  1
  O2-  O283  1  0.79757901  0.16211799  0.39463150  1
  O2-  O284  1  0.80576770  0.16576633  0.72822956  1
  O2-  O285  1  0.79089229  0.66748774  0.06703059  1
  O2-  O286  1  0.79310718  0.67089053  0.40293502  1
  O2-  O287  1  0.79446201  0.67077053  0.73628540  1
