# generated using pymatgen
data_Ca2Al2SiO7
_symmetry_space_group_name_H-M   'P 1'
_cell_length_a   15.46271873
_cell_length_b   15.46199662
_cell_length_c   15.28746927
_cell_angle_alpha   90.00347695
_cell_angle_beta   89.99859526
_cell_angle_gamma   89.98102159
_symmetry_Int_Tables_number   1
_chemical_formula_structural   Ca2Al2SiO7
_chemical_formula_sum   'Ca48 Al48 Si24 O168'
_cell_volume   3654.99681100
_cell_formula_units_Z   24
loop_
 _symmetry_equiv_pos_site_id
 _symmetry_equiv_pos_as_xyz
  1  'x, y, z'
loop_
 _atom_type_symbol
 _atom_type_oxidation_number
  Ca2+  2.0
  Al0+  0.0
  Si0+  0.0
  O2-  -2.0
loop_
 _atom_site_type_symbol
 _atom_site_label
 _atom_site_symmetry_multiplicity
 _atom_site_fract_x
 _atom_site_fract_y
 _atom_site_fract_z
 _atom_site_occupancy
  Ca2+  Ca0  1  0.16810557  0.08129233  0.17762719  1
  Ca2+  Ca1  1  0.17383618  0.08047753  0.50492227  1
  Ca2+  Ca2  1  0.16733765  0.08547788  0.83084469  1
  Ca2+  Ca3  1  0.17401372  0.57681169  0.17190120  1
  Ca2+  Ca4  1  0.16673326  0.57295621  0.50099034  1
  Ca2+  Ca5  1  0.17593394  0.58106318  0.83964112  1
  Ca2+  Ca6  1  0.66912970  0.08211608  0.17082509  1
  Ca2+  Ca7  1  0.66330987  0.07975841  0.51031819  1
  Ca2+  Ca8  1  0.65230564  0.07620344  0.83149020  1
  Ca2+  Ca9  1  0.67370189  0.59246219  0.17099089  1
  Ca2+  Ca10  1  0.67326488  0.58140587  0.50575324  1
  Ca2+  Ca11  1  0.67182246  0.58004765  0.83774686  1
  Ca2+  Ca12  1  0.08046283  0.32846507  0.16570278  1
  Ca2+  Ca13  1  0.08374182  0.32193909  0.48992762  1
  Ca2+  Ca14  1  0.07975547  0.32394461  0.82944403  1
  Ca2+  Ca15  1  0.08483771  0.83499944  0.16552485  1
  Ca2+  Ca16  1  0.08749624  0.83646748  0.49767520  1
  Ca2+  Ca17  1  0.08362670  0.83209712  0.82583745  1
  Ca2+  Ca18  1  0.57736577  0.33435797  0.16751937  1
  Ca2+  Ca19  1  0.57420958  0.33630831  0.50011524  1
  Ca2+  Ca20  1  0.57825931  0.33080170  0.82146883  1
  Ca2+  Ca21  1  0.57210162  0.82323630  0.16367843  1
  Ca2+  Ca22  1  0.57361046  0.83460567  0.49508077  1
  Ca2+  Ca23  1  0.57421019  0.82906454  0.82743708  1
  Ca2+  Ca24  1  0.33076102  0.41984905  0.17476346  1
  Ca2+  Ca25  1  0.33181538  0.40750781  0.50156904  1
  Ca2+  Ca26  1  0.33627294  0.42044618  0.83813403  1
  Ca2+  Ca27  1  0.33133200  0.92053218  0.17679195  1
  Ca2+  Ca28  1  0.33226205  0.92530269  0.50705523  1
  Ca2+  Ca29  1  0.33589636  0.91829125  0.83272794  1
  Ca2+  Ca30  1  0.84025883  0.42279893  0.17319746  1
  Ca2+  Ca31  1  0.83234544  0.42506824  0.50583204  1
  Ca2+  Ca32  1  0.82940002  0.42090337  0.83812263  1
  Ca2+  Ca33  1  0.83076021  0.91786264  0.17179959  1
  Ca2+  Ca34  1  0.82406810  0.91916676  0.50759108  1
  Ca2+  Ca35  1  0.82461438  0.91807407  0.83291484  1
  Ca2+  Ca36  1  0.40648003  0.17210202  0.17095668  1
  Ca2+  Ca37  1  0.41445125  0.16970573  0.49975305  1
  Ca2+  Ca38  1  0.41829809  0.17321479  0.82008551  1
  Ca2+  Ca39  1  0.42125884  0.67456909  0.15745796  1
  Ca2+  Ca40  1  0.42267340  0.68080666  0.49023317  1
  Ca2+  Ca41  1  0.41615339  0.67423869  0.82960974  1
  Ca2+  Ca42  1  0.92899098  0.17822790  0.15972645  1
  Ca2+  Ca43  1  0.92878556  0.17054774  0.49110938  1
  Ca2+  Ca44  1  0.92725121  0.16888792  0.82900500  1
  Ca2+  Ca45  1  0.91521694  0.66139980  0.16459825  1
  Ca2+  Ca46  1  0.91205409  0.66365006  0.49626967  1
  Ca2+  Ca47  1  0.91301087  0.66100465  0.83184436  1
  Al0+  Al48  1  -0.00057116  -0.00017499  -0.00360926  1
  Al0+  Al49  1  -0.00055717  -0.00083931  0.33271530  1
  Al0+  Al50  1  -0.00015094  -0.00220951  0.66560166  1
  Al0+  Al51  1  -0.00103803  0.49912020  -0.00058681  1
  Al0+  Al52  1  0.00077230  0.50143148  0.33903246  1
  Al0+  Al53  1  0.00210316  0.50096030  0.67161979  1
  Al0+  Al54  1  0.49732195  -0.00120354  0.00154777  1
  Al0+  Al55  1  0.50016813  -0.00048825  0.33190294  1
  Al0+  Al56  1  0.49859863  0.00081135  0.66838560  1
  Al0+  Al57  1  0.50176473  0.50074326  0.00157024  1
  Al0+  Al58  1  0.50361074  0.49983329  0.32564466  1
  Al0+  Al59  1  0.50127271  0.50124623  0.66585602  1
  Al0+  Al60  1  0.24945951  0.24806765  -0.00345651  1
  Al0+  Al61  1  0.25141334  0.24917014  0.33257632  1
  Al0+  Al62  1  0.24819333  0.24903953  0.66470379  1
  Al0+  Al63  1  0.24919059  0.75086671  0.00123462  1
  Al0+  Al64  1  0.24877428  0.74974651  0.33239360  1
  Al0+  Al65  1  0.24847254  0.74973637  0.66410770  1
  Al0+  Al66  1  0.74992336  0.24923592  -0.00288257  1
  Al0+  Al67  1  0.75034824  0.25235040  0.33026573  1
  Al0+  Al68  1  0.75134873  0.25170205  0.66707436  1
  Al0+  Al69  1  0.74852725  0.74880232  0.00097770  1
  Al0+  Al70  1  0.75099269  0.75044630  0.33411225  1
  Al0+  Al71  1  0.75124591  0.75184959  0.67507534  1
  Al0+  Al72  1  0.81979283  0.56911649  0.01677247  1
  Al0+  Al73  1  0.17848148  0.92748806  0.68367016  1
  Al0+  Al74  1  0.92912272  0.32367134  0.31974732  1
  Al0+  Al75  1  0.92835922  0.32270506  0.98258980  1
  Al0+  Al76  1  0.67734710  0.93148678  0.68077801  1
  Al0+  Al77  1  0.57191192  0.67821837  0.98195436  1
  Al0+  Al78  1  0.42985326  0.31986586  0.31896481  1
  Al0+  Al79  1  0.42798526  0.81993947  0.65192466  1
  Al0+  Al80  1  0.42695547  0.82103575  0.98269499  1
  Al0+  Al81  1  0.32219772  0.07051734  0.34946056  1
  Al0+  Al82  1  0.06865974  0.17797491  0.65007102  1
  Al0+  Al83  1  0.81953578  0.57035517  0.34781113  1
  Al0+  Al84  1  0.57307276  0.68008578  0.31934141  1
  Al0+  Al85  1  0.57246976  0.17904489  0.65306319  1
  Al0+  Al86  1  0.17685147  0.92697274  0.34830949  1
  Al0+  Al87  1  0.42688074  0.82191670  0.31746803  1
  Al0+  Al88  1  0.07201217  0.17752705  0.98240033  1
  Al0+  Al89  1  0.42857191  0.32385795  0.65222787  1
  Al0+  Al90  1  0.67756735  0.42850251  0.68181941  1
  Al0+  Al91  1  0.18150908  0.43031716  0.34611684  1
  Al0+  Al92  1  0.32192045  0.57157324  0.01341784  1
  Al0+  Al93  1  0.31931066  0.07145173  0.68398414  1
  Al0+  Al94  1  0.82186731  0.57068450  0.68427703  1
  Al0+  Al95  1  0.07138357  0.17771768  0.31771794  1
  Si0+  Si96  1  0.07082096  0.67794244  0.31914539  1
  Si0+  Si97  1  0.57438585  0.67980318  0.65061723  1
  Si0+  Si98  1  0.67787189  0.42460137  0.01921278  1
  Si0+  Si99  1  0.17683847  0.92942730  0.01460210  1
  Si0+  Si100  1  0.18004369  0.42835958  0.68257654  1
  Si0+  Si101  1  0.67813622  0.92979169  0.01682437  1
  Si0+  Si102  1  0.92800873  0.82131516  0.98511828  1
  Si0+  Si103  1  0.07036761  0.67955753  0.98646047  1
  Si0+  Si104  1  0.32053525  0.57182551  0.67839594  1
  Si0+  Si105  1  0.32524370  0.57191959  0.34878360  1
  Si0+  Si106  1  0.67621046  0.42564867  0.35047636  1
  Si0+  Si107  1  0.82094301  0.07319029  0.34607128  1
  Si0+  Si108  1  0.92805720  0.81925312  0.65233186  1
  Si0+  Si109  1  0.57092275  0.17787026  0.98700980  1
  Si0+  Si110  1  0.92949398  0.32477371  0.64981836  1
  Si0+  Si111  1  0.92869955  0.82031430  0.31939232  1
  Si0+  Si112  1  0.42955507  0.32046958  0.98666125  1
  Si0+  Si113  1  0.82201326  0.07014317  0.01484220  1
  Si0+  Si114  1  0.57392244  0.17638802  0.31616834  1
  Si0+  Si115  1  0.07102584  0.67794047  0.65147851  1
  Si0+  Si116  1  0.68151179  0.93082878  0.34660396  1
  Si0+  Si117  1  0.32056774  0.07122705  0.01571897  1
  Si0+  Si118  1  0.18004246  0.42708406  0.01566204  1
  Si0+  Si119  1  0.82329537  0.07248277  0.68209044  1
  O2-  O120  1  0.24771049  0.00076090  0.05557733  1
  O2-  O121  1  0.25050723  -0.00302224  0.39761459  1
  O2-  O122  1  0.24898950  -0.00135472  0.73620116  1
  O2-  O123  1  0.24959274  0.49464114  0.06021848  1
  O2-  O124  1  0.25944788  0.50142185  0.39482986  1
  O2-  O125  1  0.25495359  0.49628411  0.72273987  1
  O2-  O126  1  0.74963822  0.00092670  0.05897025  1
  O2-  O127  1  0.74726361  0.00613441  0.38954421  1
  O2-  O128  1  0.74833421  0.01079658  0.72756633  1
  O2-  O129  1  0.74671247  0.49319159  0.06373187  1
  O2-  O130  1  0.74580666  0.49461247  0.39271110  1
  O2-  O131  1  0.75021919  0.49874953  0.73387121  1
  O2-  O132  1  -0.00031384  0.25077893  0.26905479  1
  O2-  O133  1  -0.00654790  0.25269049  0.60469139  1
  O2-  O134  1  0.00015526  0.25026244  0.93340398  1
  O2-  O135  1  0.00289808  0.75264202  0.27749020  1
  O2-  O136  1  -0.00191363  0.74748323  0.61030613  1
  O2-  O137  1  -0.00160635  0.74943614  0.94351206  1
  O2-  O138  1  0.50425227  0.24425419  0.27189965  1
  O2-  O139  1  0.50212997  0.25244838  0.60344663  1
  O2-  O140  1  0.50212111  0.25095244  0.94572438  1
  O2-  O141  1  0.49501944  0.74540493  0.26886816  1
  O2-  O142  1  0.50517092  0.74733567  0.60596086  1
  O2-  O143  1  0.49745503  0.74775161  0.93245570  1
  O2-  O144  1  0.07157748  0.17589816  0.09552642  1
  O2-  O145  1  0.06817089  0.17726312  0.43111699  1
  O2-  O146  1  0.06722075  0.18011755  0.76330237  1
  O2-  O147  1  0.07045379  0.68120954  0.09164950  1
  O2-  O148  1  0.06910542  0.67586284  0.42422880  1
  O2-  O149  1  0.07242803  0.67793103  0.75692479  1
  O2-  O150  1  0.57165220  0.17684009  0.09223157  1
  O2-  O151  1  0.57716157  0.17548709  0.42092505  1
  O2-  O152  1  0.56794642  0.17963453  0.76746403  1
  O2-  O153  1  0.57321136  0.68323984  0.09531120  1
  O2-  O154  1  0.57461621  0.68496077  0.43306888  1
  O2-  O155  1  0.57301673  0.68082285  0.75614350  1
  O2-  O156  1  0.18140659  0.43404692  0.23268303  1
  O2-  O157  1  0.17663342  0.43092223  0.57763005  1
  O2-  O158  1  0.18233827  0.42835640  0.90963543  1
  O2-  O159  1  0.17474216  0.92855134  0.23391706  1
  O2-  O160  1  0.17866121  0.92684723  0.57085404  1
  O2-  O161  1  0.17463105  0.92773687  0.91007225  1
  O2-  O162  1  0.67648144  0.42297408  0.24493435  1
  O2-  O163  1  0.67731226  0.43211329  0.56829820  1
  O2-  O164  1  0.67793236  0.42345195  0.91389708  1
  O2-  O165  1  0.68541721  0.93133361  0.24102989  1
  O2-  O166  1  0.68183371  0.92931237  0.56733406  1
  O2-  O167  1  0.67843019  0.93170696  0.91188344  1
  O2-  O168  1  0.42771868  0.31850033  0.09171090  1
  O2-  O169  1  0.43147972  0.32082650  0.43121260  1
  O2-  O170  1  0.42836982  0.32428171  0.76670309  1
  O2-  O171  1  0.42806223  0.82261827  0.09603231  1
  O2-  O172  1  0.43045939  0.82298859  0.43103976  1
  O2-  O173  1  0.42771640  0.81616511  0.76495870  1
  O2-  O174  1  0.93069137  0.32227088  0.09604640  1
  O2-  O175  1  0.92980928  0.32119078  0.43329648  1
  O2-  O176  1  0.93350264  0.32526946  0.75543346  1
  O2-  O177  1  0.92935573  0.82401253  0.09048500  1
  O2-  O178  1  0.92466570  0.81955003  0.42423808  1
  O2-  O179  1  0.92844506  0.81975365  0.75773907  1
  O2-  O180  1  0.32065841  0.06961686  0.23471861  1
  O2-  O181  1  0.31880246  0.07188880  0.57100237  1
  O2-  O182  1  0.32326122  0.07288673  0.91132684  1
  O2-  O183  1  0.32061410  0.57117350  0.24298811  1
  O2-  O184  1  0.31615041  0.57334247  0.57358651  1
  O2-  O185  1  0.31824766  0.57011934  0.89968650  1
  O2-  O186  1  0.82002458  0.06956434  0.24050665  1
  O2-  O187  1  0.82477142  0.06675042  0.57625858  1
  O2-  O188  1  0.82284879  0.06676283  0.91006491  1
  O2-  O189  1  0.81966133  0.57221514  0.23479685  1
  O2-  O190  1  0.82233171  0.57118079  0.57059737  1
  O2-  O191  1  0.81930147  0.56942511  0.90428010  1
  O2-  O192  1  0.03978313  0.07956926  0.26493916  1
  O2-  O193  1  0.03752620  0.08055411  0.59840422  1
  O2-  O194  1  0.04024268  0.07971591  0.92931987  1
  O2-  O195  1  0.03876326  0.58883899  0.26977479  1
  O2-  O196  1  0.04397584  0.58566532  0.60430958  1
  O2-  O197  1  0.04482983  0.58763681  0.93843180  1
  O2-  O198  1  0.55044730  0.08278163  0.26869116  1
  O2-  O199  1  0.54431040  0.08059775  0.60088357  1
  O2-  O200  1  0.54018587  0.08662539  0.94080220  1
  O2-  O201  1  0.55597927  0.57978531  0.26645969  1
  O2-  O202  1  0.55040232  0.58604896  0.60527966  1
  O2-  O203  1  0.54717919  0.57749203  0.93228366  1
  O2-  O204  1  0.16945703  0.20622400  0.26577457  1
  O2-  O205  1  0.16448110  0.21082561  0.59790722  1
  O2-  O206  1  0.17023363  0.20641831  0.92885971  1
  O2-  O207  1  0.16275392  0.70149892  0.26978566  1
  O2-  O208  1  0.16058471  0.70622069  0.60085981  1
  O2-  O209  1  0.16085656  0.70872814  0.93744473  1
  O2-  O210  1  0.66667388  0.20318532  0.26733943  1
  O2-  O211  1  0.67392829  0.20047107  0.60233598  1
  O2-  O212  1  0.66355413  0.19956224  0.93908239  1
  O2-  O213  1  0.66881938  0.71725494  0.26493834  1
  O2-  O214  1  0.66892794  0.70753980  0.60802124  1
  O2-  O215  1  0.66988382  0.71049457  0.93007353  1
  O2-  O216  1  0.08683290  0.45521186  0.06003668  1
  O2-  O217  1  0.08814610  0.46586938  0.40340366  1
  O2-  O218  1  0.09153392  0.46164022  0.73335833  1
  O2-  O219  1  0.08387231  0.95586902  0.06162278  1
  O2-  O220  1  0.07668641  0.95310401  0.40002663  1
  O2-  O221  1  0.07793383  0.95340254  0.73472023  1
  O2-  O222  1  0.58390354  0.44986588  0.06480420  1
  O2-  O223  1  0.58265022  0.45269913  0.39562055  1
  O2-  O224  1  0.57895394  0.45732512  0.73581374  1
  O2-  O225  1  0.58712126  0.95950083  0.06499877  1
  O2-  O226  1  0.58857698  0.95426482  0.39240765  1
  O2-  O227  1  0.58193567  0.95973738  0.73769862  1
  O2-  O228  1  0.20566142  0.33295955  0.06055314  1
  O2-  O229  1  0.21007184  0.33339924  0.39916123  1
  O2-  O230  1  0.20470283  0.33656798  0.73028916  1
  O2-  O231  1  0.20298336  0.83749482  0.06284133  1
  O2-  O232  1  0.19852102  0.82552992  0.39846958  1
  O2-  O233  1  0.20512516  0.82709023  0.73485686  1
  O2-  O234  1  0.70165001  0.32951125  0.06436611  1
  O2-  O235  1  0.70046190  0.33152298  0.39649950  1
  O2-  O236  1  0.70355317  0.32884953  0.73500664  1
  O2-  O237  1  0.70896834  0.83917094  0.06398983  1
  O2-  O238  1  0.71588349  0.84234769  0.39532035  1
  O2-  O239  1  0.71428412  0.83877873  0.73851294  1
  O2-  O240  1  0.46009003  0.41562382  0.26199827  1
  O2-  O241  1  0.45483320  0.42289664  0.59854478  1
  O2-  O242  1  0.45522479  0.41306689  0.94063109  1
  O2-  O243  1  0.46020375  0.91866673  0.26359021  1
  O2-  O244  1  0.45877633  0.91720226  0.60142460  1
  O2-  O245  1  0.45859927  0.91978787  0.93200799  1
  O2-  O246  1  0.96078565  0.42208580  0.26874175  1
  O2-  O247  1  0.96017476  0.41781561  0.60541264  1
  O2-  O248  1  0.95731579  0.42098613  0.92957154  1
  O2-  O249  1  0.95272121  0.91224395  0.26980640  1
  O2-  O250  1  0.95485814  0.91006621  0.60292480  1
  O2-  O251  1  0.95550193  0.91179820  0.93541026  1
  O2-  O252  1  0.33433500  0.28945952  0.26250973  1
  O2-  O253  1  0.33002369  0.29476670  0.60113694  1
  O2-  O254  1  0.33847406  0.29238945  0.93828213  1
  O2-  O255  1  0.32682079  0.79667900  0.26605007  1
  O2-  O256  1  0.33239904  0.78647679  0.59793229  1
  O2-  O257  1  0.32702989  0.79400208  0.93209742  1
  O2-  O258  1  0.83019743  0.29795984  0.26580591  1
  O2-  O259  1  0.83359305  0.30580269  0.60693039  1
  O2-  O260  1  0.82966375  0.29250434  0.93084126  1
  O2-  O261  1  0.83943819  0.78979283  0.26843730  1
  O2-  O262  1  0.83600220  0.79198267  0.60482311  1
  O2-  O263  1  0.83611057  0.79397371  0.93860662  1
  O2-  O264  1  0.41154734  0.04305258  0.06514721  1
  O2-  O265  1  0.42255062  0.04427436  0.39987314  1
  O2-  O266  1  0.41809883  0.04453290  0.73668396  1
  O2-  O267  1  0.41903128  0.54335680  0.06702423  1
  O2-  O268  1  0.42116844  0.55005938  0.39019877  1
  O2-  O269  1  0.41381495  0.55013333  0.72518798  1
  O2-  O270  1  0.91253643  0.03875488  0.06318175  1
  O2-  O271  1  0.91035268  0.04076956  0.39443946  1
  O2-  O272  1  0.91234326  0.03682267  0.73111358  1
  O2-  O273  1  0.91926356  0.54202260  0.06848136  1
  O2-  O274  1  0.91618271  0.54282200  0.40322133  1
  O2-  O275  1  0.92164867  0.54402265  0.73683380  1
  O2-  O276  1  0.29261732  0.16366774  0.06278135  1
  O2-  O277  1  0.29508279  0.16931140  0.40049898  1
  O2-  O278  1  0.28839543  0.17015300  0.73655647  1
  O2-  O279  1  0.28648847  0.66672490  0.06797772  1
  O2-  O280  1  0.29594120  0.66447696  0.39449713  1
  O2-  O281  1  0.28550954  0.65998336  0.72839552  1
  O2-  O282  1  0.79424579  0.16235296  0.06143949  1
  O2-  O283  1  0.79741650  0.16627423  0.39204356  1
  O2-  O284  1  0.80825542  0.16893427  0.72507303  1
  O2-  O285  1  0.79082016  0.66803669  0.06909700  1
  O2-  O286  1  0.78929748  0.66785051  0.40157752  1
  O2-  O287  1  0.79619704  0.66962872  0.73749683  1
