# generated using pymatgen
data_Ca2Al2SiO7
_symmetry_space_group_name_H-M   'P 1'
_cell_length_a   15.46223871
_cell_length_b   15.46200049
_cell_length_c   15.28743664
_cell_angle_alpha   90.00916572
_cell_angle_beta   89.99300610
_cell_angle_gamma   89.99336255
_symmetry_Int_Tables_number   1
_chemical_formula_structural   Ca2Al2SiO7
_chemical_formula_sum   'Ca48 Al48 Si24 O168'
_cell_volume   3654.87656863
_cell_formula_units_Z   24
loop_
 _symmetry_equiv_pos_site_id
 _symmetry_equiv_pos_as_xyz
  1  'x, y, z'
loop_
 _atom_type_symbol
 _atom_type_oxidation_number
  Ca2+  2.0
  Al0+  0.0
  Si0+  0.0
  O2-  -2.0
loop_
 _atom_site_type_symbol
 _atom_site_label
 _atom_site_symmetry_multiplicity
 _atom_site_fract_x
 _atom_site_fract_y
 _atom_site_fract_z
 _atom_site_occupancy
  Ca2+  Ca0  1  0.17438502  0.08783430  0.16770977  1
  Ca2+  Ca1  1  0.18020443  0.08069772  0.50107766  1
  Ca2+  Ca2  1  0.17553042  0.09051893  0.83975216  1
  Ca2+  Ca3  1  0.15953722  0.57090926  0.17438276  1
  Ca2+  Ca4  1  0.15702813  0.58150324  0.50204162  1
  Ca2+  Ca5  1  0.16427955  0.57979498  0.83855666  1
  Ca2+  Ca6  1  0.67789460  0.07161826  0.17385167  1
  Ca2+  Ca7  1  0.67278182  0.07222930  0.50883525  1
  Ca2+  Ca8  1  0.67549411  0.07346205  0.83717854  1
  Ca2+  Ca9  1  0.66176316  0.58811655  0.17005367  1
  Ca2+  Ca10  1  0.66166714  0.57860880  0.50318291  1
  Ca2+  Ca11  1  0.66105544  0.57829643  0.83901163  1
  Ca2+  Ca12  1  0.08735576  0.32999247  0.16039803  1
  Ca2+  Ca13  1  0.08288850  0.33194911  0.49423358  1
  Ca2+  Ca14  1  0.08491408  0.32908361  0.83668603  1
  Ca2+  Ca15  1  0.06948807  0.84131776  0.16326441  1
  Ca2+  Ca16  1  0.07313172  0.82724245  0.49208488  1
  Ca2+  Ca17  1  0.06946990  0.83516106  0.82431064  1
  Ca2+  Ca18  1  0.56829743  0.32983240  0.16160023  1
  Ca2+  Ca19  1  0.58165247  0.32491805  0.49640740  1
  Ca2+  Ca20  1  0.57902678  0.32522277  0.82556827  1
  Ca2+  Ca21  1  0.59041141  0.83016068  0.16667355  1
  Ca2+  Ca22  1  0.58424239  0.83475936  0.49090174  1
  Ca2+  Ca23  1  0.59187566  0.83373898  0.83270734  1
  Ca2+  Ca24  1  0.32585148  0.41108906  0.17206471  1
  Ca2+  Ca25  1  0.33210409  0.41641173  0.49689077  1
  Ca2+  Ca26  1  0.32857691  0.41616450  0.84341851  1
  Ca2+  Ca27  1  0.33802848  0.92797809  0.17403409  1
  Ca2+  Ca28  1  0.34248902  0.92543700  0.50309055  1
  Ca2+  Ca29  1  0.33343519  0.93140472  0.83813488  1
  Ca2+  Ca30  1  0.83228159  0.42160149  0.17198638  1
  Ca2+  Ca31  1  0.82501029  0.42051138  0.50743946  1
  Ca2+  Ca32  1  0.82495507  0.41682752  0.83323764  1
  Ca2+  Ca33  1  0.82968770  0.91726040  0.17122322  1
  Ca2+  Ca34  1  0.82739368  0.91702983  0.50403093  1
  Ca2+  Ca35  1  0.82814866  0.91624287  0.83927327  1
  Ca2+  Ca36  1  0.40661454  0.17357992  0.16235624  1
  Ca2+  Ca37  1  0.42160080  0.16401986  0.49528567  1
  Ca2+  Ca38  1  0.41871109  0.16659403  0.82989921  1
  Ca2+  Ca39  1  0.42733592  0.67327866  0.16530772  1
  Ca2+  Ca40  1  0.42437049  0.67760880  0.48838590  1
  Ca2+  Ca41  1  0.42212888  0.66867452  0.83277654  1
  Ca2+  Ca42  1  0.92169299  0.15841263  0.15956615  1
  Ca2+  Ca43  1  0.91114832  0.16282345  0.49646007  1
  Ca2+  Ca44  1  0.91857696  0.15742454  0.83101640  1
  Ca2+  Ca45  1  0.91906830  0.67982118  0.16567268  1
  Ca2+  Ca46  1  0.92165852  0.67883550  0.49529564  1
  Ca2+  Ca47  1  0.92088620  0.67965231  0.82691625  1
  Al0+  Al48  1  0.00167695  0.00112999  -0.00840462  1
  Al0+  Al49  1  0.00319884  0.00147709  0.33371648  1
  Al0+  Al50  1  0.00177227  0.00091949  0.66096572  1
  Al0+  Al51  1  -0.00178312  0.49895477  0.00261169  1
  Al0+  Al52  1  -0.00141665  0.49803066  0.33581165  1
  Al0+  Al53  1  -0.00105301  0.49810169  0.66600473  1
  Al0+  Al54  1  0.50094206  0.00056431  0.00864615  1
  Al0+  Al55  1  0.50333954  0.00078020  0.33633900  1
  Al0+  Al56  1  0.50169981  0.00160132  0.67234466  1
  Al0+  Al57  1  0.49770910  0.50070421  -0.00689103  1
  Al0+  Al58  1  0.49695399  0.49811379  0.32713969  1
  Al0+  Al59  1  0.49645796  0.49964762  0.67052833  1
  Al0+  Al60  1  0.24800545  0.25218614  -0.00147992  1
  Al0+  Al61  1  0.24885538  0.25094513  0.34047928  1
  Al0+  Al62  1  0.24904489  0.25271147  0.66893945  1
  Al0+  Al63  1  0.25164239  0.74986694  0.00049371  1
  Al0+  Al64  1  0.25122614  0.74767022  0.32436332  1
  Al0+  Al65  1  0.25125863  0.74867653  0.66405614  1
  Al0+  Al66  1  0.74897609  0.25102715  0.00442577  1
  Al0+  Al67  1  0.74991759  0.25148491  0.33393104  1
  Al0+  Al68  1  0.74850890  0.25014129  0.67026022  1
  Al0+  Al69  1  0.75034210  0.74765994  -0.00576560  1
  Al0+  Al70  1  0.75258090  0.74872990  0.33112750  1
  Al0+  Al71  1  0.75124141  0.74824448  0.66514707  1
  Al0+  Al72  1  0.67629739  0.42998532  0.68007275  1
  Al0+  Al73  1  0.82420586  0.07274970  0.34869677  1
  Al0+  Al74  1  0.68092282  0.92600909  0.01715509  1
  Al0+  Al75  1  0.07150069  0.67546324  0.31670490  1
  Al0+  Al76  1  0.17940425  0.43234634  0.01374034  1
  Al0+  Al77  1  0.92776440  0.82293632  0.64897862  1
  Al0+  Al78  1  0.32037910  0.07185778  0.68127154  1
  Al0+  Al79  1  0.82357633  0.07146142  0.01493047  1
  Al0+  Al80  1  0.42847834  0.31893073  0.98531350  1
  Al0+  Al81  1  0.17860967  0.43098614  0.34968728  1
  Al0+  Al82  1  0.07249257  0.67764708  0.65228130  1
  Al0+  Al83  1  0.42897204  0.82553489  0.31826565  1
  Al0+  Al84  1  0.93077011  0.82054900  0.98424848  1
  Al0+  Al85  1  0.82342994  0.07167588  0.68199189  1
  Al0+  Al86  1  0.31988448  0.07145323  0.01410850  1
  Al0+  Al87  1  0.68235423  0.92728795  0.34969366  1
  Al0+  Al88  1  0.56934271  0.68162214  0.98411164  1
  Al0+  Al89  1  0.06871417  0.18131628  0.98663736  1
  Al0+  Al90  1  0.67992440  0.92645030  0.68282489  1
  Al0+  Al91  1  0.57135129  0.67856998  0.31974308  1
  Al0+  Al92  1  0.93177849  0.82255830  0.31661277  1
  Al0+  Al93  1  0.32124437  0.07041923  0.34713735  1
  Al0+  Al94  1  0.57048129  0.17936481  0.65406531  1
  Al0+  Al95  1  0.42839347  0.31716840  0.32041135  1
  Si0+  Si96  1  0.92696824  0.32104721  0.31957925  1
  Si0+  Si97  1  0.67520830  0.42896042  0.01624179  1
  Si0+  Si98  1  0.17711164  0.43045484  0.68358747  1
  Si0+  Si99  1  0.07074470  0.18146812  0.32046880  1
  Si0+  Si100  1  0.82182532  0.56960280  0.68372750  1
  Si0+  Si101  1  0.81878642  0.56855580  0.01471632  1
  Si0+  Si102  1  0.42650493  0.82543257  0.98239114  1
  Si0+  Si103  1  0.56991595  0.67628199  0.65297509  1
  Si0+  Si104  1  0.07357827  0.18038943  0.64952476  1
  Si0+  Si105  1  0.17835949  0.92696824  0.01406128  1
  Si0+  Si106  1  0.18009960  0.92691891  0.68059222  1
  Si0+  Si107  1  0.57335657  0.17742302  0.98454174  1
  Si0+  Si108  1  0.07197161  0.67536782  0.98477007  1
  Si0+  Si109  1  0.32375672  0.57346166  0.01812824  1
  Si0+  Si110  1  0.92864592  0.31978453  0.65202498  1
  Si0+  Si111  1  0.42630242  0.32304859  0.64893822  1
  Si0+  Si112  1  0.17921729  0.92549087  0.34810236  1
  Si0+  Si113  1  0.43096756  0.82116933  0.65438178  1
  Si0+  Si114  1  0.67533740  0.42944933  0.34669749  1
  Si0+  Si115  1  0.32020121  0.57249377  0.68214651  1
  Si0+  Si116  1  0.32287900  0.57168868  0.34935896  1
  Si0+  Si117  1  0.82024563  0.56867129  0.34854206  1
  Si0+  Si118  1  0.92489797  0.32468156  0.98333912  1
  Si0+  Si119  1  0.57454563  0.17812911  0.31592566  1
  O2-  O120  1  0.24947668  -0.00779552  0.05961442  1
  O2-  O121  1  0.25372392  -0.01187754  0.39294185  1
  O2-  O122  1  0.24475940  -0.00201285  0.72746319  1
  O2-  O123  1  0.25051203  0.50948191  0.06148547  1
  O2-  O124  1  0.24929624  0.50950891  0.39651426  1
  O2-  O125  1  0.24715020  0.50300902  0.72393715  1
  O2-  O126  1  0.75269381  -0.00068941  0.06530085  1
  O2-  O127  1  0.75345899  0.00047573  0.39896212  1
  O2-  O128  1  0.75599707  -0.00475862  0.73123534  1
  O2-  O129  1  0.74748471  0.49824606  0.05879126  1
  O2-  O130  1  0.74516714  0.50104056  0.38988441  1
  O2-  O131  1  0.74840457  0.50631815  0.72885575  1
  O2-  O132  1  -0.00634472  0.24617225  0.27875534  1
  O2-  O133  1  -0.00257988  0.24697274  0.60871520  1
  O2-  O134  1  -0.01101943  0.25150439  0.93980064  1
  O2-  O135  1  0.00670905  0.75299649  0.26598190  1
  O2-  O136  1  0.00252096  0.75108793  0.60271135  1
  O2-  O137  1  0.00991973  0.74865031  0.93939811  1
  O2-  O138  1  0.50095706  0.24179857  0.27170425  1
  O2-  O139  1  0.49454018  0.25355103  0.60639568  1
  O2-  O140  1  0.50377729  0.24518239  0.93907116  1
  O2-  O141  1  0.50233195  0.75356781  0.26998786  1
  O2-  O142  1  0.50449899  0.75233709  0.61195288  1
  O2-  O143  1  0.49623407  0.75790275  0.93707404  1
  O2-  O144  1  0.07090217  0.18486859  0.09994765  1
  O2-  O145  1  0.07266505  0.18506128  0.42585640  1
  O2-  O146  1  0.07694700  0.18427042  0.75437395  1
  O2-  O147  1  0.06729969  0.67165165  0.08962814  1
  O2-  O148  1  0.06545266  0.67464938  0.43019181  1
  O2-  O149  1  0.07136521  0.67687382  0.76625069  1
  O2-  O150  1  0.57432139  0.18165993  0.09004828  1
  O2-  O151  1  0.57593629  0.18250905  0.42170052  1
  O2-  O152  1  0.56780220  0.18238915  0.76718766  1
  O2-  O153  1  0.56816831  0.67856344  0.09655141  1
  O2-  O154  1  0.56818224  0.67444224  0.43384682  1
  O2-  O155  1  0.56591755  0.67322780  0.75794753  1
  O2-  O156  1  0.17906439  0.42846939  0.23687448  1
  O2-  O157  1  0.17662223  0.42874266  0.57876051  1
  O2-  O158  1  0.17970195  0.43387727  0.90004055  1
  O2-  O159  1  0.17553751  0.93183314  0.24265275  1
  O2-  O160  1  0.18424411  0.92687803  0.57504044  1
  O2-  O161  1  0.18017814  0.92741341  0.90820068  1
  O2-  O162  1  0.67794599  0.42907334  0.24148410  1
  O2-  O163  1  0.67769632  0.43216074  0.56654098  1
  O2-  O164  1  0.67613940  0.42983312  0.91103291  1
  O2-  O165  1  0.68415267  0.92714890  0.23636589  1
  O2-  O166  1  0.67692053  0.92678775  0.56973818  1
  O2-  O167  1  0.68209798  0.92650062  0.90355668  1
  O2-  O168  1  0.42828552  0.31840531  0.09848832  1
  O2-  O169  1  0.43108134  0.31855360  0.43366015  1
  O2-  O170  1  0.42529836  0.32438909  0.75454842  1
  O2-  O171  1  0.42385831  0.82291308  0.08727438  1
  O2-  O172  1  0.43002196  0.82283622  0.43290449  1
  O2-  O173  1  0.42833967  0.81809911  0.75939183  1
  O2-  O174  1  0.92664048  0.32940246  0.08890489  1
  O2-  O175  1  0.92697821  0.32381771  0.42489546  1
  O2-  O176  1  0.93091418  0.32393315  0.75689181  1
  O2-  O177  1  0.93123516  0.81926895  0.09708007  1
  O2-  O178  1  0.93142988  0.82047159  0.42978965  1
  O2-  O179  1  0.92919723  0.82001675  0.76291887  1
  O2-  O180  1  0.31457654  0.07450644  0.23439303  1
  O2-  O181  1  0.31976128  0.07097773  0.56818046  1
  O2-  O182  1  0.31788703  0.07187991  0.90071737  1
  O2-  O183  1  0.32612023  0.56560685  0.24428815  1
  O2-  O184  1  0.32419611  0.57134359  0.57766448  1
  O2-  O185  1  0.32362452  0.57202751  0.91177459  1
  O2-  O186  1  0.82324478  0.07411522  0.23542029  1
  O2-  O187  1  0.81913330  0.07375936  0.56878637  1
  O2-  O188  1  0.82197205  0.07095735  0.90167215  1
  O2-  O189  1  0.82189693  0.56510266  0.24318471  1
  O2-  O190  1  0.82259800  0.56541806  0.57802854  1
  O2-  O191  1  0.81876112  0.56527597  0.90958336  1
  O2-  O192  1  0.05100983  0.08847532  0.27263953  1
  O2-  O193  1  0.05404987  0.08729429  0.60168821  1
  O2-  O194  1  0.04622559  0.08513475  0.92791586  1
  O2-  O195  1  0.03458009  0.57829796  0.26535784  1
  O2-  O196  1  0.04128867  0.57869510  0.60104844  1
  O2-  O197  1  0.03998042  0.58375349  0.93695574  1
  O2-  O198  1  0.55446953  0.08304072  0.27310934  1
  O2-  O199  1  0.53855851  0.08290168  0.60052888  1
  O2-  O200  1  0.54744878  0.08287703  0.94142612  1
  O2-  O201  1  0.54005608  0.58153804  0.26467456  1
  O2-  O202  1  0.53636330  0.58613787  0.60520108  1
  O2-  O203  1  0.53557942  0.58603172  0.92812016  1
  O2-  O204  1  0.15978619  0.21687065  0.27319728  1
  O2-  O205  1  0.16277273  0.21595226  0.60098313  1
  O2-  O206  1  0.16171205  0.21977606  0.92984584  1
  O2-  O207  1  0.17339339  0.68979061  0.26684658  1
  O2-  O208  1  0.17260460  0.70096221  0.59950037  1
  O2-  O209  1  0.16954531  0.69308037  0.94335496  1
  O2-  O210  1  0.66553168  0.21067462  0.26820499  1
  O2-  O211  1  0.66589728  0.21413559  0.59998526  1
  O2-  O212  1  0.66642348  0.20609348  0.93842707  1
  O2-  O213  1  0.67113779  0.70120015  0.26759997  1
  O2-  O214  1  0.66464277  0.69486480  0.60836739  1
  O2-  O215  1  0.66641053  0.70601880  0.92807367  1
  O2-  O216  1  0.08109059  0.45825695  0.06769751  1
  O2-  O217  1  0.08053878  0.45789020  0.40410006  1
  O2-  O218  1  0.08480489  0.45595990  0.73148684  1
  O2-  O219  1  0.08620275  0.95783358  0.05882068  1
  O2-  O220  1  0.08965498  0.95864286  0.39811740  1
  O2-  O221  1  0.08517967  0.95124937  0.72354873  1
  O2-  O222  1  0.58341482  0.46004007  0.06130708  1
  O2-  O223  1  0.58354494  0.45656888  0.39395937  1
  O2-  O224  1  0.57963574  0.45916791  0.73538257  1
  O2-  O225  1  0.58170807  0.95132135  0.06945479  1
  O2-  O226  1  0.58331946  0.95488820  0.40189728  1
  O2-  O227  1  0.58305055  0.95750366  0.73764282  1
  O2-  O228  1  0.21282147  0.33695582  0.06718448  1
  O2-  O229  1  0.21292486  0.33715961  0.40706098  1
  O2-  O230  1  0.20715735  0.33992477  0.73207091  1
  O2-  O231  1  0.19788071  0.83162273  0.05956904  1
  O2-  O232  1  0.19714898  0.82809828  0.38884594  1
  O2-  O233  1  0.20690311  0.83378254  0.72734438  1
  O2-  O234  1  0.70073506  0.33769041  0.06520849  1
  O2-  O235  1  0.70524865  0.33892959  0.39537073  1
  O2-  O236  1  0.71082225  0.33631914  0.73635135  1
  O2-  O237  1  0.71095995  0.82602618  0.06592272  1
  O2-  O238  1  0.70964358  0.82725834  0.40088063  1
  O2-  O239  1  0.70429165  0.82506123  0.73289907  1
  O2-  O240  1  0.45916256  0.41206683  0.26388570  1
  O2-  O241  1  0.45291619  0.41698593  0.60376644  1
  O2-  O242  1  0.45759571  0.41545747  0.93017876  1
  O2-  O243  1  0.45590975  0.92476440  0.26681193  1
  O2-  O244  1  0.45690070  0.91390869  0.60899183  1
  O2-  O245  1  0.45121188  0.92059983  0.93922769  1
  O2-  O246  1  0.95888690  0.41042032  0.27032713  1
  O2-  O247  1  0.95904977  0.41005408  0.60232804  1
  O2-  O248  1  0.95628533  0.41564486  0.93416968  1
  O2-  O249  1  0.96142206  0.92170704  0.26480129  1
  O2-  O250  1  0.95576296  0.92120821  0.59587590  1
  O2-  O251  1  0.96091327  0.91592485  0.92815488  1
  O2-  O252  1  0.33026049  0.28676448  0.26914659  1
  O2-  O253  1  0.33173525  0.29885439  0.60419463  1
  O2-  O254  1  0.33252944  0.28896774  0.93031157  1
  O2-  O255  1  0.33109042  0.79912344  0.26322714  1
  O2-  O256  1  0.34078591  0.79120669  0.60503566  1
  O2-  O257  1  0.33319303  0.79827182  0.93436933  1
  O2-  O258  1  0.83372903  0.30069498  0.27107350  1
  O2-  O259  1  0.83582011  0.29571208  0.60518609  1
  O2-  O260  1  0.82865622  0.30516178  0.94003934  1
  O2-  O261  1  0.83566931  0.78756519  0.26401193  1
  O2-  O262  1  0.83050072  0.78931231  0.59613242  1
  O2-  O263  1  0.83729960  0.78281724  0.92957849  1
  O2-  O264  1  0.41696389  0.04722959  0.06939451  1
  O2-  O265  1  0.42011848  0.04701778  0.39994155  1
  O2-  O266  1  0.41527685  0.04035867  0.73687882  1
  O2-  O267  1  0.41575893  0.54188904  0.06299525  1
  O2-  O268  1  0.41372593  0.53802250  0.39787751  1
  O2-  O269  1  0.40970409  0.54233946  0.73341675  1
  O2-  O270  1  0.92480969  0.04474699  0.06273779  1
  O2-  O271  1  0.92518731  0.04985038  0.39917105  1
  O2-  O272  1  0.92691497  0.05122571  0.72826973  1
  O2-  O273  1  0.90914104  0.53916581  0.06405618  1
  O2-  O274  1  0.90814425  0.53412688  0.39877993  1
  O2-  O275  1  0.91272876  0.53688161  0.73158611  1
  O2-  O276  1  0.28199787  0.16643513  0.06622188  1
  O2-  O277  1  0.28311085  0.16303567  0.40438031  1
  O2-  O278  1  0.28845608  0.16931972  0.73360198  1
  O2-  O279  1  0.30541324  0.66938077  0.06186729  1
  O2-  O280  1  0.30515584  0.66860076  0.39171728  1
  O2-  O281  1  0.29479877  0.66428753  0.73164635  1
  O2-  O282  1  0.79889390  0.17228245  0.06664862  1
  O2-  O283  1  0.79649360  0.17355198  0.39913945  1
  O2-  O284  1  0.79391975  0.16970026  0.73525685  1
  O2-  O285  1  0.79034149  0.65977866  0.06132319  1
  O2-  O286  1  0.79571687  0.66052571  0.39601497  1
  O2-  O287  1  0.80087876  0.66436493  0.72780821  1
