# generated using pymatgen
data_Ca2Al2SiO7
_symmetry_space_group_name_H-M   'P 1'
_cell_length_a   15.46102841
_cell_length_b   15.46002979
_cell_length_c   15.28600060
_cell_angle_alpha   90.00849436
_cell_angle_beta   90.01717937
_cell_angle_gamma   90.00296517
_symmetry_Int_Tables_number   1
_chemical_formula_structural   Ca2Al2SiO7
_chemical_formula_sum   'Ca48 Al48 Si24 O168'
_cell_volume   3653.78132754
_cell_formula_units_Z   24
loop_
 _symmetry_equiv_pos_site_id
 _symmetry_equiv_pos_as_xyz
  1  'x, y, z'
loop_
 _atom_type_symbol
 _atom_type_oxidation_number
  Ca2+  2.0
  Al0+  0.0
  Si0+  0.0
  O2-  -2.0
loop_
 _atom_site_type_symbol
 _atom_site_label
 _atom_site_symmetry_multiplicity
 _atom_site_fract_x
 _atom_site_fract_y
 _atom_site_fract_z
 _atom_site_occupancy
  Ca2+  Ca0  1  0.15415751  0.07317880  0.16616218  1
  Ca2+  Ca1  1  0.16694720  0.07114229  0.50918192  1
  Ca2+  Ca2  1  0.16299098  0.07730439  0.83692711  1
  Ca2+  Ca3  1  0.16293836  0.57456264  0.17201930  1
  Ca2+  Ca4  1  0.15246079  0.57890257  0.50161557  1
  Ca2+  Ca5  1  0.17076352  0.58199243  0.84272406  1
  Ca2+  Ca6  1  0.67034092  0.07552673  0.16736799  1
  Ca2+  Ca7  1  0.67017014  0.07604214  0.50068447  1
  Ca2+  Ca8  1  0.67263578  0.07680428  0.84658483  1
  Ca2+  Ca9  1  0.67523194  0.57815250  0.18008679  1
  Ca2+  Ca10  1  0.66931360  0.58860246  0.49748629  1
  Ca2+  Ca11  1  0.66539106  0.58433801  0.83685833  1
  Ca2+  Ca12  1  0.07595524  0.33402029  0.15907913  1
  Ca2+  Ca13  1  0.08293122  0.32638215  0.49092653  1
  Ca2+  Ca14  1  0.08574952  0.32436016  0.83362872  1
  Ca2+  Ca15  1  0.07504007  0.83745616  0.16269944  1
  Ca2+  Ca16  1  0.08603668  0.82532043  0.49113063  1
  Ca2+  Ca17  1  0.08171235  0.83660889  0.82838912  1
  Ca2+  Ca18  1  0.58635720  0.32914554  0.16077645  1
  Ca2+  Ca19  1  0.58223037  0.33396804  0.49227687  1
  Ca2+  Ca20  1  0.58325696  0.32405102  0.83317683  1
  Ca2+  Ca21  1  0.59045192  0.83142796  0.16391458  1
  Ca2+  Ca22  1  0.57883215  0.82737036  0.49291105  1
  Ca2+  Ca23  1  0.57613223  0.83113184  0.82539862  1
  Ca2+  Ca24  1  0.32129161  0.42007942  0.16751998  1
  Ca2+  Ca25  1  0.32685047  0.41925821  0.49998651  1
  Ca2+  Ca26  1  0.32602319  0.42665168  0.84395323  1
  Ca2+  Ca27  1  0.31902854  0.91739594  0.16985361  1
  Ca2+  Ca28  1  0.32368253  0.91638658  0.50759681  1
  Ca2+  Ca29  1  0.32185430  0.91347302  0.83392772  1
  Ca2+  Ca30  1  0.83577367  0.41947567  0.17827061  1
  Ca2+  Ca31  1  0.83639248  0.42222758  0.49469370  1
  Ca2+  Ca32  1  0.83615691  0.41828353  0.83894234  1
  Ca2+  Ca33  1  0.83138683  0.91688825  0.16973547  1
  Ca2+  Ca34  1  0.82793097  0.90262611  0.49644390  1
  Ca2+  Ca35  1  0.82859942  0.92106694  0.84733786  1
  Ca2+  Ca36  1  0.42494660  0.16584452  0.16067840  1
  Ca2+  Ca37  1  0.41326734  0.16361493  0.49853832  1
  Ca2+  Ca38  1  0.42004260  0.15960057  0.83018938  1
  Ca2+  Ca39  1  0.42199985  0.66170625  0.16477762  1
  Ca2+  Ca40  1  0.42583453  0.67067638  0.49758557  1
  Ca2+  Ca41  1  0.41864173  0.67245613  0.82532686  1
  Ca2+  Ca42  1  0.91642260  0.17826471  0.15584127  1
  Ca2+  Ca43  1  0.92318567  0.17153305  0.49603721  1
  Ca2+  Ca44  1  0.92706918  0.16487314  0.83710897  1
  Ca2+  Ca45  1  0.91700628  0.67502055  0.16895978  1
  Ca2+  Ca46  1  0.92564096  0.67075736  0.49004553  1
  Ca2+  Ca47  1  0.92388243  0.67518248  0.83104774  1
  Al0+  Al48  1  -0.00262140  0.00218465  0.00008764  1
  Al0+  Al49  1  0.00078104  -0.00004115  0.33681918  1
  Al0+  Al50  1  -0.00287789  0.00235216  0.66451703  1
  Al0+  Al51  1  -0.00036070  0.50130795  -0.00128767  1
  Al0+  Al52  1  0.00013939  0.49912628  0.33550626  1
  Al0+  Al53  1  -0.00369686  0.50093706  0.66726681  1
  Al0+  Al54  1  0.49923769  -0.00227717  -0.00098489  1
  Al0+  Al55  1  0.50134100  0.00018508  0.33678598  1
  Al0+  Al56  1  0.49996567  0.00012520  0.66434662  1
  Al0+  Al57  1  0.50045898  0.50030215  0.00226187  1
  Al0+  Al58  1  0.49910976  0.49887365  0.33190788  1
  Al0+  Al59  1  0.50052979  0.49763262  0.66446410  1
  Al0+  Al60  1  0.25097593  0.25149175  0.00027524  1
  Al0+  Al61  1  0.25222003  0.25147576  0.33500767  1
  Al0+  Al62  1  0.25037848  0.24915843  0.66589723  1
  Al0+  Al63  1  0.25297641  0.75093409  0.00932625  1
  Al0+  Al64  1  0.25298855  0.74947576  0.33265973  1
  Al0+  Al65  1  0.24975483  0.74871801  0.66226103  1
  Al0+  Al66  1  0.74927271  0.24992730  -0.00703037  1
  Al0+  Al67  1  0.74995965  0.24905228  0.33499210  1
  Al0+  Al68  1  0.74846155  0.25092012  0.66695406  1
  Al0+  Al69  1  0.75021353  0.74843430  -0.00249755  1
  Al0+  Al70  1  0.75017126  0.74960423  0.33423010  1
  Al0+  Al71  1  0.75064473  0.74730818  0.66683680  1
  Al0+  Al72  1  0.17770831  0.93080084  0.01356140  1
  Al0+  Al73  1  0.92988914  0.31839149  0.32145556  1
  Al0+  Al74  1  0.17749091  0.92743272  0.68159265  1
  Al0+  Al75  1  0.57212238  0.67710305  0.65117472  1
  Al0+  Al76  1  0.82127744  0.57118369  0.34933796  1
  Al0+  Al77  1  0.07255412  0.17915342  0.98576162  1
  Al0+  Al78  1  0.32308084  0.57280933  0.01568722  1
  Al0+  Al79  1  0.07376104  0.67796455  0.31687399  1
  Al0+  Al80  1  0.67785081  0.42704253  0.34791053  1
  Al0+  Al81  1  0.17934050  0.43034440  0.34838786  1
  Al0+  Al82  1  0.92886495  0.82051495  0.98635170  1
  Al0+  Al83  1  0.07037554  0.67918911  0.65528494  1
  Al0+  Al84  1  0.17767933  0.42908768  0.01438477  1
  Al0+  Al85  1  0.67759111  0.92683136  0.01388268  1
  Al0+  Al86  1  0.92816761  0.32473548  0.98378730  1
  Al0+  Al87  1  0.56937914  0.17774752  0.98650445  1
  Al0+  Al88  1  0.56964543  0.67966395  0.31783143  1
  Al0+  Al89  1  0.32162927  0.07194175  0.68239846  1
  Al0+  Al90  1  0.82027317  0.07248256  0.01511151  1
  Al0+  Al91  1  0.07119644  0.17987477  0.65140435  1
  Al0+  Al92  1  0.92983407  0.82217450  0.31800641  1
  Al0+  Al93  1  0.42885382  0.82219336  0.65067216  1
  Al0+  Al94  1  0.17845191  0.92885207  0.34760320  1
  Al0+  Al95  1  0.68004348  0.92921988  0.34828852  1
  Si0+  Si96  1  0.07402622  0.68024066  0.98557875  1
  Si0+  Si97  1  0.82019123  0.57026824  0.68479666  1
  Si0+  Si98  1  0.82073253  0.57103380  0.01393083  1
  Si0+  Si99  1  0.67732642  0.42807696  0.68387031  1
  Si0+  Si100  1  0.81874797  0.07448000  0.68260690  1
  Si0+  Si101  1  0.32233343  0.56860497  0.67960529  1
  Si0+  Si102  1  0.68069903  0.92822284  0.68082745  1
  Si0+  Si103  1  0.67945551  0.42925826  0.01256676  1
  Si0+  Si104  1  0.92654991  0.32227909  0.64881919  1
  Si0+  Si105  1  0.32318820  0.07261881  0.01609860  1
  Si0+  Si106  1  0.82228666  0.07290872  0.35156170  1
  Si0+  Si107  1  0.57178211  0.17930182  0.65015708  1
  Si0+  Si108  1  0.42834172  0.32103696  0.31674287  1
  Si0+  Si109  1  0.42750786  0.82062475  0.98557999  1
  Si0+  Si110  1  0.57056127  0.67826015  0.98552970  1
  Si0+  Si111  1  0.17729673  0.42909709  0.68096465  1
  Si0+  Si112  1  0.07468802  0.17853699  0.31756815  1
  Si0+  Si113  1  0.92770146  0.82328058  0.65147122  1
  Si0+  Si114  1  0.42960293  0.82437512  0.31378911  1
  Si0+  Si115  1  0.42949377  0.32305125  0.98283559  1
  Si0+  Si116  1  0.57078997  0.17819908  0.31914314  1
  Si0+  Si117  1  0.32351548  0.57155812  0.35222344  1
  Si0+  Si118  1  0.32306676  0.07178362  0.34884540  1
  Si0+  Si119  1  0.42931780  0.32050740  0.65141776  1
  O2-  O120  1  0.24965304  0.00944645  0.05998613  1
  O2-  O121  1  0.25310017  0.00478742  0.39229971  1
  O2-  O122  1  0.24899618  0.00052164  0.73203884  1
  O2-  O123  1  0.24795419  0.50332351  0.06385632  1
  O2-  O124  1  0.24941847  0.50886586  0.39725933  1
  O2-  O125  1  0.24717763  0.50190674  0.72228389  1
  O2-  O126  1  0.74963511  -0.00145759  0.06395247  1
  O2-  O127  1  0.75769485  0.00024064  0.39676630  1
  O2-  O128  1  0.75157215  -0.00123035  0.72339568  1
  O2-  O129  1  0.75356708  0.49582822  0.05466358  1
  O2-  O130  1  0.74758665  0.49982493  0.39972509  1
  O2-  O131  1  0.74747953  0.49983926  0.72630741  1
  O2-  O132  1  0.00497238  0.24562614  0.27358717  1
  O2-  O133  1  -0.00226267  0.25631371  0.60513055  1
  O2-  O134  1  0.00211715  0.25359634  0.93568883  1
  O2-  O135  1  0.00470209  0.75314349  0.26760561  1
  O2-  O136  1  0.00164060  0.75964869  0.60944965  1
  O2-  O137  1  0.00835031  0.75084303  0.93934637  1
  O2-  O138  1  0.50123133  0.25068958  0.27678912  1
  O2-  O139  1  0.49765261  0.24698604  0.60812475  1
  O2-  O140  1  0.49372743  0.25085385  0.93723522  1
  O2-  O141  1  0.49739305  0.75521899  0.26847112  1
  O2-  O142  1  0.50280068  0.75136137  0.60153677  1
  O2-  O143  1  0.49948504  0.74932724  0.94411526  1
  O2-  O144  1  0.07022102  0.18031152  0.09930652  1
  O2-  O145  1  0.07484174  0.18101836  0.42361713  1
  O2-  O146  1  0.07072749  0.18109831  0.76404674  1
  O2-  O147  1  0.07108260  0.67896028  0.09053085  1
  O2-  O148  1  0.07018710  0.67900877  0.43096461  1
  O2-  O149  1  0.06783574  0.67536231  0.76857002  1
  O2-  O150  1  0.56837443  0.18021036  0.09985290  1
  O2-  O151  1  0.56884525  0.17815743  0.42468263  1
  O2-  O152  1  0.57351990  0.18129697  0.75497629  1
  O2-  O153  1  0.57113454  0.67647152  0.09015638  1
  O2-  O154  1  0.56683793  0.68047024  0.43084072  1
  O2-  O155  1  0.57019661  0.67702806  0.76545544  1
  O2-  O156  1  0.18230636  0.42709346  0.23597084  1
  O2-  O157  1  0.17867238  0.42924282  0.57585147  1
  O2-  O158  1  0.18048615  0.43142163  0.89977445  1
  O2-  O159  1  0.17851457  0.93194670  0.23433534  1
  O2-  O160  1  0.17914607  0.92814016  0.56810195  1
  O2-  O161  1  0.18022568  0.92740972  0.90071048  1
  O2-  O162  1  0.67880901  0.42639702  0.23395923  1
  O2-  O163  1  0.67686771  0.42476753  0.57956727  1
  O2-  O164  1  0.67615090  0.43287460  0.90693751  1
  O2-  O165  1  0.67697019  0.93306463  0.23590985  1
  O2-  O166  1  0.68212030  0.92915801  0.57573882  1
  O2-  O167  1  0.67764697  0.92717017  0.89940230  1
  O2-  O168  1  0.43329691  0.32365934  0.08847790  1
  O2-  O169  1  0.42713966  0.31979456  0.42227876  1
  O2-  O170  1  0.43290694  0.32375262  0.75610883  1
  O2-  O171  1  0.42786933  0.82193702  0.09030232  1
  O2-  O172  1  0.43160034  0.82460154  0.41934411  1
  O2-  O173  1  0.43011306  0.81957070  0.76496951  1
  O2-  O174  1  0.92623570  0.32496023  0.09721390  1
  O2-  O175  1  0.93085049  0.31551247  0.43504213  1
  O2-  O176  1  0.92545417  0.32252427  0.75408381  1
  O2-  O177  1  0.92604450  0.81748923  0.09864199  1
  O2-  O178  1  0.93046064  0.81970134  0.43215096  1
  O2-  O179  1  0.92443291  0.82069594  0.75725462  1
  O2-  O180  1  0.32679167  0.07170540  0.24328686  1
  O2-  O181  1  0.32003997  0.07280565  0.56866080  1
  O2-  O182  1  0.32611690  0.06896589  0.91091728  1
  O2-  O183  1  0.32661346  0.56618006  0.24698829  1
  O2-  O184  1  0.32648628  0.56367476  0.57503699  1
  O2-  O185  1  0.32436480  0.57160249  0.90105095  1
  O2-  O186  1  0.81827531  0.07651832  0.24671597  1
  O2-  O187  1  0.81497505  0.07948114  0.57763504  1
  O2-  O188  1  0.81788657  0.07021834  0.90064088  1
  O2-  O189  1  0.81932374  0.56961349  0.23529451  1
  O2-  O190  1  0.82187166  0.57004072  0.58053642  1
  O2-  O191  1  0.81748804  0.57208123  0.90820504  1
  O2-  O192  1  0.04937315  0.08408387  0.27509968  1
  O2-  O193  1  0.03717288  0.08447773  0.59620623  1
  O2-  O194  1  0.04021372  0.08267085  0.93083995  1
  O2-  O195  1  0.04195506  0.57972170  0.26655178  1
  O2-  O196  1  0.03316105  0.58409647  0.60110227  1
  O2-  O197  1  0.04589604  0.58796098  0.93780849  1
  O2-  O198  1  0.54030863  0.08759838  0.27116528  1
  O2-  O199  1  0.54794214  0.08688261  0.60232358  1
  O2-  O200  1  0.53927632  0.08099293  0.93172379  1
  O2-  O201  1  0.53812561  0.58218329  0.26497355  1
  O2-  O202  1  0.54283576  0.57846094  0.59941051  1
  O2-  O203  1  0.54246145  0.58631162  0.93728592  1
  O2-  O204  1  0.16880252  0.20396390  0.27310792  1
  O2-  O205  1  0.16834520  0.20981017  0.59775164  1
  O2-  O206  1  0.17263361  0.20501130  0.93330458  1
  O2-  O207  1  0.17560070  0.69878863  0.26814017  1
  O2-  O208  1  0.16818206  0.69984678  0.60018440  1
  O2-  O209  1  0.17031359  0.70294623  0.94361136  1
  O2-  O210  1  0.66254947  0.20465371  0.27244067  1
  O2-  O211  1  0.66168310  0.21188673  0.60155488  1
  O2-  O212  1  0.66290736  0.21090964  0.92796932  1
  O2-  O213  1  0.66714031  0.70813011  0.26586187  1
  O2-  O214  1  0.67183729  0.70323431  0.60058497  1
  O2-  O215  1  0.66154491  0.70470752  0.93565764  1
  O2-  O216  1  0.07860455  0.45695135  0.06587920  1
  O2-  O217  1  0.08284263  0.45644599  0.40419832  1
  O2-  O218  1  0.08428645  0.45495404  0.72654925  1
  O2-  O219  1  0.08104575  0.96070974  0.06672255  1
  O2-  O220  1  0.08250061  0.95806634  0.40384213  1
  O2-  O221  1  0.07683181  0.95638921  0.73070014  1
  O2-  O222  1  0.58929803  0.45857047  0.06175844  1
  O2-  O223  1  0.57793455  0.45325909  0.39942192  1
  O2-  O224  1  0.58531233  0.45500839  0.73202069  1
  O2-  O225  1  0.57905480  0.95480615  0.06631507  1
  O2-  O226  1  0.58518475  0.96449373  0.40440098  1
  O2-  O227  1  0.58826150  0.95651211  0.72600000  1
  O2-  O228  1  0.20846105  0.33159103  0.06792111  1
  O2-  O229  1  0.21637239  0.33499544  0.40339401  1
  O2-  O230  1  0.20844678  0.33841704  0.72760180  1
  O2-  O231  1  0.21179818  0.83695986  0.07018155  1
  O2-  O232  1  0.21143070  0.83167837  0.39931689  1
  O2-  O233  1  0.20681096  0.82768469  0.73289626  1
  O2-  O234  1  0.70165606  0.33527369  0.05636095  1
  O2-  O235  1  0.70536834  0.32869448  0.40240830  1
  O2-  O236  1  0.70643371  0.33651487  0.73234329  1
  O2-  O237  1  0.70638408  0.82766718  0.06442960  1
  O2-  O238  1  0.70823156  0.83262921  0.40299568  1
  O2-  O239  1  0.70662030  0.83542029  0.72756320  1
  O2-  O240  1  0.45503279  0.41185310  0.26824579  1
  O2-  O241  1  0.46073868  0.40971247  0.60089194  1
  O2-  O242  1  0.46082065  0.41498862  0.93526047  1
  O2-  O243  1  0.45658611  0.91846745  0.26960635  1
  O2-  O244  1  0.45677717  0.92064891  0.59716910  1
  O2-  O245  1  0.45484937  0.91123964  0.93592489  1
  O2-  O246  1  0.95824727  0.41567998  0.26967420  1
  O2-  O247  1  0.94917276  0.41717816  0.60481997  1
  O2-  O248  1  0.95511952  0.42357841  0.92914386  1
  O2-  O249  1  0.95492088  0.92301258  0.26803656  1
  O2-  O250  1  0.94255008  0.91906881  0.60667338  1
  O2-  O251  1  0.95414606  0.91861468  0.93366709  1
  O2-  O252  1  0.33816004  0.29075765  0.26747511  1
  O2-  O253  1  0.33729036  0.29572134  0.60284970  1
  O2-  O254  1  0.33464378  0.30316447  0.93792490  1
  O2-  O255  1  0.33599835  0.79888340  0.26838260  1
  O2-  O256  1  0.33221703  0.79125217  0.59672762  1
  O2-  O257  1  0.33633253  0.79089316  0.93757250  1
  O2-  O258  1  0.83223285  0.28878062  0.26841936  1
  O2-  O259  1  0.83304456  0.29365116  0.60369353  1
  O2-  O260  1  0.83034815  0.29644628  0.92866950  1
  O2-  O261  1  0.83126447  0.79260941  0.26672507  1
  O2-  O262  1  0.83649153  0.78979566  0.60489078  1
  O2-  O263  1  0.83425397  0.78444356  0.92950344  1
  O2-  O264  1  0.41427868  0.04132487  0.06447493  1
  O2-  O265  1  0.41573014  0.04616738  0.39744568  1
  O2-  O266  1  0.42264445  0.04588533  0.73262656  1
  O2-  O267  1  0.42000547  0.53914826  0.06968503  1
  O2-  O268  1  0.41374725  0.53725196  0.40017969  1
  O2-  O269  1  0.41254080  0.53631109  0.72894126  1
  O2-  O270  1  0.91827242  0.04797066  0.06834935  1
  O2-  O271  1  0.91709153  0.05222438  0.39715562  1
  O2-  O272  1  0.91212354  0.05052771  0.72749803  1
  O2-  O273  1  0.91365505  0.54843508  0.05989485  1
  O2-  O274  1  0.91766145  0.53941873  0.40438578  1
  O2-  O275  1  0.91026367  0.54015755  0.73517919  1
  O2-  O276  1  0.30668500  0.16918234  0.05942190  1
  O2-  O277  1  0.30052341  0.16639250  0.39451666  1
  O2-  O278  1  0.29783280  0.17254458  0.73408686  1
  O2-  O279  1  0.30236519  0.67080480  0.07117676  1
  O2-  O280  1  0.30759169  0.66820014  0.39465564  1
  O2-  O281  1  0.29814320  0.66177136  0.72515995  1
  O2-  O282  1  0.78819086  0.17138143  0.06487573  1
  O2-  O283  1  0.79017587  0.16315562  0.40143179  1
  O2-  O284  1  0.78608413  0.16424703  0.73139803  1
  O2-  O285  1  0.78773823  0.66020590  0.06189315  1
  O2-  O286  1  0.79211776  0.66855138  0.40344255  1
  O2-  O287  1  0.79263465  0.66191861  0.73378842  1
