# generated using pymatgen
data_Ca2Al2SiO7
_symmetry_space_group_name_H-M   'P 1'
_cell_length_a   15.45563066
_cell_length_b   15.45508230
_cell_length_c   15.28194540
_cell_angle_alpha   89.99231216
_cell_angle_beta   90.00113073
_cell_angle_gamma   90.00103746
_symmetry_Int_Tables_number   1
_chemical_formula_structural   Ca2Al2SiO7
_chemical_formula_sum   'Ca48 Al48 Si24 O168'
_cell_volume   3650.36836906
_cell_formula_units_Z   24
loop_
 _symmetry_equiv_pos_site_id
 _symmetry_equiv_pos_as_xyz
  1  'x, y, z'
loop_
 _atom_type_symbol
 _atom_type_oxidation_number
  Ca2+  2.0
  Al0+  0.0
  Si0+  0.0
  O2-  -2.0
loop_
 _atom_site_type_symbol
 _atom_site_label
 _atom_site_symmetry_multiplicity
 _atom_site_fract_x
 _atom_site_fract_y
 _atom_site_fract_z
 _atom_site_occupancy
  Ca2+  Ca0  1  0.18007959  0.07931072  0.17392018  1
  Ca2+  Ca1  1  0.16832461  0.08126025  0.50156014  1
  Ca2+  Ca2  1  0.17098946  0.08687976  0.83985593  1
  Ca2+  Ca3  1  0.16345763  0.57952975  0.17025920  1
  Ca2+  Ca4  1  0.17175618  0.58684889  0.50578943  1
  Ca2+  Ca5  1  0.17631186  0.57751143  0.83798870  1
  Ca2+  Ca6  1  0.65604821  0.07825090  0.16885734  1
  Ca2+  Ca7  1  0.66945969  0.07961966  0.50837248  1
  Ca2+  Ca8  1  0.66368047  0.07202182  0.83846829  1
  Ca2+  Ca9  1  0.67421798  0.58665190  0.16881593  1
  Ca2+  Ca10  1  0.67507329  0.58940431  0.50543968  1
  Ca2+  Ca11  1  0.67256057  0.58454288  0.84153428  1
  Ca2+  Ca12  1  0.07742213  0.33967307  0.16257396  1
  Ca2+  Ca13  1  0.07077350  0.33060206  0.49976537  1
  Ca2+  Ca14  1  0.08015054  0.32982223  0.82591731  1
  Ca2+  Ca15  1  0.07977739  0.83115327  0.16447449  1
  Ca2+  Ca16  1  0.08260951  0.82809265  0.49101795  1
  Ca2+  Ca17  1  0.07289720  0.83573208  0.83069817  1
  Ca2+  Ca18  1  0.58000069  0.32114251  0.15495888  1
  Ca2+  Ca19  1  0.58319449  0.32627581  0.49267718  1
  Ca2+  Ca20  1  0.58459948  0.33313114  0.83638602  1
  Ca2+  Ca21  1  0.59156575  0.82301250  0.16045474  1
  Ca2+  Ca22  1  0.58497548  0.82591184  0.50178139  1
  Ca2+  Ca23  1  0.58678569  0.82588532  0.82808352  1
  Ca2+  Ca24  1  0.32856959  0.40945421  0.16503883  1
  Ca2+  Ca25  1  0.33223355  0.42537373  0.50671603  1
  Ca2+  Ca26  1  0.33022242  0.41658069  0.84093172  1
  Ca2+  Ca27  1  0.33322753  0.92801273  0.17373844  1
  Ca2+  Ca28  1  0.33128079  0.91538867  0.50150425  1
  Ca2+  Ca29  1  0.33671783  0.92058411  0.83774842  1
  Ca2+  Ca30  1  0.82882938  0.42488043  0.17102496  1
  Ca2+  Ca31  1  0.83913083  0.42399209  0.50401871  1
  Ca2+  Ca32  1  0.83007600  0.42616646  0.83881784  1
  Ca2+  Ca33  1  0.83031281  0.91350166  0.16411342  1
  Ca2+  Ca34  1  0.82532745  0.92466978  0.51079885  1
  Ca2+  Ca35  1  0.82298599  0.91708966  0.83832046  1
  Ca2+  Ca36  1  0.42110497  0.16413975  0.15930279  1
  Ca2+  Ca37  1  0.42282587  0.16454204  0.49353743  1
  Ca2+  Ca38  1  0.41802451  0.16865492  0.83761142  1
  Ca2+  Ca39  1  0.43119269  0.66642842  0.16029289  1
  Ca2+  Ca40  1  0.42624012  0.66877909  0.49812858  1
  Ca2+  Ca41  1  0.42915275  0.66856827  0.82263923  1
  Ca2+  Ca42  1  0.91620064  0.17502065  0.16375133  1
  Ca2+  Ca43  1  0.91122063  0.17747915  0.49831765  1
  Ca2+  Ca44  1  0.92118575  0.17359310  0.81949203  1
  Ca2+  Ca45  1  0.91604283  0.66691197  0.16250197  1
  Ca2+  Ca46  1  0.91915668  0.66245295  0.49267482  1
  Ca2+  Ca47  1  0.90700238  0.66891303  0.83293318  1
  Al0+  Al48  1  -0.00093624  -0.00124873  -0.00363677  1
  Al0+  Al49  1  -0.00051412  0.00122868  0.33655900  1
  Al0+  Al50  1  0.00206171  0.00029212  0.66512285  1
  Al0+  Al51  1  0.00216953  0.50106353  0.00517659  1
  Al0+  Al52  1  -0.00097411  0.50087184  0.32945674  1
  Al0+  Al53  1  -0.00001590  0.49927475  0.66844091  1
  Al0+  Al54  1  0.50053552  -0.00092515  0.00521295  1
  Al0+  Al55  1  0.49932280  -0.00053532  0.33609691  1
  Al0+  Al56  1  0.49750880  -0.00117024  0.66668013  1
  Al0+  Al57  1  0.50050087  0.49826612  -0.00410441  1
  Al0+  Al58  1  0.49986371  0.49890082  0.32881093  1
  Al0+  Al59  1  0.50077917  0.50036183  0.66507392  1
  Al0+  Al60  1  0.25028683  0.24993332  0.00598358  1
  Al0+  Al61  1  0.24879633  0.25006480  0.34105052  1
  Al0+  Al62  1  0.24934457  0.24871548  0.66069743  1
  Al0+  Al63  1  0.24913756  0.74883793  0.00058951  1
  Al0+  Al64  1  0.24932090  0.74975028  0.33049513  1
  Al0+  Al65  1  0.25107374  0.75110960  0.67009173  1
  Al0+  Al66  1  0.75082073  0.24984766  -0.00304326  1
  Al0+  Al67  1  0.74827296  0.25063869  0.32333675  1
  Al0+  Al68  1  0.75046400  0.25174190  0.66553706  1
  Al0+  Al69  1  0.75191380  0.75232645  -0.00011143  1
  Al0+  Al70  1  0.75103633  0.75001989  0.33501235  1
  Al0+  Al71  1  0.75036546  0.75024289  0.66886982  1
  Al0+  Al72  1  0.07168981  0.67977667  0.32001572  1
  Al0+  Al73  1  0.56905529  0.17827430  0.32033748  1
  Al0+  Al74  1  0.82171463  0.56986062  0.68007701  1
  Al0+  Al75  1  0.57329276  0.67819822  0.65052060  1
  Al0+  Al76  1  0.07284755  0.17694400  0.64985200  1
  Al0+  Al77  1  0.57218110  0.17608562  0.98264471  1
  Al0+  Al78  1  0.81943576  0.56963523  0.34837936  1
  Al0+  Al79  1  0.67728320  0.42660950  0.01570428  1
  Al0+  Al80  1  0.93112342  0.81993459  0.98523773  1
  Al0+  Al81  1  0.57242520  0.67956410  0.31852541  1
  Al0+  Al82  1  0.31938081  0.06860335  0.01308453  1
  Al0+  Al83  1  0.92780746  0.32226342  0.65228694  1
  Al0+  Al84  1  0.42743978  0.82203121  0.65110520  1
  Al0+  Al85  1  0.67837442  0.93072657  0.68214411  1
  Al0+  Al86  1  0.81964499  0.57154859  0.01677916  1
  Al0+  Al87  1  0.82253814  0.07344275  0.68085609  1
  Al0+  Al88  1  0.32224667  0.57217116  0.67950373  1
  Al0+  Al89  1  0.18101578  0.42975822  0.01362691  1
  Al0+  Al90  1  0.68048248  0.93104648  0.01534189  1
  Al0+  Al91  1  0.57124907  0.67959771  0.98595541  1
  Al0+  Al92  1  0.17816310  0.92804047  0.34869568  1
  Al0+  Al93  1  0.93007650  0.32105674  0.31662865  1
  Al0+  Al94  1  0.42744756  0.31921542  0.98497490  1
  Al0+  Al95  1  0.32208508  0.07105637  0.35252038  1
  Si0+  Si96  1  0.32260348  0.57035740  0.34680072  1
  Si0+  Si97  1  0.42774324  0.32150140  0.65093652  1
  Si0+  Si98  1  0.17878180  0.92788337  0.68327921  1
  Si0+  Si99  1  0.06994747  0.18001590  0.98814701  1
  Si0+  Si100  1  0.42645789  0.82131528  0.98581420  1
  Si0+  Si101  1  0.07100646  0.67998158  0.65446876  1
  Si0+  Si102  1  0.42542756  0.32259010  0.31793604  1
  Si0+  Si103  1  0.67715285  0.42696234  0.34873190  1
  Si0+  Si104  1  0.07355675  0.67582820  0.98088922  1
  Si0+  Si105  1  0.92905185  0.82072839  0.65095221  1
  Si0+  Si106  1  0.18041519  0.42818601  0.68161028  1
  Si0+  Si107  1  0.32338500  0.57326973  0.01717552  1
  Si0+  Si108  1  0.82474036  0.07260609  0.01630744  1
  Si0+  Si109  1  0.56932708  0.17901180  0.65329485  1
  Si0+  Si110  1  0.42810062  0.82072811  0.31561250  1
  Si0+  Si111  1  0.68021558  0.92858616  0.34887839  1
  Si0+  Si112  1  0.17468741  0.92647005  0.01561462  1
  Si0+  Si113  1  0.07225224  0.17764984  0.31568320  1
  Si0+  Si114  1  0.92972899  0.32312380  0.98472461  1
  Si0+  Si115  1  0.92794576  0.82436958  0.31839975  1
  Si0+  Si116  1  0.17719615  0.43014409  0.35066848  1
  Si0+  Si117  1  0.82022268  0.07412935  0.34641185  1
  Si0+  Si118  1  0.32001691  0.07216804  0.68272012  1
  Si0+  Si119  1  0.67609933  0.42652062  0.68168833  1
  O2-  O120  1  0.24690517  -0.00889157  0.05900189  1
  O2-  O121  1  0.24918256  -0.00070636  0.40186060  1
  O2-  O122  1  0.24819105  0.00135007  0.72421579  1
  O2-  O123  1  0.25472946  0.50482226  0.06222885  1
  O2-  O124  1  0.25074536  0.50003681  0.39069379  1
  O2-  O125  1  0.25044155  0.49473091  0.72636253  1
  O2-  O126  1  0.75200626  0.00930424  0.06240972  1
  O2-  O127  1  0.74998088  0.00222540  0.38889830  1
  O2-  O128  1  0.75035563  0.00306272  0.73233942  1
  O2-  O129  1  0.74750841  0.49966109  0.06709104  1
  O2-  O130  1  0.74328758  0.49646962  0.39557463  1
  O2-  O131  1  0.74424735  0.49685021  0.72374401  1
  O2-  O132  1  0.00539247  0.24659854  0.26934330  1
  O2-  O133  1  -0.00370236  0.24592887  0.60253331  1
  O2-  O134  1  -0.00198017  0.24874599  0.94395868  1
  O2-  O135  1  -0.00134622  0.75700805  0.27541163  1
  O2-  O136  1  -0.00090062  0.74854764  0.60933311  1
  O2-  O137  1  0.00564695  0.74521835  0.93705594  1
  O2-  O138  1  0.49176261  0.25126804  0.27580972  1
  O2-  O139  1  0.50016760  0.25155226  0.60970868  1
  O2-  O140  1  0.50227757  0.25086593  0.93306512  1
  O2-  O141  1  0.49755835  0.75358758  0.27085329  1
  O2-  O142  1  0.49964303  0.74984416  0.60163370  1
  O2-  O143  1  0.49187716  0.75051357  0.94089597  1
  O2-  O144  1  0.06805350  0.18030138  0.09330785  1
  O2-  O145  1  0.07019499  0.17856580  0.42098929  1
  O2-  O146  1  0.07683187  0.18120410  0.76413261  1
  O2-  O147  1  0.07461967  0.67684308  0.08647660  1
  O2-  O148  1  0.07095880  0.67923888  0.43385025  1
  O2-  O149  1  0.07128254  0.68218379  0.75934082  1
  O2-  O150  1  0.56788400  0.17521162  0.09631776  1
  O2-  O151  1  0.57038468  0.18055161  0.43437254  1
  O2-  O152  1  0.56693030  0.17831280  0.75776257  1
  O2-  O153  1  0.57115387  0.68254886  0.09955521  1
  O2-  O154  1  0.57228457  0.68091367  0.43125921  1
  O2-  O155  1  0.57280550  0.67898803  0.76393967  1
  O2-  O156  1  0.17796394  0.42968102  0.24556253  1
  O2-  O157  1  0.18077398  0.43076628  0.57566989  1
  O2-  O158  1  0.18115853  0.42983774  0.90032212  1
  O2-  O159  1  0.17933368  0.93019515  0.23492904  1
  O2-  O160  1  0.17884269  0.92490554  0.57853509  1
  O2-  O161  1  0.17307361  0.92896457  0.90978841  1
  O2-  O162  1  0.67882948  0.42701805  0.24373862  1
  O2-  O163  1  0.67484641  0.42403102  0.57583625  1
  O2-  O164  1  0.68155935  0.42719660  0.90178854  1
  O2-  O165  1  0.68164255  0.92752933  0.24382391  1
  O2-  O166  1  0.68019609  0.93254779  0.56769738  1
  O2-  O167  1  0.68089078  0.92996369  0.90272699  1
  O2-  O168  1  0.42411703  0.31423337  0.09859676  1
  O2-  O169  1  0.42786035  0.32559483  0.42413823  1
  O2-  O170  1  0.42371115  0.32007585  0.75533151  1
  O2-  O171  1  0.42605380  0.81961780  0.09155305  1
  O2-  O172  1  0.42766279  0.81868468  0.42112660  1
  O2-  O173  1  0.42609069  0.82169782  0.76475280  1
  O2-  O174  1  0.93198009  0.32248628  0.09006233  1
  O2-  O175  1  0.93067212  0.32035723  0.42951446  1
  O2-  O176  1  0.93271585  0.32406396  0.76604854  1
  O2-  O177  1  0.93412024  0.82179326  0.09852985  1
  O2-  O178  1  0.92717348  0.82400431  0.42424974  1
  O2-  O179  1  0.93071751  0.82134093  0.75598177  1
  O2-  O180  1  0.32120935  0.07045297  0.23893353  1
  O2-  O181  1  0.32039606  0.07281318  0.57792823  1
  O2-  O182  1  0.31607493  0.06909026  0.89943744  1
  O2-  O183  1  0.32278263  0.56840958  0.24191377  1
  O2-  O184  1  0.31906299  0.57044736  0.56564233  1
  O2-  O185  1  0.31981041  0.57439659  0.91157900  1
  O2-  O186  1  0.82181451  0.07322077  0.24142686  1
  O2-  O187  1  0.81817110  0.07207368  0.56631129  1
  O2-  O188  1  0.82836757  0.06893447  0.91119957  1
  O2-  O189  1  0.81953466  0.57047241  0.23590677  1
  O2-  O190  1  0.82422370  0.56907099  0.56668906  1
  O2-  O191  1  0.81988788  0.56966006  0.90296670  1
  O2-  O192  1  0.04609188  0.08381851  0.27028742  1
  O2-  O193  1  0.05043111  0.07675751  0.59784335  1
  O2-  O194  1  0.04601471  0.08759393  0.93974549  1
  O2-  O195  1  0.03947836  0.58502539  0.26416147  1
  O2-  O196  1  0.04641156  0.58706583  0.60778392  1
  O2-  O197  1  0.04827043  0.58185133  0.93577538  1
  O2-  O198  1  0.53944970  0.08051106  0.26806294  1
  O2-  O199  1  0.53894179  0.08856542  0.60471059  1
  O2-  O200  1  0.53868841  0.07792918  0.93181989  1
  O2-  O201  1  0.54183264  0.58237056  0.26542330  1
  O2-  O202  1  0.54542964  0.57922482  0.59725058  1
  O2-  O203  1  0.54501588  0.58189745  0.93277325  1
  O2-  O204  1  0.16762222  0.20360576  0.27346374  1
  O2-  O205  1  0.16885841  0.20910146  0.59305781  1
  O2-  O206  1  0.16101297  0.21022436  0.94153615  1
  O2-  O207  1  0.16816468  0.70695559  0.26320649  1
  O2-  O208  1  0.16222932  0.70961009  0.60699382  1
  O2-  O209  1  0.16814133  0.70035737  0.93524241  1
  O2-  O210  1  0.66348381  0.20750683  0.26227399  1
  O2-  O211  1  0.66161612  0.20520532  0.60589324  1
  O2-  O212  1  0.67248034  0.20065194  0.93113214  1
  O2-  O213  1  0.66870475  0.71360232  0.26582029  1
  O2-  O214  1  0.67110123  0.71058368  0.59758367  1
  O2-  O215  1  0.66651917  0.71509939  0.93370317  1
  O2-  O216  1  0.08620551  0.46141714  0.07089087  1
  O2-  O217  1  0.08668681  0.46162498  0.39737926  1
  O2-  O218  1  0.08806635  0.45500066  0.72872821  1
  O2-  O219  1  0.08279390  0.95572295  0.06277761  1
  O2-  O220  1  0.07888750  0.95512958  0.40222701  1
  O2-  O221  1  0.08669506  0.95477479  0.73079692  1
  O2-  O222  1  0.57596700  0.44906133  0.06514725  1
  O2-  O223  1  0.58148013  0.44904832  0.39312696  1
  O2-  O224  1  0.58199041  0.44939694  0.72770485  1
  O2-  O225  1  0.58389725  0.95739008  0.07171112  1
  O2-  O226  1  0.58790004  0.95438166  0.39557563  1
  O2-  O227  1  0.57911712  0.95865240  0.73351714  1
  O2-  O228  1  0.21064055  0.33482957  0.07181385  1
  O2-  O229  1  0.20190940  0.33832796  0.39975242  1
  O2-  O230  1  0.20617210  0.33352437  0.72533270  1
  O2-  O231  1  0.19526928  0.83066028  0.05948731  1
  O2-  O232  1  0.20633157  0.82828930  0.40035172  1
  O2-  O233  1  0.20700991  0.83796701  0.73400254  1
  O2-  O234  1  0.70692338  0.32713839  0.06694607  1
  O2-  O235  1  0.70457058  0.33259572  0.39312307  1
  O2-  O236  1  0.70217838  0.33393073  0.72922454  1
  O2-  O237  1  0.71777631  0.83724708  0.07032977  1
  O2-  O238  1  0.71104183  0.83889417  0.39825622  1
  O2-  O239  1  0.70940002  0.83314699  0.73411020  1
  O2-  O240  1  0.44998847  0.41478699  0.26905251  1
  O2-  O241  1  0.45451185  0.41305342  0.60230225  1
  O2-  O242  1  0.44991417  0.41884385  0.93170659  1
  O2-  O243  1  0.45369269  0.91530300  0.27230114  1
  O2-  O244  1  0.45430200  0.92073949  0.59705867  1
  O2-  O245  1  0.45368118  0.91460718  0.94120523  1
  O2-  O246  1  0.96344247  0.41604847  0.26203696  1
  O2-  O247  1  0.96334719  0.41856159  0.59764987  1
  O2-  O248  1  0.96232656  0.41415788  0.93920919  1
  O2-  O249  1  0.95140802  0.91865788  0.27204290  1
  O2-  O250  1  0.95813213  0.91203416  0.60330346  1
  O2-  O251  1  0.96239835  0.91584888  0.92827065  1
  O2-  O252  1  0.32936094  0.29921054  0.27601206  1
  O2-  O253  1  0.33747794  0.29302642  0.60037893  1
  O2-  O254  1  0.32933520  0.28615248  0.93196981  1
  O2-  O255  1  0.33491651  0.79586106  0.26871709  1
  O2-  O256  1  0.32856982  0.79232333  0.59869031  1
  O2-  O257  1  0.33059024  0.80103745  0.94050391  1
  O2-  O258  1  0.83483527  0.28950827  0.26078447  1
  O2-  O259  1  0.82869954  0.29786844  0.59736209  1
  O2-  O260  1  0.83778769  0.29895471  0.93709182  1
  O2-  O261  1  0.83582963  0.79577072  0.27155966  1
  O2-  O262  1  0.83738375  0.79436952  0.60356304  1
  O2-  O263  1  0.83569487  0.78915749  0.93009804  1
  O2-  O264  1  0.41480365  0.03883250  0.06904106  1
  O2-  O265  1  0.42013242  0.04076355  0.40591612  1
  O2-  O266  1  0.41096654  0.04383961  0.73064949  1
  O2-  O267  1  0.41720839  0.54794811  0.06138452  1
  O2-  O268  1  0.41389925  0.54101690  0.39533081  1
  O2-  O269  1  0.41921325  0.54225303  0.73200003  1
  O2-  O270  1  0.91651547  0.04158884  0.06456470  1
  O2-  O271  1  0.91210702  0.04892400  0.39502314  1
  O2-  O272  1  0.92277338  0.04639734  0.73051258  1
  O2-  O273  1  0.91937430  0.54439823  0.06767949  1
  O2-  O274  1  0.91706554  0.53727136  0.40010039  1
  O2-  O275  1  0.91802972  0.53932324  0.73553973  1
  O2-  O276  1  0.28529980  0.16236627  0.06971946  1
  O2-  O277  1  0.29513070  0.17030686  0.40589531  1
  O2-  O278  1  0.29129442  0.16467992  0.72857746  1
  O2-  O279  1  0.29733062  0.66677354  0.06445205  1
  O2-  O280  1  0.29475216  0.66245410  0.39288001  1
  O2-  O281  1  0.28884009  0.66646121  0.73585772  1
  O2-  O282  1  0.80555640  0.16873039  0.05898843  1
  O2-  O283  1  0.78949530  0.16583771  0.39225267  1
  O2-  O284  1  0.79834007  0.17365000  0.73131945  1
  O2-  O285  1  0.79252258  0.67051437  0.06845844  1
  O2-  O286  1  0.79158802  0.66772695  0.40192085  1
  O2-  O287  1  0.79337617  0.66708188  0.73309283  1
