# generated using pymatgen
data_Ca2Al2SiO7
_symmetry_space_group_name_H-M   'P 1'
_cell_length_a   15.45173844
_cell_length_b   15.45294333
_cell_length_c   15.27864918
_cell_angle_alpha   90.01049775
_cell_angle_beta   90.00283753
_cell_angle_gamma   90.00155024
_symmetry_Int_Tables_number   1
_chemical_formula_structural   Ca2Al2SiO7
_chemical_formula_sum   'Ca48 Al48 Si24 O168'
_cell_volume   3648.15692348
_cell_formula_units_Z   24
loop_
 _symmetry_equiv_pos_site_id
 _symmetry_equiv_pos_as_xyz
  1  'x, y, z'
loop_
 _atom_type_symbol
 _atom_type_oxidation_number
  Ca2+  2.0
  Al0+  0.0
  Si0+  0.0
  O2-  -2.0
loop_
 _atom_site_type_symbol
 _atom_site_label
 _atom_site_symmetry_multiplicity
 _atom_site_fract_x
 _atom_site_fract_y
 _atom_site_fract_z
 _atom_site_occupancy
  Ca2+  Ca0  1  0.16282491  0.07210526  0.17356213  1
  Ca2+  Ca1  1  0.16732566  0.08461600  0.50509500  1
  Ca2+  Ca2  1  0.16943245  0.08321498  0.83192388  1
  Ca2+  Ca3  1  0.16334258  0.57121778  0.17490480  1
  Ca2+  Ca4  1  0.15687076  0.57068578  0.50098402  1
  Ca2+  Ca5  1  0.16567852  0.56974278  0.83716595  1
  Ca2+  Ca6  1  0.66989676  0.08202282  0.17309338  1
  Ca2+  Ca7  1  0.67784219  0.08584964  0.50650670  1
  Ca2+  Ca8  1  0.67055052  0.07495088  0.83413458  1
  Ca2+  Ca9  1  0.66946084  0.57837522  0.17337006  1
  Ca2+  Ca10  1  0.67010573  0.58896730  0.49906698  1
  Ca2+  Ca11  1  0.66960091  0.57603053  0.83910922  1
  Ca2+  Ca12  1  0.08158190  0.33122280  0.16199725  1
  Ca2+  Ca13  1  0.08708034  0.32225007  0.49920079  1
  Ca2+  Ca14  1  0.07628951  0.33295759  0.82402078  1
  Ca2+  Ca15  1  0.09005206  0.82947846  0.16388331  1
  Ca2+  Ca16  1  0.07703761  0.83385267  0.49187300  1
  Ca2+  Ca17  1  0.07959425  0.83430945  0.82762906  1
  Ca2+  Ca18  1  0.58283812  0.32788075  0.15839059  1
  Ca2+  Ca19  1  0.57528810  0.32696931  0.49413869  1
  Ca2+  Ca20  1  0.57196985  0.33821413  0.82937908  1
  Ca2+  Ca21  1  0.58080998  0.82958452  0.15991662  1
  Ca2+  Ca22  1  0.57948839  0.83670432  0.49833987  1
  Ca2+  Ca23  1  0.57838913  0.84192859  0.82811325  1
  Ca2+  Ca24  1  0.32316043  0.40956058  0.16890149  1
  Ca2+  Ca25  1  0.32167197  0.41100002  0.50681728  1
  Ca2+  Ca26  1  0.32308525  0.40704998  0.83737175  1
  Ca2+  Ca27  1  0.32387281  0.91083361  0.16795329  1
  Ca2+  Ca28  1  0.32921915  0.92159173  0.50680487  1
  Ca2+  Ca29  1  0.33637033  0.92279923  0.83912963  1
  Ca2+  Ca30  1  0.83132425  0.41760131  0.16931796  1
  Ca2+  Ca31  1  0.83938384  0.42297012  0.50334623  1
  Ca2+  Ca32  1  0.83225767  0.41120867  0.83975463  1
  Ca2+  Ca33  1  0.82700058  0.92408951  0.17359124  1
  Ca2+  Ca34  1  0.83138739  0.92841746  0.50981147  1
  Ca2+  Ca35  1  0.82684505  0.91899115  0.83367508  1
  Ca2+  Ca36  1  0.42357520  0.17050257  0.16381264  1
  Ca2+  Ca37  1  0.41800383  0.16723187  0.49992951  1
  Ca2+  Ca38  1  0.41194762  0.17512630  0.82650584  1
  Ca2+  Ca39  1  0.42121309  0.67095619  0.16215047  1
  Ca2+  Ca40  1  0.42209886  0.67357444  0.49559721  1
  Ca2+  Ca41  1  0.41520215  0.68114504  0.82869405  1
  Ca2+  Ca42  1  0.92050482  0.16793184  0.16527851  1
  Ca2+  Ca43  1  0.92414053  0.16307561  0.49607451  1
  Ca2+  Ca44  1  0.92279395  0.17460413  0.82373800  1
  Ca2+  Ca45  1  0.92117229  0.66080142  0.16974173  1
  Ca2+  Ca46  1  0.91822112  0.67339550  0.49398482  1
  Ca2+  Ca47  1  0.91813927  0.67428573  0.82658602  1
  Al0+  Al48  1  0.00154124  -0.00102156  0.00301396  1
  Al0+  Al49  1  -0.00156710  0.00081242  0.33547387  1
  Al0+  Al50  1  -0.00012632  -0.00010414  0.66410440  1
  Al0+  Al51  1  0.00154116  0.49971883  -0.00047870  1
  Al0+  Al52  1  -0.00184514  0.50150678  0.33824934  1
  Al0+  Al53  1  -0.00100148  0.49986031  0.66988969  1
  Al0+  Al54  1  0.50209065  -0.00040072  0.00199545  1
  Al0+  Al55  1  0.49793679  0.00184085  0.32695532  1
  Al0+  Al56  1  0.49878296  0.00060471  0.66936723  1
  Al0+  Al57  1  0.50173989  0.49970947  -0.00019563  1
  Al0+  Al58  1  0.49795501  0.50218551  0.32889441  1
  Al0+  Al59  1  0.49881082  0.50151523  0.66132586  1
  Al0+  Al60  1  0.25162687  0.24797437  0.00251682  1
  Al0+  Al61  1  0.24777754  0.24823350  0.33172469  1
  Al0+  Al62  1  0.24913850  0.24944612  0.66787667  1
  Al0+  Al63  1  0.25176207  0.74944099  -0.00238984  1
  Al0+  Al64  1  0.24783025  0.74883173  0.33451557  1
  Al0+  Al65  1  0.25181056  0.74747051  0.66059996  1
  Al0+  Al66  1  0.75208235  0.25024222  0.00017135  1
  Al0+  Al67  1  0.74795008  0.25022326  0.33357197  1
  Al0+  Al68  1  0.75035500  0.25208539  0.66834753  1
  Al0+  Al69  1  0.75188957  0.75058407  0.00472182  1
  Al0+  Al70  1  0.74799093  0.74954901  0.33188376  1
  Al0+  Al71  1  0.75110047  0.74916231  0.66725437  1
  Al0+  Al72  1  0.43034911  0.81984739  0.98607064  1
  Al0+  Al73  1  0.17990322  0.92857655  0.01216222  1
  Al0+  Al74  1  0.17946109  0.42851375  0.01431623  1
  Al0+  Al75  1  0.42981113  0.32034924  0.98650405  1
  Al0+  Al76  1  0.67870883  0.42889473  0.01287844  1
  Al0+  Al77  1  0.67999489  0.92847296  0.68051408  1
  Al0+  Al78  1  0.82414283  0.07380782  0.68360352  1
  Al0+  Al79  1  0.57137346  0.67991840  0.31828121  1
  Al0+  Al80  1  0.07021029  0.17974485  0.65217065  1
  Al0+  Al81  1  0.81898624  0.07189239  0.34683871  1
  Al0+  Al82  1  0.57188729  0.18003575  0.32001941  1
  Al0+  Al83  1  0.81871117  0.57046343  0.34765764  1
  Al0+  Al84  1  0.92617753  0.32309956  0.65034550  1
  Al0+  Al85  1  0.07060628  0.17785751  0.31739275  1
  Al0+  Al86  1  0.93106389  0.32085161  0.98748709  1
  Al0+  Al87  1  0.92911560  0.82038095  0.65380707  1
  Al0+  Al88  1  0.17952428  0.42834699  0.34794570  1
  Al0+  Al89  1  0.42833169  0.32165978  0.65263822  1
  Al0+  Al90  1  0.17949742  0.92770745  0.34797226  1
  Al0+  Al91  1  0.67898048  0.92902560  0.01598088  1
  Al0+  Al92  1  0.06946148  0.67881981  0.31987305  1
  Al0+  Al93  1  0.42913464  0.82332368  0.65226034  1
  Al0+  Al94  1  0.18043370  0.43038846  0.68127237  1
  Al0+  Al95  1  0.31975184  0.06961888  0.67985856  1
  Si0+  Si96  1  0.32505023  0.57288209  0.68349566  1
  Si0+  Si97  1  0.57388685  0.17766847  0.98184899  1
  Si0+  Si98  1  0.42704674  0.32202124  0.31642534  1
  Si0+  Si99  1  0.92914410  0.82174507  0.98661729  1
  Si0+  Si100  1  0.17827113  0.92442730  0.68130064  1
  Si0+  Si101  1  0.67623691  0.42966601  0.67977308  1
  Si0+  Si102  1  0.67562302  0.92841295  0.34865233  1
  Si0+  Si103  1  0.32311084  0.57222943  0.35051499  1
  Si0+  Si104  1  0.57241379  0.67809862  0.65028907  1
  Si0+  Si105  1  0.32332942  0.07209857  0.01868225  1
  Si0+  Si106  1  0.82299526  0.57256525  0.01684328  1
  Si0+  Si107  1  0.57156313  0.17854667  0.65207447  1
  Si0+  Si108  1  0.92840709  0.32277311  0.31750304  1
  Si0+  Si109  1  0.67498907  0.42826278  0.35050574  1
  Si0+  Si110  1  0.57502325  0.67833861  0.98275077  1
  Si0+  Si111  1  0.32232008  0.07122695  0.34938075  1
  Si0+  Si112  1  0.07207697  0.67739931  0.65070339  1
  Si0+  Si113  1  0.32164104  0.57267617  0.01573094  1
  Si0+  Si114  1  0.82254445  0.07160811  0.01730867  1
  Si0+  Si115  1  0.82018632  0.57035385  0.68279072  1
  Si0+  Si116  1  0.07224203  0.17535030  0.98390924  1
  Si0+  Si117  1  0.92783233  0.82252836  0.31525037  1
  Si0+  Si118  1  0.42697923  0.82255262  0.31574830  1
  Si0+  Si119  1  0.07137086  0.67909213  0.98499980  1
  O2-  O120  1  0.25396271  0.00290934  0.06098829  1
  O2-  O121  1  0.25419260  0.00219824  0.39369108  1
  O2-  O122  1  0.24764265  -0.00823871  0.72633387  1
  O2-  O123  1  0.25652881  0.50104378  0.06100361  1
  O2-  O124  1  0.25588472  0.50207331  0.39444849  1
  O2-  O125  1  0.25606549  0.50473446  0.72796837  1
  O2-  O126  1  0.75272048  0.00432340  0.06230012  1
  O2-  O127  1  0.74316509  -0.00240580  0.39268624  1
  O2-  O128  1  0.75212374  0.00029405  0.73156107  1
  O2-  O129  1  0.75373040  0.50349099  0.05919567  1
  O2-  O130  1  0.74360967  0.49655296  0.39572626  1
  O2-  O131  1  0.75080544  0.49704945  0.72306240  1
  O2-  O132  1  -0.00350470  0.25402975  0.27214400  1
  O2-  O133  1  -0.00483347  0.24843546  0.60092989  1
  O2-  O134  1  0.00662426  0.24730305  0.94092543  1
  O2-  O135  1  -0.00253866  0.75482102  0.27014488  1
  O2-  O136  1  0.00838886  0.75069691  0.60697273  1
  O2-  O137  1  0.00062375  0.75103311  0.94392350  1
  O2-  O138  1  0.49891614  0.25637363  0.27284050  1
  O2-  O139  1  0.50431196  0.24838263  0.60686523  1
  O2-  O140  1  0.50497411  0.24655266  0.93821694  1
  O2-  O141  1  0.49722684  0.75508572  0.27186359  1
  O2-  O142  1  0.50535594  0.74922947  0.60732434  1
  O2-  O143  1  0.50766720  0.74785340  0.93814033  1
  O2-  O144  1  0.06928437  0.17346491  0.08969376  1
  O2-  O145  1  0.07220282  0.17824533  0.42987320  1
  O2-  O146  1  0.07150947  0.18210784  0.76624594  1
  O2-  O147  1  0.07038441  0.67799439  0.09011020  1
  O2-  O148  1  0.06607238  0.67935968  0.43277975  1
  O2-  O149  1  0.06986650  0.67678389  0.75698250  1
  O2-  O150  1  0.57298833  0.17911165  0.08788170  1
  O2-  O151  1  0.57086617  0.18097754  0.43313078  1
  O2-  O152  1  0.57056009  0.18006333  0.75777213  1
  O2-  O153  1  0.57378683  0.67900633  0.08839190  1
  O2-  O154  1  0.57000529  0.68137910  0.43150628  1
  O2-  O155  1  0.57202706  0.67460909  0.75583235  1
  O2-  O156  1  0.18058395  0.42954586  0.23437919  1
  O2-  O157  1  0.18105793  0.43164626  0.56815851  1
  O2-  O158  1  0.17812087  0.43120389  0.90132783  1
  O2-  O159  1  0.18215472  0.92742992  0.23438802  1
  O2-  O160  1  0.18007499  0.92455033  0.57570052  1
  O2-  O161  1  0.17866860  0.92858497  0.89921538  1
  O2-  O162  1  0.67642642  0.42889538  0.24472402  1
  O2-  O163  1  0.67387414  0.43277968  0.57482673  1
  O2-  O164  1  0.67839371  0.43232064  0.89941705  1
  O2-  O165  1  0.67765902  0.92903427  0.24269957  1
  O2-  O166  1  0.68031449  0.92845608  0.56674579  1
  O2-  O167  1  0.68064647  0.92878587  0.90319015  1
  O2-  O168  1  0.43035730  0.31775988  0.09974073  1
  O2-  O169  1  0.42747053  0.32111898  0.42216766  1
  O2-  O170  1  0.42972706  0.32108665  0.76589519  1
  O2-  O171  1  0.42883755  0.81534463  0.09919113  1
  O2-  O172  1  0.42846894  0.82333363  0.42140053  1
  O2-  O173  1  0.42910078  0.82117877  0.76551134  1
  O2-  O174  1  0.93124228  0.32132856  0.10079601  1
  O2-  O175  1  0.92895297  0.32267913  0.42277017  1
  O2-  O176  1  0.92939715  0.32411103  0.76434279  1
  O2-  O177  1  0.92895398  0.82153782  0.09154314  1
  O2-  O178  1  0.92790632  0.82078630  0.42090513  1
  O2-  O179  1  0.92924818  0.81634755  0.76780775  1
  O2-  O180  1  0.32319945  0.07053188  0.24369024  1
  O2-  O181  1  0.32068775  0.06875657  0.56662131  1
  O2-  O182  1  0.32267714  0.07258399  0.91298544  1
  O2-  O183  1  0.32312371  0.57213391  0.24467234  1
  O2-  O184  1  0.32688394  0.57273534  0.57804114  1
  O2-  O185  1  0.31766399  0.57556098  0.91020988  1
  O2-  O186  1  0.81800901  0.06971138  0.23322728  1
  O2-  O187  1  0.82111929  0.07254669  0.56985821  1
  O2-  O188  1  0.82337844  0.06951555  0.91204795  1
  O2-  O189  1  0.81894727  0.56743896  0.23435545  1
  O2-  O190  1  0.81936899  0.57262391  0.57782892  1
  O2-  O191  1  0.82245949  0.57508607  0.91100129  1
  O2-  O192  1  0.03689930  0.08160562  0.26367494  1
  O2-  O193  1  0.04774934  0.07973484  0.59984374  1
  O2-  O194  1  0.04424875  0.08259843  0.93682444  1
  O2-  O195  1  0.03439680  0.58315043  0.26539935  1
  O2-  O196  1  0.03891530  0.58626039  0.60511041  1
  O2-  O197  1  0.04147663  0.58872973  0.93577083  1
  O2-  O198  1  0.53995980  0.08489091  0.26226105  1
  O2-  O199  1  0.54378013  0.08628875  0.60545746  1
  O2-  O200  1  0.54819393  0.08358958  0.93762909  1
  O2-  O201  1  0.54069344  0.58347367  0.26242372  1
  O2-  O202  1  0.54464433  0.58703185  0.59987236  1
  O2-  O203  1  0.54966379  0.58469281  0.93687147  1
  O2-  O204  1  0.16745552  0.20683806  0.26243840  1
  O2-  O205  1  0.16700201  0.21224193  0.59844999  1
  O2-  O206  1  0.16807540  0.19730727  0.94187684  1
  O2-  O207  1  0.16722252  0.70611217  0.26572158  1
  O2-  O208  1  0.16742755  0.69362963  0.60502144  1
  O2-  O209  1  0.16245324  0.70639088  0.93654288  1
  O2-  O210  1  0.66756914  0.21007604  0.26310437  1
  O2-  O211  1  0.66521693  0.20451039  0.60674815  1
  O2-  O212  1  0.66797882  0.20224640  0.93736550  1
  O2-  O213  1  0.66776234  0.70833990  0.26224502  1
  O2-  O214  1  0.66649261  0.70221887  0.60484883  1
  O2-  O215  1  0.67025694  0.70252121  0.93897635  1
  O2-  O216  1  0.08396366  0.46292493  0.06863855  1
  O2-  O217  1  0.08435970  0.46258032  0.40153424  1
  O2-  O218  1  0.08418358  0.46372037  0.73592880  1
  O2-  O219  1  0.08350418  0.95700059  0.06893744  1
  O2-  O220  1  0.08216860  0.95773660  0.39950288  1
  O2-  O221  1  0.08466826  0.95026460  0.72680595  1
  O2-  O222  1  0.58269734  0.45881411  0.06898312  1
  O2-  O223  1  0.58047079  0.45496894  0.39428313  1
  O2-  O224  1  0.58560459  0.46224646  0.72783134  1
  O2-  O225  1  0.58237392  0.95797730  0.07100486  1
  O2-  O226  1  0.58010894  0.95312038  0.39071073  1
  O2-  O227  1  0.58238029  0.95881946  0.73403193  1
  O2-  O228  1  0.20871027  0.33092628  0.06741048  1
  O2-  O229  1  0.21032127  0.33099518  0.40026566  1
  O2-  O230  1  0.21211779  0.33475843  0.73545765  1
  O2-  O231  1  0.21198294  0.83148784  0.06560525  1
  O2-  O232  1  0.20756319  0.83054827  0.40226797  1
  O2-  O233  1  0.20142172  0.82871692  0.72476756  1
  O2-  O234  1  0.70965499  0.33226098  0.06713582  1
  O2-  O235  1  0.69906754  0.33458490  0.39614651  1
  O2-  O236  1  0.69896176  0.33765748  0.72866075  1
  O2-  O237  1  0.71058526  0.83256749  0.07056919  1
  O2-  O238  1  0.70021501  0.83442085  0.39326803  1
  O2-  O239  1  0.70839226  0.82962626  0.73414472  1
  O2-  O240  1  0.44765257  0.41693851  0.27112587  1
  O2-  O241  1  0.45739758  0.41805164  0.59714313  1
  O2-  O242  1  0.45891563  0.41807221  0.93310505  1
  O2-  O243  1  0.44947946  0.91596909  0.26787194  1
  O2-  O244  1  0.45941155  0.91961756  0.59794714  1
  O2-  O245  1  0.45930622  0.91836439  0.93505884  1
  O2-  O246  1  0.95473540  0.41640849  0.27227616  1
  O2-  O247  1  0.95638493  0.42239842  0.60010131  1
  O2-  O248  1  0.95973303  0.41837560  0.93312355  1
  O2-  O249  1  0.95282976  0.91598579  0.26961070  1
  O2-  O250  1  0.95548670  0.91707507  0.59909983  1
  O2-  O251  1  0.95748414  0.91318167  0.93889602  1
  O2-  O252  1  0.33521398  0.29165536  0.26961225  1
  O2-  O253  1  0.33355651  0.28732996  0.59908922  1
  O2-  O254  1  0.33281009  0.28775715  0.93333774  1
  O2-  O255  1  0.33385981  0.79321487  0.27093593  1
  O2-  O256  1  0.33389181  0.79105872  0.59566773  1
  O2-  O257  1  0.33489878  0.78730478  0.92988717  1
  O2-  O258  1  0.83374296  0.29798372  0.27267787  1
  O2-  O259  1  0.82483956  0.30289112  0.60008662  1
  O2-  O260  1  0.83392265  0.29140635  0.93345982  1
  O2-  O261  1  0.83436946  0.79509626  0.26970008  1
  O2-  O262  1  0.83467244  0.78462132  0.59886755  1
  O2-  O263  1  0.83778651  0.79198684  0.93893397  1
  O2-  O264  1  0.41720569  0.04679388  0.06414014  1
  O2-  O265  1  0.41643011  0.04588760  0.39515998  1
  O2-  O266  1  0.41575955  0.04187046  0.73638822  1
  O2-  O267  1  0.41730103  0.55110976  0.05917066  1
  O2-  O268  1  0.41763101  0.54907368  0.39640901  1
  O2-  O269  1  0.41884589  0.54849105  0.72980089  1
  O2-  O270  1  0.91535460  0.04358928  0.06420441  1
  O2-  O271  1  0.91441659  0.03984715  0.40119764  1
  O2-  O272  1  0.92262849  0.04392364  0.73552931  1
  O2-  O273  1  0.91628998  0.54530993  0.06239891  1
  O2-  O274  1  0.91375547  0.54083045  0.40473747  1
  O2-  O275  1  0.91163205  0.54511388  0.73248378  1
  O2-  O276  1  0.29856497  0.16466105  0.06701544  1
  O2-  O277  1  0.29607614  0.16466924  0.39478240  1
  O2-  O278  1  0.28621626  0.16436738  0.73594983  1
  O2-  O279  1  0.29307726  0.66438384  0.06396561  1
  O2-  O280  1  0.29700385  0.66538938  0.39682156  1
  O2-  O281  1  0.29846314  0.66708206  0.72894955  1
  O2-  O282  1  0.79794618  0.16532440  0.06336904  1
  O2-  O283  1  0.78869589  0.16862108  0.40067083  1
  O2-  O284  1  0.79500704  0.17270719  0.73602595  1
  O2-  O285  1  0.79892044  0.66525979  0.06543276  1
  O2-  O286  1  0.78756569  0.66782665  0.40098224  1
  O2-  O287  1  0.79044644  0.66045269  0.73288036  1
