# generated using pymatgen
data_Ca2Al2SiO7
_symmetry_space_group_name_H-M   'P 1'
_cell_length_a   15.46296408
_cell_length_b   15.46368483
_cell_length_c   15.28829756
_cell_angle_alpha   90.00690632
_cell_angle_beta   90.00278646
_cell_angle_gamma   90.00863190
_symmetry_Int_Tables_number   1
_chemical_formula_structural   Ca2Al2SiO7
_chemical_formula_sum   'Ca48 Al48 Si24 O168'
_cell_volume   3655.65207265
_cell_formula_units_Z   24
loop_
 _symmetry_equiv_pos_site_id
 _symmetry_equiv_pos_as_xyz
  1  'x, y, z'
loop_
 _atom_type_symbol
 _atom_type_oxidation_number
  Ca2+  2.0
  Al0+  0.0
  Si0+  0.0
  O2-  -2.0
loop_
 _atom_site_type_symbol
 _atom_site_label
 _atom_site_symmetry_multiplicity
 _atom_site_fract_x
 _atom_site_fract_y
 _atom_site_fract_z
 _atom_site_occupancy
  Ca2+  Ca0  1  0.17810620  0.08594369  0.17008362  1
  Ca2+  Ca1  1  0.17537351  0.09286643  0.49749152  1
  Ca2+  Ca2  1  0.17673475  0.07512553  0.84644507  1
  Ca2+  Ca3  1  0.17452531  0.57128218  0.17211581  1
  Ca2+  Ca4  1  0.17321411  0.57199633  0.49947596  1
  Ca2+  Ca5  1  0.17036688  0.57280935  0.83738348  1
  Ca2+  Ca6  1  0.66496024  0.08559531  0.16390098  1
  Ca2+  Ca7  1  0.66385030  0.08438010  0.50502770  1
  Ca2+  Ca8  1  0.66362544  0.08186091  0.84583712  1
  Ca2+  Ca9  1  0.66610059  0.57161279  0.17160685  1
  Ca2+  Ca10  1  0.67269442  0.57970398  0.50158291  1
  Ca2+  Ca11  1  0.66783638  0.58578073  0.83966261  1
  Ca2+  Ca12  1  0.07553032  0.34066872  0.16283477  1
  Ca2+  Ca13  1  0.08114046  0.33582714  0.48811427  1
  Ca2+  Ca14  1  0.08018324  0.34071342  0.83406883  1
  Ca2+  Ca15  1  0.08549117  0.83205734  0.16058610  1
  Ca2+  Ca16  1  0.08094234  0.82848370  0.49220503  1
  Ca2+  Ca17  1  0.08440259  0.83470065  0.83219645  1
  Ca2+  Ca18  1  0.57452975  0.33692062  0.15659459  1
  Ca2+  Ca19  1  0.58262100  0.32857066  0.49222932  1
  Ca2+  Ca20  1  0.58377139  0.32448440  0.83649056  1
  Ca2+  Ca21  1  0.58169237  0.82499619  0.16088050  1
  Ca2+  Ca22  1  0.57346955  0.82456705  0.49814357  1
  Ca2+  Ca23  1  0.58520444  0.82559529  0.82869390  1
  Ca2+  Ca24  1  0.32974913  0.41335507  0.17655500  1
  Ca2+  Ca25  1  0.32296955  0.40672758  0.49820286  1
  Ca2+  Ca26  1  0.32387684  0.40973812  0.84123611  1
  Ca2+  Ca27  1  0.33884880  0.92933469  0.17093367  1
  Ca2+  Ca28  1  0.34336609  0.91987219  0.50025979  1
  Ca2+  Ca29  1  0.33458751  0.92074552  0.84220448  1
  Ca2+  Ca30  1  0.82237511  0.41038176  0.17164434  1
  Ca2+  Ca31  1  0.83203794  0.42243473  0.49867918  1
  Ca2+  Ca32  1  0.82532666  0.42033468  0.84074186  1
  Ca2+  Ca33  1  0.82701059  0.92350793  0.16354841  1
  Ca2+  Ca34  1  0.83031241  0.91962002  0.50349917  1
  Ca2+  Ca35  1  0.82393630  0.92768916  0.84613941  1
  Ca2+  Ca36  1  0.41461303  0.17628488  0.16160589  1
  Ca2+  Ca37  1  0.42226881  0.17070468  0.49290618  1
  Ca2+  Ca38  1  0.42336654  0.16615430  0.83612809  1
  Ca2+  Ca39  1  0.41555653  0.66941073  0.16153008  1
  Ca2+  Ca40  1  0.41104033  0.67588556  0.49297807  1
  Ca2+  Ca41  1  0.43141761  0.67202528  0.82740508  1
  Ca2+  Ca42  1  0.92104200  0.17678379  0.16124783  1
  Ca2+  Ca43  1  0.92798078  0.17711076  0.48657239  1
  Ca2+  Ca44  1  0.91017700  0.17411082  0.83568541  1
  Ca2+  Ca45  1  0.91552767  0.66226130  0.16465168  1
  Ca2+  Ca46  1  0.91237984  0.66019198  0.49576718  1
  Ca2+  Ca47  1  0.91578714  0.66542154  0.82814333  1
  Al0+  Al48  1  -0.00069772  -0.00019247  0.00576608  1
  Al0+  Al49  1  -0.00038097  -0.00094227  0.32931993  1
  Al0+  Al50  1  0.00059178  0.00116757  0.66623575  1
  Al0+  Al51  1  0.00118772  0.50101839  -0.00283410  1
  Al0+  Al52  1  -0.00057515  0.50127975  0.33432694  1
  Al0+  Al53  1  -0.00120256  0.50126838  0.67389753  1
  Al0+  Al54  1  0.49948484  -0.00056134  0.00662142  1
  Al0+  Al55  1  0.49969579  -0.00277122  0.33447317  1
  Al0+  Al56  1  0.50077658  0.00031411  0.66086277  1
  Al0+  Al57  1  0.49972073  0.50214663  -0.00830493  1
  Al0+  Al58  1  0.50157892  0.50072328  0.34010928  1
  Al0+  Al59  1  0.49945582  0.49800069  0.66296479  1
  Al0+  Al60  1  0.24635675  0.24901712  0.00311297  1
  Al0+  Al61  1  0.25313641  0.24629983  0.33580587  1
  Al0+  Al62  1  0.24904066  0.24716534  0.67416301  1
  Al0+  Al63  1  0.24856603  0.74811838  -0.00048139  1
  Al0+  Al64  1  0.24829432  0.75127292  0.33028554  1
  Al0+  Al65  1  0.24784417  0.74892542  0.66308743  1
  Al0+  Al66  1  0.75091986  0.25256737  -0.00073789  1
  Al0+  Al67  1  0.75254183  0.24759388  0.33531079  1
  Al0+  Al68  1  0.75178023  0.25181064  0.66077759  1
  Al0+  Al69  1  0.75213551  0.75251860  -0.00029958  1
  Al0+  Al70  1  0.74936888  0.75131659  0.33652873  1
  Al0+  Al71  1  0.75011589  0.75133150  0.66600243  1
  Al0+  Al72  1  0.92941749  0.32228820  0.98410882  1
  Al0+  Al73  1  0.67771465  0.42518838  0.34868876  1
  Al0+  Al74  1  0.57027215  0.17927150  0.98824829  1
  Al0+  Al75  1  0.32189889  0.06904500  0.34994133  1
  Al0+  Al76  1  0.43252278  0.32179647  0.32265347  1
  Al0+  Al77  1  0.17870426  0.92583729  0.01489118  1
  Al0+  Al78  1  0.81965408  0.57180002  0.34666422  1
  Al0+  Al79  1  0.42485831  0.32236347  0.98514754  1
  Al0+  Al80  1  0.82032804  0.07454638  0.01563689  1
  Al0+  Al81  1  0.32171061  0.07061011  0.01630146  1
  Al0+  Al82  1  0.18071833  0.42905527  0.68194554  1
  Al0+  Al83  1  0.67778212  0.43149014  0.01061705  1
  Al0+  Al84  1  0.07332410  0.17785127  0.31709527  1
  Al0+  Al85  1  0.81724261  0.57072791  0.68215787  1
  Al0+  Al86  1  0.42802720  0.81916669  0.65211345  1
  Al0+  Al87  1  0.42806839  0.81953341  0.31661522  1
  Al0+  Al88  1  0.17884934  0.42955889  0.01438528  1
  Al0+  Al89  1  0.32270034  0.57402095  0.34729996  1
  Al0+  Al90  1  0.57298157  0.67974682  0.98744611  1
  Al0+  Al91  1  0.93024085  0.32322989  0.31722263  1
  Al0+  Al92  1  0.57412521  0.67612549  0.64930492  1
  Al0+  Al93  1  0.67771874  0.92754667  0.01561170  1
  Al0+  Al94  1  0.18107232  0.42809559  0.34677443  1
  Al0+  Al95  1  0.57123237  0.18102914  0.65328502  1
  Si0+  Si96  1  0.92989557  0.82244364  0.98391225  1
  Si0+  Si97  1  0.42751024  0.82085681  0.98521105  1
  Si0+  Si98  1  0.32165707  0.06754898  0.68251433  1
  Si0+  Si99  1  0.07071133  0.67944755  0.98280402  1
  Si0+  Si100  1  0.57356732  0.17647549  0.31758289  1
  Si0+  Si101  1  0.32226930  0.57493456  0.68364293  1
  Si0+  Si102  1  0.82281413  0.06939660  0.35011141  1
  Si0+  Si103  1  0.17663760  0.92734157  0.67977162  1
  Si0+  Si104  1  0.67982168  0.92952087  0.35123273  1
  Si0+  Si105  1  0.82240548  0.57302008  0.01487518  1
  Si0+  Si106  1  0.57333941  0.67907700  0.31737023  1
  Si0+  Si107  1  0.17622849  0.92857320  0.35089761  1
  Si0+  Si108  1  0.07080432  0.17756459  0.65340675  1
  Si0+  Si109  1  0.06849965  0.67832041  0.65068211  1
  Si0+  Si110  1  0.82302486  0.07226778  0.67971801  1
  Si0+  Si111  1  0.67995343  0.93259678  0.68045785  1
  Si0+  Si112  1  0.67666207  0.42469980  0.68393278  1
  Si0+  Si113  1  0.92651887  0.82164221  0.31700552  1
  Si0+  Si114  1  0.32254457  0.57087306  0.01327541  1
  Si0+  Si115  1  0.93023201  0.82303560  0.65201495  1
  Si0+  Si116  1  0.42365182  0.31948374  0.65101521  1
  Si0+  Si117  1  0.06999832  0.17648824  0.98187725  1
  Si0+  Si118  1  0.93174799  0.32249527  0.65131582  1
  Si0+  Si119  1  0.06974740  0.68008802  0.31737342  1
  O2-  O120  1  0.25046668  -0.00350559  0.06515740  1
  O2-  O121  1  0.24454878  -0.00396644  0.39729816  1
  O2-  O122  1  0.25178144  -0.00645389  0.72180876  1
  O2-  O123  1  0.26040626  0.49708271  0.05843924  1
  O2-  O124  1  0.25548534  0.49741773  0.39803059  1
  O2-  O125  1  0.25947077  0.50059397  0.72790376  1
  O2-  O126  1  0.74525901  0.00462310  0.06466937  1
  O2-  O127  1  0.74917639  0.00218004  0.39427194  1
  O2-  O128  1  0.74919606  0.00519726  0.72276642  1
  O2-  O129  1  0.75237703  0.50635638  0.05773178  1
  O2-  O130  1  0.75023243  0.49813420  0.39742381  1
  O2-  O131  1  0.73872025  0.50011853  0.72786573  1
  O2-  O132  1  0.00512029  0.25366205  0.26791315  1
  O2-  O133  1  0.00323300  0.25127010  0.61060526  1
  O2-  O134  1  0.00267287  0.24598216  0.93597567  1
  O2-  O135  1  -0.00304306  0.75008485  0.27560156  1
  O2-  O136  1  -0.00094099  0.75111290  0.60801006  1
  O2-  O137  1  0.00111688  0.75228061  0.94029830  1
  O2-  O138  1  0.51061378  0.25071674  0.27567993  1
  O2-  O139  1  0.49869153  0.25759590  0.60704801  1
  O2-  O140  1  0.49736939  0.24951143  0.93626957  1
  O2-  O141  1  0.49880426  0.74066086  0.27194681  1
  O2-  O142  1  0.49536112  0.74255971  0.60153949  1
  O2-  O143  1  0.49966190  0.75646151  0.94065919  1
  O2-  O144  1  0.06867386  0.17597473  0.08683539  1
  O2-  O145  1  0.06918016  0.17707563  0.43212238  1
  O2-  O146  1  0.06838019  0.17303517  0.75793844  1
  O2-  O147  1  0.06920701  0.67898784  0.08770146  1
  O2-  O148  1  0.06952752  0.68254452  0.42290740  1
  O2-  O149  1  0.06810333  0.68045818  0.75589816  1
  O2-  O150  1  0.57075108  0.18186246  0.10142386  1
  O2-  O151  1  0.57139098  0.17531862  0.42401206  1
  O2-  O152  1  0.57118284  0.17737100  0.76570348  1
  O2-  O153  1  0.57221811  0.67969476  0.10032112  1
  O2-  O154  1  0.57725161  0.68530182  0.42268089  1
  O2-  O155  1  0.57630117  0.68323093  0.76302531  1
  O2-  O156  1  0.17971345  0.43196680  0.23367039  1
  O2-  O157  1  0.17885290  0.42898348  0.56920012  1
  O2-  O158  1  0.17756572  0.43440704  0.90081013  1
  O2-  O159  1  0.17550313  0.92841795  0.24589179  1
  O2-  O160  1  0.17056087  0.92920782  0.57525502  1
  O2-  O161  1  0.18002764  0.92638200  0.90008247  1
  O2-  O162  1  0.67747572  0.42660088  0.23502099  1
  O2-  O163  1  0.68315857  0.42018627  0.57887912  1
  O2-  O164  1  0.68044293  0.43235494  0.89722647  1
  O2-  O165  1  0.68228890  0.92773872  0.24665870  1
  O2-  O166  1  0.68280998  0.93334591  0.57509807  1
  O2-  O167  1  0.68170194  0.92580620  0.90125208  1
  O2-  O168  1  0.42652734  0.32360749  0.09865180  1
  O2-  O169  1  0.43119784  0.31600629  0.43632350  1
  O2-  O170  1  0.41972217  0.31443909  0.75616663  1
  O2-  O171  1  0.42572506  0.81651736  0.09050146  1
  O2-  O172  1  0.43111542  0.82037976  0.42991680  1
  O2-  O173  1  0.42968679  0.82181682  0.76582447  1
  O2-  O174  1  0.93112832  0.32440120  0.09639442  1
  O2-  O175  1  0.93130654  0.32083848  0.43198578  1
  O2-  O176  1  0.93043029  0.32106253  0.75632100  1
  O2-  O177  1  0.92872784  0.82002404  0.08895121  1
  O2-  O178  1  0.92801464  0.82376058  0.42271727  1
  O2-  O179  1  0.93283377  0.82545361  0.75681564  1
  O2-  O180  1  0.32376154  0.06756168  0.23786745  1
  O2-  O181  1  0.32019614  0.06919533  0.57758333  1
  O2-  O182  1  0.32070871  0.06736940  0.90147485  1
  O2-  O183  1  0.31806372  0.57568600  0.23364191  1
  O2-  O184  1  0.31576930  0.57951223  0.57867900  1
  O2-  O185  1  0.31792563  0.57454957  0.90753109  1
  O2-  O186  1  0.82329847  0.06744332  0.24572101  1
  O2-  O187  1  0.82536364  0.06776690  0.57461355  1
  O2-  O188  1  0.82108875  0.07044955  0.90088046  1
  O2-  O189  1  0.81689702  0.57679882  0.23347143  1
  O2-  O190  1  0.82099281  0.56828555  0.56963437  1
  O2-  O191  1  0.82235040  0.57319677  0.90885995  1
  O2-  O192  1  0.04091341  0.08031456  0.26493841  1
  O2-  O193  1  0.04105048  0.08741319  0.60288418  1
  O2-  O194  1  0.04352768  0.08193346  0.93654204  1
  O2-  O195  1  0.04217942  0.58911837  0.26933992  1
  O2-  O196  1  0.03666372  0.58743367  0.60467088  1
  O2-  O197  1  0.04002529  0.59024644  0.93200285  1
  O2-  O198  1  0.54418981  0.08363058  0.27352975  1
  O2-  O199  1  0.54005346  0.08551960  0.59686225  1
  O2-  O200  1  0.54378010  0.07827382  0.93723887  1
  O2-  O201  1  0.55608281  0.58214123  0.27709682  1
  O2-  O202  1  0.55596002  0.57361341  0.60123746  1
  O2-  O203  1  0.54171132  0.58678941  0.92701557  1
  O2-  O204  1  0.17446813  0.19842922  0.26962346  1
  O2-  O205  1  0.16452247  0.20292703  0.60883597  1
  O2-  O206  1  0.16353308  0.20120817  0.93547245  1
  O2-  O207  1  0.15907018  0.71042341  0.26741806  1
  O2-  O208  1  0.15958350  0.70498937  0.60178826  1
  O2-  O209  1  0.16207430  0.70625298  0.93303743  1
  O2-  O210  1  0.67046243  0.19332925  0.27640688  1
  O2-  O211  1  0.66904654  0.20770339  0.59747524  1
  O2-  O212  1  0.66836650  0.20781139  0.93376614  1
  O2-  O213  1  0.66389618  0.71409948  0.27022881  1
  O2-  O214  1  0.67028683  0.71309813  0.59605718  1
  O2-  O215  1  0.67007002  0.71160562  0.93338595  1
  O2-  O216  1  0.08466340  0.46947393  0.06665907  1
  O2-  O217  1  0.08345247  0.46077325  0.39953507  1
  O2-  O218  1  0.08601034  0.46518751  0.73671287  1
  O2-  O219  1  0.07952502  0.95006248  0.06678073  1
  O2-  O220  1  0.08107584  0.95205136  0.39644252  1
  O2-  O221  1  0.08653030  0.95911249  0.72974413  1
  O2-  O222  1  0.58040262  0.46263757  0.06219121  1
  O2-  O223  1  0.58127505  0.45256659  0.40578577  1
  O2-  O224  1  0.57872081  0.44011438  0.72443936  1
  O2-  O225  1  0.57909802  0.94824741  0.06938061  1
  O2-  O226  1  0.58847620  0.95665205  0.39924816  1
  O2-  O227  1  0.58757456  0.95926713  0.72636025  1
  O2-  O228  1  0.19774987  0.33033551  0.06539719  1
  O2-  O229  1  0.20775071  0.32941283  0.40050609  1
  O2-  O230  1  0.20661944  0.33109608  0.73688421  1
  O2-  O231  1  0.20252980  0.82565311  0.06600682  1
  O2-  O232  1  0.20063436  0.83437021  0.39614112  1
  O2-  O233  1  0.19822072  0.83318275  0.72550053  1
  O2-  O234  1  0.70945956  0.33634062  0.06450676  1
  O2-  O235  1  0.70753415  0.32657396  0.40235821  1
  O2-  O236  1  0.71161505  0.33361600  0.73081782  1
  O2-  O237  1  0.71565752  0.83283344  0.07063763  1
  O2-  O238  1  0.71194389  0.84026134  0.40112747  1
  O2-  O239  1  0.71038178  0.84158086  0.72711292  1
  O2-  O240  1  0.45598176  0.42151368  0.27144743  1
  O2-  O241  1  0.43877956  0.41655421  0.60887950  1
  O2-  O242  1  0.45179141  0.41991991  0.92925145  1
  O2-  O243  1  0.46471755  0.91484917  0.26454579  1
  O2-  O244  1  0.46161674  0.91556126  0.59746726  1
  O2-  O245  1  0.44907983  0.91633684  0.94256959  1
  O2-  O246  1  0.95403171  0.42318265  0.26593520  1
  O2-  O247  1  0.96107596  0.41482351  0.60660859  1
  O2-  O248  1  0.96299839  0.41831903  0.92870792  1
  O2-  O249  1  0.95459206  0.91198390  0.26789098  1
  O2-  O250  1  0.95947604  0.91408790  0.60240617  1
  O2-  O251  1  0.95708120  0.91450213  0.93616144  1
  O2-  O252  1  0.33680099  0.28740634  0.27010351  1
  O2-  O253  1  0.33225104  0.28509036  0.60456812  1
  O2-  O254  1  0.32584813  0.29167679  0.93354530  1
  O2-  O255  1  0.32943050  0.79479413  0.26412010  1
  O2-  O256  1  0.32708153  0.79691047  0.59941212  1
  O2-  O257  1  0.33478962  0.79238129  0.93752527  1
  O2-  O258  1  0.83231064  0.28882477  0.26696938  1
  O2-  O259  1  0.84107875  0.29486517  0.60197780  1
  O2-  O260  1  0.83381867  0.29166693  0.92784659  1
  O2-  O261  1  0.83468685  0.79394060  0.27044350  1
  O2-  O262  1  0.83827401  0.79736933  0.60433806  1
  O2-  O263  1  0.83937601  0.79449870  0.93384939  1
  O2-  O264  1  0.41875976  0.04467387  0.07156586  1
  O2-  O265  1  0.41770236  0.03439861  0.40492981  1
  O2-  O266  1  0.41426264  0.03986864  0.72794040  1
  O2-  O267  1  0.41838938  0.55381656  0.05594051  1
  O2-  O268  1  0.42268394  0.55614712  0.39982817  1
  O2-  O269  1  0.41968151  0.55586565  0.72434805  1
  O2-  O270  1  0.91590719  0.04035412  0.06969660  1
  O2-  O271  1  0.91320555  0.03630432  0.39833187  1
  O2-  O272  1  0.91318801  0.04111788  0.72868785  1
  O2-  O273  1  0.91619254  0.54699859  0.05906536  1
  O2-  O274  1  0.91901795  0.54711483  0.40013229  1
  O2-  O275  1  0.91321806  0.53963862  0.73791795  1
  O2-  O276  1  0.28927953  0.16739913  0.06868517  1
  O2-  O277  1  0.29222396  0.16407064  0.40788205  1
  O2-  O278  1  0.29072975  0.15671285  0.73256314  1
  O2-  O279  1  0.28993017  0.66157080  0.06105062  1
  O2-  O280  1  0.28513322  0.67044168  0.40044058  1
  O2-  O281  1  0.28957276  0.66617790  0.73170472  1
  O2-  O282  1  0.79630450  0.17316866  0.06773975  1
  O2-  O283  1  0.79928849  0.16123166  0.39935300  1
  O2-  O284  1  0.79913514  0.16648779  0.72318909  1
  O2-  O285  1  0.80170642  0.66797340  0.05911003  1
  O2-  O286  1  0.79174591  0.67047724  0.40209295  1
  O2-  O287  1  0.79340508  0.67103398  0.73397593  1
