# generated using pymatgen
data_Ca2Al2SiO7
_symmetry_space_group_name_H-M   'P 1'
_cell_length_a   15.45776225
_cell_length_b   15.45677166
_cell_length_c   15.28360409
_cell_angle_alpha   89.99538969
_cell_angle_beta   89.99294926
_cell_angle_gamma   89.99527535
_symmetry_Int_Tables_number   1
_chemical_formula_structural   Ca2Al2SiO7
_chemical_formula_sum   'Ca48 Al48 Si24 O168'
_cell_volume   3651.66717362
_cell_formula_units_Z   24
loop_
 _symmetry_equiv_pos_site_id
 _symmetry_equiv_pos_as_xyz
  1  'x, y, z'
loop_
 _atom_type_symbol
 _atom_type_oxidation_number
  Ca2+  2.0
  Al0+  0.0
  Si0+  0.0
  O2-  -2.0
loop_
 _atom_site_type_symbol
 _atom_site_label
 _atom_site_symmetry_multiplicity
 _atom_site_fract_x
 _atom_site_fract_y
 _atom_site_fract_z
 _atom_site_occupancy
  Ca2+  Ca0  1  0.18539690  0.08380394  0.17206169  1
  Ca2+  Ca1  1  0.17228841  0.07856983  0.50706861  1
  Ca2+  Ca2  1  0.17169088  0.08019461  0.83595389  1
  Ca2+  Ca3  1  0.17234708  0.58391083  0.17541355  1
  Ca2+  Ca4  1  0.17442732  0.58275280  0.50552145  1
  Ca2+  Ca5  1  0.17353914  0.57623021  0.83052601  1
  Ca2+  Ca6  1  0.66670232  0.09072040  0.17022580  1
  Ca2+  Ca7  1  0.67001109  0.08969343  0.50361132  1
  Ca2+  Ca8  1  0.67263544  0.09523791  0.83653262  1
  Ca2+  Ca9  1  0.65987181  0.57110016  0.17355680  1
  Ca2+  Ca10  1  0.65809855  0.57681446  0.49916137  1
  Ca2+  Ca11  1  0.67182219  0.57586797  0.84396065  1
  Ca2+  Ca12  1  0.07370871  0.33839199  0.16507230  1
  Ca2+  Ca13  1  0.08104851  0.33245613  0.49898788  1
  Ca2+  Ca14  1  0.08302875  0.32557204  0.82353466  1
  Ca2+  Ca15  1  0.08108043  0.82887052  0.17048078  1
  Ca2+  Ca16  1  0.08087784  0.83154959  0.49296350  1
  Ca2+  Ca17  1  0.08428448  0.83557114  0.82686686  1
  Ca2+  Ca18  1  0.58296733  0.32726076  0.16066771  1
  Ca2+  Ca19  1  0.58150051  0.32514823  0.49657770  1
  Ca2+  Ca20  1  0.57732168  0.32851093  0.83172723  1
  Ca2+  Ca21  1  0.57328851  0.82891680  0.16570450  1
  Ca2+  Ca22  1  0.57132882  0.82530242  0.49178766  1
  Ca2+  Ca23  1  0.56996367  0.83528307  0.82949898  1
  Ca2+  Ca24  1  0.33749727  0.42125104  0.17454073  1
  Ca2+  Ca25  1  0.33478908  0.43002405  0.50919498  1
  Ca2+  Ca26  1  0.33596620  0.41157941  0.83304497  1
  Ca2+  Ca27  1  0.34729072  0.92540523  0.17017704  1
  Ca2+  Ca28  1  0.33430597  0.91748575  0.50410750  1
  Ca2+  Ca29  1  0.33343108  0.91881333  0.83674058  1
  Ca2+  Ca30  1  0.82073811  0.41640302  0.17164895  1
  Ca2+  Ca31  1  0.82914433  0.41041483  0.49755831  1
  Ca2+  Ca32  1  0.82392282  0.42101548  0.84407760  1
  Ca2+  Ca33  1  0.83295319  0.92122794  0.17073186  1
  Ca2+  Ca34  1  0.83249100  0.91973155  0.50696631  1
  Ca2+  Ca35  1  0.82943549  0.93069396  0.83843578  1
  Ca2+  Ca36  1  0.42560330  0.16642229  0.15619304  1
  Ca2+  Ca37  1  0.42626561  0.16681639  0.49377955  1
  Ca2+  Ca38  1  0.42459557  0.17421697  0.82806047  1
  Ca2+  Ca39  1  0.41551692  0.67338730  0.16695263  1
  Ca2+  Ca40  1  0.40941965  0.67429379  0.49306244  1
  Ca2+  Ca41  1  0.41013092  0.67616374  0.82772208  1
  Ca2+  Ca42  1  0.91428164  0.17156603  0.16451083  1
  Ca2+  Ca43  1  0.92375804  0.16670381  0.49785720  1
  Ca2+  Ca44  1  0.91921832  0.16143179  0.82538951  1
  Ca2+  Ca45  1  0.91872088  0.66589498  0.16568001  1
  Ca2+  Ca46  1  0.92667203  0.67380857  0.48632634  1
  Ca2+  Ca47  1  0.91587109  0.66520804  0.83074656  1
  Al0+  Al48  1  -0.00056114  -0.00202835  0.00585716  1
  Al0+  Al49  1  0.00165424  0.00116171  0.32820874  1
  Al0+  Al50  1  -0.00008545  0.00093709  0.67017434  1
  Al0+  Al51  1  0.00099785  0.50076492  0.00111684  1
  Al0+  Al52  1  -0.00179136  0.49892194  0.32561976  1
  Al0+  Al53  1  0.00100724  0.50027355  0.66975466  1
  Al0+  Al54  1  0.50115863  -0.00090404  -0.00654839  1
  Al0+  Al55  1  0.50368299  0.00056165  0.33247389  1
  Al0+  Al56  1  0.50102482  -0.00161530  0.65864334  1
  Al0+  Al57  1  0.49874427  0.50035706  0.00031146  1
  Al0+  Al58  1  0.49904981  0.49896017  0.34140496  1
  Al0+  Al59  1  0.50128747  0.50118932  0.67080651  1
  Al0+  Al60  1  0.24870561  0.24857628  0.00197725  1
  Al0+  Al61  1  0.25060119  0.24901023  0.34013430  1
  Al0+  Al62  1  0.24941140  0.25051467  0.66088486  1
  Al0+  Al63  1  0.24689110  0.74808801  -0.00406536  1
  Al0+  Al64  1  0.24789232  0.75185152  0.32787430  1
  Al0+  Al65  1  0.24848638  0.75005246  0.67118629  1
  Al0+  Al66  1  0.75142755  0.25156517  0.00420113  1
  Al0+  Al67  1  0.75090879  0.25063062  0.33153240  1
  Al0+  Al68  1  0.75086686  0.25155073  0.66809962  1
  Al0+  Al69  1  0.75239243  0.75179661  0.00192051  1
  Al0+  Al70  1  0.74943023  0.74975130  0.32635934  1
  Al0+  Al71  1  0.74854211  0.75162850  0.66868512  1
  Al0+  Al72  1  0.82322306  0.57296512  0.01666399  1
  Al0+  Al73  1  0.31865837  0.57125591  0.34598033  1
  Al0+  Al74  1  0.42871373  0.81952361  0.98448458  1
  Al0+  Al75  1  0.17815467  0.42704863  0.68158983  1
  Al0+  Al76  1  0.56980619  0.67501362  0.31892781  1
  Al0+  Al77  1  0.92708351  0.82371279  0.31800178  1
  Al0+  Al78  1  0.67755332  0.43108703  0.01650948  1
  Al0+  Al79  1  0.07086872  0.67881896  0.31817170  1
  Al0+  Al80  1  0.42598632  0.32258167  0.98646653  1
  Al0+  Al81  1  0.57316079  0.17963070  0.98409765  1
  Al0+  Al82  1  0.82105322  0.07080586  0.01603120  1
  Al0+  Al83  1  0.57265854  0.18033827  0.65014992  1
  Al0+  Al84  1  0.57042223  0.18060574  0.31872789  1
  Al0+  Al85  1  0.67947688  0.42824006  0.35015346  1
  Al0+  Al86  1  0.17965902  0.93033005  0.67917205  1
  Al0+  Al87  1  0.42824957  0.82135138  0.31824367  1
  Al0+  Al88  1  0.32204314  0.57092228  0.68389662  1
  Al0+  Al89  1  0.42697918  0.81886214  0.65204494  1
  Al0+  Al90  1  0.32077356  0.06903460  0.01062600  1
  Al0+  Al91  1  0.81893817  0.07053642  0.67828473  1
  Al0+  Al92  1  0.42827062  0.32340474  0.64962335  1
  Al0+  Al93  1  0.32508671  0.07050765  0.34827060  1
  Al0+  Al94  1  0.93017473  0.31881165  0.31924702  1
  Al0+  Al95  1  0.07098878  0.17726956  0.65393091  1
  Si0+  Si96  1  0.92885997  0.32405975  0.65177225  1
  Si0+  Si97  1  0.17766890  0.93066094  0.34893723  1
  Si0+  Si98  1  0.31871806  0.57173937  0.01510366  1
  Si0+  Si99  1  0.68061949  0.92696646  0.34850618  1
  Si0+  Si100  1  0.92925734  0.82255830  0.98226806  1
  Si0+  Si101  1  0.17767399  0.92522599  0.01881442  1
  Si0+  Si102  1  0.57296205  0.67793860  0.98383802  1
  Si0+  Si103  1  0.07012049  0.17768611  0.98658521  1
  Si0+  Si104  1  0.17910377  0.42725796  0.01534780  1
  Si0+  Si105  1  0.06867629  0.67869452  0.65318465  1
  Si0+  Si106  1  0.67737995  0.92799527  0.01736910  1
  Si0+  Si107  1  0.68056043  0.42973679  0.68261976  1
  Si0+  Si108  1  0.93104491  0.32095903  0.98441574  1
  Si0+  Si109  1  0.32479391  0.07191530  0.68178315  1
  Si0+  Si110  1  0.17438568  0.42745013  0.34942981  1
  Si0+  Si111  1  0.82176980  0.57355021  0.67918247  1
  Si0+  Si112  1  0.92842174  0.82102701  0.65492718  1
  Si0+  Si113  1  0.07474312  0.17746801  0.31495023  1
  Si0+  Si114  1  0.67702793  0.92628249  0.68334981  1
  Si0+  Si115  1  0.57468445  0.67885260  0.65201154  1
  Si0+  Si116  1  0.42676261  0.32123132  0.31949662  1
  Si0+  Si117  1  0.82186469  0.07031593  0.34845093  1
  Si0+  Si118  1  0.06954817  0.67805534  0.98064094  1
  Si0+  Si119  1  0.82224850  0.57224280  0.35003421  1
  O2-  O120  1  0.24943116  -0.00842474  0.06064890  1
  O2-  O121  1  0.24863367  -0.00367696  0.39343293  1
  O2-  O122  1  0.25528304  0.00372599  0.72638598  1
  O2-  O123  1  0.25333888  0.49510564  0.05675639  1
  O2-  O124  1  0.24316308  0.49646911  0.39205256  1
  O2-  O125  1  0.25469090  0.49348223  0.73339091  1
  O2-  O126  1  0.74345325  -0.00079304  0.06243269  1
  O2-  O127  1  0.75504146  -0.00450904  0.39035194  1
  O2-  O128  1  0.74116714  -0.00014707  0.72658120  1
  O2-  O129  1  0.74747271  0.50574341  0.06653075  1
  O2-  O130  1  0.75233110  0.50632320  0.39680442  1
  O2-  O131  1  0.75095401  0.50312612  0.72212985  1
  O2-  O132  1  0.00769505  0.24767189  0.27077217  1
  O2-  O133  1  -0.00144743  0.25553814  0.60905280  1
  O2-  O134  1  -0.00131995  0.24726991  0.94182328  1
  O2-  O135  1  -0.00371479  0.74869046  0.26809925  1
  O2-  O136  1  -0.00346556  0.74853439  0.61147106  1
  O2-  O137  1  -0.00221226  0.74923090  0.93918166  1
  O2-  O138  1  0.49205274  0.25125408  0.27289732  1
  O2-  O139  1  0.49770630  0.24886651  0.59945383  1
  O2-  O140  1  0.49893091  0.25102086  0.93691380  1
  O2-  O141  1  0.49771655  0.74648847  0.26868845  1
  O2-  O142  1  0.50198693  0.74315559  0.60827143  1
  O2-  O143  1  0.50376914  0.74482060  0.93756179  1
  O2-  O144  1  0.06997716  0.18097260  0.09156693  1
  O2-  O145  1  0.07185741  0.17473845  0.42050817  1
  O2-  O146  1  0.06676464  0.17580529  0.76761101  1
  O2-  O147  1  0.07123519  0.67777745  0.08529623  1
  O2-  O148  1  0.06966187  0.68043124  0.43238019  1
  O2-  O149  1  0.06584482  0.67822402  0.75857801  1
  O2-  O150  1  0.57171273  0.18041418  0.09777351  1
  O2-  O151  1  0.57276674  0.18167922  0.43161614  1
  O2-  O152  1  0.57545557  0.18371781  0.76338819  1
  O2-  O153  1  0.57079956  0.67833063  0.08905092  1
  O2-  O154  1  0.57009272  0.67840054  0.43286650  1
  O2-  O155  1  0.58011332  0.68276937  0.75757251  1
  O2-  O156  1  0.17558275  0.42710866  0.24321223  1
  O2-  O157  1  0.17039340  0.43498728  0.56871502  1
  O2-  O158  1  0.17549124  0.42841248  0.91064053  1
  O2-  O159  1  0.17465735  0.93360228  0.24340866  1
  O2-  O160  1  0.17750170  0.93010677  0.56627759  1
  O2-  O161  1  0.17486269  0.92685513  0.91299596  1
  O2-  O162  1  0.68047083  0.42709153  0.23760965  1
  O2-  O163  1  0.68231537  0.42869595  0.57755768  1
  O2-  O164  1  0.68144211  0.43183298  0.90214467  1
  O2-  O165  1  0.67985419  0.92901816  0.24344236  1
  O2-  O166  1  0.68254359  0.91947646  0.57813447  1
  O2-  O167  1  0.68126418  0.92532917  0.91163123  1
  O2-  O168  1  0.42402512  0.32183516  0.10016151  1
  O2-  O169  1  0.42895913  0.32028148  0.42480099  1
  O2-  O170  1  0.43178797  0.32145286  0.76335531  1
  O2-  O171  1  0.42928167  0.81786563  0.09712845  1
  O2-  O172  1  0.42862628  0.81989807  0.43186466  1
  O2-  O173  1  0.42813466  0.81850850  0.76542465  1
  O2-  O174  1  0.93357762  0.32105303  0.08941790  1
  O2-  O175  1  0.93052759  0.31595701  0.43270634  1
  O2-  O176  1  0.92830781  0.32493621  0.75760434  1
  O2-  O177  1  0.93164535  0.82439049  0.08682626  1
  O2-  O178  1  0.92963497  0.82458875  0.43250076  1
  O2-  O179  1  0.92900889  0.81899398  0.76015495  1
  O2-  O180  1  0.32402580  0.07051107  0.23472791  1
  O2-  O181  1  0.32369337  0.06849566  0.57613251  1
  O2-  O182  1  0.31613639  0.06917507  0.89761598  1
  O2-  O183  1  0.31775860  0.56877323  0.23211961  1
  O2-  O184  1  0.31685453  0.57423871  0.57047724  1
  O2-  O185  1  0.31497617  0.57493549  0.91038782  1
  O2-  O186  1  0.82066109  0.07049967  0.24329889  1
  O2-  O187  1  0.82129805  0.06718683  0.56499859  1
  O2-  O188  1  0.82483125  0.06845863  0.90285272  1
  O2-  O189  1  0.82312557  0.56877926  0.24491724  1
  O2-  O190  1  0.82316789  0.57571680  0.57457156  1
  O2-  O191  1  0.82342609  0.56947798  0.90182318  1
  O2-  O192  1  0.04769725  0.08595170  0.26610812  1
  O2-  O193  1  0.03452963  0.08282701  0.59846355  1
  O2-  O194  1  0.04286170  0.08412343  0.94222168  1
  O2-  O195  1  0.04492239  0.58078244  0.26323112  1
  O2-  O196  1  0.04131883  0.58723462  0.60533642  1
  O2-  O197  1  0.04106421  0.58609563  0.93303021  1
  O2-  O198  1  0.54513469  0.08273772  0.26576238  1
  O2-  O199  1  0.55122050  0.07959833  0.59859637  1
  O2-  O200  1  0.54904561  0.08052615  0.93093970  1
  O2-  O201  1  0.53990571  0.57612220  0.26841082  1
  O2-  O202  1  0.55416162  0.58316391  0.60980601  1
  O2-  O203  1  0.54873453  0.58412138  0.93775710  1
  O2-  O204  1  0.16966268  0.20275507  0.27148628  1
  O2-  O205  1  0.16695121  0.20297135  0.59736635  1
  O2-  O206  1  0.16081707  0.20615855  0.93817712  1
  O2-  O207  1  0.16561981  0.71076717  0.26027058  1
  O2-  O208  1  0.15974545  0.70867552  0.60742326  1
  O2-  O209  1  0.15982817  0.70693437  0.93097989  1
  O2-  O210  1  0.66642785  0.21329209  0.26563496  1
  O2-  O211  1  0.67128701  0.21259096  0.59813155  1
  O2-  O212  1  0.67261915  0.21074987  0.93374074  1
  O2-  O213  1  0.66819379  0.70109999  0.26535183  1
  O2-  O214  1  0.66660702  0.70771925  0.60295012  1
  O2-  O215  1  0.66801932  0.70361396  0.93957047  1
  O2-  O216  1  0.08918800  0.46054764  0.06374211  1
  O2-  O217  1  0.07964283  0.45253704  0.39312415  1
  O2-  O218  1  0.08123365  0.46023252  0.73835264  1
  O2-  O219  1  0.08531820  0.95231913  0.06623524  1
  O2-  O220  1  0.08435696  0.95877783  0.39590365  1
  O2-  O221  1  0.08416358  0.96160405  0.73631862  1
  O2-  O222  1  0.57787416  0.45690885  0.06874760  1
  O2-  O223  1  0.58384401  0.45736487  0.40686567  1
  O2-  O224  1  0.58971770  0.45640971  0.73160654  1
  O2-  O225  1  0.58245006  0.95028824  0.06092472  1
  O2-  O226  1  0.59109957  0.95798153  0.39799574  1
  O2-  O227  1  0.58133503  0.94834456  0.72580804  1
  O2-  O228  1  0.20018101  0.33471584  0.06398591  1
  O2-  O229  1  0.19694254  0.33350876  0.39597009  1
  O2-  O230  1  0.20004115  0.32562297  0.73183520  1
  O2-  O231  1  0.20011869  0.82964216  0.06172922  1
  O2-  O232  1  0.19885777  0.83518133  0.39228550  1
  O2-  O233  1  0.20677979  0.83421746  0.73617163  1
  O2-  O234  1  0.71115303  0.33465893  0.06958588  1
  O2-  O235  1  0.71789501  0.33346258  0.40392923  1
  O2-  O236  1  0.71222490  0.34025278  0.73181505  1
  O2-  O237  1  0.70627294  0.83585050  0.06472538  1
  O2-  O238  1  0.70616556  0.83400635  0.39541287  1
  O2-  O239  1  0.70716535  0.83573679  0.73459365  1
  O2-  O240  1  0.45398639  0.41488285  0.27556884  1
  O2-  O241  1  0.45961325  0.42313165  0.60053975  1
  O2-  O242  1  0.45191840  0.42220691  0.93374107  1
  O2-  O243  1  0.46487243  0.91720890  0.26575279  1
  O2-  O244  1  0.45725205  0.91436478  0.59646519  1
  O2-  O245  1  0.45959711  0.91474908  0.92808725  1
  O2-  O246  1  0.95693881  0.41460630  0.26165223  1
  O2-  O247  1  0.95403711  0.41768787  0.60496916  1
  O2-  O248  1  0.96132471  0.41243704  0.93727427  1
  O2-  O249  1  0.95887147  0.92039804  0.26254310  1
  O2-  O250  1  0.95827108  0.91162611  0.60759430  1
  O2-  O251  1  0.96091886  0.91375983  0.93481070  1
  O2-  O252  1  0.33055260  0.30063650  0.27631176  1
  O2-  O253  1  0.32750758  0.30359261  0.59867526  1
  O2-  O254  1  0.32682125  0.29329309  0.93412412  1
  O2-  O255  1  0.32925940  0.79910685  0.26476379  1
  O2-  O256  1  0.32932843  0.78795699  0.60039651  1
  O2-  O257  1  0.33090551  0.78813538  0.93213272  1
  O2-  O258  1  0.83642276  0.28385883  0.26340622  1
  O2-  O259  1  0.83645098  0.29682491  0.60512968  1
  O2-  O260  1  0.83826779  0.29604914  0.93866955  1
  O2-  O261  1  0.82923233  0.79932091  0.26320737  1
  O2-  O262  1  0.83556159  0.79602364  0.60814300  1
  O2-  O263  1  0.83638107  0.79832265  0.93468388  1
  O2-  O264  1  0.41900857  0.03946086  0.06201925  1
  O2-  O265  1  0.42137902  0.03887284  0.40197177  1
  O2-  O266  1  0.41885743  0.04473848  0.72597713  1
  O2-  O267  1  0.41262782  0.55081579  0.06042670  1
  O2-  O268  1  0.41341398  0.54165040  0.40349907  1
  O2-  O269  1  0.42272171  0.55032428  0.73624612  1
  O2-  O270  1  0.91627557  0.03680932  0.07176530  1
  O2-  O271  1  0.91626741  0.04592241  0.39286504  1
  O2-  O272  1  0.91282961  0.03564152  0.73522036  1
  O2-  O273  1  0.92127342  0.54148558  0.06834977  1
  O2-  O274  1  0.91593698  0.54321605  0.39525007  1
  O2-  O275  1  0.91274834  0.54623170  0.72874399  1
  O2-  O276  1  0.28652610  0.16375008  0.06749399  1
  O2-  O277  1  0.29413773  0.16650657  0.40388081  1
  O2-  O278  1  0.29882263  0.16636275  0.72453799  1
  O2-  O279  1  0.28324406  0.66111731  0.06283927  1
  O2-  O280  1  0.28633883  0.66920977  0.39679208  1
  O2-  O281  1  0.28451583  0.66578297  0.73890488  1
  O2-  O282  1  0.79536208  0.16860373  0.06926186  1
  O2-  O283  1  0.79078320  0.16064529  0.39579193  1
  O2-  O284  1  0.79365213  0.16866293  0.73298055  1
  O2-  O285  1  0.80423462  0.67497587  0.06504895  1
  O2-  O286  1  0.80122354  0.66865570  0.39256463  1
  O2-  O287  1  0.79448454  0.66502396  0.72908511  1
