# generated using pymatgen
data_Ca2Al2SiO7
_symmetry_space_group_name_H-M   'P 1'
_cell_length_a   15.46090830
_cell_length_b   15.46139427
_cell_length_c   15.28646873
_cell_angle_alpha   89.98585804
_cell_angle_beta   90.00442117
_cell_angle_gamma   90.00959157
_symmetry_Int_Tables_number   1
_chemical_formula_structural   Ca2Al2SiO7
_chemical_formula_sum   'Ca48 Al48 Si24 O168'
_cell_volume   3654.18735994
_cell_formula_units_Z   24
loop_
 _symmetry_equiv_pos_site_id
 _symmetry_equiv_pos_as_xyz
  1  'x, y, z'
loop_
 _atom_type_symbol
 _atom_type_oxidation_number
  Ca2+  2.0
  Al0+  0.0
  Si0+  0.0
  O2-  -2.0
loop_
 _atom_site_type_symbol
 _atom_site_label
 _atom_site_symmetry_multiplicity
 _atom_site_fract_x
 _atom_site_fract_y
 _atom_site_fract_z
 _atom_site_occupancy
  Ca2+  Ca0  1  0.17085101  0.09161952  0.16548911  1
  Ca2+  Ca1  1  0.16826005  0.07978914  0.50425625  1
  Ca2+  Ca2  1  0.16953139  0.08490513  0.84396564  1
  Ca2+  Ca3  1  0.16737851  0.58080816  0.17859348  1
  Ca2+  Ca4  1  0.17016108  0.58010589  0.50571774  1
  Ca2+  Ca5  1  0.16587216  0.58638491  0.83324941  1
  Ca2+  Ca6  1  0.67855798  0.08143118  0.17685047  1
  Ca2+  Ca7  1  0.67168436  0.07639988  0.50285083  1
  Ca2+  Ca8  1  0.67623540  0.07548796  0.83799929  1
  Ca2+  Ca9  1  0.67726104  0.57429442  0.17385354  1
  Ca2+  Ca10  1  0.66633898  0.58790209  0.50079055  1
  Ca2+  Ca11  1  0.67167640  0.58193489  0.84321061  1
  Ca2+  Ca12  1  0.07515588  0.33241859  0.15791303  1
  Ca2+  Ca13  1  0.08530768  0.33825114  0.49690699  1
  Ca2+  Ca14  1  0.07757532  0.33195189  0.83384358  1
  Ca2+  Ca15  1  0.07521218  0.81959313  0.15860099  1
  Ca2+  Ca16  1  0.08266820  0.82023647  0.49433487  1
  Ca2+  Ca17  1  0.07567775  0.82413803  0.83313393  1
  Ca2+  Ca18  1  0.58482610  0.33505459  0.16193389  1
  Ca2+  Ca19  1  0.58624656  0.32814879  0.48888129  1
  Ca2+  Ca20  1  0.57684903  0.34046593  0.83355094  1
  Ca2+  Ca21  1  0.59263652  0.82776335  0.17031037  1
  Ca2+  Ca22  1  0.58885394  0.82779846  0.49484039  1
  Ca2+  Ca23  1  0.58495835  0.82872792  0.82558708  1
  Ca2+  Ca24  1  0.32596769  0.41829306  0.17311391  1
  Ca2+  Ca25  1  0.32307838  0.42815448  0.50240813  1
  Ca2+  Ca26  1  0.32878565  0.42006191  0.83609083  1
  Ca2+  Ca27  1  0.33258308  0.92298485  0.16706673  1
  Ca2+  Ca28  1  0.33378434  0.91634857  0.50181605  1
  Ca2+  Ca29  1  0.33061602  0.92338697  0.84094280  1
  Ca2+  Ca30  1  0.83164829  0.42261375  0.16992365  1
  Ca2+  Ca31  1  0.82792567  0.42242765  0.49460497  1
  Ca2+  Ca32  1  0.82686303  0.42171732  0.84507732  1
  Ca2+  Ca33  1  0.83782004  0.92554907  0.17124027  1
  Ca2+  Ca34  1  0.82404212  0.92493349  0.50386381  1
  Ca2+  Ca35  1  0.83454509  0.92072759  0.83841759  1
  Ca2+  Ca36  1  0.42443446  0.17322930  0.15809740  1
  Ca2+  Ca37  1  0.42663080  0.17008129  0.49033325  1
  Ca2+  Ca38  1  0.41250737  0.17339306  0.83445534  1
  Ca2+  Ca39  1  0.42387412  0.65776415  0.16840458  1
  Ca2+  Ca40  1  0.42373645  0.65955676  0.49523033  1
  Ca2+  Ca41  1  0.42368141  0.66458271  0.82435845  1
  Ca2+  Ca42  1  0.91653738  0.17052691  0.15584742  1
  Ca2+  Ca43  1  0.91073387  0.16568861  0.49611852  1
  Ca2+  Ca44  1  0.90901737  0.16911135  0.83422746  1
  Ca2+  Ca45  1  0.92183350  0.66253885  0.15847242  1
  Ca2+  Ca46  1  0.92650491  0.65980382  0.49208012  1
  Ca2+  Ca47  1  0.92253849  0.66479951  0.83271211  1
  Al0+  Al48  1  0.00117835  -0.00421060  -0.00267970  1
  Al0+  Al49  1  0.00261581  0.00016121  0.33730585  1
  Al0+  Al50  1  0.00070152  0.00186763  0.66863946  1
  Al0+  Al51  1  0.00106977  0.49760845  -0.00608852  1
  Al0+  Al52  1  -0.00069478  0.49706921  0.33583695  1
  Al0+  Al53  1  -0.00104499  0.49742536  0.66570330  1
  Al0+  Al54  1  0.49868469  -0.00036700  0.00424305  1
  Al0+  Al55  1  0.50107156  0.00101988  0.33086825  1
  Al0+  Al56  1  0.50095162  0.00088279  0.67033796  1
  Al0+  Al57  1  0.49849900  0.49862717  -0.00124125  1
  Al0+  Al58  1  0.49793240  0.50001493  0.33474035  1
  Al0+  Al59  1  0.49734111  0.50026509  0.66407222  1
  Al0+  Al60  1  0.25240489  0.25108308  -0.00284822  1
  Al0+  Al61  1  0.25054650  0.25011843  0.33820073  1
  Al0+  Al62  1  0.24806033  0.25191861  0.66731947  1
  Al0+  Al63  1  0.25210008  0.75077775  -0.00301710  1
  Al0+  Al64  1  0.25072961  0.75154968  0.33138118  1
  Al0+  Al65  1  0.25027941  0.75096079  0.66683580  1
  Al0+  Al66  1  0.74773911  0.24669214  0.00116813  1
  Al0+  Al67  1  0.75144743  0.25081130  0.33535032  1
  Al0+  Al68  1  0.75003179  0.25067042  0.66923987  1
  Al0+  Al69  1  0.75101347  0.74884940  -0.00047295  1
  Al0+  Al70  1  0.75109205  0.75228310  0.33541018  1
  Al0+  Al71  1  0.74992924  0.75141387  0.66575838  1
  Al0+  Al72  1  0.17710508  0.42901209  0.68590150  1
  Al0+  Al73  1  0.67882938  0.92775403  0.68361043  1
  Al0+  Al74  1  0.06925273  0.67923473  0.65083667  1
  Al0+  Al75  1  0.17765196  0.42779877  0.34708662  1
  Al0+  Al76  1  0.32020465  0.57368584  0.34748204  1
  Al0+  Al77  1  0.07359224  0.67605071  0.98455194  1
  Al0+  Al78  1  0.07121850  0.17899654  0.98632783  1
  Al0+  Al79  1  0.92545926  0.31944834  0.98431647  1
  Al0+  Al80  1  0.82135355  0.57234684  0.34806341  1
  Al0+  Al81  1  0.67790345  0.92946456  0.34854194  1
  Al0+  Al82  1  0.57256459  0.17968422  0.31941132  1
  Al0+  Al83  1  0.92702495  0.81944335  0.98491922  1
  Al0+  Al84  1  0.67803469  0.42983925  0.34782616  1
  Al0+  Al85  1  0.31972007  0.07248008  0.01443077  1
  Al0+  Al86  1  0.32064441  0.57167261  0.68367488  1
  Al0+  Al87  1  0.43060010  0.32114596  0.98576351  1
  Al0+  Al88  1  0.57177690  0.67869822  0.31847156  1
  Al0+  Al89  1  0.57111699  0.67940957  0.65334772  1
  Al0+  Al90  1  0.82312564  0.57034754  0.01344539  1
  Al0+  Al91  1  0.67623128  0.42874237  0.01363490  1
  Al0+  Al92  1  0.82384172  0.07209292  0.34837495  1
  Al0+  Al93  1  0.82124665  0.07184811  0.68448352  1
  Al0+  Al94  1  0.06998785  0.67768598  0.32037586  1
  Al0+  Al95  1  0.82196649  0.06801522  0.01413207  1
  Si0+  Si96  1  0.67639079  0.92640193  0.01787256  1
  Si0+  Si97  1  0.67783199  0.42913664  0.68015042  1
  Si0+  Si98  1  0.17928139  0.92926693  0.68209147  1
  Si0+  Si99  1  0.42723712  0.32057993  0.31733947  1
  Si0+  Si100  1  0.32145522  0.07140721  0.34848372  1
  Si0+  Si101  1  0.42680106  0.32082677  0.64894945  1
  Si0+  Si102  1  0.17929148  0.92624839  0.01745009  1
  Si0+  Si103  1  0.07353592  0.17685856  0.32033797  1
  Si0+  Si104  1  0.32100137  0.07173531  0.68063192  1
  Si0+  Si105  1  0.92706644  0.31954416  0.64924239  1
  Si0+  Si106  1  0.42834558  0.82489412  0.65103683  1
  Si0+  Si107  1  0.82048426  0.57064576  0.67999530  1
  Si0+  Si108  1  0.42931645  0.82297273  0.98498165  1
  Si0+  Si109  1  0.57123003  0.17497418  0.98191603  1
  Si0+  Si110  1  0.56882965  0.67966305  0.98678502  1
  Si0+  Si111  1  0.32117802  0.57294828  0.01440568  1
  Si0+  Si112  1  0.07190937  0.17907333  0.65039572  1
  Si0+  Si113  1  0.92881248  0.82444380  0.64767976  1
  Si0+  Si114  1  0.57013894  0.18066194  0.65288611  1
  Si0+  Si115  1  0.92992655  0.82374751  0.31860199  1
  Si0+  Si116  1  0.42735249  0.82392319  0.31449107  1
  Si0+  Si117  1  0.93032238  0.31868986  0.31919642  1
  Si0+  Si118  1  0.18065930  0.42963749  0.01342442  1
  Si0+  Si119  1  0.18037671  0.92953375  0.34821665  1
  O2-  O120  1  0.24333892  -0.00022493  0.06196321  1
  O2-  O121  1  0.25179167  0.00001763  0.39189102  1
  O2-  O122  1  0.25062613  0.00071859  0.72327410  1
  O2-  O123  1  0.24538307  0.50668666  0.05505630  1
  O2-  O124  1  0.24522019  0.50426822  0.39621169  1
  O2-  O125  1  0.24749609  0.50245407  0.73609757  1
  O2-  O126  1  0.74642828  -0.00588121  0.06060941  1
  O2-  O127  1  0.74996409  0.00181838  0.39746644  1
  O2-  O128  1  0.75276701  -0.00323836  0.73421666  1
  O2-  O129  1  0.75275449  0.49620063  0.06236836  1
  O2-  O130  1  0.74357137  0.50684390  0.39960368  1
  O2-  O131  1  0.74446421  0.50436081  0.72128109  1
  O2-  O132  1  0.00167858  0.24644344  0.27923289  1
  O2-  O133  1  -0.00068106  0.24817769  0.60820869  1
  O2-  O134  1  -0.00440027  0.24517281  0.93338317  1
  O2-  O135  1  -0.00748226  0.74944450  0.27433195  1
  O2-  O136  1  -0.00584804  0.75301276  0.60259458  1
  O2-  O137  1  -0.00241208  0.74504688  0.93596258  1
  O2-  O138  1  0.49934786  0.25595297  0.27272638  1
  O2-  O139  1  0.49913849  0.25059869  0.60810300  1
  O2-  O140  1  0.50594523  0.24728920  0.93730025  1
  O2-  O141  1  0.49611355  0.75415479  0.27177575  1
  O2-  O142  1  0.49639929  0.75567808  0.60788287  1
  O2-  O143  1  0.50067778  0.75286172  0.94331726  1
  O2-  O144  1  0.07310759  0.18429289  0.10045874  1
  O2-  O145  1  0.07528110  0.17593148  0.42571864  1
  O2-  O146  1  0.07570551  0.17853509  0.75474287  1
  O2-  O147  1  0.07670589  0.67809828  0.09829212  1
  O2-  O148  1  0.07094873  0.68080032  0.43370483  1
  O2-  O149  1  0.06786260  0.68177595  0.76355563  1
  O2-  O150  1  0.56800380  0.17314875  0.08734382  1
  O2-  O151  1  0.56825218  0.17981905  0.43345916  1
  O2-  O152  1  0.56780792  0.18188237  0.75777264  1
  O2-  O153  1  0.56667873  0.67953198  0.09164995  1
  O2-  O154  1  0.56865385  0.68056027  0.43148668  1
  O2-  O155  1  0.56929931  0.67926304  0.76710549  1
  O2-  O156  1  0.17934452  0.42407376  0.23321296  1
  O2-  O157  1  0.18006458  0.42724455  0.57257817  1
  O2-  O158  1  0.18359269  0.42762450  0.90857718  1
  O2-  O159  1  0.18070992  0.93137691  0.24358672  1
  O2-  O160  1  0.18056530  0.93113310  0.57645654  1
  O2-  O161  1  0.18463101  0.92498858  0.91155880  1
  O2-  O162  1  0.68163279  0.42831259  0.23484333  1
  O2-  O163  1  0.67980405  0.42576528  0.57537005  1
  O2-  O164  1  0.67333530  0.43529137  0.89912035  1
  O2-  O165  1  0.67870118  0.93138877  0.23489954  1
  O2-  O166  1  0.67629684  0.93138409  0.57063627  1
  O2-  O167  1  0.67310738  0.92776653  0.91225658  1
  O2-  O168  1  0.42901842  0.32023523  0.09860477  1
  O2-  O169  1  0.42517069  0.31505249  0.42322369  1
  O2-  O170  1  0.42686632  0.31981230  0.75419263  1
  O2-  O171  1  0.42684368  0.82378767  0.08962218  1
  O2-  O172  1  0.42550250  0.82704651  0.42004651  1
  O2-  O173  1  0.42853814  0.82729305  0.75682197  1
  O2-  O174  1  0.92887864  0.32053096  0.09813186  1
  O2-  O175  1  0.93040712  0.31835448  0.42476381  1
  O2-  O176  1  0.92507171  0.31905151  0.75390619  1
  O2-  O177  1  0.92987097  0.82048013  0.09867880  1
  O2-  O178  1  0.93583061  0.82707124  0.42417503  1
  O2-  O179  1  0.93160235  0.82476756  0.75305654  1
  O2-  O180  1  0.31918255  0.07300462  0.24376359  1
  O2-  O181  1  0.32051877  0.07056810  0.57509541  1
  O2-  O182  1  0.31953791  0.06920764  0.90071621  1
  O2-  O183  1  0.31898777  0.57111064  0.23316236  1
  O2-  O184  1  0.32132333  0.56978256  0.57064497  1
  O2-  O185  1  0.32415349  0.57220626  0.90948422  1
  O2-  O186  1  0.82685227  0.07038381  0.23496421  1
  O2-  O187  1  0.81897338  0.07273779  0.57109695  1
  O2-  O188  1  0.81881952  0.06684553  0.90123064  1
  O2-  O189  1  0.82442666  0.56808877  0.23497501  1
  O2-  O190  1  0.82152543  0.56829154  0.57503713  1
  O2-  O191  1  0.81837446  0.57121531  0.89897044  1
  O2-  O192  1  0.04958258  0.08415944  0.27312099  1
  O2-  O193  1  0.04693974  0.08612180  0.60253359  1
  O2-  O194  1  0.05332552  0.07694867  0.93739561  1
  O2-  O195  1  0.04225534  0.57914570  0.26934358  1
  O2-  O196  1  0.03855679  0.58112953  0.59952745  1
  O2-  O197  1  0.04967669  0.57780822  0.93020987  1
  O2-  O198  1  0.53909526  0.08469227  0.26445438  1
  O2-  O199  1  0.54119711  0.08846980  0.60632334  1
  O2-  O200  1  0.53933315  0.08278614  0.93569252  1
  O2-  O201  1  0.53888101  0.58192022  0.26491718  1
  O2-  O202  1  0.53959748  0.58278912  0.59907378  1
  O2-  O203  1  0.53723373  0.58978533  0.93807061  1
  O2-  O204  1  0.16608905  0.20488921  0.27418410  1
  O2-  O205  1  0.16350470  0.20749638  0.60107828  1
  O2-  O206  1  0.16843781  0.21082406  0.93226849  1
  O2-  O207  1  0.16605839  0.71197746  0.26715727  1
  O2-  O208  1  0.16691542  0.71270124  0.59956450  1
  O2-  O209  1  0.17089710  0.71028720  0.93089426  1
  O2-  O210  1  0.67000019  0.20887499  0.26715912  1
  O2-  O211  1  0.66178230  0.21006094  0.60618804  1
  O2-  O212  1  0.66546927  0.19548906  0.93635951  1
  O2-  O213  1  0.66920270  0.71019625  0.26541448  1
  O2-  O214  1  0.66837805  0.70834071  0.59930852  1
  O2-  O215  1  0.66127559  0.70438242  0.93959017  1
  O2-  O216  1  0.08640089  0.45028748  0.05810753  1
  O2-  O217  1  0.07949610  0.45126629  0.40122923  1
  O2-  O218  1  0.07668853  0.45399243  0.73557446  1
  O2-  O219  1  0.08453251  0.94529689  0.06180293  1
  O2-  O220  1  0.09124397  0.95875451  0.39983728  1
  O2-  O221  1  0.08852050  0.95827472  0.72966516  1
  O2-  O222  1  0.57914838  0.46076905  0.06726483  1
  O2-  O223  1  0.57693051  0.44904956  0.39831069  1
  O2-  O224  1  0.58372183  0.45236703  0.72454778  1
  O2-  O225  1  0.58285501  0.95134525  0.06430280  1
  O2-  O226  1  0.57844807  0.95781735  0.40034001  1
  O2-  O227  1  0.58041050  0.95819026  0.73732160  1
  O2-  O228  1  0.21509688  0.34062973  0.06163654  1
  O2-  O229  1  0.20963403  0.33107065  0.40372898  1
  O2-  O230  1  0.20811608  0.33008322  0.73712539  1
  O2-  O231  1  0.21296400  0.83543895  0.06497215  1
  O2-  O232  1  0.20941863  0.83903189  0.39717978  1
  O2-  O233  1  0.20746083  0.83877785  0.73063426  1
  O2-  O234  1  0.69562766  0.32678194  0.06121712  1
  O2-  O235  1  0.71267191  0.33401886  0.40300343  1
  O2-  O236  1  0.70883428  0.33963546  0.72976608  1
  O2-  O237  1  0.70091133  0.83189198  0.06163704  1
  O2-  O238  1  0.70540523  0.83178070  0.40237502  1
  O2-  O239  1  0.70486284  0.82819667  0.73575667  1
  O2-  O240  1  0.44623972  0.41580713  0.27329436  1
  O2-  O241  1  0.45346712  0.41243154  0.60179552  1
  O2-  O242  1  0.46065425  0.41704620  0.92839762  1
  O2-  O243  1  0.45293880  0.91731044  0.26735131  1
  O2-  O244  1  0.45316400  0.91923838  0.60433840  1
  O2-  O245  1  0.45576635  0.91517049  0.93687656  1
  O2-  O246  1  0.95951360  0.40914701  0.27053156  1
  O2-  O247  1  0.95548180  0.41044935  0.60072631  1
  O2-  O248  1  0.95637939  0.41576081  0.92852082  1
  O2-  O249  1  0.96414233  0.91495374  0.27125612  1
  O2-  O250  1  0.95874627  0.91765717  0.60239086  1
  O2-  O251  1  0.95998784  0.91510133  0.92857089  1
  O2-  O252  1  0.33492506  0.28886333  0.27112436  1
  O2-  O253  1  0.33563002  0.29005018  0.60193334  1
  O2-  O254  1  0.33677466  0.28694024  0.92848495  1
  O2-  O255  1  0.33372783  0.80037485  0.26710257  1
  O2-  O256  1  0.33411662  0.80182480  0.60495129  1
  O2-  O257  1  0.33877644  0.79576531  0.93467547  1
  O2-  O258  1  0.83923684  0.29188570  0.27116351  1
  O2-  O259  1  0.83556005  0.29019305  0.60114432  1
  O2-  O260  1  0.82592211  0.29260294  0.93169172  1
  O2-  O261  1  0.83390235  0.80729249  0.27567985  1
  O2-  O262  1  0.83352485  0.80235420  0.60447876  1
  O2-  O263  1  0.82809895  0.79422344  0.93022004  1
  O2-  O264  1  0.41470537  0.03875894  0.06991815  1
  O2-  O265  1  0.41290131  0.04344128  0.39587009  1
  O2-  O266  1  0.41223267  0.04592947  0.72948382  1
  O2-  O267  1  0.41056089  0.53933785  0.06242776  1
  O2-  O268  1  0.41668415  0.54225294  0.40146393  1
  O2-  O269  1  0.41892147  0.53929319  0.73606960  1
  O2-  O270  1  0.92024766  0.03850443  0.06573171  1
  O2-  O271  1  0.92232503  0.04350588  0.40275529  1
  O2-  O272  1  0.92248672  0.04852329  0.73380305  1
  O2-  O273  1  0.92335566  0.54306503  0.06284976  1
  O2-  O274  1  0.91578409  0.53463432  0.40345815  1
  O2-  O275  1  0.90978518  0.53748386  0.72791102  1
  O2-  O276  1  0.29022509  0.16917221  0.06852937  1
  O2-  O277  1  0.29290763  0.16113169  0.39960572  1
  O2-  O278  1  0.29191353  0.16327105  0.72691941  1
  O2-  O279  1  0.30026004  0.66705929  0.05999010  1
  O2-  O280  1  0.29713262  0.67415981  0.39863331  1
  O2-  O281  1  0.29691890  0.67275636  0.73412598  1
  O2-  O282  1  0.79209132  0.16508501  0.06726465  1
  O2-  O283  1  0.79583196  0.16996044  0.40129068  1
  O2-  O284  1  0.78838679  0.16961192  0.73666311  1
  O2-  O285  1  0.79395726  0.66847678  0.06603345  1
  O2-  O286  1  0.80154574  0.67283325  0.39929087  1
  O2-  O287  1  0.79805062  0.66441770  0.72522878  1
