# generated using pymatgen
data_Ca2Al2SiO7
_symmetry_space_group_name_H-M   'P 1'
_cell_length_a   15.46038261
_cell_length_b   15.46076266
_cell_length_c   15.28512607
_cell_angle_alpha   89.98579185
_cell_angle_beta   90.00016214
_cell_angle_gamma   90.00920129
_symmetry_Int_Tables_number   1
_chemical_formula_structural   Ca2Al2SiO7
_chemical_formula_sum   'Ca48 Al48 Si24 O168'
_cell_volume   3653.59291871
_cell_formula_units_Z   24
loop_
 _symmetry_equiv_pos_site_id
 _symmetry_equiv_pos_as_xyz
  1  'x, y, z'
loop_
 _atom_type_symbol
 _atom_type_oxidation_number
  Ca2+  2.0
  Al0+  0.0
  Si0+  0.0
  O2-  -2.0
loop_
 _atom_site_type_symbol
 _atom_site_label
 _atom_site_symmetry_multiplicity
 _atom_site_fract_x
 _atom_site_fract_y
 _atom_site_fract_z
 _atom_site_occupancy
  Ca2+  Ca0  1  0.17214217  0.08914594  0.17355378  1
  Ca2+  Ca1  1  0.18060022  0.08338754  0.50734378  1
  Ca2+  Ca2  1  0.16918879  0.08718442  0.83616084  1
  Ca2+  Ca3  1  0.17543063  0.57959760  0.17671325  1
  Ca2+  Ca4  1  0.16614348  0.58018965  0.49555934  1
  Ca2+  Ca5  1  0.17613549  0.57840742  0.84172656  1
  Ca2+  Ca6  1  0.67385631  0.09093080  0.17055606  1
  Ca2+  Ca7  1  0.66831501  0.08802533  0.50395154  1
  Ca2+  Ca8  1  0.66301894  0.07745810  0.84080593  1
  Ca2+  Ca9  1  0.66827523  0.57923268  0.17203808  1
  Ca2+  Ca10  1  0.65734702  0.56797139  0.50054119  1
  Ca2+  Ca11  1  0.66953966  0.57363857  0.84204559  1
  Ca2+  Ca12  1  0.07375843  0.33279769  0.16144542  1
  Ca2+  Ca13  1  0.07079908  0.34011085  0.49287469  1
  Ca2+  Ca14  1  0.07129616  0.32919634  0.83234155  1
  Ca2+  Ca15  1  0.08379716  0.82723521  0.16540591  1
  Ca2+  Ca16  1  0.08800617  0.83020497  0.49515706  1
  Ca2+  Ca17  1  0.08396056  0.83343696  0.82692069  1
  Ca2+  Ca18  1  0.58883002  0.32359600  0.16587934  1
  Ca2+  Ca19  1  0.58340251  0.32655768  0.49744178  1
  Ca2+  Ca20  1  0.58346845  0.32139384  0.82443106  1
  Ca2+  Ca21  1  0.58809912  0.82177841  0.16041788  1
  Ca2+  Ca22  1  0.58621195  0.82757641  0.49453908  1
  Ca2+  Ca23  1  0.59556558  0.82870923  0.83242554  1
  Ca2+  Ca24  1  0.32712936  0.42530765  0.17616452  1
  Ca2+  Ca25  1  0.33441345  0.41954168  0.50204944  1
  Ca2+  Ca26  1  0.33835105  0.41838979  0.83877572  1
  Ca2+  Ca27  1  0.33285221  0.92396206  0.17199763  1
  Ca2+  Ca28  1  0.33319607  0.92986526  0.50488457  1
  Ca2+  Ca29  1  0.32995176  0.92285524  0.83050188  1
  Ca2+  Ca30  1  0.83186154  0.41412085  0.17134798  1
  Ca2+  Ca31  1  0.82328849  0.40880384  0.50140515  1
  Ca2+  Ca32  1  0.83211812  0.41470610  0.83580597  1
  Ca2+  Ca33  1  0.82819515  0.93053777  0.16743743  1
  Ca2+  Ca34  1  0.82791869  0.92549070  0.50400383  1
  Ca2+  Ca35  1  0.82178837  0.92547123  0.84201111  1
  Ca2+  Ca36  1  0.42762162  0.16286190  0.16331425  1
  Ca2+  Ca37  1  0.42516700  0.16211073  0.49688661  1
  Ca2+  Ca38  1  0.42660393  0.16899241  0.82371147  1
  Ca2+  Ca39  1  0.42508110  0.65843285  0.16342719  1
  Ca2+  Ca40  1  0.42024751  0.66974509  0.48972589  1
  Ca2+  Ca41  1  0.42216549  0.66477643  0.83431214  1
  Ca2+  Ca42  1  0.91377127  0.17564238  0.15945201  1
  Ca2+  Ca43  1  0.91202654  0.17736480  0.49309806  1
  Ca2+  Ca44  1  0.91209343  0.17494534  0.83277120  1
  Ca2+  Ca45  1  0.92157072  0.66100127  0.16150026  1
  Ca2+  Ca46  1  0.92361882  0.67115651  0.49109535  1
  Ca2+  Ca47  1  0.91272909  0.66655945  0.83152876  1
  Al0+  Al48  1  -0.00031537  -0.00164345  0.00036006  1
  Al0+  Al49  1  -0.00175993  0.00123293  0.33783509  1
  Al0+  Al50  1  0.00013145  -0.00101377  0.66807992  1
  Al0+  Al51  1  0.00012854  0.49946434  -0.00261392  1
  Al0+  Al52  1  -0.00014155  0.50258628  0.32807152  1
  Al0+  Al53  1  0.00238113  0.50127717  0.66338645  1
  Al0+  Al54  1  0.49652194  -0.00406299  -0.00000183  1
  Al0+  Al55  1  0.50003272  -0.00116193  0.33201303  1
  Al0+  Al56  1  0.50013303  -0.00287310  0.67109218  1
  Al0+  Al57  1  0.50042674  0.50118503  0.00017446  1
  Al0+  Al58  1  0.49954338  0.49999346  0.33661491  1
  Al0+  Al59  1  0.50175124  0.49874706  0.66933662  1
  Al0+  Al60  1  0.24816299  0.24966290  -0.00206049  1
  Al0+  Al61  1  0.24903739  0.25117116  0.34359279  1
  Al0+  Al62  1  0.25002933  0.25305892  0.66894231  1
  Al0+  Al63  1  0.25155865  0.74978496  0.00318235  1
  Al0+  Al64  1  0.24966206  0.75041421  0.33121247  1
  Al0+  Al65  1  0.25185330  0.74992281  0.66941845  1
  Al0+  Al66  1  0.74865731  0.24954445  -0.00622486  1
  Al0+  Al67  1  0.74985807  0.25073025  0.33345085  1
  Al0+  Al68  1  0.75022685  0.25153497  0.66396858  1
  Al0+  Al69  1  0.75066832  0.74798478  0.00321302  1
  Al0+  Al70  1  0.75045622  0.75142248  0.32852977  1
  Al0+  Al71  1  0.75320211  0.75097194  0.66582803  1
  Al0+  Al72  1  0.17908065  0.92860953  0.68138939  1
  Al0+  Al73  1  0.07240107  0.17622789  0.98578443  1
  Al0+  Al74  1  0.82198257  0.56949406  0.01288621  1
  Al0+  Al75  1  0.32112883  0.57164194  0.35012011  1
  Al0+  Al76  1  0.56913068  0.17920178  0.31919311  1
  Al0+  Al77  1  0.07018754  0.68166743  0.31810496  1
  Al0+  Al78  1  0.56945574  0.17630679  0.65110342  1
  Al0+  Al79  1  0.32096463  0.07343745  0.68410744  1
  Al0+  Al80  1  0.32166338  0.57058509  0.01434093  1
  Al0+  Al81  1  0.56923896  0.17714780  0.98652856  1
  Al0+  Al82  1  0.68025554  0.42970990  0.34589095  1
  Al0+  Al83  1  0.57180589  0.67939791  0.98493866  1
  Al0+  Al84  1  0.92831914  0.32170559  0.98335434  1
  Al0+  Al85  1  0.32270422  0.07148089  0.34612937  1
  Al0+  Al86  1  0.67999119  0.92729442  0.67938940  1
  Al0+  Al87  1  0.93087003  0.32143601  0.65042119  1
  Al0+  Al88  1  0.81971364  0.07232889  0.01440751  1
  Al0+  Al89  1  0.57062238  0.67745388  0.32004988  1
  Al0+  Al90  1  0.81992228  0.07201707  0.34802626  1
  Al0+  Al91  1  0.67971813  0.42935307  0.68168592  1
  Al0+  Al92  1  0.67598495  0.92802150  0.01710748  1
  Al0+  Al93  1  0.17636469  0.42967819  0.34905855  1
  Al0+  Al94  1  0.42781916  0.32345240  0.65137001  1
  Al0+  Al95  1  0.92925461  0.32024887  0.31902252  1
  Si0+  Si96  1  0.92980033  0.81974932  0.98455656  1
  Si0+  Si97  1  0.07202126  0.17657879  0.64932396  1
  Si0+  Si98  1  0.82148682  0.07276350  0.68284912  1
  Si0+  Si99  1  0.92926536  0.82149887  0.65121730  1
  Si0+  Si100  1  0.57315263  0.67927286  0.65266984  1
  Si0+  Si101  1  0.67812082  0.42758155  0.01621561  1
  Si0+  Si102  1  0.17620027  0.43087497  0.68348015  1
  Si0+  Si103  1  0.67859328  0.92698732  0.34934352  1
  Si0+  Si104  1  0.07312613  0.17736472  0.32060257  1
  Si0+  Si105  1  0.07349085  0.68086661  0.65208764  1
  Si0+  Si106  1  0.32155154  0.57057151  0.68250000  1
  Si0+  Si107  1  0.17784862  0.92746004  0.01588641  1
  Si0+  Si108  1  0.17854375  0.42771525  0.01586011  1
  Si0+  Si109  1  0.42535270  0.82063054  0.98086664  1
  Si0+  Si110  1  0.07265001  0.67996839  0.98380411  1
  Si0+  Si111  1  0.92718524  0.82546311  0.31445735  1
  Si0+  Si112  1  0.82209775  0.57468508  0.34901042  1
  Si0+  Si113  1  0.42765893  0.32153656  0.98672136  1
  Si0+  Si114  1  0.42822248  0.82180470  0.31619606  1
  Si0+  Si115  1  0.82427041  0.57179564  0.68032219  1
  Si0+  Si116  1  0.31888976  0.07137567  0.01499488  1
  Si0+  Si117  1  0.42548843  0.32207000  0.31780612  1
  Si0+  Si118  1  0.42825723  0.81815475  0.65186376  1
  Si0+  Si119  1  0.17741658  0.92885730  0.34812793  1
  O2-  O120  1  0.24485648  0.00265351  0.05705500  1
  O2-  O121  1  0.24463399  -0.00104241  0.39123541  1
  O2-  O122  1  0.24484518  0.00461858  0.73385446  1
  O2-  O123  1  0.24802508  0.49517901  0.05997362  1
  O2-  O124  1  0.25053266  0.49904468  0.40109366  1
  O2-  O125  1  0.25316457  0.49666327  0.72477085  1
  O2-  O126  1  0.74313488  0.00520156  0.06572961  1
  O2-  O127  1  0.74497564  -0.00289875  0.39437141  1
  O2-  O128  1  0.75028266  0.00599165  0.72571718  1
  O2-  O129  1  0.74868622  0.49452237  0.06002073  1
  O2-  O130  1  0.75257547  0.50766027  0.39348318  1
  O2-  O131  1  0.75601691  0.50393658  0.72563572  1
  O2-  O132  1  0.00586293  0.24612288  0.27492385  1
  O2-  O133  1  0.00405614  0.24483454  0.60377759  1
  O2-  O134  1  -0.00196582  0.24567775  0.93549252  1
  O2-  O135  1  -0.00493532  0.75559039  0.27045841  1
  O2-  O136  1  0.00286752  0.75246647  0.60991752  1
  O2-  O137  1  0.00104013  0.74917927  0.94008938  1
  O2-  O138  1  0.49208723  0.25207839  0.27241002  1
  O2-  O139  1  0.49567927  0.24737600  0.60166520  1
  O2-  O140  1  0.49454120  0.25230048  0.94137747  1
  O2-  O141  1  0.49552722  0.75163156  0.27277073  1
  O2-  O142  1  0.50214024  0.74999091  0.61004280  1
  O2-  O143  1  0.49823690  0.75535832  0.93745310  1
  O2-  O144  1  0.07673059  0.17975343  0.09932811  1
  O2-  O145  1  0.07095864  0.17591075  0.42607598  1
  O2-  O146  1  0.06934787  0.17706521  0.75492681  1
  O2-  O147  1  0.07289117  0.68214219  0.08862221  1
  O2-  O148  1  0.06911204  0.68455383  0.43193812  1
  O2-  O149  1  0.07333033  0.68072592  0.75746012  1
  O2-  O150  1  0.56842653  0.17948405  0.09989782  1
  O2-  O151  1  0.56892122  0.17812769  0.43183575  1
  O2-  O152  1  0.56891101  0.17700451  0.76495143  1
  O2-  O153  1  0.56966090  0.67846040  0.09781132  1
  O2-  O154  1  0.56999870  0.68075995  0.43392335  1
  O2-  O155  1  0.57268109  0.67997931  0.75772314  1
  O2-  O156  1  0.17764033  0.43113027  0.23519703  1
  O2-  O157  1  0.17140574  0.43607107  0.57920821  1
  O2-  O158  1  0.17937168  0.43051740  0.90973558  1
  O2-  O159  1  0.17782837  0.92874506  0.24218184  1
  O2-  O160  1  0.18330102  0.92565012  0.56798376  1
  O2-  O161  1  0.18034067  0.92342490  0.91113076  1
  O2-  O162  1  0.68196062  0.42969811  0.23277408  1
  O2-  O163  1  0.67878632  0.43138765  0.56859588  1
  O2-  O164  1  0.67723199  0.43014579  0.91043266  1
  O2-  O165  1  0.68012797  0.92562819  0.24424771  1
  O2-  O166  1  0.68474474  0.92085488  0.56651511  1
  O2-  O167  1  0.68128554  0.92768605  0.90320458  1
  O2-  O168  1  0.42597846  0.32011291  0.09227705  1
  O2-  O169  1  0.42779712  0.32216727  0.42310545  1
  O2-  O170  1  0.43164510  0.32553533  0.76545612  1
  O2-  O171  1  0.42098991  0.81992175  0.08628369  1
  O2-  O172  1  0.42888530  0.82207712  0.42219418  1
  O2-  O173  1  0.42354364  0.81425100  0.75652833  1
  O2-  O174  1  0.93088837  0.32327021  0.09681643  1
  O2-  O175  1  0.92917289  0.31904348  0.43232070  1
  O2-  O176  1  0.93297182  0.32352517  0.76323155  1
  O2-  O177  1  0.93340053  0.81964103  0.08938526  1
  O2-  O178  1  0.92753355  0.82415362  0.42054919  1
  O2-  O179  1  0.92759925  0.81865322  0.75618918  1
  O2-  O180  1  0.32154819  0.06894036  0.23242819  1
  O2-  O181  1  0.32169395  0.06842528  0.57046338  1
  O2-  O182  1  0.31897324  0.07051439  0.91033533  1
  O2-  O183  1  0.31998252  0.57003342  0.23656010  1
  O2-  O184  1  0.32006073  0.57415936  0.57797412  1
  O2-  O185  1  0.31938210  0.57034557  0.90040189  1
  O2-  O186  1  0.82065307  0.07139629  0.23529140  1
  O2-  O187  1  0.82256357  0.06976381  0.57694117  1
  O2-  O188  1  0.82073368  0.06903594  0.90063441  1
  O2-  O189  1  0.82147116  0.57415968  0.24348042  1
  O2-  O190  1  0.82519368  0.57425601  0.57495321  1
  O2-  O191  1  0.82081201  0.57043643  0.89934539  1
  O2-  O192  1  0.04878585  0.08287970  0.27504732  1
  O2-  O193  1  0.04898621  0.08135287  0.60461170  1
  O2-  O194  1  0.05004539  0.07525474  0.93476664  1
  O2-  O195  1  0.04002477  0.58671600  0.26155646  1
  O2-  O196  1  0.04499253  0.59044201  0.60319748  1
  O2-  O197  1  0.04686782  0.58793180  0.93607360  1
  O2-  O198  1  0.54015904  0.08163020  0.26552445  1
  O2-  O199  1  0.54359084  0.07546615  0.60081271  1
  O2-  O200  1  0.53756012  0.07938224  0.93534694  1
  O2-  O201  1  0.53993063  0.58082793  0.26633540  1
  O2-  O202  1  0.54349952  0.58775119  0.60690667  1
  O2-  O203  1  0.53851777  0.58327588  0.93010812  1
  O2-  O204  1  0.16833910  0.20158012  0.27687930  1
  O2-  O205  1  0.16697984  0.20196117  0.60676476  1
  O2-  O206  1  0.16923929  0.20772609  0.92944612  1
  O2-  O207  1  0.16633947  0.71320605  0.26281702  1
  O2-  O208  1  0.16500610  0.70942391  0.60453112  1
  O2-  O209  1  0.16422214  0.71011532  0.93673571  1
  O2-  O210  1  0.66441327  0.21437744  0.26596029  1
  O2-  O211  1  0.66798870  0.20687413  0.59988264  1
  O2-  O212  1  0.66464459  0.20632014  0.93041701  1
  O2-  O213  1  0.66752795  0.70770574  0.26578180  1
  O2-  O214  1  0.66494055  0.70717871  0.60529800  1
  O2-  O215  1  0.66941510  0.70891615  0.93153744  1
  O2-  O216  1  0.08566766  0.45597595  0.06043074  1
  O2-  O217  1  0.07936664  0.46601249  0.40125167  1
  O2-  O218  1  0.08803284  0.46658062  0.73386856  1
  O2-  O219  1  0.08479130  0.94845904  0.06308154  1
  O2-  O220  1  0.08343608  0.94992481  0.39522590  1
  O2-  O221  1  0.07780854  0.94895405  0.73277443  1
  O2-  O222  1  0.58539221  0.45516380  0.06230174  1
  O2-  O223  1  0.58408870  0.45947536  0.40126347  1
  O2-  O224  1  0.58471353  0.46217267  0.73786488  1
  O2-  O225  1  0.57352245  0.94584056  0.06561381  1
  O2-  O226  1  0.58369120  0.94897190  0.39364185  1
  O2-  O227  1  0.58192089  0.94872369  0.73375959  1
  O2-  O228  1  0.20206287  0.33365969  0.06136165  1
  O2-  O229  1  0.19878729  0.33162472  0.40496026  1
  O2-  O230  1  0.19676261  0.33726491  0.72989031  1
  O2-  O231  1  0.21046852  0.83795417  0.06556649  1
  O2-  O232  1  0.20464480  0.83586581  0.39398159  1
  O2-  O233  1  0.21201107  0.83147641  0.73642536  1
  O2-  O234  1  0.70249746  0.33316119  0.05987496  1
  O2-  O235  1  0.71381851  0.33539698  0.40161461  1
  O2-  O236  1  0.71105989  0.33264141  0.73463163  1
  O2-  O237  1  0.71098016  0.83139612  0.06904608  1
  O2-  O238  1  0.70686055  0.83378225  0.39610937  1
  O2-  O239  1  0.71683287  0.83237763  0.73484889  1
  O2-  O240  1  0.45218896  0.41560626  0.27239017  1
  O2-  O241  1  0.45951677  0.42164527  0.59874930  1
  O2-  O242  1  0.45337307  0.41511793  0.94056469  1
  O2-  O243  1  0.45474493  0.91397756  0.26790199  1
  O2-  O244  1  0.45416049  0.91060932  0.60578356  1
  O2-  O245  1  0.44572317  0.91507261  0.93477152  1
  O2-  O246  1  0.95732384  0.41770782  0.26590645  1
  O2-  O247  1  0.96399288  0.41831799  0.59745183  1
  O2-  O248  1  0.96089327  0.41897905  0.92838401  1
  O2-  O249  1  0.95571229  0.91855277  0.26891261  1
  O2-  O250  1  0.95467160  0.91368768  0.60309755  1
  O2-  O251  1  0.95748749  0.91066381  0.93549243  1
  O2-  O252  1  0.32978339  0.29875206  0.27486616  1
  O2-  O253  1  0.32528861  0.30472106  0.60263282  1
  O2-  O254  1  0.33359118  0.29873462  0.93978128  1
  O2-  O255  1  0.33395190  0.79936249  0.27006882  1
  O2-  O256  1  0.33833498  0.78673671  0.60208625  1
  O2-  O257  1  0.33367500  0.78916305  0.93287435  1
  O2-  O258  1  0.83402085  0.28733147  0.26488139  1
  O2-  O259  1  0.83386170  0.29184868  0.59738667  1
  O2-  O260  1  0.82999000  0.29571537  0.92932933  1
  O2-  O261  1  0.83391041  0.80171785  0.26782595  1
  O2-  O262  1  0.84016067  0.79054067  0.59974410  1
  O2-  O263  1  0.83888989  0.78949601  0.93720187  1
  O2-  O264  1  0.40870311  0.03932418  0.06356416  1
  O2-  O265  1  0.41705884  0.03483266  0.40111924  1
  O2-  O266  1  0.41672855  0.03762572  0.73758627  1
  O2-  O267  1  0.41848145  0.54119916  0.06761911  1
  O2-  O268  1  0.41931037  0.54533808  0.40378651  1
  O2-  O269  1  0.41384526  0.54523860  0.73019426  1
  O2-  O270  1  0.91773063  0.03924173  0.06677923  1
  O2-  O271  1  0.91580935  0.04105296  0.40442281  1
  O2-  O272  1  0.91433565  0.04429757  0.72858219  1
  O2-  O273  1  0.92044517  0.54211130  0.06558357  1
  O2-  O274  1  0.91611023  0.54994901  0.39375058  1
  O2-  O275  1  0.91842386  0.54742962  0.72677829  1
  O2-  O276  1  0.29346115  0.16401334  0.06206130  1
  O2-  O277  1  0.29577301  0.16682196  0.40338715  1
  O2-  O278  1  0.29669391  0.17369388  0.73560014  1
  O2-  O279  1  0.28937689  0.66636597  0.06829047  1
  O2-  O280  1  0.29113611  0.67112932  0.40077311  1
  O2-  O281  1  0.28991583  0.66039677  0.73180347  1
  O2-  O282  1  0.79365116  0.17258095  0.06453238  1
  O2-  O283  1  0.78721057  0.16693958  0.40268694  1
  O2-  O284  1  0.79881006  0.16726256  0.72651163  1
  O2-  O285  1  0.79374039  0.66537673  0.06854827  1
  O2-  O286  1  0.79974188  0.67024098  0.39343331  1
  O2-  O287  1  0.79926178  0.66560005  0.72656538  1
