# generated using pymatgen
data_Ca2Al2SiO7
_symmetry_space_group_name_H-M   'P 1'
_cell_length_a   15.45270541
_cell_length_b   15.45220607
_cell_length_c   15.27955485
_cell_angle_alpha   90.00027133
_cell_angle_beta   90.00781719
_cell_angle_gamma   90.00290737
_symmetry_Int_Tables_number   1
_chemical_formula_structural   Ca2Al2SiO7
_chemical_formula_sum   'Ca48 Al48 Si24 O168'
_cell_volume   3648.42744347
_cell_formula_units_Z   24
loop_
 _symmetry_equiv_pos_site_id
 _symmetry_equiv_pos_as_xyz
  1  'x, y, z'
loop_
 _atom_type_symbol
 _atom_type_oxidation_number
  Ca2+  2.0
  Al0+  0.0
  Si0+  0.0
  O2-  -2.0
loop_
 _atom_site_type_symbol
 _atom_site_label
 _atom_site_symmetry_multiplicity
 _atom_site_fract_x
 _atom_site_fract_y
 _atom_site_fract_z
 _atom_site_occupancy
  Ca2+  Ca0  1  0.15770938  0.07582754  0.16487339  1
  Ca2+  Ca1  1  0.17369021  0.08511224  0.51010728  1
  Ca2+  Ca2  1  0.17019400  0.08650899  0.83997271  1
  Ca2+  Ca3  1  0.16682686  0.57447290  0.17170871  1
  Ca2+  Ca4  1  0.16551020  0.57446699  0.50306783  1
  Ca2+  Ca5  1  0.15230013  0.57377985  0.83725670  1
  Ca2+  Ca6  1  0.67015215  0.08686215  0.17370984  1
  Ca2+  Ca7  1  0.67654750  0.08612034  0.50678813  1
  Ca2+  Ca8  1  0.67252584  0.08091583  0.83270346  1
  Ca2+  Ca9  1  0.67168133  0.58116372  0.17459454  1
  Ca2+  Ca10  1  0.66199867  0.57247464  0.50389745  1
  Ca2+  Ca11  1  0.67357003  0.57709864  0.83829446  1
  Ca2+  Ca12  1  0.08164531  0.33433044  0.16199195  1
  Ca2+  Ca13  1  0.07534350  0.33432474  0.49924264  1
  Ca2+  Ca14  1  0.08255170  0.32840395  0.82322888  1
  Ca2+  Ca15  1  0.07803616  0.82706108  0.15192616  1
  Ca2+  Ca16  1  0.08591770  0.82653510  0.50016082  1
  Ca2+  Ca17  1  0.08478580  0.82375799  0.83226959  1
  Ca2+  Ca18  1  0.59102152  0.32375152  0.16659609  1
  Ca2+  Ca19  1  0.58897525  0.33085924  0.49022138  1
  Ca2+  Ca20  1  0.58564106  0.32899281  0.82956443  1
  Ca2+  Ca21  1  0.57706541  0.82550991  0.16026680  1
  Ca2+  Ca22  1  0.58191475  0.83197558  0.49850173  1
  Ca2+  Ca23  1  0.57353311  0.83883002  0.82627516  1
  Ca2+  Ca24  1  0.31975769  0.41986726  0.17467427  1
  Ca2+  Ca25  1  0.32302394  0.42054035  0.50473752  1
  Ca2+  Ca26  1  0.31756082  0.41643138  0.83872348  1
  Ca2+  Ca27  1  0.32828656  0.90981669  0.16242170  1
  Ca2+  Ca28  1  0.33663462  0.92324293  0.50832734  1
  Ca2+  Ca29  1  0.33218271  0.91839207  0.83681960  1
  Ca2+  Ca30  1  0.83334816  0.42218897  0.17168065  1
  Ca2+  Ca31  1  0.82545179  0.40611260  0.50423588  1
  Ca2+  Ca32  1  0.83501287  0.41859691  0.83313592  1
  Ca2+  Ca33  1  0.83849924  0.92470402  0.17204836  1
  Ca2+  Ca34  1  0.82685936  0.93118825  0.50878638  1
  Ca2+  Ca35  1  0.83404288  0.91781266  0.83629236  1
  Ca2+  Ca36  1  0.43036731  0.16707973  0.16131291  1
  Ca2+  Ca37  1  0.42275902  0.16686170  0.49629896  1
  Ca2+  Ca38  1  0.42117935  0.16228446  0.82937935  1
  Ca2+  Ca39  1  0.41930317  0.66365640  0.16569995  1
  Ca2+  Ca40  1  0.41933104  0.66962636  0.49407026  1
  Ca2+  Ca41  1  0.41011233  0.68146714  0.82870844  1
  Ca2+  Ca42  1  0.91780153  0.17425800  0.16404732  1
  Ca2+  Ca43  1  0.91050635  0.17483315  0.49788324  1
  Ca2+  Ca44  1  0.93054088  0.16887629  0.82417102  1
  Ca2+  Ca45  1  0.92072279  0.67121330  0.15402372  1
  Ca2+  Ca46  1  0.92222293  0.66435603  0.50046706  1
  Ca2+  Ca47  1  0.92300111  0.66566781  0.83411907  1
  Al0+  Al48  1  0.00013140  0.00150749  -0.00290622  1
  Al0+  Al49  1  0.00006746  0.00065026  0.34055606  1
  Al0+  Al50  1  0.00211767  -0.00169885  0.66584890  1
  Al0+  Al51  1  -0.00284877  0.50021894  0.00723985  1
  Al0+  Al52  1  -0.00073475  0.50015782  0.33230773  1
  Al0+  Al53  1  -0.00096636  0.49960451  0.66058710  1
  Al0+  Al54  1  0.50187622  0.00005314  -0.00574883  1
  Al0+  Al55  1  0.49873901  -0.00112758  0.32695396  1
  Al0+  Al56  1  0.49948998  0.00059499  0.66841866  1
  Al0+  Al57  1  0.49968226  0.49724938  0.00021531  1
  Al0+  Al58  1  0.49869263  0.50125641  0.33496611  1
  Al0+  Al59  1  0.49920279  0.50102038  0.67407038  1
  Al0+  Al60  1  0.25232010  0.25024334  0.00461048  1
  Al0+  Al61  1  0.24897961  0.24752332  0.33577390  1
  Al0+  Al62  1  0.25180641  0.25039840  0.67116986  1
  Al0+  Al63  1  0.25092728  0.74971338  -0.00356142  1
  Al0+  Al64  1  0.24940461  0.75008484  0.33625265  1
  Al0+  Al65  1  0.25129369  0.75125009  0.65471233  1
  Al0+  Al66  1  0.74965997  0.24895386  -0.00541078  1
  Al0+  Al67  1  0.75265415  0.25075024  0.33049117  1
  Al0+  Al68  1  0.75080441  0.24925652  0.67465375  1
  Al0+  Al69  1  0.74929258  0.75021038  0.00074913  1
  Al0+  Al70  1  0.74915868  0.75116111  0.32972084  1
  Al0+  Al71  1  0.74906089  0.74951063  0.66927446  1
  Al0+  Al72  1  0.57187792  0.17973320  0.98328465  1
  Al0+  Al73  1  0.57096296  0.18041518  0.32176498  1
  Al0+  Al74  1  0.92709837  0.82311330  0.98527779  1
  Al0+  Al75  1  0.92883167  0.31881571  0.65160807  1
  Al0+  Al76  1  0.07172513  0.18071609  0.98846078  1
  Al0+  Al77  1  0.07047104  0.67731844  0.98693800  1
  Al0+  Al78  1  0.81970390  0.07084621  0.34598669  1
  Al0+  Al79  1  0.57075823  0.67782409  0.32009690  1
  Al0+  Al80  1  0.17850812  0.42826338  0.01442264  1
  Al0+  Al81  1  0.68179757  0.43088026  0.34430025  1
  Al0+  Al82  1  0.17891299  0.43189555  0.68048549  1
  Al0+  Al83  1  0.32045994  0.57181512  0.34932577  1
  Al0+  Al84  1  0.43044128  0.81829037  0.98576131  1
  Al0+  Al85  1  0.06946643  0.67930281  0.65069768  1
  Al0+  Al86  1  0.43131571  0.82210142  0.65046071  1
  Al0+  Al87  1  0.81854461  0.57104440  0.01419424  1
  Al0+  Al88  1  0.07490210  0.17711295  0.65125413  1
  Al0+  Al89  1  0.93056306  0.32050730  0.31780921  1
  Al0+  Al90  1  0.82368333  0.07116418  0.68479343  1
  Al0+  Al91  1  0.67936011  0.92859811  0.68163843  1
  Al0+  Al92  1  0.31993559  0.07099827  0.68035672  1
  Al0+  Al93  1  0.17631907  0.42680357  0.35083651  1
  Al0+  Al94  1  0.17979611  0.92970818  0.01141868  1
  Al0+  Al95  1  0.67734883  0.42859558  0.68157836  1
  Si0+  Si96  1  0.57282528  0.67492840  0.98272481  1
  Si0+  Si97  1  0.57294688  0.67632440  0.65140993  1
  Si0+  Si98  1  0.82089080  0.07069096  0.01543613  1
  Si0+  Si99  1  0.42787694  0.32197613  0.98306845  1
  Si0+  Si100  1  0.67589634  0.92703573  0.34737953  1
  Si0+  Si101  1  0.32478959  0.07127140  0.01893197  1
  Si0+  Si102  1  0.42656023  0.82213607  0.31429280  1
  Si0+  Si103  1  0.56958160  0.18170048  0.65224305  1
  Si0+  Si104  1  0.82226334  0.57233213  0.68234826  1
  Si0+  Si105  1  0.92840753  0.32256636  0.98358461  1
  Si0+  Si106  1  0.82198402  0.57594901  0.35046835  1
  Si0+  Si107  1  0.32321673  0.06932830  0.34619374  1
  Si0+  Si108  1  0.92500525  0.82239316  0.64823023  1
  Si0+  Si109  1  0.93032054  0.82297723  0.32043566  1
  Si0+  Si110  1  0.17909928  0.92513350  0.68233233  1
  Si0+  Si111  1  0.07402369  0.17586226  0.31678252  1
  Si0+  Si112  1  0.07047778  0.68054495  0.31732884  1
  Si0+  Si113  1  0.32129386  0.57446361  0.68405496  1
  Si0+  Si114  1  0.32333766  0.57248025  0.01529618  1
  Si0+  Si115  1  0.42524452  0.32211315  0.31795239  1
  Si0+  Si116  1  0.42908494  0.32361845  0.65312062  1
  Si0+  Si117  1  0.17873654  0.92937838  0.34896880  1
  Si0+  Si118  1  0.67715735  0.42624735  0.01787057  1
  Si0+  Si119  1  0.67713898  0.93014397  0.01637685  1
  O2-  O120  1  0.25336939  0.00448345  0.06240134  1
  O2-  O121  1  0.25072368  0.00022853  0.38901855  1
  O2-  O122  1  0.24165409  -0.00046042  0.72593296  1
  O2-  O123  1  0.25324338  0.50473964  0.05881817  1
  O2-  O124  1  0.24971002  0.49868207  0.39927697  1
  O2-  O125  1  0.25129900  0.50822858  0.72926701  1
  O2-  O126  1  0.75039813  -0.00105737  0.05889862  1
  O2-  O127  1  0.74285714  -0.00287675  0.39101230  1
  O2-  O128  1  0.75486027  -0.00465724  0.73414872  1
  O2-  O129  1  0.74249713  0.49783853  0.06160129  1
  O2-  O130  1  0.75308174  0.50747387  0.39416976  1
  O2-  O131  1  0.75217850  0.50429279  0.72572297  1
  O2-  O132  1  0.00897687  0.24813917  0.27314598  1
  O2-  O133  1  -0.00055048  0.24521262  0.60085007  1
  O2-  O134  1  0.00056646  0.25759488  0.94057338  1
  O2-  O135  1  -0.00215888  0.75009580  0.27585544  1
  O2-  O136  1  -0.00511430  0.75484756  0.60342430  1
  O2-  O137  1  -0.00039370  0.75077770  0.93697794  1
  O2-  O138  1  0.49602308  0.25486258  0.27390147  1
  O2-  O139  1  0.50270076  0.25605775  0.60901760  1
  O2-  O140  1  0.49724041  0.25470317  0.93756478  1
  O2-  O141  1  0.49555942  0.75234721  0.27278950  1
  O2-  O142  1  0.50605209  0.74637298  0.60621424  1
  O2-  O143  1  0.50322978  0.74199504  0.93813663  1
  O2-  O144  1  0.06714507  0.17899595  0.10193331  1
  O2-  O145  1  0.07487980  0.17290103  0.42177019  1
  O2-  O146  1  0.07609598  0.18154437  0.76511635  1
  O2-  O147  1  0.06912508  0.67952406  0.10118014  1
  O2-  O148  1  0.07008327  0.68260281  0.42253023  1
  O2-  O149  1  0.06822954  0.67901647  0.76353559  1
  O2-  O150  1  0.57250673  0.18041172  0.09694598  1
  O2-  O151  1  0.56920825  0.18026956  0.43498005  1
  O2-  O152  1  0.56688947  0.18186961  0.75739300  1
  O2-  O153  1  0.57201296  0.67625019  0.08863737  1
  O2-  O154  1  0.57117266  0.68003616  0.43310636  1
  O2-  O155  1  0.57165861  0.67549613  0.75688781  1
  O2-  O156  1  0.17773007  0.42871170  0.23682036  1
  O2-  O157  1  0.18096917  0.43240387  0.56766837  1
  O2-  O158  1  0.17876623  0.42810568  0.90129522  1
  O2-  O159  1  0.17671139  0.92824489  0.24381332  1
  O2-  O160  1  0.18317101  0.92439208  0.57588265  1
  O2-  O161  1  0.18220064  0.92968689  0.89896512  1
  O2-  O162  1  0.68494991  0.43095920  0.23121815  1
  O2-  O163  1  0.67581695  0.42852433  0.56824966  1
  O2-  O164  1  0.67728070  0.42690487  0.91233519  1
  O2-  O165  1  0.67703228  0.92664114  0.24148264  1
  O2-  O166  1  0.67914301  0.93126705  0.56738004  1
  O2-  O167  1  0.67555650  0.93196103  0.91173809  1
  O2-  O168  1  0.42838005  0.32109235  0.08881361  1
  O2-  O169  1  0.42478723  0.31893390  0.42378855  1
  O2-  O170  1  0.42990078  0.32180682  0.75822874  1
  O2-  O171  1  0.43227939  0.81780735  0.09918165  1
  O2-  O172  1  0.42752269  0.82590554  0.41955874  1
  O2-  O173  1  0.43043226  0.82098660  0.76354325  1
  O2-  O174  1  0.92631793  0.31997413  0.08949390  1
  O2-  O175  1  0.92666838  0.31759907  0.43025609  1
  O2-  O176  1  0.93141718  0.32095745  0.76543821  1
  O2-  O177  1  0.92919360  0.82359126  0.09993721  1
  O2-  O178  1  0.93263570  0.82291016  0.42533914  1
  O2-  O179  1  0.92449958  0.82065611  0.75346073  1
  O2-  O180  1  0.32534829  0.06801782  0.24139377  1
  O2-  O181  1  0.32298251  0.06899966  0.56643033  1
  O2-  O182  1  0.32523249  0.07043730  0.91344055  1
  O2-  O183  1  0.31716211  0.57272624  0.23525510  1
  O2-  O184  1  0.32334854  0.57106652  0.57857431  1
  O2-  O185  1  0.32589075  0.57067135  0.90995394  1
  O2-  O186  1  0.82080652  0.06861450  0.23231790  1
  O2-  O187  1  0.81774664  0.07270328  0.57078858  1
  O2-  O188  1  0.81969319  0.07037932  0.91099102  1
  O2-  O189  1  0.82069377  0.57704439  0.24483400  1
  O2-  O190  1  0.82038480  0.57420480  0.57660764  1
  O2-  O191  1  0.81816226  0.56868026  0.90100123  1
  O2-  O192  1  0.04289145  0.08245721  0.27174902  1
  O2-  O193  1  0.05455152  0.07507630  0.60154897  1
  O2-  O194  1  0.04024308  0.08588811  0.93277060  1
  O2-  O195  1  0.04466295  0.58811511  0.27111401  1
  O2-  O196  1  0.03628889  0.58515293  0.59350932  1
  O2-  O197  1  0.03612563  0.57977321  0.93591440  1
  O2-  O198  1  0.54053822  0.08404018  0.26541851  1
  O2-  O199  1  0.53813815  0.09123563  0.60487685  1
  O2-  O200  1  0.54028285  0.08430022  0.92878589  1
  O2-  O201  1  0.54036707  0.58169056  0.26416365  1
  O2-  O202  1  0.54401791  0.58275900  0.60609144  1
  O2-  O203  1  0.55047038  0.57938809  0.93894194  1
  O2-  O204  1  0.16937822  0.19531670  0.27070926  1
  O2-  O205  1  0.17370997  0.20841996  0.59985524  1
  O2-  O206  1  0.17178329  0.20586592  0.93915146  1
  O2-  O207  1  0.16229975  0.71063849  0.27151117  1
  O2-  O208  1  0.16438900  0.71113502  0.59315681  1
  O2-  O209  1  0.16906545  0.70235637  0.93395375  1
  O2-  O210  1  0.66569130  0.21273300  0.26522351  1
  O2-  O211  1  0.66320607  0.20715664  0.60855594  1
  O2-  O212  1  0.66738347  0.21037025  0.92734642  1
  O2-  O213  1  0.66698477  0.70917304  0.26364706  1
  O2-  O214  1  0.66724859  0.69917435  0.60517266  1
  O2-  O215  1  0.66580413  0.70180056  0.93735303  1
  O2-  O216  1  0.08247781  0.45795969  0.06975660  1
  O2-  O217  1  0.07818271  0.45891383  0.40179138  1
  O2-  O218  1  0.08091512  0.46239093  0.73154442  1
  O2-  O219  1  0.08308976  0.96141715  0.06694316  1
  O2-  O220  1  0.08867511  0.95653502  0.39987432  1
  O2-  O221  1  0.08246291  0.94012884  0.72458369  1
  O2-  O222  1  0.58157440  0.44665087  0.06276185  1
  O2-  O223  1  0.58319138  0.45621038  0.39701773  1
  O2-  O224  1  0.58166803  0.45860473  0.73909979  1
  O2-  O225  1  0.58654834  0.96113625  0.06484624  1
  O2-  O226  1  0.58059789  0.95050395  0.39075695  1
  O2-  O227  1  0.58316921  0.96283712  0.73506255  1
  O2-  O228  1  0.21203300  0.33319168  0.07113564  1
  O2-  O229  1  0.20323918  0.32675150  0.40108724  1
  O2-  O230  1  0.21339953  0.33687627  0.73491784  1
  O2-  O231  1  0.21194783  0.83298976  0.06652442  1
  O2-  O232  1  0.20668473  0.83819804  0.39734546  1
  O2-  O233  1  0.21208490  0.83301281  0.72647707  1
  O2-  O234  1  0.70679542  0.33247302  0.06179206  1
  O2-  O235  1  0.71453497  0.33501032  0.39822220  1
  O2-  O236  1  0.70845772  0.33400917  0.73818874  1
  O2-  O237  1  0.70067831  0.83650033  0.06248391  1
  O2-  O238  1  0.70261440  0.83409323  0.39421527  1
  O2-  O239  1  0.70072741  0.82800392  0.73403637  1
  O2-  O240  1  0.44790546  0.41647687  0.27325698  1
  O2-  O241  1  0.45332387  0.41756345  0.60811945  1
  O2-  O242  1  0.45141551  0.41591794  0.93603194  1
  O2-  O243  1  0.45169469  0.91436354  0.26476462  1
  O2-  O244  1  0.46421714  0.91847231  0.59634534  1
  O2-  O245  1  0.46266906  0.91422415  0.93207106  1
  O2-  O246  1  0.95749689  0.41909155  0.26428522  1
  O2-  O247  1  0.95486910  0.41680558  0.59693581  1
  O2-  O248  1  0.95018809  0.41785269  0.94114886  1
  O2-  O249  1  0.96140073  0.91434295  0.27347063  1
  O2-  O250  1  0.95022202  0.91610083  0.60202841  1
  O2-  O251  1  0.95543085  0.92043785  0.93197783  1
  O2-  O252  1  0.33279944  0.29282046  0.27058408  1
  O2-  O253  1  0.33929068  0.29222046  0.60475716  1
  O2-  O254  1  0.33499270  0.29461190  0.93697412  1
  O2-  O255  1  0.33216781  0.79518966  0.26981325  1
  O2-  O256  1  0.33667837  0.79289912  0.59206126  1
  O2-  O257  1  0.33438389  0.79025808  0.92971363  1
  O2-  O258  1  0.83673952  0.28586709  0.26056556  1
  O2-  O259  1  0.82858263  0.28863395  0.60163356  1
  O2-  O260  1  0.83593948  0.29511695  0.93649699  1
  O2-  O261  1  0.83687788  0.80085868  0.27334234  1
  O2-  O262  1  0.83151629  0.79521276  0.60172049  1
  O2-  O263  1  0.82809378  0.79517738  0.93368679  1
  O2-  O264  1  0.41794412  0.04074283  0.06388792  1
  O2-  O265  1  0.41432524  0.03932499  0.39486679  1
  O2-  O266  1  0.41469718  0.03709137  0.73552414  1
  O2-  O267  1  0.41690998  0.54525543  0.06273327  1
  O2-  O268  1  0.41939290  0.54666894  0.40246593  1
  O2-  O269  1  0.41398733  0.55035221  0.73275717  1
  O2-  O270  1  0.91242003  0.04370940  0.06372850  1
  O2-  O271  1  0.91465998  0.03926422  0.40287846  1
  O2-  O272  1  0.92457118  0.04524816  0.73371808  1
  O2-  O273  1  0.91266460  0.54006636  0.07321732  1
  O2-  O274  1  0.91602835  0.55059218  0.39443568  1
  O2-  O275  1  0.91482779  0.54361035  0.72771321  1
  O2-  O276  1  0.30362740  0.16555301  0.06514132  1
  O2-  O277  1  0.29886958  0.16138337  0.39466788  1
  O2-  O278  1  0.29512576  0.16761722  0.73713973  1
  O2-  O279  1  0.30046438  0.66666136  0.06086791  1
  O2-  O280  1  0.29171966  0.67048019  0.40285286  1
  O2-  O281  1  0.29567182  0.67032932  0.72422320  1
  O2-  O282  1  0.79050290  0.16316919  0.06114255  1
  O2-  O283  1  0.78699551  0.16623352  0.39941441  1
  O2-  O284  1  0.79100825  0.16634751  0.74073802  1
  O2-  O285  1  0.79011057  0.66875395  0.06912095  1
  O2-  O286  1  0.79769169  0.67044647  0.39588778  1
  O2-  O287  1  0.79838822  0.66554444  0.73007897  1
