# generated using pymatgen
data_Ca2Al2SiO7
_symmetry_space_group_name_H-M   'P 1'
_cell_length_a   15.45504745
_cell_length_b   15.45550567
_cell_length_c   15.28203779
_cell_angle_alpha   90.00141699
_cell_angle_beta   89.99529021
_cell_angle_gamma   89.99634776
_symmetry_Int_Tables_number   1
_chemical_formula_structural   Ca2Al2SiO7
_chemical_formula_sum   'Ca48 Al48 Si24 O168'
_cell_volume   3650.35269776
_cell_formula_units_Z   24
loop_
 _symmetry_equiv_pos_site_id
 _symmetry_equiv_pos_as_xyz
  1  'x, y, z'
loop_
 _atom_type_symbol
 _atom_type_oxidation_number
  Ca2+  2.0
  Al0+  0.0
  Si0+  0.0
  O2-  -2.0
loop_
 _atom_site_type_symbol
 _atom_site_label
 _atom_site_symmetry_multiplicity
 _atom_site_fract_x
 _atom_site_fract_y
 _atom_site_fract_z
 _atom_site_occupancy
  Ca2+  Ca0  1  0.17924394  0.09096700  0.17006496  1
  Ca2+  Ca1  1  0.17823066  0.07546065  0.50811776  1
  Ca2+  Ca2  1  0.17862417  0.08767761  0.83950986  1
  Ca2+  Ca3  1  0.15876274  0.58125747  0.16537801  1
  Ca2+  Ca4  1  0.16734807  0.58575795  0.50213137  1
  Ca2+  Ca5  1  0.16493860  0.57643695  0.84226993  1
  Ca2+  Ca6  1  0.67105872  0.08200244  0.16707062  1
  Ca2+  Ca7  1  0.66757900  0.07815475  0.50453089  1
  Ca2+  Ca8  1  0.67446965  0.09872228  0.83727096  1
  Ca2+  Ca9  1  0.66149222  0.57845362  0.17045165  1
  Ca2+  Ca10  1  0.66987583  0.58076956  0.50897694  1
  Ca2+  Ca11  1  0.67200758  0.56866130  0.83617519  1
  Ca2+  Ca12  1  0.07693805  0.32887489  0.15408957  1
  Ca2+  Ca13  1  0.07488807  0.33295425  0.49898071  1
  Ca2+  Ca14  1  0.07496355  0.33051498  0.83458408  1
  Ca2+  Ca15  1  0.08421515  0.82351625  0.16292615  1
  Ca2+  Ca16  1  0.07856156  0.83157915  0.49289706  1
  Ca2+  Ca17  1  0.08905653  0.82914446  0.82998131  1
  Ca2+  Ca18  1  0.57720511  0.32868547  0.15910259  1
  Ca2+  Ca19  1  0.57563724  0.32993011  0.50072403  1
  Ca2+  Ca20  1  0.58476967  0.32619658  0.82549735  1
  Ca2+  Ca21  1  0.57777697  0.83738961  0.16728358  1
  Ca2+  Ca22  1  0.58333596  0.82841899  0.48713995  1
  Ca2+  Ca23  1  0.57579737  0.83699313  0.83292355  1
  Ca2+  Ca24  1  0.32442171  0.41006530  0.17157024  1
  Ca2+  Ca25  1  0.33760172  0.41412709  0.50405541  1
  Ca2+  Ca26  1  0.32844634  0.41317512  0.83980821  1
  Ca2+  Ca27  1  0.34327322  0.92622600  0.17048473  1
  Ca2+  Ca28  1  0.33405993  0.92549436  0.50536949  1
  Ca2+  Ca29  1  0.33122765  0.92576120  0.83814398  1
  Ca2+  Ca30  1  0.82729965  0.41156664  0.16445936  1
  Ca2+  Ca31  1  0.82605799  0.42400730  0.51364324  1
  Ca2+  Ca32  1  0.82559955  0.40753228  0.83701635  1
  Ca2+  Ca33  1  0.83182042  0.92025680  0.17323201  1
  Ca2+  Ca34  1  0.82877470  0.91671092  0.50468541  1
  Ca2+  Ca35  1  0.83129156  0.93222922  0.83792579  1
  Ca2+  Ca36  1  0.41985522  0.16415895  0.16110229  1
  Ca2+  Ca37  1  0.41385419  0.17081817  0.49940200  1
  Ca2+  Ca38  1  0.42622677  0.16551216  0.82669832  1
  Ca2+  Ca39  1  0.41950544  0.68098417  0.16429222  1
  Ca2+  Ca40  1  0.42550279  0.67510727  0.48868439  1
  Ca2+  Ca41  1  0.41370212  0.67374212  0.83271833  1
  Ca2+  Ca42  1  0.92385800  0.16877671  0.15249069  1
  Ca2+  Ca43  1  0.91142877  0.16910206  0.50322757  1
  Ca2+  Ca44  1  0.91136430  0.17421271  0.82939291  1
  Ca2+  Ca45  1  0.92362303  0.67341314  0.16474094  1
  Ca2+  Ca46  1  0.91945571  0.67151222  0.49099730  1
  Ca2+  Ca47  1  0.92039312  0.66209429  0.83079286  1
  Al0+  Al48  1  0.00240349  -0.00138357  0.00061421  1
  Al0+  Al49  1  0.00186259  0.00219480  0.33073927  1
  Al0+  Al50  1  -0.00086460  -0.00264370  0.67330018  1
  Al0+  Al51  1  -0.00093850  0.50102305  -0.00255613  1
  Al0+  Al52  1  -0.00124070  0.49844150  0.33115582  1
  Al0+  Al53  1  0.00149941  0.50071851  0.66391271  1
  Al0+  Al54  1  0.50015324  0.00004772  -0.00557921  1
  Al0+  Al55  1  0.50345775  0.00189930  0.34044039  1
  Al0+  Al56  1  0.49914616  -0.00017494  0.66515965  1
  Al0+  Al57  1  0.50007886  0.50271485  0.00508890  1
  Al0+  Al58  1  0.49721550  0.49799799  0.32615187  1
  Al0+  Al59  1  0.49991242  0.50089536  0.66850416  1
  Al0+  Al60  1  0.24903043  0.25097809  0.00597981  1
  Al0+  Al61  1  0.24883144  0.25080081  0.33756370  1
  Al0+  Al62  1  0.24935133  0.24953605  0.66646872  1
  Al0+  Al63  1  0.25016830  0.75041196  -0.00810956  1
  Al0+  Al64  1  0.25030651  0.74888193  0.32632352  1
  Al0+  Al65  1  0.24995647  0.74913979  0.66833613  1
  Al0+  Al66  1  0.74885182  0.25015342  0.00539944  1
  Al0+  Al67  1  0.74865099  0.25106262  0.33577866  1
  Al0+  Al68  1  0.74878914  0.24938911  0.66100345  1
  Al0+  Al69  1  0.74937850  0.74888818  -0.00106808  1
  Al0+  Al70  1  0.75148611  0.74915768  0.32817145  1
  Al0+  Al71  1  0.75126600  0.74949856  0.67346486  1
  Al0+  Al72  1  0.92971648  0.32074440  0.65163305  1
  Al0+  Al73  1  0.82166881  0.07063494  0.01401972  1
  Al0+  Al74  1  0.92895197  0.82383592  0.31888352  1
  Al0+  Al75  1  0.43039593  0.82458557  0.32016415  1
  Al0+  Al76  1  0.81878384  0.07012712  0.67918078  1
  Al0+  Al77  1  0.43124717  0.82084375  0.98414674  1
  Al0+  Al78  1  0.17946992  0.43080894  0.01369911  1
  Al0+  Al79  1  0.32128256  0.06963318  0.01455309  1
  Al0+  Al80  1  0.32135803  0.07216244  0.68394414  1
  Al0+  Al81  1  0.56898066  0.18092545  0.98817286  1
  Al0+  Al82  1  0.57278269  0.67726892  0.31858166  1
  Al0+  Al83  1  0.67848789  0.42961230  0.68032966  1
  Al0+  Al84  1  0.07433801  0.17670773  0.98508531  1
  Al0+  Al85  1  0.57171706  0.17738157  0.64863328  1
  Al0+  Al86  1  0.17921721  0.92707024  0.68186868  1
  Al0+  Al87  1  0.06845748  0.68079752  0.98355959  1
  Al0+  Al88  1  0.32171220  0.07126445  0.34881896  1
  Al0+  Al89  1  0.07142284  0.67719589  0.31796238  1
  Al0+  Al90  1  0.42765865  0.31879838  0.31803226  1
  Al0+  Al91  1  0.68262358  0.92907647  0.34565733  1
  Al0+  Al92  1  0.82368206  0.57242449  0.68167789  1
  Al0+  Al93  1  0.92836690  0.31886725  0.98556962  1
  Al0+  Al94  1  0.42703277  0.32220492  0.65339914  1
  Al0+  Al95  1  0.67866670  0.42885098  0.01599691  1
  Si0+  Si96  1  0.17837906  0.42919842  0.68004863  1
  Si0+  Si97  1  0.82169396  0.57306175  0.01937828  1
  Si0+  Si98  1  0.42827085  0.81923714  0.65093299  1
  Si0+  Si99  1  0.32061207  0.57104448  0.34702622  1
  Si0+  Si100  1  0.07162485  0.67945954  0.65079221  1
  Si0+  Si101  1  0.67599757  0.42897419  0.34930732  1
  Si0+  Si102  1  0.82516631  0.07363931  0.35008737  1
  Si0+  Si103  1  0.67678863  0.92589565  0.68403061  1
  Si0+  Si104  1  0.17947943  0.92508696  0.01822230  1
  Si0+  Si105  1  0.92825583  0.82128012  0.65341946  1
  Si0+  Si106  1  0.82097105  0.56825947  0.34657609  1
  Si0+  Si107  1  0.32155293  0.57499226  0.01824547  1
  Si0+  Si108  1  0.17781763  0.92633785  0.34749499  1
  Si0+  Si109  1  0.92530236  0.82302933  0.98070349  1
  Si0+  Si110  1  0.57336175  0.17899937  0.31591493  1
  Si0+  Si111  1  0.07050962  0.18084087  0.32044416  1
  Si0+  Si112  1  0.32107628  0.57109732  0.68036265  1
  Si0+  Si113  1  0.07156015  0.17560973  0.64998955  1
  Si0+  Si114  1  0.67852076  0.92644264  0.01581996  1
  Si0+  Si115  1  0.92746802  0.32029409  0.31890608  1
  Si0+  Si116  1  0.17740021  0.42997871  0.35060865  1
  Si0+  Si117  1  0.57339438  0.67552204  0.98039476  1
  Si0+  Si118  1  0.42692224  0.32422901  0.98624088  1
  Si0+  Si119  1  0.57156701  0.68045774  0.65438729  1
  O2-  O120  1  0.24439118  -0.00286723  0.06285840  1
  O2-  O121  1  0.24960692  -0.00841693  0.39208002  1
  O2-  O122  1  0.24788321  0.00115083  0.73288916  1
  O2-  O123  1  0.25580481  0.50337847  0.06248795  1
  O2-  O124  1  0.24796096  0.50222737  0.39176053  1
  O2-  O125  1  0.25368246  0.49626316  0.72112103  1
  O2-  O126  1  0.75059671  -0.00817786  0.05971296  1
  O2-  O127  1  0.75953871  0.00147608  0.39304865  1
  O2-  O128  1  0.74095258  -0.00087581  0.72699246  1
  O2-  O129  1  0.75146230  0.50578170  0.06370447  1
  O2-  O130  1  0.74663976  0.50123084  0.39004792  1
  O2-  O131  1  0.75514940  0.49694682  0.73059538  1
  O2-  O132  1  -0.00549598  0.24593602  0.27799509  1
  O2-  O133  1  0.00310503  0.24437198  0.60397852  1
  O2-  O134  1  -0.00166634  0.24466548  0.93534852  1
  O2-  O135  1  0.00288714  0.75323040  0.26961495  1
  O2-  O136  1  -0.00072814  0.74983129  0.61043920  1
  O2-  O137  1  -0.00527493  0.75541914  0.93540897  1
  O2-  O138  1  0.50250314  0.24508824  0.27136021  1
  O2-  O139  1  0.49679988  0.24875958  0.60163143  1
  O2-  O140  1  0.49566568  0.25696859  0.94134105  1
  O2-  O141  1  0.50280529  0.75236369  0.27046222  1
  O2-  O142  1  0.50351020  0.75264356  0.60924867  1
  O2-  O143  1  0.50537455  0.74511657  0.93657826  1
  O2-  O144  1  0.07405253  0.18139245  0.09961668  1
  O2-  O145  1  0.07055971  0.18277593  0.42570367  1
  O2-  O146  1  0.07258118  0.17849902  0.75497933  1
  O2-  O147  1  0.06713506  0.68160749  0.09647846  1
  O2-  O148  1  0.06910538  0.67555438  0.43209733  1
  O2-  O149  1  0.07333478  0.67888551  0.75553754  1
  O2-  O150  1  0.56779004  0.18014171  0.10165109  1
  O2-  O151  1  0.57631481  0.18189441  0.42112701  1
  O2-  O152  1  0.57196386  0.18021012  0.76229607  1
  O2-  O153  1  0.57277368  0.67538060  0.08578900  1
  O2-  O154  1  0.57131524  0.67675598  0.43311524  1
  O2-  O155  1  0.56836602  0.68115501  0.75929124  1
  O2-  O156  1  0.17640308  0.42888712  0.24582435  1
  O2-  O157  1  0.17586085  0.43288753  0.57446458  1
  O2-  O158  1  0.18065035  0.43246645  0.90014541  1
  O2-  O159  1  0.17533460  0.92891169  0.24232883  1
  O2-  O160  1  0.18128156  0.92465843  0.56759553  1
  O2-  O161  1  0.18336480  0.92301933  0.91271917  1
  O2-  O162  1  0.67863715  0.42708667  0.24429962  1
  O2-  O163  1  0.67752159  0.43516558  0.56601895  1
  O2-  O164  1  0.67890042  0.42920170  0.90327990  1
  O2-  O165  1  0.68219002  0.93299317  0.23264775  1
  O2-  O166  1  0.68060333  0.92032835  0.57841874  1
  O2-  O167  1  0.67966567  0.92510650  0.91011027  1
  O2-  O168  1  0.42787513  0.32189529  0.09218509  1
  O2-  O169  1  0.42863570  0.32084460  0.43082606  1
  O2-  O170  1  0.42692095  0.32508141  0.76670521  1
  O2-  O171  1  0.43350902  0.82126501  0.09711917  1
  O2-  O172  1  0.43089259  0.82028618  0.43431464  1
  O2-  O173  1  0.42769254  0.81604323  0.75599981  1
  O2-  O174  1  0.92992592  0.31787102  0.10012813  1
  O2-  O175  1  0.92905491  0.32267440  0.42407741  1
  O2-  O176  1  0.93141080  0.32128144  0.76394085  1
  O2-  O177  1  0.92488034  0.82099549  0.08630337  1
  O2-  O178  1  0.92928673  0.82135466  0.43327801  1
  O2-  O179  1  0.92820449  0.82022060  0.75811829  1
  O2-  O180  1  0.32024106  0.07264488  0.23567213  1
  O2-  O181  1  0.31946837  0.06969361  0.56989293  1
  O2-  O182  1  0.32235417  0.06870442  0.90198459  1
  O2-  O183  1  0.32035684  0.56936752  0.24246999  1
  O2-  O184  1  0.31941589  0.57498687  0.57505403  1
  O2-  O185  1  0.32043761  0.57405690  0.91191647  1
  O2-  O186  1  0.82431336  0.07626245  0.24472011  1
  O2-  O187  1  0.82041321  0.06491789  0.56572450  1
  O2-  O188  1  0.81797588  0.07206660  0.90093000  1
  O2-  O189  1  0.82361340  0.56394606  0.24184079  1
  O2-  O190  1  0.82126579  0.57454016  0.56720011  1
  O2-  O191  1  0.82065066  0.57378225  0.91393074  1
  O2-  O192  1  0.05051248  0.08811372  0.27194339  1
  O2-  O193  1  0.04441365  0.08118836  0.60584462  1
  O2-  O194  1  0.05500350  0.07500694  0.93626530  1
  O2-  O195  1  0.03829813  0.57979269  0.26499111  1
  O2-  O196  1  0.04650077  0.58803655  0.60128007  1
  O2-  O197  1  0.03740563  0.58472001  0.92898905  1
  O2-  O198  1  0.54994825  0.08430862  0.27302553  1
  O2-  O199  1  0.54498750  0.07725022  0.59676252  1
  O2-  O200  1  0.54121949  0.08533366  0.93176425  1
  O2-  O201  1  0.54030276  0.58124647  0.26374638  1
  O2-  O202  1  0.54226995  0.58968819  0.60613214  1
  O2-  O203  1  0.54476114  0.58253667  0.93433133  1
  O2-  O204  1  0.15992824  0.21512564  0.27308330  1
  O2-  O205  1  0.16435987  0.20266992  0.60251660  1
  O2-  O206  1  0.17096718  0.21233060  0.93301235  1
  O2-  O207  1  0.17031856  0.69940697  0.26385310  1
  O2-  O208  1  0.16350804  0.70825058  0.60287986  1
  O2-  O209  1  0.16529964  0.70884223  0.92835325  1
  O2-  O210  1  0.66665014  0.20750679  0.26958009  1
  O2-  O211  1  0.66853768  0.20570665  0.59246407  1
  O2-  O212  1  0.66534337  0.21374927  0.93651856  1
  O2-  O213  1  0.67118219  0.70070281  0.26461793  1
  O2-  O214  1  0.66512663  0.70633399  0.60887424  1
  O2-  O215  1  0.66769701  0.69944971  0.93511985  1
  O2-  O216  1  0.08288782  0.46418851  0.06714994  1
  O2-  O217  1  0.08502143  0.45801133  0.39802887  1
  O2-  O218  1  0.08936553  0.46241210  0.72868897  1
  O2-  O219  1  0.08330500  0.94305048  0.06173731  1
  O2-  O220  1  0.08534200  0.95598663  0.39554332  1
  O2-  O221  1  0.07937759  0.94742795  0.73430915  1
  O2-  O222  1  0.58165549  0.45975078  0.07096301  1
  O2-  O223  1  0.58276449  0.45613230  0.39366098  1
  O2-  O224  1  0.58208134  0.46215789  0.73529766  1
  O2-  O225  1  0.58598615  0.95678836  0.06032380  1
  O2-  O226  1  0.58844531  0.96001087  0.40467213  1
  O2-  O227  1  0.58096990  0.94656304  0.72629979  1
  O2-  O228  1  0.20844914  0.33576180  0.07211055  1
  O2-  O229  1  0.20613414  0.33971405  0.40039581  1
  O2-  O230  1  0.20075176  0.33628404  0.72640870  1
  O2-  O231  1  0.20934843  0.83190836  0.06305214  1
  O2-  O232  1  0.19842665  0.82999679  0.39087274  1
  O2-  O233  1  0.21121800  0.82943949  0.73576766  1
  O2-  O234  1  0.71153872  0.33505076  0.07413026  1
  O2-  O235  1  0.70531980  0.33787579  0.39755546  1
  O2-  O236  1  0.70510686  0.32975956  0.72882154  1
  O2-  O237  1  0.69957905  0.83108348  0.06112867  1
  O2-  O238  1  0.71067952  0.83017727  0.39858641  1
  O2-  O239  1  0.70556910  0.83523766  0.73429901  1
  O2-  O240  1  0.45527575  0.41476163  0.26199557  1
  O2-  O241  1  0.45598727  0.42191835  0.60029017  1
  O2-  O242  1  0.44892294  0.42032511  0.94398912  1
  O2-  O243  1  0.46193474  0.92295079  0.26941787  1
  O2-  O244  1  0.45110447  0.91252329  0.60545740  1
  O2-  O245  1  0.46405371  0.91471711  0.92669820  1
  O2-  O246  1  0.95876147  0.40984567  0.27002518  1
  O2-  O247  1  0.96406443  0.41680238  0.59616761  1
  O2-  O248  1  0.95687257  0.41730088  0.93400376  1
  O2-  O249  1  0.95399502  0.92348211  0.26650535  1
  O2-  O250  1  0.95540865  0.91266130  0.60474035  1
  O2-  O251  1  0.95051998  0.91714938  0.93631315  1
  O2-  O252  1  0.32905694  0.28927346  0.26728110  1
  O2-  O253  1  0.32725669  0.29710534  0.59930406  1
  O2-  O254  1  0.33265577  0.29974954  0.94280641  1
  O2-  O255  1  0.33286255  0.79637920  0.26597822  1
  O2-  O256  1  0.33818310  0.78573069  0.60350007  1
  O2-  O257  1  0.33639578  0.78805411  0.92799314  1
  O2-  O258  1  0.83365906  0.29672331  0.27366513  1
  O2-  O259  1  0.83407448  0.29147635  0.59517448  1
  O2-  O260  1  0.82959562  0.28991797  0.93532690  1
  O2-  O261  1  0.83339866  0.79276865  0.26284196  1
  O2-  O262  1  0.83580744  0.79253099  0.60668247  1
  O2-  O263  1  0.83159097  0.79681113  0.93495123  1
  O2-  O264  1  0.41811587  0.03516535  0.06674856  1
  O2-  O265  1  0.41891600  0.04526619  0.40341152  1
  O2-  O266  1  0.42030560  0.04176354  0.73402773  1
  O2-  O267  1  0.41658333  0.55592141  0.06342323  1
  O2-  O268  1  0.41200371  0.54060918  0.39483720  1
  O2-  O269  1  0.41308592  0.54872137  0.72937828  1
  O2-  O270  1  0.92045606  0.04298943  0.06656471  1
  O2-  O271  1  0.92053732  0.05310556  0.39507555  1
  O2-  O272  1  0.91369613  0.03850812  0.73536033  1
  O2-  O273  1  0.91487551  0.54581063  0.06468164  1
  O2-  O274  1  0.91134778  0.53683063  0.39607659  1
  O2-  O275  1  0.92437721  0.54779687  0.73070362  1
  O2-  O276  1  0.29219439  0.16650317  0.06961201  1
  O2-  O277  1  0.28416033  0.16581719  0.40355626  1
  O2-  O278  1  0.29381521  0.17166599  0.73498737  1
  O2-  O279  1  0.29066136  0.66763065  0.06253639  1
  O2-  O280  1  0.29477985  0.66385024  0.39480160  1
  O2-  O281  1  0.28865691  0.66000015  0.73069361  1
  O2-  O282  1  0.78787656  0.16431387  0.07153765  1
  O2-  O283  1  0.79524588  0.16636267  0.39714137  1
  O2-  O284  1  0.79045776  0.16817450  0.73024769  1
  O2-  O285  1  0.79691055  0.66762369  0.06481484  1
  O2-  O286  1  0.79814151  0.66219579  0.39168734  1
  O2-  O287  1  0.79395329  0.66856287  0.73849869  1
