# generated using pymatgen
data_Ca2Al2SiO7
_symmetry_space_group_name_H-M   'P 1'
_cell_length_a   15.45788607
_cell_length_b   15.45799455
_cell_length_c   15.28364715
_cell_angle_alpha   89.99112085
_cell_angle_beta   89.99904491
_cell_angle_gamma   90.00013960
_symmetry_Int_Tables_number   1
_chemical_formula_structural   Ca2Al2SiO7
_chemical_formula_sum   'Ca48 Al48 Si24 O168'
_cell_volume   3651.99563109
_cell_formula_units_Z   24
loop_
 _symmetry_equiv_pos_site_id
 _symmetry_equiv_pos_as_xyz
  1  'x, y, z'
loop_
 _atom_type_symbol
 _atom_type_oxidation_number
  Ca2+  2.0
  Al0+  0.0
  Si0+  0.0
  O2-  -2.0
loop_
 _atom_site_type_symbol
 _atom_site_label
 _atom_site_symmetry_multiplicity
 _atom_site_fract_x
 _atom_site_fract_y
 _atom_site_fract_z
 _atom_site_occupancy
  Ca2+  Ca0  1  0.17408537  0.08233654  0.16777780  1
  Ca2+  Ca1  1  0.17355386  0.07891287  0.50315761  1
  Ca2+  Ca2  1  0.16892964  0.07335316  0.84441113  1
  Ca2+  Ca3  1  0.17499248  0.57754621  0.18060559  1
  Ca2+  Ca4  1  0.17483135  0.58332602  0.50132087  1
  Ca2+  Ca5  1  0.17438171  0.58702189  0.83149409  1
  Ca2+  Ca6  1  0.66879078  0.08525512  0.17970092  1
  Ca2+  Ca7  1  0.66841366  0.08334886  0.50038956  1
  Ca2+  Ca8  1  0.66406620  0.07566806  0.83377518  1
  Ca2+  Ca9  1  0.66650374  0.57935549  0.17817909  1
  Ca2+  Ca10  1  0.67043717  0.58435973  0.50287353  1
  Ca2+  Ca11  1  0.66750672  0.59196220  0.83327091  1
  Ca2+  Ca12  1  0.08083987  0.33223924  0.16759817  1
  Ca2+  Ca13  1  0.07546686  0.34079048  0.49023277  1
  Ca2+  Ca14  1  0.08830734  0.32339239  0.83174638  1
  Ca2+  Ca15  1  0.08618732  0.82981159  0.16580241  1
  Ca2+  Ca16  1  0.08974890  0.82150486  0.49843463  1
  Ca2+  Ca17  1  0.08672377  0.83311781  0.82553109  1
  Ca2+  Ca18  1  0.57344184  0.33273201  0.16909844  1
  Ca2+  Ca19  1  0.57443263  0.33288582  0.48974443  1
  Ca2+  Ca20  1  0.57069540  0.33100667  0.82859448  1
  Ca2+  Ca21  1  0.57625022  0.82127580  0.16101946  1
  Ca2+  Ca22  1  0.59035999  0.82312884  0.49700525  1
  Ca2+  Ca23  1  0.57830589  0.82800166  0.82799432  1
  Ca2+  Ca24  1  0.33125349  0.41738676  0.17710137  1
  Ca2+  Ca25  1  0.34112612  0.42575972  0.49920715  1
  Ca2+  Ca26  1  0.34474496  0.42131638  0.83271627  1
  Ca2+  Ca27  1  0.33740297  0.92524380  0.16875378  1
  Ca2+  Ca28  1  0.33161033  0.92268344  0.50377240  1
  Ca2+  Ca29  1  0.32279158  0.91718636  0.84447522  1
  Ca2+  Ca30  1  0.82466315  0.41969700  0.18183000  1
  Ca2+  Ca31  1  0.82794293  0.42296147  0.49762772  1
  Ca2+  Ca32  1  0.83200806  0.42564010  0.83485172  1
  Ca2+  Ca33  1  0.83124002  0.92542544  0.17324536  1
  Ca2+  Ca34  1  0.82756925  0.92106488  0.50205596  1
  Ca2+  Ca35  1  0.82513957  0.91169229  0.83305113  1
  Ca2+  Ca36  1  0.40585222  0.17586701  0.16557053  1
  Ca2+  Ca37  1  0.41917689  0.17645926  0.48942596  1
  Ca2+  Ca38  1  0.40352784  0.17804311  0.83277874  1
  Ca2+  Ca39  1  0.42687628  0.66300395  0.16257161  1
  Ca2+  Ca40  1  0.42367777  0.66144464  0.49395376  1
  Ca2+  Ca41  1  0.42537777  0.66946180  0.82719146  1
  Ca2+  Ca42  1  0.91839806  0.17250324  0.16540600  1
  Ca2+  Ca43  1  0.91696810  0.17231119  0.48848564  1
  Ca2+  Ca44  1  0.92466228  0.16467612  0.83275960  1
  Ca2+  Ca45  1  0.92391235  0.65815871  0.16979291  1
  Ca2+  Ca46  1  0.92577636  0.65551315  0.49447603  1
  Ca2+  Ca47  1  0.92429892  0.66721188  0.82269698  1
  Al0+  Al48  1  -0.00076215  -0.00105841  -0.00003795  1
  Al0+  Al49  1  -0.00139819  -0.00172000  0.33802363  1
  Al0+  Al50  1  0.00002528  0.00039638  0.66876393  1
  Al0+  Al51  1  -0.00079119  0.50047190  -0.00161871  1
  Al0+  Al52  1  -0.00004334  0.49931412  0.32884742  1
  Al0+  Al53  1  0.00032049  0.49923483  0.66955814  1
  Al0+  Al54  1  0.49954463  -0.00051055  0.00103344  1
  Al0+  Al55  1  0.49988242  -0.00108713  0.33634585  1
  Al0+  Al56  1  0.50068723  0.00236003  0.67278707  1
  Al0+  Al57  1  0.50281714  0.49823003  -0.00789081  1
  Al0+  Al58  1  0.49978840  0.49895756  0.33159931  1
  Al0+  Al59  1  0.50047495  0.50005939  0.66400146  1
  Al0+  Al60  1  0.24748746  0.25022652  -0.00604807  1
  Al0+  Al61  1  0.24744933  0.24790035  0.33926541  1
  Al0+  Al62  1  0.24854447  0.25119445  0.65967881  1
  Al0+  Al63  1  0.25036481  0.74843532  0.00223094  1
  Al0+  Al64  1  0.24949160  0.74996234  0.33127288  1
  Al0+  Al65  1  0.25075503  0.74987472  0.67070553  1
  Al0+  Al66  1  0.74892184  0.25238006  -0.00280925  1
  Al0+  Al67  1  0.75015572  0.25047653  0.33466789  1
  Al0+  Al68  1  0.75045082  0.25081250  0.67024057  1
  Al0+  Al69  1  0.75342147  0.75018406  -0.00069346  1
  Al0+  Al70  1  0.75181088  0.75106323  0.33074004  1
  Al0+  Al71  1  0.75079120  0.75177047  0.67115147  1
  Al0+  Al72  1  0.32231170  0.56930910  0.68140040  1
  Al0+  Al73  1  0.57270219  0.67915520  0.98337433  1
  Al0+  Al74  1  0.18086314  0.92998821  0.67978740  1
  Al0+  Al75  1  0.57162716  0.68230573  0.65116123  1
  Al0+  Al76  1  0.42802714  0.82188377  0.98478421  1
  Al0+  Al77  1  0.32220026  0.57200004  0.34646438  1
  Al0+  Al78  1  0.42926912  0.32013018  0.64995390  1
  Al0+  Al79  1  0.07089504  0.67916391  0.31913798  1
  Al0+  Al80  1  0.06821061  0.17978842  0.98752789  1
  Al0+  Al81  1  0.32148922  0.07035474  0.34851737  1
  Al0+  Al82  1  0.82088999  0.07164507  0.34563375  1
  Al0+  Al83  1  0.17677141  0.92608788  0.01798003  1
  Al0+  Al84  1  0.82078795  0.57279585  0.34706278  1
  Al0+  Al85  1  0.92925095  0.32064607  0.32053276  1
  Al0+  Al86  1  0.82151079  0.56983409  0.68109007  1
  Al0+  Al87  1  0.57154882  0.67931238  0.32069367  1
  Al0+  Al88  1  0.67749735  0.42884406  0.34812738  1
  Al0+  Al89  1  0.32025917  0.07256049  0.01520734  1
  Al0+  Al90  1  0.42665553  0.31967348  0.31794447  1
  Al0+  Al91  1  0.07182319  0.67931775  0.65328604  1
  Al0+  Al92  1  0.67934654  0.92990673  0.68074756  1
  Al0+  Al93  1  0.57060203  0.17751780  0.32010024  1
  Al0+  Al94  1  0.42868310  0.31866554  0.98569145  1
  Al0+  Al95  1  0.17816619  0.42804421  0.34688576  1
  Si0+  Si96  1  0.92582256  0.32329165  0.98118373  1
  Si0+  Si97  1  0.92799137  0.82298076  0.64950283  1
  Si0+  Si98  1  0.92842064  0.82370421  0.31587663  1
  Si0+  Si99  1  0.57410935  0.17731970  0.65068199  1
  Si0+  Si100  1  0.07092015  0.17418917  0.31814372  1
  Si0+  Si101  1  0.42770446  0.82419633  0.65088986  1
  Si0+  Si102  1  0.67773982  0.92765472  0.34853673  1
  Si0+  Si103  1  0.32108665  0.07442014  0.68373719  1
  Si0+  Si104  1  0.17711059  0.92741025  0.35124177  1
  Si0+  Si105  1  0.93085323  0.82133156  0.98416563  1
  Si0+  Si106  1  0.17684216  0.42762773  0.68465661  1
  Si0+  Si107  1  0.17745044  0.42955646  0.01310258  1
  Si0+  Si108  1  0.67953347  0.92818451  0.01588475  1
  Si0+  Si109  1  0.82254014  0.07421892  0.68556131  1
  Si0+  Si110  1  0.82232970  0.57146813  0.01590085  1
  Si0+  Si111  1  0.81946129  0.07150516  0.01367517  1
  Si0+  Si112  1  0.32273685  0.56839487  0.01330157  1
  Si0+  Si113  1  0.07083138  0.67715794  0.98445384  1
  Si0+  Si114  1  0.67953431  0.42983732  0.01451464  1
  Si0+  Si115  1  0.67790169  0.42775328  0.68568154  1
  Si0+  Si116  1  0.92888344  0.32045710  0.65264405  1
  Si0+  Si117  1  0.06917062  0.17743630  0.65009422  1
  Si0+  Si118  1  0.42670713  0.82267528  0.31805019  1
  Si0+  Si119  1  0.57545582  0.17707388  0.98288776  1
  O2-  O120  1  0.25149806  -0.00321118  0.06531086  1
  O2-  O121  1  0.24668188  -0.00465925  0.39478293  1
  O2-  O122  1  0.25539371  0.00347747  0.72832915  1
  O2-  O123  1  0.24968031  0.49913315  0.05478278  1
  O2-  O124  1  0.25159537  0.49836310  0.39669696  1
  O2-  O125  1  0.24792982  0.49369445  0.72923272  1
  O2-  O126  1  0.74461095  0.00536443  0.05716036  1
  O2-  O127  1  0.74404726  -0.00061199  0.39185253  1
  O2-  O128  1  0.75344062  0.00562852  0.72888188  1
  O2-  O129  1  0.74995810  0.50176780  0.05634013  1
  O2-  O130  1  0.74580489  0.50486210  0.39774686  1
  O2-  O131  1  0.74515657  0.49801703  0.73056382  1
  O2-  O132  1  0.00366786  0.24489780  0.27471571  1
  O2-  O133  1  -0.00185419  0.24856140  0.60942676  1
  O2-  O134  1  -0.00556691  0.25453167  0.93738155  1
  O2-  O135  1  -0.00409236  0.75376069  0.27161039  1
  O2-  O136  1  -0.00347623  0.75399158  0.60645228  1
  O2-  O137  1  0.00338312  0.75169127  0.94248317  1
  O2-  O138  1  0.49649317  0.24541192  0.26750797  1
  O2-  O139  1  0.50429376  0.24416995  0.60704479  1
  O2-  O140  1  0.50079295  0.23996200  0.93971929  1
  O2-  O141  1  0.49374163  0.75141579  0.27500280  1
  O2-  O142  1  0.49716124  0.75756175  0.60474310  1
  O2-  O143  1  0.50030070  0.75080459  0.93347600  1
  O2-  O144  1  0.06556924  0.18177172  0.10020304  1
  O2-  O145  1  0.06767052  0.17189911  0.42403554  1
  O2-  O146  1  0.06837142  0.17746350  0.75556338  1
  O2-  O147  1  0.06727720  0.67365002  0.08919856  1
  O2-  O148  1  0.07125043  0.68095049  0.43218860  1
  O2-  O149  1  0.06955687  0.68075935  0.76725011  1
  O2-  O150  1  0.58425274  0.18151773  0.08737089  1
  O2-  O151  1  0.56973724  0.17773227  0.43397710  1
  O2-  O152  1  0.57640442  0.17874492  0.75660660  1
  O2-  O153  1  0.57283902  0.67828250  0.09693069  1
  O2-  O154  1  0.57387497  0.68296123  0.43369682  1
  O2-  O155  1  0.57090610  0.68454678  0.76430930  1
  O2-  O156  1  0.17828484  0.42996661  0.23228886  1
  O2-  O157  1  0.17252017  0.42877372  0.57986252  1
  O2-  O158  1  0.17431713  0.43154131  0.90792375  1
  O2-  O159  1  0.17536889  0.92854349  0.24585234  1
  O2-  O160  1  0.18126416  0.93235121  0.56675118  1
  O2-  O161  1  0.17475001  0.92878701  0.90413499  1
  O2-  O162  1  0.67900077  0.42933478  0.23370149  1
  O2-  O163  1  0.68058045  0.42477261  0.58080953  1
  O2-  O164  1  0.68210944  0.42827174  0.90927092  1
  O2-  O165  1  0.68023672  0.92725327  0.24260687  1
  O2-  O166  1  0.68276010  0.93097497  0.56797006  1
  O2-  O167  1  0.68374729  0.92756773  0.91069908  1
  O2-  O168  1  0.42838428  0.32147289  0.09794785  1
  O2-  O169  1  0.42919570  0.31870381  0.43134489  1
  O2-  O170  1  0.43007954  0.31783826  0.76380066  1
  O2-  O171  1  0.43124998  0.82016526  0.09846643  1
  O2-  O172  1  0.42731044  0.82426859  0.42378435  1
  O2-  O173  1  0.42868904  0.82234205  0.75645773  1
  O2-  O174  1  0.92429134  0.32352440  0.08624318  1
  O2-  O175  1  0.93029912  0.31938529  0.43413927  1
  O2-  O176  1  0.92996429  0.31866987  0.75822454  1
  O2-  O177  1  0.92793163  0.82181759  0.08895220  1
  O2-  O178  1  0.92905416  0.82757325  0.42107011  1
  O2-  O179  1  0.92910809  0.82294408  0.75584193  1
  O2-  O180  1  0.31942055  0.07018482  0.23560335  1
  O2-  O181  1  0.31974826  0.07314190  0.57816341  1
  O2-  O182  1  0.31482376  0.07407768  0.90137283  1
  O2-  O183  1  0.32101528  0.57138412  0.23202092  1
  O2-  O184  1  0.32181729  0.56987183  0.56905261  1
  O2-  O185  1  0.32146479  0.56782414  0.90797860  1
  O2-  O186  1  0.82176432  0.06896580  0.23190012  1
  O2-  O187  1  0.82370519  0.07611385  0.58039450  1
  O2-  O188  1  0.81968322  0.06934835  0.90837212  1
  O2-  O189  1  0.81978037  0.56978627  0.23270915  1
  O2-  O190  1  0.82335448  0.56670943  0.56894460  1
  O2-  O191  1  0.82494141  0.57032177  0.91064215  1
  O2-  O192  1  0.04243938  0.08153856  0.27185093  1
  O2-  O193  1  0.04050368  0.08602149  0.60274857  1
  O2-  O194  1  0.03461847  0.08388415  0.93230918  1
  O2-  O195  1  0.03884920  0.58462395  0.26178630  1
  O2-  O196  1  0.04015653  0.58158587  0.60275008  1
  O2-  O197  1  0.03889326  0.58729743  0.93459304  1
  O2-  O198  1  0.54860037  0.07619233  0.26984079  1
  O2-  O199  1  0.55113337  0.08219729  0.60701217  1
  O2-  O200  1  0.55617406  0.08062753  0.94061636  1
  O2-  O201  1  0.54229486  0.58302953  0.26572778  1
  O2-  O202  1  0.54287139  0.58433463  0.60062794  1
  O2-  O203  1  0.54592853  0.58121395  0.92895931  1
  O2-  O204  1  0.16457525  0.19888349  0.27334830  1
  O2-  O205  1  0.16059067  0.20369695  0.60211811  1
  O2-  O206  1  0.16167311  0.21180619  0.92811550  1
  O2-  O207  1  0.16670053  0.71052876  0.26304549  1
  O2-  O208  1  0.16838679  0.71176426  0.60079218  1
  O2-  O209  1  0.16453030  0.70039741  0.93943905  1
  O2-  O210  1  0.66883065  0.20689559  0.26759550  1
  O2-  O211  1  0.66897625  0.20291956  0.60663975  1
  O2-  O212  1  0.66599516  0.20826546  0.93142207  1
  O2-  O213  1  0.66758914  0.71180855  0.26531877  1
  O2-  O214  1  0.66950808  0.71450912  0.60056928  1
  O2-  O215  1  0.67264484  0.70894304  0.93328041  1
  O2-  O216  1  0.08514684  0.45781784  0.06032337  1
  O2-  O217  1  0.08061797  0.45998547  0.39864737  1
  O2-  O218  1  0.08492883  0.45355774  0.73456955  1
  O2-  O219  1  0.07786950  0.95669675  0.06931399  1
  O2-  O220  1  0.08424451  0.95263388  0.39888779  1
  O2-  O221  1  0.08305315  0.96016378  0.73336611  1
  O2-  O222  1  0.58721457  0.45728570  0.06033729  1
  O2-  O223  1  0.57902454  0.45438347  0.40016938  1
  O2-  O224  1  0.58437666  0.45360792  0.73093295  1
  O2-  O225  1  0.58586926  0.94832892  0.06164406  1
  O2-  O226  1  0.58453834  0.94829498  0.39663357  1
  O2-  O227  1  0.58370863  0.96040092  0.73854526  1
  O2-  O228  1  0.20303346  0.33688226  0.05805240  1
  O2-  O229  1  0.19674516  0.32828252  0.40046581  1
  O2-  O230  1  0.20178801  0.33184196  0.72766769  1
  O2-  O231  1  0.20144996  0.82569895  0.06885311  1
  O2-  O232  1  0.20357048  0.83386695  0.39621636  1
  O2-  O233  1  0.20918009  0.83398011  0.73577902  1
  O2-  O234  1  0.70825828  0.33800082  0.06151016  1
  O2-  O235  1  0.71045168  0.33292430  0.40264446  1
  O2-  O236  1  0.70594833  0.33495290  0.73422620  1
  O2-  O237  1  0.71514708  0.83883772  0.06351230  1
  O2-  O238  1  0.70968905  0.83669612  0.39584309  1
  O2-  O239  1  0.71335052  0.83641750  0.73909699  1
  O2-  O240  1  0.45594932  0.41739134  0.26434061  1
  O2-  O241  1  0.46177498  0.41620535  0.59790777  1
  O2-  O242  1  0.46523921  0.41201373  0.92826184  1
  O2-  O243  1  0.45615690  0.91463737  0.27083290  1
  O2-  O244  1  0.45167812  0.92032269  0.60877387  1
  O2-  O245  1  0.45434448  0.92154632  0.93225326  1
  O2-  O246  1  0.96050041  0.41452112  0.26187062  1
  O2-  O247  1  0.95843537  0.41154999  0.60634084  1
  O2-  O248  1  0.95335782  0.41678548  0.93488722  1
  O2-  O249  1  0.95675483  0.91645166  0.26789869  1
  O2-  O250  1  0.95241538  0.91786046  0.60505568  1
  O2-  O251  1  0.95522806  0.91296340  0.93464212  1
  O2-  O252  1  0.32608255  0.29093721  0.26861257  1
  O2-  O253  1  0.33164294  0.29271516  0.59664906  1
  O2-  O254  1  0.33187072  0.29196276  0.92906886  1
  O2-  O255  1  0.33268242  0.80165815  0.27142972  1
  O2-  O256  1  0.33432428  0.79802607  0.60577261  1
  O2-  O257  1  0.32849952  0.79268690  0.93366780  1
  O2-  O258  1  0.83412194  0.28855432  0.26506267  1
  O2-  O259  1  0.83591711  0.29409200  0.60721649  1
  O2-  O260  1  0.83319963  0.29730492  0.93264868  1
  O2-  O261  1  0.83519344  0.80097968  0.26758325  1
  O2-  O262  1  0.83414663  0.79875940  0.60527703  1
  O2-  O263  1  0.84045216  0.79089218  0.93468663  1
  O2-  O264  1  0.42159316  0.05027717  0.06561929  1
  O2-  O265  1  0.41739415  0.03890587  0.40407584  1
  O2-  O266  1  0.41641427  0.05634359  0.72905449  1
  O2-  O267  1  0.41538538  0.53833145  0.05724736  1
  O2-  O268  1  0.42006485  0.54411697  0.39936351  1
  O2-  O269  1  0.41865955  0.53680069  0.73607585  1
  O2-  O270  1  0.90902364  0.03913838  0.06169874  1
  O2-  O271  1  0.91519309  0.03845685  0.40333336  1
  O2-  O272  1  0.91541698  0.04639733  0.73251470  1
  O2-  O273  1  0.91401578  0.54151761  0.06294611  1
  O2-  O274  1  0.91820569  0.53937910  0.39738486  1
  O2-  O275  1  0.91642073  0.53556879  0.73845786  1
  O2-  O276  1  0.28486939  0.17053809  0.06578724  1
  O2-  O277  1  0.28901865  0.16450111  0.40550193  1
  O2-  O278  1  0.28960960  0.16767317  0.72739223  1
  O2-  O279  1  0.29692599  0.66012469  0.06083431  1
  O2-  O280  1  0.29314099  0.67062602  0.39866163  1
  O2-  O281  1  0.29017021  0.66497485  0.73691434  1
  O2-  O282  1  0.79705922  0.16657025  0.05712977  1
  O2-  O283  1  0.79272776  0.16700381  0.40175155  1
  O2-  O284  1  0.79763381  0.16723119  0.73429272  1
  O2-  O285  1  0.79911447  0.66483160  0.06182796  1
  O2-  O286  1  0.79970772  0.67371320  0.39754482  1
  O2-  O287  1  0.79426291  0.66746685  0.73539654  1
