# generated using pymatgen
data_Ca2Al2SiO7
_symmetry_space_group_name_H-M   'P 1'
_cell_length_a   15.46647783
_cell_length_b   15.46907535
_cell_length_c   15.29055276
_cell_angle_alpha   89.99775297
_cell_angle_beta   90.01729134
_cell_angle_gamma   89.97118476
_symmetry_Int_Tables_number   1
_chemical_formula_structural   Ca2Al2SiO7
_chemical_formula_sum   'Ca48 Al48 Si24 O168'
_cell_volume   3658.29639375
_cell_formula_units_Z   24
loop_
 _symmetry_equiv_pos_site_id
 _symmetry_equiv_pos_as_xyz
  1  'x, y, z'
loop_
 _atom_type_symbol
 _atom_type_oxidation_number
  Ca2+  2.0
  Al0+  0.0
  Si0+  0.0
  O2-  -2.0
loop_
 _atom_site_type_symbol
 _atom_site_label
 _atom_site_symmetry_multiplicity
 _atom_site_fract_x
 _atom_site_fract_y
 _atom_site_fract_z
 _atom_site_occupancy
  Ca2+  Ca0  1  0.15825985  0.07685230  0.17017931  1
  Ca2+  Ca1  1  0.16793844  0.08706319  0.50881139  1
  Ca2+  Ca2  1  0.16801275  0.08083357  0.83623121  1
  Ca2+  Ca3  1  0.16753734  0.57326854  0.17279555  1
  Ca2+  Ca4  1  0.16410875  0.57135267  0.50567286  1
  Ca2+  Ca5  1  0.15972134  0.57616916  0.83688611  1
  Ca2+  Ca6  1  0.66807090  0.08317250  0.17448199  1
  Ca2+  Ca7  1  0.66126115  0.08541007  0.50819138  1
  Ca2+  Ca8  1  0.66563377  0.08466133  0.83494827  1
  Ca2+  Ca9  1  0.67257303  0.58004679  0.17947036  1
  Ca2+  Ca10  1  0.67618682  0.58673989  0.50265601  1
  Ca2+  Ca11  1  0.67159283  0.59279922  0.83474081  1
  Ca2+  Ca12  1  0.07628940  0.34225048  0.16327493  1
  Ca2+  Ca13  1  0.07883727  0.33454068  0.49605211  1
  Ca2+  Ca14  1  0.07631360  0.33973970  0.82455072  1
  Ca2+  Ca15  1  0.07858958  0.82530556  0.15447549  1
  Ca2+  Ca16  1  0.08650322  0.82326294  0.49931625  1
  Ca2+  Ca17  1  0.08823480  0.82395410  0.83280134  1
  Ca2+  Ca18  1  0.58006749  0.33582601  0.16415267  1
  Ca2+  Ca19  1  0.59000721  0.32386906  0.49261985  1
  Ca2+  Ca20  1  0.57253559  0.32884427  0.82881975  1
  Ca2+  Ca21  1  0.58143353  0.81793327  0.16310786  1
  Ca2+  Ca22  1  0.57805655  0.82152540  0.50123875  1
  Ca2+  Ca23  1  0.57813192  0.82328573  0.82651415  1
  Ca2+  Ca24  1  0.32351957  0.41748992  0.17126199  1
  Ca2+  Ca25  1  0.32209254  0.41776578  0.50109221  1
  Ca2+  Ca26  1  0.31974734  0.41132956  0.83894315  1
  Ca2+  Ca27  1  0.32703347  0.91723791  0.16806084  1
  Ca2+  Ca28  1  0.33900553  0.92424281  0.50944386  1
  Ca2+  Ca29  1  0.33307391  0.92120767  0.83384423  1
  Ca2+  Ca30  1  0.83124087  0.41916293  0.17595617  1
  Ca2+  Ca31  1  0.83357407  0.41937140  0.50165352  1
  Ca2+  Ca32  1  0.83794979  0.41918734  0.83285557  1
  Ca2+  Ca33  1  0.83545838  0.91565831  0.17046513  1
  Ca2+  Ca34  1  0.83035885  0.92096994  0.50552489  1
  Ca2+  Ca35  1  0.83568508  0.91750047  0.84043551  1
  Ca2+  Ca36  1  0.42191592  0.17595996  0.16449016  1
  Ca2+  Ca37  1  0.42316297  0.16525540  0.49896722  1
  Ca2+  Ca38  1  0.41519589  0.16944681  0.82705334  1
  Ca2+  Ca39  1  0.42971021  0.64662332  0.16618855  1
  Ca2+  Ca40  1  0.42267841  0.66354282  0.49390665  1
  Ca2+  Ca41  1  0.42764196  0.66973929  0.82453642  1
  Ca2+  Ca42  1  0.92103679  0.18212072  0.16599433  1
  Ca2+  Ca43  1  0.92757879  0.18051829  0.49448214  1
  Ca2+  Ca44  1  0.92484549  0.18061280  0.82587797  1
  Ca2+  Ca45  1  0.92127642  0.66690855  0.15893903  1
  Ca2+  Ca46  1  0.91787186  0.65630347  0.50149797  1
  Ca2+  Ca47  1  0.92804517  0.66639452  0.83022207  1
  Al0+  Al48  1  -0.00084754  0.00217058  0.00287413  1
  Al0+  Al49  1  -0.00099987  -0.00010126  0.33255229  1
  Al0+  Al50  1  -0.00107791  0.00037374  0.66677798  1
  Al0+  Al51  1  -0.00131795  0.50127343  -0.00270606  1
  Al0+  Al52  1  -0.00054192  0.50112160  0.33556717  1
  Al0+  Al53  1  -0.00296141  0.50271549  0.66727565  1
  Al0+  Al54  1  0.50259397  -0.00161500  0.00447502  1
  Al0+  Al55  1  0.49932822  -0.00144502  0.32760390  1
  Al0+  Al56  1  0.49883227  -0.00024536  0.66685094  1
  Al0+  Al57  1  0.50126301  0.49606456  -0.01194627  1
  Al0+  Al58  1  0.49999954  0.49710523  0.33749331  1
  Al0+  Al59  1  0.50030943  0.49871085  0.66240078  1
  Al0+  Al60  1  0.25137137  0.25014560  0.00326256  1
  Al0+  Al61  1  0.25102935  0.24540124  0.33278915  1
  Al0+  Al62  1  0.25011080  0.24878819  0.67319369  1
  Al0+  Al63  1  0.25374550  0.75128105  0.00259310  1
  Al0+  Al64  1  0.24979579  0.75230128  0.33541844  1
  Al0+  Al65  1  0.24939199  0.75094410  0.65879622  1
  Al0+  Al66  1  0.75187419  0.24978283  -0.00310097  1
  Al0+  Al67  1  0.75322430  0.24808172  0.32889471  1
  Al0+  Al68  1  0.74970256  0.25093408  0.66294950  1
  Al0+  Al69  1  0.74991248  0.75155868  -0.00502908  1
  Al0+  Al70  1  0.74719030  0.75187813  0.33474687  1
  Al0+  Al71  1  0.74880568  0.75090951  0.66878812  1
  Al0+  Al72  1  0.93227928  0.32320985  0.31682443  1
  Al0+  Al73  1  0.06972200  0.68030016  0.65174530  1
  Al0+  Al74  1  0.57165569  0.17799224  0.31937061  1
  Al0+  Al75  1  0.32072240  0.06973549  0.68071000  1
  Al0+  Al76  1  0.81769577  0.57125808  0.68387901  1
  Al0+  Al77  1  0.07365153  0.67947037  0.98669708  1
  Al0+  Al78  1  0.07259121  0.17821716  0.65422478  1
  Al0+  Al79  1  0.81990874  0.57402224  0.34761544  1
  Al0+  Al80  1  0.56871272  0.18083531  0.65528906  1
  Al0+  Al81  1  0.42805384  0.31902647  0.98600100  1
  Al0+  Al82  1  0.17865129  0.42716483  0.34825587  1
  Al0+  Al83  1  0.92927509  0.82328656  0.98624300  1
  Al0+  Al84  1  0.56912651  0.67819634  0.31985820  1
  Al0+  Al85  1  0.92947684  0.32186262  0.98479607  1
  Al0+  Al86  1  0.17757828  0.43084219  0.01343552  1
  Al0+  Al87  1  0.18023768  0.43141158  0.68092511  1
  Al0+  Al88  1  0.17963375  0.92968019  0.01384725  1
  Al0+  Al89  1  0.57228040  0.67698262  0.64925878  1
  Al0+  Al90  1  0.32164974  0.57193328  0.34787320  1
  Al0+  Al91  1  0.57008242  0.67780208  0.98659848  1
  Al0+  Al92  1  0.42870873  0.82022971  0.65247678  1
  Al0+  Al93  1  0.07342567  0.17707202  0.31699388  1
  Al0+  Al94  1  0.92945180  0.32308883  0.65032475  1
  Al0+  Al95  1  0.67972752  0.42539864  0.34682751  1
  Si0+  Si96  1  0.17647113  0.92994915  0.34972679  1
  Si0+  Si97  1  0.92831467  0.82143534  0.32079948  1
  Si0+  Si98  1  0.32243645  0.06761808  0.34814015  1
  Si0+  Si99  1  0.32463562  0.07215233  0.01972865  1
  Si0+  Si100  1  0.17564655  0.92631687  0.68288322  1
  Si0+  Si101  1  0.42949936  0.82556617  0.98392644  1
  Si0+  Si102  1  0.42534892  0.32171053  0.64906263  1
  Si0+  Si103  1  0.67647192  0.42482396  0.68509915  1
  Si0+  Si104  1  0.32582292  0.57105430  0.01231847  1
  Si0+  Si105  1  0.42681249  0.82166851  0.31407507  1
  Si0+  Si106  1  0.07162696  0.68039739  0.31893976  1
  Si0+  Si107  1  0.32342848  0.57419698  0.68257373  1
  Si0+  Si108  1  0.92662661  0.82347617  0.65027917  1
  Si0+  Si109  1  0.67900534  0.42764499  0.01212649  1
  Si0+  Si110  1  0.67738058  0.93041313  0.34953526  1
  Si0+  Si111  1  0.42754200  0.32094974  0.31738542  1
  Si0+  Si112  1  0.81817760  0.57189911  0.01375141  1
  Si0+  Si113  1  0.82000508  0.07266774  0.01685015  1
  Si0+  Si114  1  0.68015208  0.92826227  0.01733894  1
  Si0+  Si115  1  0.07242469  0.17839835  0.98458175  1
  Si0+  Si116  1  0.57222314  0.17680274  0.98466928  1
  Si0+  Si117  1  0.82116784  0.06912704  0.34936131  1
  Si0+  Si118  1  0.82125115  0.07246292  0.68238806  1
  Si0+  Si119  1  0.67936713  0.93135978  0.68300463  1
  O2-  O120  1  0.25341041  0.00515487  0.06300416  1
  O2-  O121  1  0.24806855  0.00038371  0.39091909  1
  O2-  O122  1  0.24359292  -0.00352840  0.72579695  1
  O2-  O123  1  0.25203181  0.50793887  0.05697700  1
  O2-  O124  1  0.24849597  0.50167768  0.39812241  1
  O2-  O125  1  0.25599720  0.50559489  0.72850270  1
  O2-  O126  1  0.75062425  -0.00032970  0.05987448  1
  O2-  O127  1  0.74632237  0.00267398  0.39296409  1
  O2-  O128  1  0.75110117  0.00117417  0.72625476  1
  O2-  O129  1  0.74725566  0.50070945  0.05527421  1
  O2-  O130  1  0.74854752  0.50050175  0.39659961  1
  O2-  O131  1  0.74100578  0.49734034  0.73008051  1
  O2-  O132  1  0.00850741  0.25508147  0.26668484  1
  O2-  O133  1  0.00407389  0.25224491  0.60321748  1
  O2-  O134  1  0.00978246  0.25207070  0.94025198  1
  O2-  O135  1  -0.00281902  0.74893902  0.27832348  1
  O2-  O136  1  -0.00439852  0.75640421  0.60497760  1
  O2-  O137  1  0.00393003  0.75454178  0.93701564  1
  O2-  O138  1  0.50128946  0.25642066  0.27341206  1
  O2-  O139  1  0.49861214  0.25752647  0.60548850  1
  O2-  O140  1  0.50018086  0.24079611  0.94059149  1
  O2-  O141  1  0.48923402  0.74678215  0.27070584  1
  O2-  O142  1  0.49379648  0.74294887  0.60117976  1
  O2-  O143  1  0.49352688  0.75177628  0.94216257  1
  O2-  O144  1  0.06809206  0.17623856  0.09002198  1
  O2-  O145  1  0.06973402  0.17239923  0.42992392  1
  O2-  O146  1  0.06902521  0.17582089  0.76800408  1
  O2-  O147  1  0.06960725  0.67917926  0.10087031  1
  O2-  O148  1  0.07256769  0.68307534  0.42391351  1
  O2-  O149  1  0.07018835  0.68208204  0.76468003  1
  O2-  O150  1  0.57330296  0.17766397  0.09023824  1
  O2-  O151  1  0.56769832  0.17452943  0.43221220  1
  O2-  O152  1  0.56775212  0.17993451  0.76867165  1
  O2-  O153  1  0.57103549  0.67763661  0.09997592  1
  O2-  O154  1  0.57194547  0.68410378  0.43195901  1
  O2-  O155  1  0.57277702  0.68283615  0.76315435  1
  O2-  O156  1  0.17931432  0.43027573  0.23426025  1
  O2-  O157  1  0.18147405  0.43051556  0.56810061  1
  O2-  O158  1  0.17783071  0.43057336  0.90046713  1
  O2-  O159  1  0.17627698  0.92962080  0.24451616  1
  O2-  O160  1  0.17418839  0.92737839  0.57712984  1
  O2-  O161  1  0.18080857  0.93147900  0.90101692  1
  O2-  O162  1  0.68029276  0.42814868  0.23216511  1
  O2-  O163  1  0.67894170  0.42084751  0.58002187  1
  O2-  O164  1  0.68005793  0.42593992  0.90733019  1
  O2-  O165  1  0.67980850  0.92953218  0.24419827  1
  O2-  O166  1  0.68073427  0.93280862  0.57762103  1
  O2-  O167  1  0.67840553  0.93003255  0.91230711  1
  O2-  O168  1  0.43158500  0.31972866  0.09915673  1
  O2-  O169  1  0.42473540  0.31669907  0.42265934  1
  O2-  O170  1  0.42590145  0.31846803  0.75498336  1
  O2-  O171  1  0.43301275  0.83207410  0.08920679  1
  O2-  O172  1  0.43042569  0.82680266  0.41911370  1
  O2-  O173  1  0.43237984  0.82121019  0.76645434  1
  O2-  O174  1  0.92552261  0.32065300  0.09740315  1
  O2-  O175  1  0.93054486  0.31984577  0.42978043  1
  O2-  O176  1  0.92956590  0.32017750  0.76443122  1
  O2-  O177  1  0.92753792  0.81993521  0.10042225  1
  O2-  O178  1  0.93009887  0.82585216  0.42566291  1
  O2-  O179  1  0.92703067  0.82468541  0.75557799  1
  O2-  O180  1  0.32547247  0.06390270  0.24313278  1
  O2-  O181  1  0.32374667  0.06702730  0.56742997  1
  O2-  O182  1  0.32754230  0.06976443  0.91438135  1
  O2-  O183  1  0.32024801  0.56981556  0.23352481  1
  O2-  O184  1  0.32138989  0.57260517  0.57717248  1
  O2-  O185  1  0.32746427  0.56905629  0.90692461  1
  O2-  O186  1  0.82056674  0.06498456  0.24402533  1
  O2-  O187  1  0.82011184  0.06944920  0.57727093  1
  O2-  O188  1  0.81679053  0.07312537  0.91171603  1
  O2-  O189  1  0.81867632  0.57749635  0.23332731  1
  O2-  O190  1  0.81654302  0.57244863  0.57119724  1
  O2-  O191  1  0.81731261  0.57260420  0.90888932  1
  O2-  O192  1  0.03593755  0.08052441  0.26349077  1
  O2-  O193  1  0.04286893  0.07977201  0.60135727  1
  O2-  O194  1  0.04139768  0.08696801  0.93789189  1
  O2-  O195  1  0.04601769  0.58823395  0.27260761  1
  O2-  O196  1  0.03475151  0.58607072  0.59758346  1
  O2-  O197  1  0.03921410  0.58442122  0.93185020  1
  O2-  O198  1  0.53792637  0.08292888  0.26270291  1
  O2-  O199  1  0.53704094  0.08482264  0.60148560  1
  O2-  O200  1  0.55099398  0.08077654  0.94170517  1
  O2-  O201  1  0.54291846  0.57887376  0.26810715  1
  O2-  O202  1  0.55258292  0.57583746  0.59939726  1
  O2-  O203  1  0.54380146  0.58257974  0.92889491  1
  O2-  O204  1  0.17546948  0.19293366  0.26683366  1
  O2-  O205  1  0.17320638  0.20162819  0.60490870  1
  O2-  O206  1  0.16957422  0.19555839  0.94407849  1
  O2-  O207  1  0.16235249  0.71157683  0.27134512  1
  O2-  O208  1  0.16498618  0.70958064  0.59473092  1
  O2-  O209  1  0.17414326  0.70496633  0.93675960  1
  O2-  O210  1  0.66960170  0.20219408  0.26552900  1
  O2-  O211  1  0.66612277  0.20613933  0.60077410  1
  O2-  O212  1  0.66425576  0.20486221  0.93741962  1
  O2-  O213  1  0.66385264  0.71646674  0.26532807  1
  O2-  O214  1  0.66783672  0.71599680  0.59789619  1
  O2-  O215  1  0.66411306  0.71401011  0.93193484  1
  O2-  O216  1  0.08069553  0.46282801  0.06680985  1
  O2-  O217  1  0.08077092  0.45660531  0.40053228  1
  O2-  O218  1  0.08351132  0.46494823  0.73272551  1
  O2-  O219  1  0.08232590  0.96004076  0.06892391  1
  O2-  O220  1  0.08456942  0.95687787  0.39716239  1
  O2-  O221  1  0.08158303  0.95024466  0.72945505  1
  O2-  O222  1  0.58530601  0.45315144  0.05671160  1
  O2-  O223  1  0.57945208  0.44494234  0.39845652  1
  O2-  O224  1  0.57970359  0.44576933  0.72774549  1
  O2-  O225  1  0.58908169  0.95480427  0.06745057  1
  O2-  O226  1  0.58483110  0.95832421  0.39460634  1
  O2-  O227  1  0.58918506  0.96160112  0.73150395  1
  O2-  O228  1  0.20878479  0.33383423  0.06702275  1
  O2-  O229  1  0.20844129  0.32742425  0.39807160  1
  O2-  O230  1  0.21000704  0.33499529  0.73621986  1
  O2-  O231  1  0.21058757  0.83338982  0.07059326  1
  O2-  O232  1  0.20335139  0.83821723  0.39735076  1
  O2-  O233  1  0.20389630  0.83295311  0.72787748  1
  O2-  O234  1  0.70801994  0.33596114  0.05978131  1
  O2-  O235  1  0.71063867  0.32662733  0.39838484  1
  O2-  O236  1  0.70547348  0.33233861  0.73304667  1
  O2-  O237  1  0.70977836  0.83676203  0.06488263  1
  O2-  O238  1  0.70749162  0.84077694  0.39902594  1
  O2-  O239  1  0.70676894  0.84020101  0.73136538  1
  O2-  O240  1  0.44912691  0.41529612  0.27170884  1
  O2-  O241  1  0.44452130  0.41683968  0.60470046  1
  O2-  O242  1  0.46144820  0.41063773  0.92507654  1
  O2-  O243  1  0.45948990  0.91144816  0.26416643  1
  O2-  O244  1  0.46547316  0.91561196  0.59840549  1
  O2-  O245  1  0.46118962  0.91697485  0.93611000  1
  O2-  O246  1  0.95603113  0.42349815  0.26451570  1
  O2-  O247  1  0.95502807  0.42183052  0.59963432  1
  O2-  O248  1  0.95572656  0.41917139  0.93154449  1
  O2-  O249  1  0.95762424  0.91153880  0.27077869  1
  O2-  O250  1  0.94949297  0.91766767  0.60392926  1
  O2-  O251  1  0.95228102  0.92410756  0.93623486  1
  O2-  O252  1  0.33730406  0.28837259  0.26825158  1
  O2-  O253  1  0.33421846  0.28964793  0.60372551  1
  O2-  O254  1  0.33128095  0.28885315  0.93213092  1
  O2-  O255  1  0.33006485  0.80396017  0.27105374  1
  O2-  O256  1  0.32890567  0.80339413  0.59845480  1
  O2-  O257  1  0.33429715  0.80592526  0.94024447  1
  O2-  O258  1  0.83603070  0.28808679  0.26246688  1
  O2-  O259  1  0.83203751  0.29155417  0.59852392  1
  O2-  O260  1  0.83487989  0.28556450  0.92969935  1
  O2-  O261  1  0.83496474  0.79808759  0.27431258  1
  O2-  O262  1  0.83275775  0.79842618  0.60504315  1
  O2-  O263  1  0.83172899  0.79589243  0.93188991  1
  O2-  O264  1  0.41783576  0.04391795  0.06678951  1
  O2-  O265  1  0.41328550  0.03487430  0.39547747  1
  O2-  O266  1  0.41582095  0.03536911  0.73701773  1
  O2-  O267  1  0.41768975  0.53586835  0.05772492  1
  O2-  O268  1  0.41919667  0.54348670  0.40182497  1
  O2-  O269  1  0.41916341  0.55068160  0.72614565  1
  O2-  O270  1  0.91141159  0.04704628  0.06556697  1
  O2-  O271  1  0.91038260  0.03515140  0.39803661  1
  O2-  O272  1  0.91234878  0.04425321  0.73135293  1
  O2-  O273  1  0.91015110  0.54451922  0.06044397  1
  O2-  O274  1  0.91886174  0.54826932  0.39935338  1
  O2-  O275  1  0.91405854  0.54044706  0.73815413  1
  O2-  O276  1  0.30202483  0.16616847  0.06560883  1
  O2-  O277  1  0.30056973  0.16036688  0.39528653  1
  O2-  O278  1  0.29294249  0.16492674  0.73865375  1
  O2-  O279  1  0.31134861  0.66727775  0.05747282  1
  O2-  O280  1  0.29759268  0.67301389  0.39809811  1
  O2-  O281  1  0.29819075  0.66944414  0.72547926  1
  O2-  O282  1  0.78823635  0.16309232  0.06535480  1
  O2-  O283  1  0.79742512  0.16190769  0.39455928  1
  O2-  O284  1  0.79133140  0.16361943  0.72967620  1
  O2-  O285  1  0.79057909  0.66458114  0.05998105  1
  O2-  O286  1  0.79009203  0.67221185  0.40164137  1
  O2-  O287  1  0.78763227  0.66912450  0.73757440  1
