# generated using pymatgen
data_Ca2Al2SiO7
_symmetry_space_group_name_H-M   'P 1'
_cell_length_a   15.45662640
_cell_length_b   15.45708152
_cell_length_c   15.28283205
_cell_angle_alpha   90.00237279
_cell_angle_beta   90.00262468
_cell_angle_gamma   90.01033969
_symmetry_Int_Tables_number   1
_chemical_formula_structural   Ca2Al2SiO7
_chemical_formula_sum   'Ca48 Al48 Si24 O168'
_cell_volume   3651.28757870
_cell_formula_units_Z   24
loop_
 _symmetry_equiv_pos_site_id
 _symmetry_equiv_pos_as_xyz
  1  'x, y, z'
loop_
 _atom_type_symbol
 _atom_type_oxidation_number
  Ca2+  2.0
  Al0+  0.0
  Si0+  0.0
  O2-  -2.0
loop_
 _atom_site_type_symbol
 _atom_site_label
 _atom_site_symmetry_multiplicity
 _atom_site_fract_x
 _atom_site_fract_y
 _atom_site_fract_z
 _atom_site_occupancy
  Ca2+  Ca0  1  0.15132134  0.07228219  0.16892906  1
  Ca2+  Ca1  1  0.17342589  0.08113337  0.50383446  1
  Ca2+  Ca2  1  0.17117104  0.08513529  0.83997415  1
  Ca2+  Ca3  1  0.17131575  0.57911294  0.17392873  1
  Ca2+  Ca4  1  0.16107078  0.57080495  0.49963943  1
  Ca2+  Ca5  1  0.17268016  0.57425856  0.83698752  1
  Ca2+  Ca6  1  0.67733989  0.09160149  0.16468542  1
  Ca2+  Ca7  1  0.66920164  0.08469295  0.50558668  1
  Ca2+  Ca8  1  0.66336130  0.07976467  0.84198433  1
  Ca2+  Ca9  1  0.67756418  0.57914812  0.16976890  1
  Ca2+  Ca10  1  0.66991811  0.57914521  0.50261569  1
  Ca2+  Ca11  1  0.67066046  0.56606758  0.84206087  1
  Ca2+  Ca12  1  0.07153856  0.33261727  0.16145099  1
  Ca2+  Ca13  1  0.07580243  0.33943426  0.49314067  1
  Ca2+  Ca14  1  0.07155938  0.33514357  0.82931087  1
  Ca2+  Ca15  1  0.08888976  0.83025931  0.16221205  1
  Ca2+  Ca16  1  0.08539874  0.82516758  0.48998790  1
  Ca2+  Ca17  1  0.08436569  0.83365793  0.83343086  1
  Ca2+  Ca18  1  0.58035239  0.33197800  0.15986134  1
  Ca2+  Ca19  1  0.57299806  0.33619036  0.49872469  1
  Ca2+  Ca20  1  0.58696507  0.32395084  0.82594172  1
  Ca2+  Ca21  1  0.59056408  0.82698299  0.16289474  1
  Ca2+  Ca22  1  0.58629513  0.82910979  0.49520645  1
  Ca2+  Ca23  1  0.58945714  0.83483850  0.82798061  1
  Ca2+  Ca24  1  0.32925697  0.41722266  0.17291493  1
  Ca2+  Ca25  1  0.32337920  0.40418701  0.50401596  1
  Ca2+  Ca26  1  0.33036477  0.41486715  0.83487264  1
  Ca2+  Ca27  1  0.32215383  0.92004818  0.16969598  1
  Ca2+  Ca28  1  0.33042083  0.92267435  0.50362992  1
  Ca2+  Ca29  1  0.33022370  0.92693686  0.83771810  1
  Ca2+  Ca30  1  0.83351210  0.41693332  0.16962396  1
  Ca2+  Ca31  1  0.83559457  0.42006784  0.50434912  1
  Ca2+  Ca32  1  0.82585521  0.41054800  0.83873990  1
  Ca2+  Ca33  1  0.83379873  0.93322387  0.16894923  1
  Ca2+  Ca34  1  0.82891114  0.92624602  0.50305501  1
  Ca2+  Ca35  1  0.82117257  0.92544744  0.84211213  1
  Ca2+  Ca36  1  0.42196973  0.17292730  0.16229997  1
  Ca2+  Ca37  1  0.41900196  0.17227910  0.50103453  1
  Ca2+  Ca38  1  0.42703134  0.16849044  0.82379621  1
  Ca2+  Ca39  1  0.42158423  0.66407857  0.16272173  1
  Ca2+  Ca40  1  0.42623394  0.66750136  0.49149711  1
  Ca2+  Ca41  1  0.41450626  0.66704337  0.83281560  1
  Ca2+  Ca42  1  0.91456178  0.17421696  0.15766579  1
  Ca2+  Ca43  1  0.91128886  0.18007719  0.49482916  1
  Ca2+  Ca44  1  0.91580117  0.17413345  0.83449534  1
  Ca2+  Ca45  1  0.91989499  0.65910175  0.16428448  1
  Ca2+  Ca46  1  0.92051266  0.66711146  0.48863164  1
  Ca2+  Ca47  1  0.91161622  0.66635248  0.83315330  1
  Al0+  Al48  1  -0.00051447  -0.00159068  0.00084075  1
  Al0+  Al49  1  -0.00170583  -0.00040145  0.34701443  1
  Al0+  Al50  1  -0.00061026  -0.00141039  0.66535297  1
  Al0+  Al51  1  0.00150130  0.50048469  -0.00405663  1
  Al0+  Al52  1  0.00014580  0.50131688  0.33146099  1
  Al0+  Al53  1  0.00241779  0.50139894  0.66856983  1
  Al0+  Al54  1  0.49689696  -0.00200471  0.00229183  1
  Al0+  Al55  1  0.49952032  -0.00017270  0.33162651  1
  Al0+  Al56  1  0.49906523  -0.00088044  0.66833267  1
  Al0+  Al57  1  0.49983503  0.50190056  0.00573179  1
  Al0+  Al58  1  0.50055455  0.50084348  0.32397894  1
  Al0+  Al59  1  0.50075305  0.50076192  0.66636659  1
  Al0+  Al60  1  0.25004739  0.25020128  -0.00205201  1
  Al0+  Al61  1  0.25006251  0.24841353  0.33135773  1
  Al0+  Al62  1  0.24927788  0.24879675  0.67440028  1
  Al0+  Al63  1  0.25128098  0.74977673  0.00493441  1
  Al0+  Al64  1  0.25099311  0.74979077  0.33413190  1
  Al0+  Al65  1  0.25035049  0.74945997  0.66417323  1
  Al0+  Al66  1  0.74738524  0.24950027  -0.00080978  1
  Al0+  Al67  1  0.74890433  0.25093877  0.33512486  1
  Al0+  Al68  1  0.75215846  0.25099074  0.66084530  1
  Al0+  Al69  1  0.75074459  0.74787611  0.00396957  1
  Al0+  Al70  1  0.75102259  0.75036954  0.33194647  1
  Al0+  Al71  1  0.75164662  0.75247111  0.66783595  1
  Al0+  Al72  1  0.81976036  0.07368796  0.34983677  1
  Al0+  Al73  1  0.93125305  0.32134913  0.65121095  1
  Al0+  Al74  1  0.67523496  0.92753142  0.01622504  1
  Al0+  Al75  1  0.07110723  0.17576917  0.98534811  1
  Al0+  Al76  1  0.07058841  0.68025890  0.31860305  1
  Al0+  Al77  1  0.18048124  0.42915777  0.34476897  1
  Al0+  Al78  1  0.81953879  0.07092120  0.01302756  1
  Al0+  Al79  1  0.17859371  0.42890434  0.68132539  1
  Al0+  Al80  1  0.57178861  0.17690881  0.65060277  1
  Al0+  Al81  1  0.67879940  0.42947709  0.67808212  1
  Al0+  Al82  1  0.42707613  0.31972820  0.31859209  1
  Al0+  Al83  1  0.82055647  0.57000656  0.34750605  1
  Al0+  Al84  1  0.57289384  0.68010340  0.31792069  1
  Al0+  Al85  1  0.68002309  0.93009206  0.67902531  1
  Al0+  Al86  1  0.92888121  0.32223181  0.98383322  1
  Al0+  Al87  1  0.56793564  0.17904021  0.98710850  1
  Al0+  Al88  1  0.82316144  0.56977712  0.01453238  1
  Al0+  Al89  1  0.31976642  0.57052691  0.01412744  1
  Al0+  Al90  1  0.31948225  0.07016748  0.68072132  1
  Al0+  Al91  1  0.17938785  0.92794821  0.34916103  1
  Al0+  Al92  1  0.92929693  0.32126962  0.31962516  1
  Al0+  Al93  1  0.42776674  0.32224280  0.65307364  1
  Al0+  Al94  1  0.17950926  0.93107649  0.01228978  1
  Al0+  Al95  1  0.67900324  0.42641177  0.01590505  1
  Si0+  Si96  1  0.57168980  0.17701757  0.31619020  1
  Si0+  Si97  1  0.92798875  0.82102298  0.65095963  1
  Si0+  Si98  1  0.42829485  0.82047028  0.65184336  1
  Si0+  Si99  1  0.82269054  0.57272697  0.68201072  1
  Si0+  Si100  1  0.42812492  0.82290164  0.31529611  1
  Si0+  Si101  1  0.07172988  0.68087131  0.65158120  1
  Si0+  Si102  1  0.67775604  0.92839420  0.34936591  1
  Si0+  Si103  1  0.32406370  0.07168137  0.35022544  1
  Si0+  Si104  1  0.17760108  0.92560432  0.68306446  1
  Si0+  Si105  1  0.82284121  0.07325563  0.68349770  1
  Si0+  Si106  1  0.17838094  0.42691861  0.01688419  1
  Si0+  Si107  1  0.57224949  0.67963668  0.98314652  1
  Si0+  Si108  1  0.32165438  0.07382332  0.01789640  1
  Si0+  Si109  1  0.32431975  0.57107916  0.35046728  1
  Si0+  Si110  1  0.07135725  0.17611913  0.32035630  1
  Si0+  Si111  1  0.42788502  0.32534809  0.98298080  1
  Si0+  Si112  1  0.67580756  0.42865865  0.35082869  1
  Si0+  Si113  1  0.92864913  0.82003010  0.98510750  1
  Si0+  Si114  1  0.07373103  0.68004870  0.98372502  1
  Si0+  Si115  1  0.07253999  0.17587299  0.64972717  1
  Si0+  Si116  1  0.32285685  0.57397190  0.68091654  1
  Si0+  Si117  1  0.57231682  0.67977620  0.65361257  1
  Si0+  Si118  1  0.92893778  0.82416832  0.31653269  1
  Si0+  Si119  1  0.42756106  0.81859863  0.98442066  1
  O2-  O120  1  0.24689478  0.01120833  0.06134991  1
  O2-  O121  1  0.25468720  0.00271550  0.39386250  1
  O2-  O122  1  0.24234941  -0.00298482  0.72712709  1
  O2-  O123  1  0.24896153  0.49329271  0.06121848  1
  O2-  O124  1  0.25733393  0.50136210  0.39482432  1
  O2-  O125  1  0.25778848  0.50157985  0.72435115  1
  O2-  O126  1  0.74565474  0.00112607  0.06494186  1
  O2-  O127  1  0.74278991  -0.00049474  0.39455720  1
  O2-  O128  1  0.75054445  0.00761190  0.72644337  1
  O2-  O129  1  0.75440302  0.49555817  0.06487387  1
  O2-  O130  1  0.74610229  0.49600744  0.39537081  1
  O2-  O131  1  0.75537341  0.50286761  0.72473491  1
  O2-  O132  1  0.00290385  0.24410062  0.27552430  1
  O2-  O133  1  0.00528943  0.24518728  0.60453565  1
  O2-  O134  1  0.00181495  0.24985962  0.93467579  1
  O2-  O135  1  -0.00160472  0.75702864  0.27079319  1
  O2-  O136  1  0.00056948  0.75155667  0.60925348  1
  O2-  O137  1  -0.00086140  0.74783900  0.94180092  1
  O2-  O138  1  0.50304281  0.24609312  0.27291570  1
  O2-  O139  1  0.50094194  0.25146478  0.60219464  1
  O2-  O140  1  0.49496334  0.25523587  0.93952579  1
  O2-  O141  1  0.49805936  0.75555142  0.27140953  1
  O2-  O142  1  0.50046850  0.75018711  0.61062470  1
  O2-  O143  1  0.50273458  0.75243920  0.94031457  1
  O2-  O144  1  0.06804031  0.17545320  0.09926474  1
  O2-  O145  1  0.07289748  0.17812778  0.42615763  1
  O2-  O146  1  0.06980133  0.17366151  0.75500074  1
  O2-  O147  1  0.07581588  0.68154907  0.08853970  1
  O2-  O148  1  0.06847741  0.68082880  0.43239008  1
  O2-  O149  1  0.07396647  0.68302703  0.75680713  1
  O2-  O150  1  0.56519294  0.17988892  0.10049135  1
  O2-  O151  1  0.57010628  0.17459509  0.42162359  1
  O2-  O152  1  0.56950840  0.17524606  0.76416029  1
  O2-  O153  1  0.57070276  0.68078297  0.08805781  1
  O2-  O154  1  0.57117453  0.68198275  0.43213457  1
  O2-  O155  1  0.57177167  0.68133320  0.75861853  1
  O2-  O156  1  0.18176395  0.43194729  0.23192018  1
  O2-  O157  1  0.17616741  0.43200195  0.56813149  1
  O2-  O158  1  0.17883065  0.42990352  0.91100123  1
  O2-  O159  1  0.17965594  0.92878537  0.23603652  1
  O2-  O160  1  0.18035190  0.92258299  0.57768233  1
  O2-  O161  1  0.18399185  0.92758711  0.89907837  1
  O2-  O162  1  0.67602182  0.42921080  0.24547157  1
  O2-  O163  1  0.67643942  0.43520706  0.56511154  1
  O2-  O164  1  0.67752891  0.42823395  0.90182615  1
  O2-  O165  1  0.67888689  0.92821483  0.24428746  1
  O2-  O166  1  0.68386502  0.92499354  0.56601966  1
  O2-  O167  1  0.67795535  0.92758688  0.90221164  1
  O2-  O168  1  0.42754206  0.32393130  0.08885345  1
  O2-  O169  1  0.42659357  0.31821483  0.43161289  1
  O2-  O170  1  0.42937530  0.32192309  0.76649032  1
  O2-  O171  1  0.42481768  0.81544836  0.08921261  1
  O2-  O172  1  0.42876844  0.82253609  0.42145783  1
  O2-  O173  1  0.42460660  0.81813727  0.75685470  1
  O2-  O174  1  0.93140625  0.32326521  0.09755864  1
  O2-  O175  1  0.93120546  0.32217968  0.43300176  1
  O2-  O176  1  0.93094010  0.32170464  0.76384536  1
  O2-  O177  1  0.93087461  0.82115488  0.08987046  1
  O2-  O178  1  0.92990069  0.82128373  0.42279174  1
  O2-  O179  1  0.92719519  0.82008422  0.75606479  1
  O2-  O180  1  0.32678741  0.06995306  0.24490888  1
  O2-  O181  1  0.31848618  0.06632717  0.56732189  1
  O2-  O182  1  0.32373362  0.06918328  0.91231844  1
  O2-  O183  1  0.32213613  0.57176683  0.24486121  1
  O2-  O184  1  0.32121519  0.58064759  0.57590399  1
  O2-  O185  1  0.31707216  0.57275038  0.90049233  1
  O2-  O186  1  0.82129718  0.07315481  0.23707874  1
  O2-  O187  1  0.82361594  0.06934087  0.57770234  1
  O2-  O188  1  0.82007710  0.06789605  0.89934882  1
  O2-  O189  1  0.82054237  0.56891488  0.23510448  1
  O2-  O190  1  0.82228445  0.57510013  0.57632036  1
  O2-  O191  1  0.81833633  0.57365470  0.90051102  1
  O2-  O192  1  0.04346699  0.08084048  0.27915135  1
  O2-  O193  1  0.04865368  0.08093165  0.60336225  1
  O2-  O194  1  0.04437538  0.07668478  0.93164058  1
  O2-  O195  1  0.03858438  0.58560506  0.26302761  1
  O2-  O196  1  0.04394690  0.58932187  0.60464516  1
  O2-  O197  1  0.04970394  0.58815006  0.93462444  1
  O2-  O198  1  0.54641020  0.08320469  0.26969340  1
  O2-  O199  1  0.54018571  0.07842942  0.59790282  1
  O2-  O200  1  0.53570286  0.08091240  0.93533757  1
  O2-  O201  1  0.54207445  0.58560632  0.26092357  1
  O2-  O202  1  0.54479431  0.58939914  0.60393221  1
  O2-  O203  1  0.54036368  0.58826852  0.93674599  1
  O2-  O204  1  0.16530616  0.19665372  0.27315602  1
  O2-  O205  1  0.16754985  0.19994863  0.60687826  1
  O2-  O206  1  0.17191243  0.20083206  0.93429852  1
  O2-  O207  1  0.16903870  0.70914849  0.26686028  1
  O2-  O208  1  0.16286273  0.70886593  0.60204442  1
  O2-  O209  1  0.16370018  0.71390342  0.93567793  1
  O2-  O210  1  0.66490601  0.20430676  0.27121999  1
  O2-  O211  1  0.67084374  0.20230069  0.59838856  1
  O2-  O212  1  0.66483986  0.20581010  0.93243822  1
  O2-  O213  1  0.66878161  0.71207373  0.26327821  1
  O2-  O214  1  0.66380467  0.70971903  0.60596246  1
  O2-  O215  1  0.66468985  0.70552534  0.93591384  1
  O2-  O216  1  0.08577148  0.45650750  0.06102509  1
  O2-  O217  1  0.08580735  0.46506273  0.39942321  1
  O2-  O218  1  0.08572647  0.46754122  0.73824926  1
  O2-  O219  1  0.08170658  0.95404401  0.06707692  1
  O2-  O220  1  0.08432439  0.95567179  0.40739507  1
  O2-  O221  1  0.08153954  0.94635992  0.72623720  1
  O2-  O222  1  0.58235435  0.45964283  0.06922457  1
  O2-  O223  1  0.58216435  0.45902677  0.39451738  1
  O2-  O224  1  0.58333576  0.46219129  0.73380665  1
  O2-  O225  1  0.57466895  0.94864376  0.06744015  1
  O2-  O226  1  0.58172340  0.94958535  0.39364742  1
  O2-  O227  1  0.58122418  0.95246813  0.73159933  1
  O2-  O228  1  0.20100525  0.33228292  0.06185913  1
  O2-  O229  1  0.20835450  0.33101392  0.39798278  1
  O2-  O230  1  0.20430639  0.33275560  0.73732111  1
  O2-  O231  1  0.21617103  0.83721184  0.06778596  1
  O2-  O232  1  0.21236936  0.83160018  0.40350501  1
  O2-  O233  1  0.20676927  0.83283570  0.72951406  1
  O2-  O234  1  0.70220559  0.32784392  0.06894986  1
  O2-  O235  1  0.69760537  0.33433796  0.39597549  1
  O2-  O236  1  0.70974580  0.33179764  0.72927560  1
  O2-  O237  1  0.70637944  0.82965867  0.06720755  1
  O2-  O238  1  0.70592858  0.83572073  0.39623029  1
  O2-  O239  1  0.71408966  0.83464217  0.73514638  1
  O2-  O240  1  0.45549021  0.41635745  0.26375395  1
  O2-  O241  1  0.45302607  0.42236237  0.60003419  1
  O2-  O242  1  0.45249012  0.42023068  0.93915767  1
  O2-  O243  1  0.45060271  0.91719381  0.26898687  1
  O2-  O244  1  0.45561370  0.91112785  0.60307397  1
  O2-  O245  1  0.44954359  0.91217214  0.93800796  1
  O2-  O246  1  0.96290465  0.41610582  0.26530662  1
  O2-  O247  1  0.96365317  0.41970504  0.60024037  1
  O2-  O248  1  0.95852354  0.42044217  0.92883588  1
  O2-  O249  1  0.95524972  0.91939276  0.27509880  1
  O2-  O250  1  0.95377689  0.91319889  0.60262281  1
  O2-  O251  1  0.95816254  0.90977684  0.93475332  1
  O2-  O252  1  0.33175901  0.28742423  0.26210357  1
  O2-  O253  1  0.32818247  0.29061530  0.60345612  1
  O2-  O254  1  0.33287878  0.30234852  0.93846323  1
  O2-  O255  1  0.33516379  0.79541763  0.26943061  1
  O2-  O256  1  0.33732159  0.79185846  0.60174305  1
  O2-  O257  1  0.33816368  0.78480542  0.93482306  1
  O2-  O258  1  0.83077195  0.29261966  0.26878441  1
  O2-  O259  1  0.83529645  0.29318919  0.59468627  1
  O2-  O260  1  0.83007903  0.29259778  0.93292313  1
  O2-  O261  1  0.83541605  0.79999008  0.27118713  1
  O2-  O262  1  0.83759416  0.79192134  0.60107004  1
  O2-  O263  1  0.83704206  0.79057987  0.93699303  1
  O2-  O264  1  0.41072130  0.03989537  0.06733806  1
  O2-  O265  1  0.41693351  0.04411952  0.39786085  1
  O2-  O266  1  0.41386058  0.03444077  0.73565912  1
  O2-  O267  1  0.41682315  0.54579243  0.06913550  1
  O2-  O268  1  0.41975708  0.54780693  0.39337017  1
  O2-  O269  1  0.41745437  0.55382072  0.72698400  1
  O2-  O270  1  0.91638436  0.03841471  0.06674066  1
  O2-  O271  1  0.91305052  0.04088609  0.40946903  1
  O2-  O272  1  0.91557686  0.04236388  0.72882505  1
  O2-  O273  1  0.92479607  0.54775720  0.06324754  1
  O2-  O274  1  0.91731658  0.54039034  0.40172640  1
  O2-  O275  1  0.91717666  0.55099035  0.72746321  1
  O2-  O276  1  0.30396140  0.17021060  0.06073356  1
  O2-  O277  1  0.29682667  0.16435212  0.39639658  1
  O2-  O278  1  0.29184420  0.16483992  0.73884501  1
  O2-  O279  1  0.28657257  0.66483717  0.07068091  1
  O2-  O280  1  0.29967239  0.66527786  0.39594135  1
  O2-  O281  1  0.29195696  0.66578736  0.72985975  1
  O2-  O282  1  0.79151650  0.16842270  0.06659529  1
  O2-  O283  1  0.78778953  0.16949835  0.40494943  1
  O2-  O284  1  0.80245075  0.16867933  0.72556111  1
  O2-  O285  1  0.79397963  0.66698651  0.06900912  1
  O2-  O286  1  0.79139145  0.66851167  0.40035810  1
  O2-  O287  1  0.79626428  0.66630703  0.72798205  1
