# generated using pymatgen
data_Ca2Al2SiO7
_symmetry_space_group_name_H-M   'P 1'
_cell_length_a   15.46034575
_cell_length_b   15.46119483
_cell_length_c   15.28545993
_cell_angle_alpha   90.01614576
_cell_angle_beta   89.98714070
_cell_angle_gamma   89.98479651
_symmetry_Int_Tables_number   1
_chemical_formula_structural   Ca2Al2SiO7
_chemical_formula_sum   'Ca48 Al48 Si24 O168'
_cell_volume   3653.76593558
_cell_formula_units_Z   24
loop_
 _symmetry_equiv_pos_site_id
 _symmetry_equiv_pos_as_xyz
  1  'x, y, z'
loop_
 _atom_type_symbol
 _atom_type_oxidation_number
  Ca2+  2.0
  Al0+  0.0
  Si0+  0.0
  O2-  -2.0
loop_
 _atom_site_type_symbol
 _atom_site_label
 _atom_site_symmetry_multiplicity
 _atom_site_fract_x
 _atom_site_fract_y
 _atom_site_fract_z
 _atom_site_occupancy
  Ca2+  Ca0  1  0.16446048  0.08363879  0.17007756  1
  Ca2+  Ca1  1  0.16844352  0.08461804  0.50966795  1
  Ca2+  Ca2  1  0.16915729  0.08689215  0.82656236  1
  Ca2+  Ca3  1  0.17359935  0.57347167  0.17297328  1
  Ca2+  Ca4  1  0.17383769  0.57537140  0.50644841  1
  Ca2+  Ca5  1  0.16613880  0.56888469  0.83854892  1
  Ca2+  Ca6  1  0.66941524  0.08268823  0.16951454  1
  Ca2+  Ca7  1  0.67978000  0.08213390  0.50932544  1
  Ca2+  Ca8  1  0.66637843  0.07333328  0.83772730  1
  Ca2+  Ca9  1  0.66176894  0.58520111  0.17064083  1
  Ca2+  Ca10  1  0.66323265  0.58298297  0.50023171  1
  Ca2+  Ca11  1  0.66632501  0.58324746  0.83829797  1
  Ca2+  Ca12  1  0.07690828  0.32983974  0.16238936  1
  Ca2+  Ca13  1  0.07814905  0.32267013  0.49861343  1
  Ca2+  Ca14  1  0.07885659  0.33355757  0.82367687  1
  Ca2+  Ca15  1  0.07523972  0.83164753  0.16097946  1
  Ca2+  Ca16  1  0.07742057  0.84695485  0.50214923  1
  Ca2+  Ca17  1  0.07407325  0.83832058  0.82557392  1
  Ca2+  Ca18  1  0.57282394  0.32774907  0.15974454  1
  Ca2+  Ca19  1  0.57208478  0.33193809  0.49650371  1
  Ca2+  Ca20  1  0.57249707  0.32633248  0.83054711  1
  Ca2+  Ca21  1  0.58460157  0.82445431  0.16128887  1
  Ca2+  Ca22  1  0.57326159  0.83608011  0.49793980  1
  Ca2+  Ca23  1  0.58790677  0.83214737  0.82765325  1
  Ca2+  Ca24  1  0.33506217  0.41671791  0.17175797  1
  Ca2+  Ca25  1  0.33495972  0.41936117  0.50739561  1
  Ca2+  Ca26  1  0.32296985  0.40392679  0.83625523  1
  Ca2+  Ca27  1  0.33273771  0.91655961  0.17326185  1
  Ca2+  Ca28  1  0.33059534  0.92061255  0.51385270  1
  Ca2+  Ca29  1  0.33457147  0.92055716  0.83107188  1
  Ca2+  Ca30  1  0.83420738  0.41142168  0.17084989  1
  Ca2+  Ca31  1  0.83814137  0.41418913  0.50430632  1
  Ca2+  Ca32  1  0.83967396  0.41640370  0.83923621  1
  Ca2+  Ca33  1  0.82764731  0.92035957  0.17038603  1
  Ca2+  Ca34  1  0.83005757  0.92831225  0.51123491  1
  Ca2+  Ca35  1  0.82956541  0.91913935  0.83656923  1
  Ca2+  Ca36  1  0.41982297  0.17755135  0.15868262  1
  Ca2+  Ca37  1  0.40574650  0.17719052  0.49930166  1
  Ca2+  Ca38  1  0.41725718  0.17047376  0.82852849  1
  Ca2+  Ca39  1  0.42398862  0.66646325  0.16803596  1
  Ca2+  Ca40  1  0.41725613  0.67813181  0.49070095  1
  Ca2+  Ca41  1  0.42384298  0.67268229  0.82867354  1
  Ca2+  Ca42  1  0.91706030  0.17235674  0.16646203  1
  Ca2+  Ca43  1  0.92415768  0.16460090  0.49476846  1
  Ca2+  Ca44  1  0.92070992  0.17629725  0.82181593  1
  Ca2+  Ca45  1  0.91723462  0.67316330  0.15891144  1
  Ca2+  Ca46  1  0.91955371  0.67364220  0.50213142  1
  Ca2+  Ca47  1  0.91489699  0.68054180  0.82956297  1
  Al0+  Al48  1  -0.00015280  0.00102484  -0.00203792  1
  Al0+  Al49  1  -0.00085355  0.00087976  0.33128373  1
  Al0+  Al50  1  0.00014054  0.00121523  0.66731702  1
  Al0+  Al51  1  0.00156410  0.50001215  0.00409588  1
  Al0+  Al52  1  -0.00110855  0.49998363  0.33229796  1
  Al0+  Al53  1  0.00051701  0.50162650  0.66729400  1
  Al0+  Al54  1  0.50037426  -0.00104872  0.00451737  1
  Al0+  Al55  1  0.49840048  0.00017628  0.33135958  1
  Al0+  Al56  1  0.50213138  -0.00090228  0.66990837  1
  Al0+  Al57  1  0.49965425  0.50110850  -0.00814482  1
  Al0+  Al58  1  0.49964502  0.50112285  0.33174050  1
  Al0+  Al59  1  0.50195773  0.49973964  0.66494945  1
  Al0+  Al60  1  0.24802485  0.24920339  0.00420892  1
  Al0+  Al61  1  0.24677549  0.24857521  0.32489549  1
  Al0+  Al62  1  0.24900892  0.25098302  0.66653104  1
  Al0+  Al63  1  0.25074341  0.74877747  0.00223307  1
  Al0+  Al64  1  0.24864935  0.74841532  0.33364818  1
  Al0+  Al65  1  0.25190101  0.74873248  0.66919643  1
  Al0+  Al66  1  0.75006683  0.24991796  -0.00650401  1
  Al0+  Al67  1  0.74998349  0.25066115  0.33595628  1
  Al0+  Al68  1  0.74823161  0.25266125  0.66842003  1
  Al0+  Al69  1  0.74976962  0.75077956  -0.00268120  1
  Al0+  Al70  1  0.74937977  0.74876947  0.33316811  1
  Al0+  Al71  1  0.75262091  0.74797667  0.66376568  1
  Al0+  Al72  1  0.42737627  0.32046124  0.98390038  1
  Al0+  Al73  1  0.82229999  0.07400937  0.68350590  1
  Al0+  Al74  1  0.32177707  0.07218357  0.68105543  1
  Al0+  Al75  1  0.42918600  0.31924806  0.65268770  1
  Al0+  Al76  1  0.93017105  0.82086230  0.98713644  1
  Al0+  Al77  1  0.17907541  0.42818578  0.01688805  1
  Al0+  Al78  1  0.32121742  0.56914478  0.34787117  1
  Al0+  Al79  1  0.06981899  0.17691429  0.31543943  1
  Al0+  Al80  1  0.17895881  0.92680295  0.68205090  1
  Al0+  Al81  1  0.57044311  0.68055909  0.98472832  1
  Al0+  Al82  1  0.57130089  0.17616651  0.98487384  1
  Al0+  Al83  1  0.93070438  0.32133340  0.98610298  1
  Al0+  Al84  1  0.18078561  0.43139004  0.67858398  1
  Al0+  Al85  1  0.92671190  0.32414558  0.65145885  1
  Al0+  Al86  1  0.42598678  0.82328827  0.31797618  1
  Al0+  Al87  1  0.42989267  0.82106109  0.65498674  1
  Al0+  Al88  1  0.42878408  0.32042086  0.32024966  1
  Al0+  Al89  1  0.81932468  0.07046497  0.34652126  1
  Al0+  Al90  1  0.93033965  0.82125496  0.65227062  1
  Al0+  Al91  1  0.68095846  0.92776654  0.68100777  1
  Al0+  Al92  1  0.06975654  0.17989082  0.65184757  1
  Al0+  Al93  1  0.92781492  0.32185151  0.31779889  1
  Al0+  Al94  1  0.67959560  0.92836512  0.01623151  1
  Al0+  Al95  1  0.57080025  0.68082658  0.31865156  1
  Si0+  Si96  1  0.82258774  0.07333424  0.01744952  1
  Si0+  Si97  1  0.32554769  0.57217142  0.68478891  1
  Si0+  Si98  1  0.32051100  0.06962890  0.01708878  1
  Si0+  Si99  1  0.57211427  0.17694255  0.64954792  1
  Si0+  Si100  1  0.92979156  0.82026468  0.31910300  1
  Si0+  Si101  1  0.07224058  0.17712889  0.98133145  1
  Si0+  Si102  1  0.57338685  0.17837947  0.31899169  1
  Si0+  Si103  1  0.67943676  0.43031074  0.34734618  1
  Si0+  Si104  1  0.67713014  0.92587862  0.35024418  1
  Si0+  Si105  1  0.17761281  0.92779886  0.01585645  1
  Si0+  Si106  1  0.07329111  0.67824425  0.98480868  1
  Si0+  Si107  1  0.67819891  0.42872635  0.01382731  1
  Si0+  Si108  1  0.67644032  0.42988780  0.68295783  1
  Si0+  Si109  1  0.57331530  0.67753929  0.64881022  1
  Si0+  Si110  1  0.42586966  0.82261888  0.98350963  1
  Si0+  Si111  1  0.32059296  0.07175854  0.34575223  1
  Si0+  Si112  1  0.17892650  0.92845042  0.34614427  1
  Si0+  Si113  1  0.07055858  0.67724187  0.31874811  1
  Si0+  Si114  1  0.07303875  0.67776969  0.65117971  1
  Si0+  Si115  1  0.17684244  0.42686554  0.35101352  1
  Si0+  Si116  1  0.81960081  0.57045336  0.01503314  1
  Si0+  Si117  1  0.82291735  0.57308046  0.34910360  1
  Si0+  Si118  1  0.82125179  0.56957934  0.68218486  1
  Si0+  Si119  1  0.32360855  0.57259545  0.01746451  1
  O2-  O120  1  0.24961208  -0.00277777  0.05881552  1
  O2-  O121  1  0.25381164  -0.00400872  0.38661788  1
  O2-  O122  1  0.25181943  -0.00205628  0.73216596  1
  O2-  O123  1  0.25657841  0.50172150  0.06129397  1
  O2-  O124  1  0.24887503  0.49226399  0.39508542  1
  O2-  O125  1  0.25704992  0.50342556  0.72851558  1
  O2-  O126  1  0.75314365  0.00503562  0.06222883  1
  O2-  O127  1  0.74321976  -0.00289765  0.39326598  1
  O2-  O128  1  0.75141563  0.00035865  0.73279099  1
  O2-  O129  1  0.75018085  0.49832432  0.05816324  1
  O2-  O130  1  0.75260731  0.50034318  0.38926833  1
  O2-  O131  1  0.75193841  0.49706303  0.72424098  1
  O2-  O132  1  -0.00063281  0.25088391  0.26658232  1
  O2-  O133  1  -0.00648953  0.24771723  0.60196157  1
  O2-  O134  1  0.00440180  0.24696087  0.93899091  1
  O2-  O135  1  -0.00086326  0.74791820  0.27635168  1
  O2-  O136  1  0.01094887  0.75209789  0.60546099  1
  O2-  O137  1  0.00762227  0.74893570  0.94022995  1
  O2-  O138  1  0.50127900  0.24326711  0.27446345  1
  O2-  O139  1  0.50121297  0.24293107  0.60418789  1
  O2-  O140  1  0.49806385  0.24683314  0.93497551  1
  O2-  O141  1  0.50086862  0.75429800  0.26786223  1
  O2-  O142  1  0.50431205  0.74648065  0.60710076  1
  O2-  O143  1  0.49639636  0.75600042  0.93948606  1
  O2-  O144  1  0.07072931  0.17540909  0.08703457  1
  O2-  O145  1  0.07081194  0.17451688  0.42822589  1
  O2-  O146  1  0.07135690  0.18408207  0.76555248  1
  O2-  O147  1  0.07122699  0.67980397  0.09099814  1
  O2-  O148  1  0.06903617  0.67578097  0.42359456  1
  O2-  O149  1  0.06737839  0.67507231  0.75670496  1
  O2-  O150  1  0.56991026  0.17939652  0.09930449  1
  O2-  O151  1  0.57481946  0.18103759  0.42437031  1
  O2-  O152  1  0.57186123  0.17984603  0.75497103  1
  O2-  O153  1  0.57055222  0.67981736  0.09754619  1
  O2-  O154  1  0.57128861  0.68106261  0.43199306  1
  O2-  O155  1  0.57362862  0.67613660  0.75451719  1
  O2-  O156  1  0.17605192  0.43114694  0.24526706  1
  O2-  O157  1  0.18168419  0.43411686  0.56551703  1
  O2-  O158  1  0.17770113  0.43059539  0.90377769  1
  O2-  O159  1  0.17744119  0.92858059  0.24042655  1
  O2-  O160  1  0.18125446  0.92737317  0.56782941  1
  O2-  O161  1  0.17718910  0.92612498  0.91152359  1
  O2-  O162  1  0.67967856  0.43090384  0.24205421  1
  O2-  O163  1  0.67262322  0.43332343  0.57768822  1
  O2-  O164  1  0.67947676  0.43166691  0.90875496  1
  O2-  O165  1  0.68048782  0.92382238  0.24454742  1
  O2-  O166  1  0.68199204  0.92843002  0.56698032  1
  O2-  O167  1  0.68235827  0.92639119  0.90372818  1
  O2-  O168  1  0.43037441  0.32030075  0.09798881  1
  O2-  O169  1  0.42970962  0.32021563  0.43341075  1
  O2-  O170  1  0.43107955  0.31959639  0.76528336  1
  O2-  O171  1  0.42363590  0.82038347  0.08903653  1
  O2-  O172  1  0.42535598  0.82299618  0.43140486  1
  O2-  O173  1  0.43061614  0.81781865  0.76814538  1
  O2-  O174  1  0.93020835  0.32084330  0.09907359  1
  O2-  O175  1  0.92933382  0.32344294  0.43059466  1
  O2-  O176  1  0.93155546  0.32690656  0.76509444  1
  O2-  O177  1  0.93166697  0.81838867  0.10113484  1
  O2-  O178  1  0.93135476  0.82001182  0.42397185  1
  O2-  O179  1  0.92829717  0.81680564  0.76523143  1
  O2-  O180  1  0.31924280  0.07105975  0.24038537  1
  O2-  O181  1  0.31964595  0.07207120  0.56687168  1
  O2-  O182  1  0.32053520  0.06969747  0.91241810  1
  O2-  O183  1  0.31928770  0.56837931  0.23456357  1
  O2-  O184  1  0.32526033  0.57148274  0.57899429  1
  O2-  O185  1  0.32076591  0.57718633  0.91227066  1
  O2-  O186  1  0.81844633  0.06797918  0.23303761  1
  O2-  O187  1  0.82035017  0.07203883  0.56931870  1
  O2-  O188  1  0.82409549  0.07158562  0.91247430  1
  O2-  O189  1  0.82397407  0.57634898  0.24402654  1
  O2-  O190  1  0.82089449  0.57123093  0.57681069  1
  O2-  O191  1  0.81936643  0.57033527  0.90985000  1
  O2-  O192  1  0.03924059  0.07920160  0.26038801  1
  O2-  O193  1  0.04699374  0.07992651  0.59990744  1
  O2-  O194  1  0.04810389  0.08332958  0.93568333  1
  O2-  O195  1  0.04197553  0.58685641  0.26912466  1
  O2-  O196  1  0.03894270  0.58872419  0.60104670  1
  O2-  O197  1  0.04428187  0.58576664  0.93973541  1
  O2-  O198  1  0.55226758  0.08331091  0.27407564  1
  O2-  O199  1  0.55183668  0.08205230  0.60516610  1
  O2-  O200  1  0.54316318  0.07668825  0.93483425  1
  O2-  O201  1  0.54162317  0.58294576  0.26504668  1
  O2-  O202  1  0.54756775  0.58422980  0.60240565  1
  O2-  O203  1  0.54137478  0.58515717  0.92765368  1
  O2-  O204  1  0.16698973  0.20370508  0.25898736  1
  O2-  O205  1  0.16659772  0.21213319  0.59797723  1
  O2-  O206  1  0.16678954  0.20173231  0.93859487  1
  O2-  O207  1  0.16098635  0.70559972  0.26957657  1
  O2-  O208  1  0.16948044  0.69463483  0.60847885  1
  O2-  O209  1  0.16806364  0.70007661  0.94033782  1
  O2-  O210  1  0.66458410  0.20818695  0.27094796  1
  O2-  O211  1  0.66396351  0.20811784  0.60294981  1
  O2-  O212  1  0.66827365  0.20491455  0.93072521  1
  O2-  O213  1  0.67109563  0.70513401  0.26542765  1
  O2-  O214  1  0.66739597  0.70028815  0.60276698  1
  O2-  O215  1  0.66712634  0.70966729  0.93052088  1
  O2-  O216  1  0.08424957  0.46367151  0.07318618  1
  O2-  O217  1  0.08415663  0.45754467  0.39621899  1
  O2-  O218  1  0.08526510  0.46605418  0.73384208  1
  O2-  O219  1  0.08610505  0.95729683  0.06435667  1
  O2-  O220  1  0.08788424  0.95934825  0.39311377  1
  O2-  O221  1  0.08073933  0.95539702  0.73427878  1
  O2-  O222  1  0.58604396  0.45896751  0.05968252  1
  O2-  O223  1  0.58934649  0.46143622  0.39637678  1
  O2-  O224  1  0.58760168  0.46312036  0.73360341  1
  O2-  O225  1  0.58177410  0.95487819  0.07115277  1
  O2-  O226  1  0.58114547  0.94897774  0.39269084  1
  O2-  O227  1  0.58283723  0.95335014  0.73539733  1
  O2-  O228  1  0.20622389  0.33084879  0.07149833  1
  O2-  O229  1  0.19919110  0.33049011  0.39125256  1
  O2-  O230  1  0.21018156  0.33562537  0.73355868  1
  O2-  O231  1  0.20338876  0.83502040  0.06419909  1
  O2-  O232  1  0.19985427  0.83510314  0.39297716  1
  O2-  O233  1  0.20397505  0.82710852  0.73526208  1
  O2-  O234  1  0.70497393  0.33613662  0.06031389  1
  O2-  O235  1  0.70462106  0.33913124  0.39693071  1
  O2-  O236  1  0.69768641  0.33723258  0.73039928  1
  O2-  O237  1  0.71478302  0.83211278  0.06986518  1
  O2-  O238  1  0.70493302  0.83292835  0.39643010  1
  O2-  O239  1  0.71069949  0.82781396  0.73101231  1
  O2-  O240  1  0.46272829  0.41548026  0.26633429  1
  O2-  O241  1  0.46378253  0.41579825  0.59971380  1
  O2-  O242  1  0.45474773  0.41816342  0.93049102  1
  O2-  O243  1  0.44965739  0.92319945  0.26519796  1
  O2-  O244  1  0.45982103  0.91796194  0.60088914  1
  O2-  O245  1  0.44903896  0.91745813  0.94117144  1
  O2-  O246  1  0.95330690  0.42210861  0.26571016  1
  O2-  O247  1  0.95828780  0.42228004  0.59921555  1
  O2-  O248  1  0.96031669  0.42019494  0.93570960  1
  O2-  O249  1  0.95994678  0.90985189  0.26968461  1
  O2-  O250  1  0.95797969  0.91803514  0.59819075  1
  O2-  O251  1  0.95928244  0.91760201  0.93406046  1
  O2-  O252  1  0.33254469  0.29215321  0.26520787  1
  O2-  O253  1  0.33280964  0.29115467  0.59818358  1
  O2-  O254  1  0.32778688  0.29001120  0.93574023  1
  O2-  O255  1  0.32772930  0.79196686  0.26527330  1
  O2-  O256  1  0.33261962  0.79087404  0.60128845  1
  O2-  O257  1  0.33233381  0.79535590  0.93757950  1
  O2-  O258  1  0.82819192  0.29398653  0.26646489  1
  O2-  O259  1  0.82415612  0.30510302  0.60352954  1
  O2-  O260  1  0.83332139  0.29566189  0.93217572  1
  O2-  O261  1  0.83785985  0.79202615  0.27262404  1
  O2-  O262  1  0.83756016  0.78229523  0.59571970  1
  O2-  O263  1  0.83656089  0.78520050  0.93237642  1
  O2-  O264  1  0.41164387  0.04325692  0.06675844  1
  O2-  O265  1  0.41452974  0.05117593  0.39259042  1
  O2-  O266  1  0.42031539  0.04537488  0.73416520  1
  O2-  O267  1  0.41847015  0.54673301  0.06086189  1
  O2-  O268  1  0.41863578  0.54121953  0.40161984  1
  O2-  O269  1  0.41991229  0.54697747  0.72932939  1
  O2-  O270  1  0.91643642  0.04597294  0.06354928  1
  O2-  O271  1  0.91561778  0.03589865  0.39886843  1
  O2-  O272  1  0.92076206  0.04675969  0.73499913  1
  O2-  O273  1  0.91197284  0.54575998  0.06356666  1
  O2-  O274  1  0.91474630  0.54673305  0.39766207  1
  O2-  O275  1  0.91281677  0.54485465  0.73121229  1
  O2-  O276  1  0.29069965  0.16017056  0.06629467  1
  O2-  O277  1  0.28842957  0.16288344  0.39207083  1
  O2-  O278  1  0.29011421  0.16897389  0.73528890  1
  O2-  O279  1  0.29650270  0.66537028  0.06629484  1
  O2-  O280  1  0.28690531  0.66549554  0.40157670  1
  O2-  O281  1  0.30085153  0.66507149  0.73206626  1
  O2-  O282  1  0.79566337  0.16770072  0.06208613  1
  O2-  O283  1  0.79092478  0.16750135  0.40094455  1
  O2-  O284  1  0.79392566  0.17350609  0.73434086  1
  O2-  O285  1  0.79015287  0.66154128  0.06296363  1
  O2-  O286  1  0.79366892  0.66382112  0.39889872  1
  O2-  O287  1  0.79119356  0.66023690  0.73073608  1
