# generated using pymatgen
data_Ca2Al2SiO7
_symmetry_space_group_name_H-M   'P 1'
_cell_length_a   15.46059422
_cell_length_b   15.46255169
_cell_length_c   15.28603548
_cell_angle_alpha   90.01536271
_cell_angle_beta   90.00253057
_cell_angle_gamma   89.99231319
_symmetry_Int_Tables_number   1
_chemical_formula_structural   Ca2Al2SiO7
_chemical_formula_sum   'Ca48 Al48 Si24 O168'
_cell_volume   3654.28310163
_cell_formula_units_Z   24
loop_
 _symmetry_equiv_pos_site_id
 _symmetry_equiv_pos_as_xyz
  1  'x, y, z'
loop_
 _atom_type_symbol
 _atom_type_oxidation_number
  Ca2+  2.0
  Al0+  0.0
  Si0+  0.0
  O2-  -2.0
loop_
 _atom_site_type_symbol
 _atom_site_label
 _atom_site_symmetry_multiplicity
 _atom_site_fract_x
 _atom_site_fract_y
 _atom_site_fract_z
 _atom_site_occupancy
  Ca2+  Ca0  1  0.17207761  0.06982524  0.17543388  1
  Ca2+  Ca1  1  0.16913980  0.07935503  0.49532186  1
  Ca2+  Ca2  1  0.16911886  0.07592574  0.84077469  1
  Ca2+  Ca3  1  0.16954615  0.58673789  0.16901062  1
  Ca2+  Ca4  1  0.16344241  0.57226999  0.50077571  1
  Ca2+  Ca5  1  0.16691645  0.58309418  0.84172213  1
  Ca2+  Ca6  1  0.66640860  0.07427455  0.17393922  1
  Ca2+  Ca7  1  0.66950231  0.08129623  0.49306834  1
  Ca2+  Ca8  1  0.66957646  0.07619861  0.84392089  1
  Ca2+  Ca9  1  0.67150111  0.58938106  0.17368844  1
  Ca2+  Ca10  1  0.67376203  0.58496313  0.50079976  1
  Ca2+  Ca11  1  0.66540938  0.57793004  0.83916076  1
  Ca2+  Ca12  1  0.07478272  0.33607586  0.16572603  1
  Ca2+  Ca13  1  0.07710795  0.33900422  0.49237077  1
  Ca2+  Ca14  1  0.07202082  0.33878565  0.82810270  1
  Ca2+  Ca15  1  0.07622215  0.83724936  0.15904826  1
  Ca2+  Ca16  1  0.07275226  0.83596962  0.49246781  1
  Ca2+  Ca17  1  0.07876877  0.83178847  0.83316584  1
  Ca2+  Ca18  1  0.58736729  0.31717582  0.16250151  1
  Ca2+  Ca19  1  0.58623656  0.32890790  0.49348847  1
  Ca2+  Ca20  1  0.58553169  0.32833779  0.82980831  1
  Ca2+  Ca21  1  0.57923305  0.83019044  0.16213794  1
  Ca2+  Ca22  1  0.57956669  0.82862338  0.48448586  1
  Ca2+  Ca23  1  0.58341781  0.82897731  0.83840398  1
  Ca2+  Ca24  1  0.32748933  0.42491873  0.17201229  1
  Ca2+  Ca25  1  0.31825471  0.41137655  0.50357708  1
  Ca2+  Ca26  1  0.32526545  0.42448284  0.84101281  1
  Ca2+  Ca27  1  0.32605838  0.90961656  0.17362197  1
  Ca2+  Ca28  1  0.33491055  0.91794818  0.49385761  1
  Ca2+  Ca29  1  0.32734791  0.91255152  0.84546964  1
  Ca2+  Ca30  1  0.83926789  0.42394369  0.17481293  1
  Ca2+  Ca31  1  0.83355281  0.42080039  0.50241311  1
  Ca2+  Ca32  1  0.83132617  0.41030064  0.83562355  1
  Ca2+  Ca33  1  0.82482790  0.91363427  0.17695170  1
  Ca2+  Ca34  1  0.83138721  0.91430172  0.49921059  1
  Ca2+  Ca35  1  0.83135330  0.91249926  0.84297094  1
  Ca2+  Ca36  1  0.42684688  0.15528676  0.16718225  1
  Ca2+  Ca37  1  0.42162348  0.16633882  0.48774879  1
  Ca2+  Ca38  1  0.42629722  0.16110733  0.83343286  1
  Ca2+  Ca39  1  0.42472721  0.67391115  0.15958487  1
  Ca2+  Ca40  1  0.42626820  0.67166200  0.48920700  1
  Ca2+  Ca41  1  0.41487750  0.66774225  0.83893544  1
  Ca2+  Ca42  1  0.90517652  0.17857622  0.16601700  1
  Ca2+  Ca43  1  0.91129691  0.17910261  0.49178232  1
  Ca2+  Ca44  1  0.91693770  0.17656470  0.83090222  1
  Ca2+  Ca45  1  0.91981125  0.67702874  0.16444146  1
  Ca2+  Ca46  1  0.91290663  0.67548614  0.49241138  1
  Ca2+  Ca47  1  0.91885471  0.67953665  0.83584565  1
  Al0+  Al48  1  -0.00050376  0.00521840  0.00084152  1
  Al0+  Al49  1  0.00000055  0.00346608  0.33781240  1
  Al0+  Al50  1  0.00121989  0.00142530  0.66388878  1
  Al0+  Al51  1  -0.00250889  0.50005553  -0.00867806  1
  Al0+  Al52  1  -0.00183923  0.50142689  0.33805863  1
  Al0+  Al53  1  -0.00044910  0.50216788  0.66870658  1
  Al0+  Al54  1  0.50199679  -0.00074731  -0.00618683  1
  Al0+  Al55  1  0.49928582  -0.00062869  0.33412338  1
  Al0+  Al56  1  0.50194418  -0.00082144  0.66677512  1
  Al0+  Al57  1  0.49869562  0.49809210  0.00213485  1
  Al0+  Al58  1  0.49970135  0.49873493  0.32977971  1
  Al0+  Al59  1  0.50077521  0.49883311  0.66925804  1
  Al0+  Al60  1  0.24965500  0.25040993  0.00106660  1
  Al0+  Al61  1  0.24833720  0.25016209  0.33932861  1
  Al0+  Al62  1  0.25118040  0.24911606  0.67448916  1
  Al0+  Al63  1  0.24999129  0.74834227  0.00161748  1
  Al0+  Al64  1  0.24978679  0.74783674  0.33854806  1
  Al0+  Al65  1  0.25109316  0.75052472  0.66410611  1
  Al0+  Al66  1  0.74833498  0.24950177  -0.00907109  1
  Al0+  Al67  1  0.74875174  0.25008547  0.32822023  1
  Al0+  Al68  1  0.75124704  0.24924019  0.66642484  1
  Al0+  Al69  1  0.74915796  0.74795976  -0.00368973  1
  Al0+  Al70  1  0.75147693  0.74887915  0.33576165  1
  Al0+  Al71  1  0.74967995  0.75019920  0.66482432  1
  Al0+  Al72  1  0.93004184  0.32166040  0.32017096  1
  Al0+  Al73  1  0.68019007  0.92840646  0.34805629  1
  Al0+  Al74  1  0.68065368  0.42867770  0.68027854  1
  Al0+  Al75  1  0.93093963  0.82381133  0.32073143  1
  Al0+  Al76  1  0.57289099  0.67702852  0.31881117  1
  Al0+  Al77  1  0.42780669  0.82032467  0.31860717  1
  Al0+  Al78  1  0.07148709  0.67998554  0.98666732  1
  Al0+  Al79  1  0.93013538  0.32065533  0.65051975  1
  Al0+  Al80  1  0.93005668  0.32046485  0.98541057  1
  Al0+  Al81  1  0.17816202  0.92989515  0.01224092  1
  Al0+  Al82  1  0.82093913  0.07437348  0.34775998  1
  Al0+  Al83  1  0.56938103  0.18048214  0.32008714  1
  Al0+  Al84  1  0.68118460  0.92756931  0.01335677  1
  Al0+  Al85  1  0.81967541  0.57073798  0.34618033  1
  Al0+  Al86  1  0.92936752  0.82150904  0.65159780  1
  Al0+  Al87  1  0.32051676  0.57008914  0.01543283  1
  Al0+  Al88  1  0.57209234  0.67556379  0.98351415  1
  Al0+  Al89  1  0.17914605  0.43093032  0.34516546  1
  Al0+  Al90  1  0.17776934  0.42949579  0.68306377  1
  Al0+  Al91  1  0.32131457  0.06966579  0.34742452  1
  Al0+  Al92  1  0.42924683  0.81990278  0.98490356  1
  Al0+  Al93  1  0.17691215  0.92541811  0.34993952  1
  Al0+  Al94  1  0.56876243  0.17913548  0.98420084  1
  Al0+  Al95  1  0.92850436  0.82463061  0.98796697  1
  Si0+  Si96  1  0.07519134  0.17894990  0.98332198  1
  Si0+  Si97  1  0.32342458  0.07257911  0.01502944  1
  Si0+  Si98  1  0.42910637  0.82179238  0.65081937  1
  Si0+  Si99  1  0.17997995  0.92977091  0.68183419  1
  Si0+  Si100  1  0.82136324  0.07067115  0.68200954  1
  Si0+  Si101  1  0.82107880  0.57478658  0.68653357  1
  Si0+  Si102  1  0.42347102  0.32208699  0.31696968  1
  Si0+  Si103  1  0.07074139  0.67763694  0.31987440  1
  Si0+  Si104  1  0.32420441  0.06963724  0.68361426  1
  Si0+  Si105  1  0.57046921  0.17827793  0.65000460  1
  Si0+  Si106  1  0.82089897  0.07462975  0.01535554  1
  Si0+  Si107  1  0.57003302  0.67789560  0.65192749  1
  Si0+  Si108  1  0.17473619  0.42799682  0.01668592  1
  Si0+  Si109  1  0.42598975  0.32260926  0.98292822  1
  Si0+  Si110  1  0.67695259  0.42670305  0.34662163  1
  Si0+  Si111  1  0.67931970  0.92861003  0.68289684  1
  Si0+  Si112  1  0.32460889  0.57117249  0.35165552  1
  Si0+  Si113  1  0.07393703  0.17927674  0.31659203  1
  Si0+  Si114  1  0.42909427  0.32042847  0.65309652  1
  Si0+  Si115  1  0.07415301  0.67939417  0.64858502  1
  Si0+  Si116  1  0.81990251  0.56871959  0.01370436  1
  Si0+  Si117  1  0.67861688  0.42633758  0.01503169  1
  Si0+  Si118  1  0.32225857  0.57234796  0.68311737  1
  Si0+  Si119  1  0.07506619  0.17849547  0.64923347  1
  O2-  O120  1  0.25454254  0.00385620  0.05739366  1
  O2-  O121  1  0.25081053  -0.00309645  0.39924854  1
  O2-  O122  1  0.25289056  -0.00127216  0.72496004  1
  O2-  O123  1  0.24369472  0.49606739  0.06053874  1
  O2-  O124  1  0.25641686  0.50165007  0.39515306  1
  O2-  O125  1  0.25149748  0.50596755  0.72791932  1
  O2-  O126  1  0.75953459  -0.00067539  0.05822974  1
  O2-  O127  1  0.75377780  -0.00142671  0.39975685  1
  O2-  O128  1  0.75339254  -0.00318166  0.72473990  1
  O2-  O129  1  0.74727390  0.49921589  0.05668606  1
  O2-  O130  1  0.74180577  0.49819227  0.39161285  1
  O2-  O131  1  0.75534986  0.50223424  0.72973829  1
  O2-  O132  1  0.00200485  0.24485236  0.27255893  1
  O2-  O133  1  0.00912626  0.24978348  0.60487543  1
  O2-  O134  1  0.00754401  0.24859691  0.93884893  1
  O2-  O135  1  0.01070418  0.75376278  0.27581742  1
  O2-  O136  1  0.00409607  0.74673390  0.60517334  1
  O2-  O137  1  0.00352551  0.75622973  0.93669376  1
  O2-  O138  1  0.49289947  0.25397995  0.27348901  1
  O2-  O139  1  0.49944605  0.24981312  0.60875374  1
  O2-  O140  1  0.49265501  0.25253045  0.93710168  1
  O2-  O141  1  0.50056368  0.74880338  0.26992225  1
  O2-  O142  1  0.49964758  0.74971622  0.61062675  1
  O2-  O143  1  0.50054046  0.74787861  0.93268041  1
  O2-  O144  1  0.07810103  0.17963020  0.08820129  1
  O2-  O145  1  0.07622867  0.18314375  0.42247218  1
  O2-  O146  1  0.07301631  0.17630126  0.75505027  1
  O2-  O147  1  0.06803041  0.67692141  0.10000508  1
  O2-  O148  1  0.06683335  0.67494542  0.42580243  1
  O2-  O149  1  0.07737822  0.68256542  0.75395905  1
  O2-  O150  1  0.56990990  0.17990913  0.09677795  1
  O2-  O151  1  0.56919814  0.18420589  0.43397378  1
  O2-  O152  1  0.56837068  0.17722727  0.75513998  1
  O2-  O153  1  0.57262100  0.67557837  0.09616338  1
  O2-  O154  1  0.57023497  0.67634636  0.43363001  1
  O2-  O155  1  0.57013476  0.67781165  0.75670037  1
  O2-  O156  1  0.17918277  0.43333767  0.23217581  1
  O2-  O157  1  0.17997417  0.42877627  0.56997571  1
  O2-  O158  1  0.17679428  0.42817547  0.91078138  1
  O2-  O159  1  0.17692315  0.92699465  0.23641482  1
  O2-  O160  1  0.18058432  0.93101801  0.57738571  1
  O2-  O161  1  0.17951377  0.93277123  0.89797230  1
  O2-  O162  1  0.67933277  0.42499420  0.24102953  1
  O2-  O163  1  0.67932789  0.42988766  0.56741727  1
  O2-  O164  1  0.68080030  0.42558576  0.90942254  1
  O2-  O165  1  0.67976759  0.92912793  0.23467469  1
  O2-  O166  1  0.67587130  0.92957558  0.57839001  1
  O2-  O167  1  0.68203436  0.93057860  0.89895884  1
  O2-  O168  1  0.42642059  0.32298304  0.08813082  1
  O2-  O169  1  0.42409683  0.32159154  0.42329250  1
  O2-  O170  1  0.43036837  0.31878626  0.75804959  1
  O2-  O171  1  0.42926653  0.81995569  0.09755792  1
  O2-  O172  1  0.43045799  0.81776183  0.43354013  1
  O2-  O173  1  0.42726102  0.82315746  0.75551582  1
  O2-  O174  1  0.92941033  0.32153254  0.09825318  1
  O2-  O175  1  0.93112543  0.32221662  0.43338798  1
  O2-  O176  1  0.92913278  0.31595279  0.76374047  1
  O2-  O177  1  0.92778449  0.82201243  0.10107643  1
  O2-  O178  1  0.93036191  0.81930192  0.43432931  1
  O2-  O179  1  0.93020703  0.82193612  0.76465459  1
  O2-  O180  1  0.31887793  0.07149150  0.23411440  1
  O2-  O181  1  0.32676890  0.07059281  0.57925431  1
  O2-  O182  1  0.32124231  0.07290128  0.90852306  1
  O2-  O183  1  0.32413039  0.57036165  0.24633860  1
  O2-  O184  1  0.32352671  0.57039170  0.57771900  1
  O2-  O185  1  0.31983532  0.56644735  0.90165851  1
  O2-  O186  1  0.81594637  0.07729896  0.23445075  1
  O2-  O187  1  0.81858437  0.07275802  0.57753607  1
  O2-  O188  1  0.81816951  0.07646478  0.90891526  1
  O2-  O189  1  0.82291060  0.56885714  0.23294777  1
  O2-  O190  1  0.81823870  0.57671394  0.58099381  1
  O2-  O191  1  0.81907065  0.56722129  0.90833270  1
  O2-  O192  1  0.05249682  0.08431968  0.27308277  1
  O2-  O193  1  0.04826057  0.08591425  0.60213898  1
  O2-  O194  1  0.04717379  0.08730513  0.93391383  1
  O2-  O195  1  0.03733869  0.58779773  0.27199611  1
  O2-  O196  1  0.04885110  0.58474882  0.60508892  1
  O2-  O197  1  0.03907248  0.58442299  0.92907819  1
  O2-  O198  1  0.53874618  0.08402211  0.26717867  1
  O2-  O199  1  0.54173838  0.08627612  0.60347156  1
  O2-  O200  1  0.53915408  0.08440543  0.92553617  1
  O2-  O201  1  0.54744860  0.57752298  0.26638839  1
  O2-  O202  1  0.54198397  0.58587317  0.60500604  1
  O2-  O203  1  0.54228605  0.57616052  0.93196571  1
  O2-  O204  1  0.16586305  0.20909629  0.26971487  1
  O2-  O205  1  0.17125921  0.20121883  0.60736755  1
  O2-  O206  1  0.16914767  0.20213070  0.93514448  1
  O2-  O207  1  0.16807533  0.69327269  0.27898024  1
  O2-  O208  1  0.16770503  0.70423070  0.60107326  1
  O2-  O209  1  0.17016011  0.70378651  0.93262389  1
  O2-  O210  1  0.66314314  0.21314920  0.26269255  1
  O2-  O211  1  0.66242266  0.20666300  0.60474277  1
  O2-  O212  1  0.66264306  0.21262503  0.92583288  1
  O2-  O213  1  0.67151781  0.70476696  0.26831668  1
  O2-  O214  1  0.66187055  0.70573456  0.60499997  1
  O2-  O215  1  0.66924160  0.70388128  0.92758869  1
  O2-  O216  1  0.07983553  0.45389866  0.05874240  1
  O2-  O217  1  0.08533789  0.46524936  0.40255007  1
  O2-  O218  1  0.08075164  0.45985640  0.73650943  1
  O2-  O219  1  0.08219914  0.96337607  0.06608907  1
  O2-  O220  1  0.08098527  0.95919574  0.40528756  1
  O2-  O221  1  0.08854663  0.95993674  0.72905438  1
  O2-  O222  1  0.58533720  0.44784072  0.06099063  1
  O2-  O223  1  0.58112939  0.44627825  0.39168564  1
  O2-  O224  1  0.58332584  0.45770006  0.73528193  1
  O2-  O225  1  0.58418294  0.96231592  0.06299385  1
  O2-  O226  1  0.58267091  0.95917739  0.40187579  1
  O2-  O227  1  0.58843762  0.95991270  0.73116618  1
  O2-  O228  1  0.19984923  0.33382040  0.06183208  1
  O2-  O229  1  0.20742285  0.33527113  0.40299066  1
  O2-  O230  1  0.20955127  0.33316008  0.73802234  1
  O2-  O231  1  0.20586819  0.83283669  0.06467051  1
  O2-  O232  1  0.20294957  0.82698751  0.40519969  1
  O2-  O233  1  0.20732077  0.83664371  0.72719015  1
  O2-  O234  1  0.70969918  0.33443256  0.05988614  1
  O2-  O235  1  0.70613825  0.33533139  0.39461919  1
  O2-  O236  1  0.71114029  0.33130820  0.73456384  1
  O2-  O237  1  0.70739518  0.82890678  0.06433336  1
  O2-  O238  1  0.70820348  0.83076788  0.40295806  1
  O2-  O239  1  0.70475736  0.83542886  0.72875843  1
  O2-  O240  1  0.44740862  0.41563036  0.27076916  1
  O2-  O241  1  0.45572837  0.41248411  0.60577095  1
  O2-  O242  1  0.45417316  0.41429894  0.93478365  1
  O2-  O243  1  0.45216393  0.91976233  0.26839759  1
  O2-  O244  1  0.45941793  0.91341537  0.60422916  1
  O2-  O245  1  0.45696783  0.91748408  0.92874821  1
  O2-  O246  1  0.96423256  0.41776096  0.26746147  1
  O2-  O247  1  0.95536948  0.42124196  0.60229160  1
  O2-  O248  1  0.95769212  0.41536830  0.92668541  1
  O2-  O249  1  0.95448950  0.92348946  0.27053189  1
  O2-  O250  1  0.95995191  0.91887304  0.59919891  1
  O2-  O251  1  0.95170061  0.92536903  0.93627198  1
  O2-  O252  1  0.32986605  0.29696625  0.27170586  1
  O2-  O253  1  0.33643602  0.29140978  0.60780894  1
  O2-  O254  1  0.33118045  0.29954007  0.93688341  1
  O2-  O255  1  0.32792276  0.79109671  0.26981402  1
  O2-  O256  1  0.33713972  0.79582651  0.60270750  1
  O2-  O257  1  0.33148709  0.78909231  0.93125690  1
  O2-  O258  1  0.83360015  0.29302162  0.26516739  1
  O2-  O259  1  0.83378483  0.28631816  0.59791761  1
  O2-  O260  1  0.83551051  0.28647844  0.92867094  1
  O2-  O261  1  0.83602133  0.78714455  0.26885508  1
  O2-  O262  1  0.83173407  0.79079978  0.59907006  1
  O2-  O263  1  0.83343303  0.78942263  0.93178680  1
  O2-  O264  1  0.41803384  0.04741027  0.05711363  1
  O2-  O265  1  0.41872885  0.04282632  0.40371964  1
  O2-  O266  1  0.41606266  0.04042313  0.73150820  1
  O2-  O267  1  0.41616249  0.53661898  0.07001636  1
  O2-  O268  1  0.41857148  0.54506923  0.39757237  1
  O2-  O269  1  0.41466426  0.54425464  0.73034684  1
  O2-  O270  1  0.91761090  0.06192871  0.05830841  1
  O2-  O271  1  0.92123037  0.05623585  0.40052542  1
  O2-  O272  1  0.91544811  0.04712470  0.72761857  1
  O2-  O273  1  0.91132200  0.53756102  0.05942147  1
  O2-  O274  1  0.91284438  0.53711677  0.40511167  1
  O2-  O275  1  0.91642589  0.55384628  0.73004506  1
  O2-  O276  1  0.30040012  0.16712793  0.06022874  1
  O2-  O277  1  0.29207183  0.16744840  0.40342229  1
  O2-  O278  1  0.29814030  0.16084527  0.73352292  1
  O2-  O279  1  0.29076401  0.66567775  0.07021585  1
  O2-  O280  1  0.29894160  0.66307510  0.40080101  1
  O2-  O281  1  0.29833105  0.66762175  0.72742999  1
  O2-  O282  1  0.78602390  0.16605567  0.06007416  1
  O2-  O283  1  0.78498454  0.17102554  0.40200151  1
  O2-  O284  1  0.78992581  0.16066999  0.73123757  1
  O2-  O285  1  0.79370132  0.66089009  0.06016725  1
  O2-  O286  1  0.78940373  0.66491887  0.40494024  1
  O2-  O287  1  0.79019936  0.66690995  0.73336577  1
