# generated using pymatgen
data_Ca2Al2SiO7
_symmetry_space_group_name_H-M   'P 1'
_cell_length_a   15.45837464
_cell_length_b   15.45995644
_cell_length_c   15.28422640
_cell_angle_alpha   90.01457509
_cell_angle_beta   89.99777323
_cell_angle_gamma   89.99039684
_symmetry_Int_Tables_number   1
_chemical_formula_structural   Ca2Al2SiO7
_chemical_formula_sum   'Ca48 Al48 Si24 O168'
_cell_volume   3652.71287932
_cell_formula_units_Z   24
loop_
 _symmetry_equiv_pos_site_id
 _symmetry_equiv_pos_as_xyz
  1  'x, y, z'
loop_
 _atom_type_symbol
 _atom_type_oxidation_number
  Ca2+  2.0
  Al0+  0.0
  Si0+  0.0
  O2-  -2.0
loop_
 _atom_site_type_symbol
 _atom_site_label
 _atom_site_symmetry_multiplicity
 _atom_site_fract_x
 _atom_site_fract_y
 _atom_site_fract_z
 _atom_site_occupancy
  Ca2+  Ca0  1  0.16417681  0.07437958  0.17448727  1
  Ca2+  Ca1  1  0.16906787  0.07953180  0.50012080  1
  Ca2+  Ca2  1  0.17408085  0.07905156  0.83445956  1
  Ca2+  Ca3  1  0.16896835  0.57316395  0.17086030  1
  Ca2+  Ca4  1  0.17105576  0.58011285  0.50713642  1
  Ca2+  Ca5  1  0.17826980  0.58640196  0.83736796  1
  Ca2+  Ca6  1  0.67501137  0.07886360  0.18140365  1
  Ca2+  Ca7  1  0.66264490  0.07404457  0.50222331  1
  Ca2+  Ca8  1  0.66756075  0.07282613  0.83244121  1
  Ca2+  Ca9  1  0.66558555  0.58810957  0.16775733  1
  Ca2+  Ca10  1  0.66399398  0.57841659  0.50970744  1
  Ca2+  Ca11  1  0.65619097  0.58039107  0.83334194  1
  Ca2+  Ca12  1  0.09399379  0.32941669  0.16681847  1
  Ca2+  Ca13  1  0.08118161  0.32867424  0.49219536  1
  Ca2+  Ca14  1  0.07994705  0.33848351  0.82722652  1
  Ca2+  Ca15  1  0.07251911  0.84812835  0.16306008  1
  Ca2+  Ca16  1  0.07789068  0.83208898  0.49440630  1
  Ca2+  Ca17  1  0.07631149  0.83357683  0.82630041  1
  Ca2+  Ca18  1  0.57945216  0.32776313  0.16902612  1
  Ca2+  Ca19  1  0.57219649  0.33192028  0.49517472  1
  Ca2+  Ca20  1  0.57722580  0.33216201  0.82171895  1
  Ca2+  Ca21  1  0.57790885  0.83284466  0.16474753  1
  Ca2+  Ca22  1  0.57492849  0.83976315  0.49729710  1
  Ca2+  Ca23  1  0.57899877  0.82008864  0.82199468  1
  Ca2+  Ca24  1  0.32874882  0.42185907  0.17111341  1
  Ca2+  Ca25  1  0.33392219  0.41774098  0.50674800  1
  Ca2+  Ca26  1  0.33431055  0.42959114  0.83691226  1
  Ca2+  Ca27  1  0.32133680  0.91112190  0.17511162  1
  Ca2+  Ca28  1  0.33458157  0.91772550  0.50802185  1
  Ca2+  Ca29  1  0.33122532  0.91787512  0.83377905  1
  Ca2+  Ca30  1  0.83266808  0.42355216  0.17315973  1
  Ca2+  Ca31  1  0.82675815  0.41470275  0.50997284  1
  Ca2+  Ca32  1  0.82899291  0.41575419  0.83156320  1
  Ca2+  Ca33  1  0.82906540  0.91661753  0.18005382  1
  Ca2+  Ca34  1  0.82667040  0.91520328  0.50126101  1
  Ca2+  Ca35  1  0.82987843  0.90267323  0.83192898  1
  Ca2+  Ca36  1  0.41775783  0.16998007  0.17082491  1
  Ca2+  Ca37  1  0.41624187  0.17498837  0.49301465  1
  Ca2+  Ca38  1  0.41272714  0.17364773  0.82307249  1
  Ca2+  Ca39  1  0.41865004  0.66991405  0.16414745  1
  Ca2+  Ca40  1  0.41817059  0.67421027  0.50202295  1
  Ca2+  Ca41  1  0.41950656  0.66537411  0.82460247  1
  Ca2+  Ca42  1  0.92364083  0.15805310  0.16973855  1
  Ca2+  Ca43  1  0.91905183  0.16790275  0.49391875  1
  Ca2+  Ca44  1  0.92166357  0.17406924  0.82609917  1
  Ca2+  Ca45  1  0.91804294  0.68078408  0.16299461  1
  Ca2+  Ca46  1  0.92084617  0.67652690  0.50060818  1
  Ca2+  Ca47  1  0.92802279  0.67502572  0.82428400  1
  Al0+  Al48  1  -0.00086217  0.00355308  -0.00550949  1
  Al0+  Al49  1  -0.00001998  0.00142254  0.33553125  1
  Al0+  Al50  1  -0.00092139  0.00133544  0.66426071  1
  Al0+  Al51  1  -0.00184061  0.50050950  0.00397948  1
  Al0+  Al52  1  0.00085459  0.50102881  0.33779035  1
  Al0+  Al53  1  -0.00198316  0.49914457  0.65890131  1
  Al0+  Al54  1  0.50159124  0.00081210  0.00011605  1
  Al0+  Al55  1  0.49953203  0.00010305  0.32580351  1
  Al0+  Al56  1  0.50120098  -0.00062493  0.67614278  1
  Al0+  Al57  1  0.49995481  0.49852990  0.00321685  1
  Al0+  Al58  1  0.50013344  0.50093827  0.32822487  1
  Al0+  Al59  1  0.49882871  0.49825307  0.66676444  1
  Al0+  Al60  1  0.25097253  0.24940127  0.00091076  1
  Al0+  Al61  1  0.24798502  0.25120347  0.32788942  1
  Al0+  Al62  1  0.24962578  0.24854266  0.66749972  1
  Al0+  Al63  1  0.24883754  0.75110516  0.00995155  1
  Al0+  Al64  1  0.25052887  0.74700103  0.33343538  1
  Al0+  Al65  1  0.24996844  0.74853446  0.66487863  1
  Al0+  Al66  1  0.75018102  0.24928486  0.00025976  1
  Al0+  Al67  1  0.75050401  0.25185651  0.33251628  1
  Al0+  Al68  1  0.75077608  0.24898560  0.66895484  1
  Al0+  Al69  1  0.74854373  0.74851094  -0.00719283  1
  Al0+  Al70  1  0.75119071  0.74982292  0.33467603  1
  Al0+  Al71  1  0.75208022  0.74770382  0.66455666  1
  Al0+  Al72  1  0.17727289  0.42901884  0.01431372  1
  Al0+  Al73  1  0.18041199  0.42863886  0.34953579  1
  Al0+  Al74  1  0.42865111  0.31972232  0.65503347  1
  Al0+  Al75  1  0.32341066  0.57215813  0.01770433  1
  Al0+  Al76  1  0.06903400  0.18040073  0.31928403  1
  Al0+  Al77  1  0.82177288  0.07242495  0.34917168  1
  Al0+  Al78  1  0.17916622  0.92764892  0.34792095  1
  Al0+  Al79  1  0.93010240  0.82255987  0.98576341  1
  Al0+  Al80  1  0.31966255  0.57042992  0.67880289  1
  Al0+  Al81  1  0.67917895  0.42901724  0.67975048  1
  Al0+  Al82  1  0.93155518  0.81965282  0.31997874  1
  Al0+  Al83  1  0.56811700  0.67940309  0.98583208  1
  Al0+  Al84  1  0.42769726  0.32288626  0.31614686  1
  Al0+  Al85  1  0.42988520  0.82299486  0.65414315  1
  Al0+  Al86  1  0.67692338  0.92811142  0.34771169  1
  Al0+  Al87  1  0.68034291  0.92699152  0.68221093  1
  Al0+  Al88  1  0.32141859  0.07143705  0.67860951  1
  Al0+  Al89  1  0.07348840  0.67851254  0.65198161  1
  Al0+  Al90  1  0.57039756  0.67673768  0.65162597  1
  Al0+  Al91  1  0.17831916  0.93213183  0.01223840  1
  Al0+  Al92  1  0.42741039  0.82149536  0.31937908  1
  Al0+  Al93  1  0.57203886  0.17870122  0.31915619  1
  Al0+  Al94  1  0.92897694  0.82278746  0.64886533  1
  Al0+  Al95  1  0.92826380  0.31991476  0.65346881  1
  Si0+  Si96  1  0.82130637  0.57168210  0.34948974  1
  Si0+  Si97  1  0.82336061  0.07171989  0.68557278  1
  Si0+  Si98  1  0.92732987  0.32290429  0.98596632  1
  Si0+  Si99  1  0.67944594  0.42695748  0.01644196  1
  Si0+  Si100  1  0.32126380  0.07143717  0.34730926  1
  Si0+  Si101  1  0.07122857  0.18077382  0.98338325  1
  Si0+  Si102  1  0.42491259  0.82324138  0.98428546  1
  Si0+  Si103  1  0.32429597  0.07267869  0.01820520  1
  Si0+  Si104  1  0.82358257  0.57080756  0.68455411  1
  Si0+  Si105  1  0.67880313  0.43038779  0.34728302  1
  Si0+  Si106  1  0.17711956  0.92793500  0.68169438  1
  Si0+  Si107  1  0.81914533  0.07284756  0.01451374  1
  Si0+  Si108  1  0.17609106  0.42725438  0.68111921  1
  Si0+  Si109  1  0.43034858  0.31813765  0.98393281  1
  Si0+  Si110  1  0.07164984  0.67633113  0.98630575  1
  Si0+  Si111  1  0.07276707  0.17847686  0.64967481  1
  Si0+  Si112  1  0.57284335  0.67867761  0.31701462  1
  Si0+  Si113  1  0.57253500  0.17675533  0.65306872  1
  Si0+  Si114  1  0.92766753  0.32484151  0.31568876  1
  Si0+  Si115  1  0.68110938  0.92721336  0.01436791  1
  Si0+  Si116  1  0.32449614  0.57071419  0.35264622  1
  Si0+  Si117  1  0.57417307  0.17880452  0.98293287  1
  Si0+  Si118  1  0.81953615  0.57125082  0.01451585  1
  Si0+  Si119  1  0.07250581  0.67605578  0.31488065  1
  O2-  O120  1  0.25782815  0.00138359  0.06080950  1
  O2-  O121  1  0.25780582  -0.00103027  0.39320174  1
  O2-  O122  1  0.24796826  -0.00494007  0.72546839  1
  O2-  O123  1  0.24850034  0.50125398  0.06511077  1
  O2-  O124  1  0.25630252  0.50114934  0.39607662  1
  O2-  O125  1  0.24278808  0.49720837  0.72574097  1
  O2-  O126  1  0.75109254  -0.00085188  0.05642653  1
  O2-  O127  1  0.74675015  0.00279244  0.39729723  1
  O2-  O128  1  0.75848092  -0.00076259  0.73011627  1
  O2-  O129  1  0.74904910  0.49970225  0.05812190  1
  O2-  O130  1  0.75068532  0.49959692  0.39001944  1
  O2-  O131  1  0.75227078  0.50447183  0.72936848  1
  O2-  O132  1  -0.00523417  0.25552039  0.27016463  1
  O2-  O133  1  0.00376371  0.24723130  0.60678597  1
  O2-  O134  1  0.00333967  0.25662765  0.94411917  1
  O2-  O135  1  0.00849302  0.74886007  0.26974032  1
  O2-  O136  1  0.00438191  0.75315799  0.60147715  1
  O2-  O137  1  0.00832573  0.74997665  0.94191957  1
  O2-  O138  1  0.49994397  0.24997114  0.26694631  1
  O2-  O139  1  0.50244286  0.24380140  0.60942547  1
  O2-  O140  1  0.50011566  0.24621797  0.94055793  1
  O2-  O141  1  0.50489593  0.74855778  0.27369998  1
  O2-  O142  1  0.50363555  0.75356159  0.60249179  1
  O2-  O143  1  0.49114360  0.75215198  0.94049139  1
  O2-  O144  1  0.06917479  0.17786118  0.08813093  1
  O2-  O145  1  0.06903402  0.18225511  0.43213606  1
  O2-  O146  1  0.07213770  0.17896113  0.75600494  1
  O2-  O147  1  0.06578603  0.67232248  0.09158828  1
  O2-  O148  1  0.06909624  0.67451478  0.42009193  1
  O2-  O149  1  0.07269005  0.67879762  0.76646855  1
  O2-  O150  1  0.57739027  0.18083229  0.08748049  1
  O2-  O151  1  0.57048445  0.18095974  0.43266978  1
  O2-  O152  1  0.57233703  0.17974005  0.75959333  1
  O2-  O153  1  0.57226167  0.68343908  0.09905772  1
  O2-  O154  1  0.57250318  0.67405134  0.42179279  1
  O2-  O155  1  0.56592560  0.67644745  0.76559932  1
  O2-  O156  1  0.18008055  0.43129826  0.23628236  1
  O2-  O157  1  0.17845582  0.42595355  0.57573091  1
  O2-  O158  1  0.17654374  0.42928323  0.90063811  1
  O2-  O159  1  0.17778781  0.93244168  0.23434669  1
  O2-  O160  1  0.17612995  0.93024810  0.57633649  1
  O2-  O161  1  0.17762952  0.93556294  0.89906942  1
  O2-  O162  1  0.68055082  0.43203698  0.24142686  1
  O2-  O163  1  0.68067296  0.42888276  0.56658689  1
  O2-  O164  1  0.68032402  0.42433827  0.91157246  1
  O2-  O165  1  0.68062946  0.92637210  0.23303602  1
  O2-  O166  1  0.67741712  0.93123521  0.56986747  1
  O2-  O167  1  0.68197724  0.92857045  0.90931656  1
  O2-  O168  1  0.43208200  0.31671250  0.08877130  1
  O2-  O169  1  0.42950427  0.32327608  0.42971385  1
  O2-  O170  1  0.42998150  0.31910539  0.76889303  1
  O2-  O171  1  0.42844608  0.82476881  0.08990446  1
  O2-  O172  1  0.42731148  0.82131366  0.43201205  1
  O2-  O173  1  0.42959471  0.82228684  0.76819416  1
  O2-  O174  1  0.92218317  0.32168532  0.09056197  1
  O2-  O175  1  0.92810743  0.32512136  0.42100804  1
  O2-  O176  1  0.92967395  0.31894205  0.76764859  1
  O2-  O177  1  0.92831330  0.82249035  0.09893211  1
  O2-  O178  1  0.93030843  0.81648761  0.43212817  1
  O2-  O179  1  0.93216237  0.82027951  0.76327995  1
  O2-  O180  1  0.31801838  0.07073397  0.24119557  1
  O2-  O181  1  0.31959931  0.07379971  0.56584109  1
  O2-  O182  1  0.32293242  0.07535750  0.91252036  1
  O2-  O183  1  0.32463657  0.56977195  0.24680630  1
  O2-  O184  1  0.32040359  0.56795424  0.56609200  1
  O2-  O185  1  0.32473917  0.56966806  0.90395161  1
  O2-  O186  1  0.82171169  0.06922966  0.23436002  1
  O2-  O187  1  0.82218560  0.07506773  0.58078031  1
  O2-  O188  1  0.81651786  0.07836375  0.90971392  1
  O2-  O189  1  0.82042869  0.57128636  0.24350964  1
  O2-  O190  1  0.82381644  0.56759972  0.57886615  1
  O2-  O191  1  0.82129774  0.56844333  0.91004621  1
  O2-  O192  1  0.03613892  0.08491990  0.26359933  1
  O2-  O193  1  0.04718855  0.08553030  0.60360563  1
  O2-  O194  1  0.03794766  0.09336436  0.93098532  1
  O2-  O195  1  0.04003380  0.58416064  0.26833298  1
  O2-  O196  1  0.04220796  0.58186636  0.59712693  1
  O2-  O197  1  0.04049418  0.58484146  0.93833274  1
  O2-  O198  1  0.54572506  0.08198614  0.26116710  1
  O2-  O199  1  0.54812376  0.08239241  0.61077544  1
  O2-  O200  1  0.55001132  0.08484153  0.93739672  1
  O2-  O201  1  0.54651134  0.58650497  0.26705403  1
  O2-  O202  1  0.53861168  0.58010694  0.59832675  1
  O2-  O203  1  0.54222740  0.57922725  0.93604962  1
  O2-  O204  1  0.16396816  0.21019196  0.26146668  1
  O2-  O205  1  0.16544344  0.20398595  0.60311498  1
  O2-  O206  1  0.16485028  0.20433470  0.93705245  1
  O2-  O207  1  0.16835032  0.69404278  0.27164529  1
  O2-  O208  1  0.17133460  0.70277946  0.59734924  1
  O2-  O209  1  0.16834956  0.69809949  0.94572934  1
  O2-  O210  1  0.66992271  0.21046182  0.26423566  1
  O2-  O211  1  0.66575823  0.20239016  0.60823722  1
  O2-  O212  1  0.66450555  0.21014406  0.93415076  1
  O2-  O213  1  0.66685638  0.70300409  0.27062701  1
  O2-  O214  1  0.67223851  0.69578655  0.60386508  1
  O2-  O215  1  0.66368809  0.70921528  0.92930678  1
  O2-  O216  1  0.07755531  0.45361857  0.06830242  1
  O2-  O217  1  0.08301520  0.45900168  0.40267989  1
  O2-  O218  1  0.08050334  0.45076720  0.72408467  1
  O2-  O219  1  0.08235540  0.97041723  0.06430247  1
  O2-  O220  1  0.08509304  0.96330225  0.40211945  1
  O2-  O221  1  0.08432350  0.95745399  0.72846485  1
  O2-  O222  1  0.58823136  0.45338335  0.06484313  1
  O2-  O223  1  0.58670225  0.45937621  0.39275056  1
  O2-  O224  1  0.58326705  0.45895367  0.73571484  1
  O2-  O225  1  0.58786771  0.95397859  0.05987092  1
  O2-  O226  1  0.57691144  0.95662203  0.39697426  1
  O2-  O227  1  0.58683712  0.95993517  0.74205243  1
  O2-  O228  1  0.20723363  0.32974094  0.06553224  1
  O2-  O229  1  0.20779877  0.32998162  0.40034275  1
  O2-  O230  1  0.20097479  0.33383435  0.72802349  1
  O2-  O231  1  0.19946949  0.83464870  0.06880489  1
  O2-  O232  1  0.20438801  0.82818269  0.39793848  1
  O2-  O233  1  0.20065790  0.83410731  0.72749504  1
  O2-  O234  1  0.71064605  0.33627234  0.06464645  1
  O2-  O235  1  0.70446373  0.33850149  0.39422448  1
  O2-  O236  1  0.71151016  0.33300493  0.73612810  1
  O2-  O237  1  0.70939041  0.83508849  0.06005249  1
  O2-  O238  1  0.70701156  0.83013320  0.40005906  1
  O2-  O239  1  0.71132414  0.82911901  0.73515385  1
  O2-  O240  1  0.46029885  0.41947411  0.26098076  1
  O2-  O241  1  0.46168001  0.41355172  0.59951203  1
  O2-  O242  1  0.46047180  0.41012012  0.93896293  1
  O2-  O243  1  0.45402889  0.91720358  0.26147442  1
  O2-  O244  1  0.45790815  0.92296094  0.60428918  1
  O2-  O245  1  0.45208516  0.91762859  0.93961996  1
  O2-  O246  1  0.95438858  0.41898398  0.27050946  1
  O2-  O247  1  0.95325061  0.41569317  0.59665686  1
  O2-  O248  1  0.95068555  0.41617193  0.93916711  1
  O2-  O249  1  0.95986194  0.91749910  0.26736190  1
  O2-  O250  1  0.95252185  0.92327719  0.59915521  1
  O2-  O251  1  0.95706690  0.91991239  0.93087089  1
  O2-  O252  1  0.33072585  0.29333419  0.26164789  1
  O2-  O253  1  0.33196967  0.28961908  0.60175164  1
  O2-  O254  1  0.33797035  0.29126813  0.93700873  1
  O2-  O255  1  0.33199037  0.78683834  0.26406930  1
  O2-  O256  1  0.33159205  0.79575337  0.60209391  1
  O2-  O257  1  0.32866936  0.80180515  0.94239174  1
  O2-  O258  1  0.83321846  0.30329640  0.26936916  1
  O2-  O259  1  0.83202368  0.28778499  0.59987396  1
  O2-  O260  1  0.83748889  0.28955521  0.93680516  1
  O2-  O261  1  0.83527528  0.78508252  0.26564807  1
  O2-  O262  1  0.83202815  0.79090758  0.59676238  1
  O2-  O263  1  0.83564490  0.78651354  0.93136541  1
  O2-  O264  1  0.42009006  0.05165863  0.06237026  1
  O2-  O265  1  0.41732875  0.05212067  0.38908470  1
  O2-  O266  1  0.41661315  0.04523705  0.73830373  1
  O2-  O267  1  0.42025695  0.53878393  0.07217995  1
  O2-  O268  1  0.41918599  0.54512543  0.39600990  1
  O2-  O269  1  0.41401588  0.53522689  0.73463755  1
  O2-  O270  1  0.91317546  0.04827468  0.05803906  1
  O2-  O271  1  0.91855516  0.04344253  0.40294727  1
  O2-  O272  1  0.91889013  0.05095883  0.73125651  1
  O2-  O273  1  0.90962406  0.54378366  0.06576307  1
  O2-  O274  1  0.91244258  0.54447958  0.39741317  1
  O2-  O275  1  0.91600248  0.53991299  0.73112555  1
  O2-  O276  1  0.29620691  0.16525210  0.06456475  1
  O2-  O277  1  0.29125658  0.16438169  0.39149071  1
  O2-  O278  1  0.28629923  0.16583978  0.73722328  1
  O2-  O279  1  0.29895337  0.67084867  0.07168823  1
  O2-  O280  1  0.29786727  0.66386186  0.39783435  1
  O2-  O281  1  0.29098935  0.66728405  0.73476866  1
  O2-  O282  1  0.78947025  0.16312387  0.06464507  1
  O2-  O283  1  0.79841888  0.17402165  0.39807846  1
  O2-  O284  1  0.79390846  0.16343526  0.73489917  1
  O2-  O285  1  0.78816544  0.66243221  0.06185686  1
  O2-  O286  1  0.79233148  0.66182257  0.39800929  1
  O2-  O287  1  0.80302257  0.66537288  0.72997305  1
