# generated using pymatgen
data_Ca2Al2SiO7
_symmetry_space_group_name_H-M   'P 1'
_cell_length_a   15.45883618
_cell_length_b   15.45958931
_cell_length_c   15.28501976
_cell_angle_alpha   90.00448785
_cell_angle_beta   90.00257932
_cell_angle_gamma   89.99316377
_symmetry_Int_Tables_number   1
_chemical_formula_structural   Ca2Al2SiO7
_chemical_formula_sum   'Ca48 Al48 Si24 O168'
_cell_volume   3652.92492831
_cell_formula_units_Z   24
loop_
 _symmetry_equiv_pos_site_id
 _symmetry_equiv_pos_as_xyz
  1  'x, y, z'
loop_
 _atom_type_symbol
 _atom_type_oxidation_number
  Ca2+  2.0
  Al0+  0.0
  Si0+  0.0
  O2-  -2.0
loop_
 _atom_site_type_symbol
 _atom_site_label
 _atom_site_symmetry_multiplicity
 _atom_site_fract_x
 _atom_site_fract_y
 _atom_site_fract_z
 _atom_site_occupancy
  Ca2+  Ca0  1  0.17142986  0.07652942  0.17498091  1
  Ca2+  Ca1  1  0.17555199  0.07550110  0.49780310  1
  Ca2+  Ca2  1  0.16870280  0.08300521  0.84032370  1
  Ca2+  Ca3  1  0.17225657  0.58031821  0.17411341  1
  Ca2+  Ca4  1  0.17270383  0.58676070  0.50538121  1
  Ca2+  Ca5  1  0.16473907  0.57325401  0.83379436  1
  Ca2+  Ca6  1  0.66781088  0.07677840  0.16625598  1
  Ca2+  Ca7  1  0.66111736  0.08391402  0.50552043  1
  Ca2+  Ca8  1  0.66847897  0.07931187  0.84133239  1
  Ca2+  Ca9  1  0.67040764  0.58102627  0.17922783  1
  Ca2+  Ca10  1  0.66670370  0.58079040  0.50585763  1
  Ca2+  Ca11  1  0.66362808  0.58514478  0.83022784  1
  Ca2+  Ca12  1  0.08534527  0.32710438  0.15737858  1
  Ca2+  Ca13  1  0.08402353  0.33877024  0.49885778  1
  Ca2+  Ca14  1  0.08885509  0.33243492  0.83091989  1
  Ca2+  Ca15  1  0.08324094  0.82838999  0.16516025  1
  Ca2+  Ca16  1  0.08389430  0.82100961  0.49258093  1
  Ca2+  Ca17  1  0.07372694  0.82655595  0.82832794  1
  Ca2+  Ca18  1  0.57062134  0.34145515  0.16604639  1
  Ca2+  Ca19  1  0.57899660  0.33780796  0.49536680  1
  Ca2+  Ca20  1  0.57405122  0.33118581  0.82294573  1
  Ca2+  Ca21  1  0.57616885  0.83048367  0.16185714  1
  Ca2+  Ca22  1  0.57462070  0.82040335  0.49622386  1
  Ca2+  Ca23  1  0.57584295  0.83492217  0.82680103  1
  Ca2+  Ca24  1  0.33235824  0.41853375  0.17241599  1
  Ca2+  Ca25  1  0.33543173  0.42074454  0.50349419  1
  Ca2+  Ca26  1  0.32785449  0.40957238  0.83710646  1
  Ca2+  Ca27  1  0.33289244  0.91882736  0.17951356  1
  Ca2+  Ca28  1  0.33791798  0.91237414  0.49904823  1
  Ca2+  Ca29  1  0.33805941  0.91520781  0.83835489  1
  Ca2+  Ca30  1  0.82418390  0.42310742  0.17758333  1
  Ca2+  Ca31  1  0.81930975  0.42685875  0.50399346  1
  Ca2+  Ca32  1  0.82616192  0.42248616  0.83187757  1
  Ca2+  Ca33  1  0.83353483  0.91652346  0.16317086  1
  Ca2+  Ca34  1  0.83078673  0.91832885  0.50302080  1
  Ca2+  Ca35  1  0.82543508  0.91901766  0.84671210  1
  Ca2+  Ca36  1  0.40838148  0.17757959  0.16490876  1
  Ca2+  Ca37  1  0.41763991  0.17800094  0.49825952  1
  Ca2+  Ca38  1  0.42301373  0.17628480  0.82710441  1
  Ca2+  Ca39  1  0.41639116  0.67297449  0.16843369  1
  Ca2+  Ca40  1  0.42395660  0.66786754  0.49018420  1
  Ca2+  Ca41  1  0.42251940  0.67959544  0.82587169  1
  Ca2+  Ca42  1  0.92396197  0.16442439  0.15782712  1
  Ca2+  Ca43  1  0.91771216  0.17181478  0.49523696  1
  Ca2+  Ca44  1  0.92289888  0.16084750  0.83353288  1
  Ca2+  Ca45  1  0.92161137  0.66619904  0.16506046  1
  Ca2+  Ca46  1  0.92640171  0.64987812  0.49753827  1
  Ca2+  Ca47  1  0.91764910  0.66749502  0.82733040  1
  Al0+  Al48  1  0.00088066  -0.00100441  -0.00496943  1
  Al0+  Al49  1  0.00060360  -0.00068342  0.33865114  1
  Al0+  Al50  1  0.00202948  -0.00038008  0.66553733  1
  Al0+  Al51  1  0.00042099  0.49678100  0.00429514  1
  Al0+  Al52  1  -0.00179551  0.49841512  0.32870929  1
  Al0+  Al53  1  0.00019435  0.49902792  0.67227344  1
  Al0+  Al54  1  0.50034519  0.00094722  0.00223106  1
  Al0+  Al55  1  0.50146979  0.00269219  0.33544031  1
  Al0+  Al56  1  0.49948358  0.00304164  0.66078560  1
  Al0+  Al57  1  0.49839333  0.50160510  -0.00509840  1
  Al0+  Al58  1  0.49798498  0.49893501  0.33139701  1
  Al0+  Al59  1  0.49881576  0.50196016  0.66693108  1
  Al0+  Al60  1  0.24845803  0.24924932  -0.00401759  1
  Al0+  Al61  1  0.24991228  0.24664680  0.33445650  1
  Al0+  Al62  1  0.25079057  0.24762891  0.66607795  1
  Al0+  Al63  1  0.25125664  0.74785409  -0.00551515  1
  Al0+  Al64  1  0.24761250  0.74793793  0.33239258  1
  Al0+  Al65  1  0.24573195  0.75163992  0.66409008  1
  Al0+  Al66  1  0.75130113  0.25108696  0.00544318  1
  Al0+  Al67  1  0.74981364  0.24999099  0.33478418  1
  Al0+  Al68  1  0.75239728  0.25050826  0.66854744  1
  Al0+  Al69  1  0.75077980  0.74946862  0.00141689  1
  Al0+  Al70  1  0.75325558  0.75174493  0.33480566  1
  Al0+  Al71  1  0.74921113  0.75349795  0.66773468  1
  Al0+  Al72  1  0.42926803  0.32126702  0.98567580  1
  Al0+  Al73  1  0.57385777  0.18128621  0.65307423  1
  Al0+  Al74  1  0.67741935  0.92803115  0.01610799  1
  Al0+  Al75  1  0.82316611  0.07128871  0.01518740  1
  Al0+  Al76  1  0.42705952  0.82268478  0.65101368  1
  Al0+  Al77  1  0.18057700  0.42818769  0.01465374  1
  Al0+  Al78  1  0.82011607  0.57231031  0.68341614  1
  Al0+  Al79  1  0.31891684  0.56956471  0.34550349  1
  Al0+  Al80  1  0.06976882  0.67712694  0.31848490  1
  Al0+  Al81  1  0.42845155  0.31958028  0.31912438  1
  Al0+  Al82  1  0.57315431  0.67831707  0.31785179  1
  Al0+  Al83  1  0.92998664  0.81853250  0.98694363  1
  Al0+  Al84  1  0.57180132  0.68011868  0.65199510  1
  Al0+  Al85  1  0.42767427  0.32178792  0.65119190  1
  Al0+  Al86  1  0.06939021  0.17944264  0.98631934  1
  Al0+  Al87  1  0.42926953  0.82271282  0.98723573  1
  Al0+  Al88  1  0.67610630  0.42873083  0.68351701  1
  Al0+  Al89  1  0.42952822  0.82121343  0.31799609  1
  Al0+  Al90  1  0.18160048  0.42871299  0.67986446  1
  Al0+  Al91  1  0.32343361  0.07210999  0.35007240  1
  Al0+  Al92  1  0.17897588  0.92746885  0.34868885  1
  Al0+  Al93  1  0.06660753  0.67780134  0.65409513  1
  Al0+  Al94  1  0.82231684  0.57331698  0.34765912  1
  Al0+  Al95  1  0.67719399  0.42985450  0.34735163  1
  Si0+  Si96  1  0.17972319  0.92667219  0.01204223  1
  Si0+  Si97  1  0.67895064  0.92926781  0.35027559  1
  Si0+  Si98  1  0.32169419  0.57586072  0.68412309  1
  Si0+  Si99  1  0.67907134  0.93299283  0.68049325  1
  Si0+  Si100  1  0.92827593  0.31927478  0.31777103  1
  Si0+  Si101  1  0.82465399  0.07190334  0.68173140  1
  Si0+  Si102  1  0.32015221  0.06885880  0.68367496  1
  Si0+  Si103  1  0.07212552  0.67465514  0.98249801  1
  Si0+  Si104  1  0.82130982  0.57046439  0.01598177  1
  Si0+  Si105  1  0.82147322  0.07098364  0.34927241  1
  Si0+  Si106  1  0.32226844  0.57287883  0.01625465  1
  Si0+  Si107  1  0.17745122  0.92840654  0.68483139  1
  Si0+  Si108  1  0.32018527  0.06997213  0.01334974  1
  Si0+  Si109  1  0.06915946  0.17821945  0.31971289  1
  Si0+  Si110  1  0.57531798  0.17833986  0.31407959  1
  Si0+  Si111  1  0.57317837  0.67869418  0.98354785  1
  Si0+  Si112  1  0.93086912  0.31999706  0.65224453  1
  Si0+  Si113  1  0.17717307  0.42578569  0.34772265  1
  Si0+  Si114  1  0.92775894  0.82389372  0.64959668  1
  Si0+  Si115  1  0.92906984  0.82621851  0.31624115  1
  Si0+  Si116  1  0.57357027  0.17921198  0.98605012  1
  Si0+  Si117  1  0.92631262  0.32315907  0.98261255  1
  Si0+  Si118  1  0.07195010  0.17668504  0.64909543  1
  Si0+  Si119  1  0.67675595  0.43001956  0.01464367  1
  O2-  O120  1  0.25414391  -0.00625054  0.05463148  1
  O2-  O121  1  0.25655343  -0.00597109  0.39892312  1
  O2-  O122  1  0.25149963  -0.00399131  0.72757293  1
  O2-  O123  1  0.25389269  0.50354987  0.06050756  1
  O2-  O124  1  0.24414510  0.49470376  0.39245926  1
  O2-  O125  1  0.25778950  0.50163846  0.72774721  1
  O2-  O126  1  0.75061009  0.00018965  0.06566661  1
  O2-  O127  1  0.74974535  0.00179185  0.39217494  1
  O2-  O128  1  0.75170918  0.00290634  0.72280515  1
  O2-  O129  1  0.74849107  0.50057848  0.05663836  1
  O2-  O130  1  0.74464304  0.50685550  0.39610685  1
  O2-  O131  1  0.74476894  0.50417658  0.73457786  1
  O2-  O132  1  0.00049854  0.24983713  0.27531509  1
  O2-  O133  1  0.00153808  0.24864150  0.60816341  1
  O2-  O134  1  -0.00635364  0.25286338  0.93835497  1
  O2-  O135  1  -0.00500338  0.75360883  0.27423191  1
  O2-  O136  1  -0.00907013  0.75083949  0.60554384  1
  O2-  O137  1  0.00247239  0.74263400  0.93886884  1
  O2-  O138  1  0.50433631  0.24541424  0.27139377  1
  O2-  O139  1  0.50702996  0.25719554  0.60216797  1
  O2-  O140  1  0.50790924  0.24981279  0.94107733  1
  O2-  O141  1  0.50256336  0.75123073  0.26642636  1
  O2-  O142  1  0.49403228  0.74589340  0.60244026  1
  O2-  O143  1  0.50662585  0.75068746  0.94137562  1
  O2-  O144  1  0.06977959  0.17988932  0.09965467  1
  O2-  O145  1  0.06587332  0.17877252  0.42504412  1
  O2-  O146  1  0.07077772  0.17403570  0.75419621  1
  O2-  O147  1  0.07247641  0.67559994  0.08803094  1
  O2-  O148  1  0.06771378  0.67543176  0.43153635  1
  O2-  O149  1  0.06568423  0.68037503  0.76757927  1
  O2-  O150  1  0.57235541  0.17872475  0.09147025  1
  O2-  O151  1  0.57922914  0.18019239  0.41942589  1
  O2-  O152  1  0.57101898  0.17779314  0.76707342  1
  O2-  O153  1  0.57285580  0.67656337  0.08884956  1
  O2-  O154  1  0.57244844  0.67980608  0.43106102  1
  O2-  O155  1  0.57261825  0.68635212  0.76613747  1
  O2-  O156  1  0.17836703  0.42482727  0.24191257  1
  O2-  O157  1  0.17972563  0.42958797  0.56683331  1
  O2-  O158  1  0.18109085  0.42867748  0.90152104  1
  O2-  O159  1  0.17489015  0.93223611  0.23444467  1
  O2-  O160  1  0.17232912  0.93143900  0.58045775  1
  O2-  O161  1  0.17991150  0.92907339  0.90661733  1
  O2-  O162  1  0.68132755  0.42811259  0.23288740  1
  O2-  O163  1  0.68064824  0.42545374  0.57060338  1
  O2-  O164  1  0.67776025  0.42977148  0.90988928  1
  O2-  O165  1  0.67964084  0.93033251  0.24534534  1
  O2-  O166  1  0.68181692  0.93452223  0.57525256  1
  O2-  O167  1  0.67741020  0.93100438  0.90199613  1
  O2-  O168  1  0.42858265  0.32030382  0.09873607  1
  O2-  O169  1  0.42652415  0.31804397  0.43159016  1
  O2-  O170  1  0.42507244  0.31480590  0.76506292  1
  O2-  O171  1  0.42677504  0.82231999  0.09961910  1
  O2-  O172  1  0.43215240  0.81866907  0.43113778  1
  O2-  O173  1  0.43083411  0.82451381  0.76524667  1
  O2-  O174  1  0.92786126  0.32339674  0.08838409  1
  O2-  O175  1  0.92885128  0.31697239  0.42308667  1
  O2-  O176  1  0.93120870  0.31727538  0.75734492  1
  O2-  O177  1  0.93279683  0.81760453  0.09993147  1
  O2-  O178  1  0.93129145  0.83385446  0.42150307  1
  O2-  O179  1  0.93124069  0.82779732  0.75517970  1
  O2-  O180  1  0.31685653  0.07524224  0.23581646  1
  O2-  O181  1  0.31700016  0.06980736  0.57910875  1
  O2-  O182  1  0.31883963  0.06996812  0.90782573  1
  O2-  O183  1  0.31726195  0.56857190  0.23197121  1
  O2-  O184  1  0.31819722  0.57771604  0.57860669  1
  O2-  O185  1  0.32124379  0.57457936  0.91078119  1
  O2-  O186  1  0.82423013  0.07070788  0.24462042  1
  O2-  O187  1  0.82813152  0.06998608  0.57632529  1
  O2-  O188  1  0.82217345  0.06928109  0.90124445  1
  O2-  O189  1  0.82372539  0.56827726  0.23329582  1
  O2-  O190  1  0.82267690  0.56694940  0.57060504  1
  O2-  O191  1  0.82278841  0.56997333  0.91109932  1
  O2-  O192  1  0.03831636  0.08705133  0.27294112  1
  O2-  O193  1  0.04169166  0.08602077  0.60058699  1
  O2-  O194  1  0.04009402  0.08384245  0.92880328  1
  O2-  O195  1  0.03810904  0.58128637  0.26170927  1
  O2-  O196  1  0.03793290  0.58012194  0.60146837  1
  O2-  O197  1  0.04477838  0.58036488  0.93895710  1
  O2-  O198  1  0.55191839  0.08366771  0.26987535  1
  O2-  O199  1  0.54046249  0.08622550  0.59668305  1
  O2-  O200  1  0.54573548  0.08649538  0.93941105  1
  O2-  O201  1  0.54376732  0.58032998  0.26496511  1
  O2-  O202  1  0.55054936  0.57923809  0.60283944  1
  O2-  O203  1  0.54413784  0.58734462  0.93445356  1
  O2-  O204  1  0.16124548  0.20305990  0.27239954  1
  O2-  O205  1  0.16330707  0.20401451  0.60225763  1
  O2-  O206  1  0.16403576  0.21093226  0.92897208  1
  O2-  O207  1  0.16473636  0.70811697  0.26210017  1
  O2-  O208  1  0.16187430  0.71071718  0.59992223  1
  O2-  O209  1  0.16491552  0.70024930  0.93525724  1
  O2-  O210  1  0.66904772  0.20402553  0.26721185  1
  O2-  O211  1  0.67598876  0.19979574  0.60273815  1
  O2-  O212  1  0.66926126  0.20136028  0.94231913  1
  O2-  O213  1  0.67375429  0.70644654  0.26789944  1
  O2-  O214  1  0.66904291  0.71371024  0.59932124  1
  O2-  O215  1  0.66790634  0.70053191  0.93870548  1
  O2-  O216  1  0.08262551  0.45451132  0.06927166  1
  O2-  O217  1  0.08195302  0.44950670  0.39054818  1
  O2-  O218  1  0.08599294  0.45936223  0.73661221  1
  O2-  O219  1  0.08933791  0.95801187  0.05891051  1
  O2-  O220  1  0.08368351  0.96317226  0.40516480  1
  O2-  O221  1  0.08695337  0.96167421  0.73340364  1
  O2-  O222  1  0.58439950  0.45923666  0.06026368  1
  O2-  O223  1  0.57746246  0.45178663  0.39763105  1
  O2-  O224  1  0.57613398  0.45350784  0.73598245  1
  O2-  O225  1  0.58042568  0.95935979  0.07097090  1
  O2-  O226  1  0.58850694  0.95808628  0.39894351  1
  O2-  O227  1  0.58737684  0.96336819  0.72686540  1
  O2-  O228  1  0.21093030  0.33046258  0.06695284  1
  O2-  O229  1  0.20041913  0.33186981  0.39379664  1
  O2-  O230  1  0.20916467  0.32969660  0.73279069  1
  O2-  O231  1  0.20277060  0.83248650  0.05670895  1
  O2-  O232  1  0.20111886  0.82773870  0.39982858  1
  O2-  O233  1  0.19998199  0.83555619  0.73250637  1
  O2-  O234  1  0.70304493  0.33844859  0.06321490  1
  O2-  O235  1  0.71178237  0.33257973  0.40004918  1
  O2-  O236  1  0.71154515  0.33125957  0.73703375  1
  O2-  O237  1  0.70724560  0.82978870  0.06853115  1
  O2-  O238  1  0.70952552  0.83925256  0.39908727  1
  O2-  O239  1  0.70521555  0.84200624  0.72972035  1
  O2-  O240  1  0.45755146  0.41521369  0.26256112  1
  O2-  O241  1  0.44575735  0.42398260  0.60412038  1
  O2-  O242  1  0.45583601  0.41862588  0.93129765  1
  O2-  O243  1  0.45605827  0.92274761  0.26957255  1
  O2-  O244  1  0.45887843  0.91935436  0.59793601  1
  O2-  O245  1  0.45775358  0.92078817  0.93392426  1
  O2-  O246  1  0.95422208  0.40977955  0.26752241  1
  O2-  O247  1  0.96151568  0.41055271  0.60560935  1
  O2-  O248  1  0.95491035  0.41570914  0.93609734  1
  O2-  O249  1  0.95885240  0.91847218  0.26848436  1
  O2-  O250  1  0.95867503  0.91580552  0.60171949  1
  O2-  O251  1  0.96138952  0.91368138  0.93053966  1
  O2-  O252  1  0.33140186  0.28578061  0.26543182  1
  O2-  O253  1  0.33197981  0.28471477  0.59760188  1
  O2-  O254  1  0.33475698  0.28531377  0.93168697  1
  O2-  O255  1  0.32995493  0.79334419  0.26737721  1
  O2-  O256  1  0.32504381  0.80266890  0.60353740  1
  O2-  O257  1  0.33363631  0.79114392  0.93025402  1
  O2-  O258  1  0.83758002  0.28880673  0.26963708  1
  O2-  O259  1  0.84044516  0.29098001  0.60319521  1
  O2-  O260  1  0.83154490  0.29970406  0.93801285  1
  O2-  O261  1  0.83443910  0.80481253  0.27137967  1
  O2-  O262  1  0.83190376  0.80644239  0.60653770  1
  O2-  O263  1  0.83240255  0.79036247  0.93311132  1
  O2-  O264  1  0.41309450  0.04946836  0.06092687  1
  O2-  O265  1  0.42432442  0.05290696  0.40122943  1
  O2-  O266  1  0.41344246  0.04340826  0.72965803  1
  O2-  O267  1  0.41638761  0.54735556  0.06117106  1
  O2-  O268  1  0.41474901  0.53866568  0.39949384  1
  O2-  O269  1  0.41694381  0.55731761  0.72897835  1
  O2-  O270  1  0.92190449  0.03972616  0.06659239  1
  O2-  O271  1  0.91196292  0.04302196  0.39976803  1
  O2-  O272  1  0.91634211  0.04176800  0.72912105  1
  O2-  O273  1  0.91253395  0.54100877  0.06398150  1
  O2-  O274  1  0.91814497  0.53417758  0.39949457  1
  O2-  O275  1  0.91606783  0.53774991  0.73884428  1
  O2-  O276  1  0.28556226  0.15950484  0.06040496  1
  O2-  O277  1  0.28506181  0.16620310  0.40596144  1
  O2-  O278  1  0.28818363  0.15890498  0.73235925  1
  O2-  O279  1  0.29456764  0.66622179  0.06255132  1
  O2-  O280  1  0.28744726  0.66481794  0.40033532  1
  O2-  O281  1  0.28902263  0.66761780  0.73128279  1
  O2-  O282  1  0.79906980  0.17074264  0.06913069  1
  O2-  O283  1  0.79504852  0.16301108  0.39723293  1
  O2-  O284  1  0.80218896  0.16428048  0.72943204  1
  O2-  O285  1  0.79616273  0.66249012  0.06348966  1
  O2-  O286  1  0.80752450  0.67533938  0.39784062  1
  O2-  O287  1  0.79651106  0.67393978  0.73373642  1
