# generated using pymatgen
data_Ca2Al2SiO7
_symmetry_space_group_name_H-M   'P 1'
_cell_length_a   15.46044055
_cell_length_b   15.46200934
_cell_length_c   15.28562278
_cell_angle_alpha   89.99258529
_cell_angle_beta   90.01209191
_cell_angle_gamma   89.98719573
_symmetry_Int_Tables_number   1
_chemical_formula_structural   Ca2Al2SiO7
_chemical_formula_sum   'Ca48 Al48 Si24 O168'
_cell_volume   3654.01991468
_cell_formula_units_Z   24
loop_
 _symmetry_equiv_pos_site_id
 _symmetry_equiv_pos_as_xyz
  1  'x, y, z'
loop_
 _atom_type_symbol
 _atom_type_oxidation_number
  Ca2+  2.0
  Al0+  0.0
  Si0+  0.0
  O2-  -2.0
loop_
 _atom_site_type_symbol
 _atom_site_label
 _atom_site_symmetry_multiplicity
 _atom_site_fract_x
 _atom_site_fract_y
 _atom_site_fract_z
 _atom_site_occupancy
  Ca2+  Ca0  1  0.15961865  0.08302626  0.16830843  1
  Ca2+  Ca1  1  0.17038262  0.08997309  0.50917672  1
  Ca2+  Ca2  1  0.16873545  0.08172919  0.83756384  1
  Ca2+  Ca3  1  0.16843160  0.59359920  0.17008472  1
  Ca2+  Ca4  1  0.16732422  0.58413436  0.50509787  1
  Ca2+  Ca5  1  0.17875226  0.59164035  0.84070883  1
  Ca2+  Ca6  1  0.66792066  0.07771768  0.17694780  1
  Ca2+  Ca7  1  0.67767235  0.07901028  0.50645349  1
  Ca2+  Ca8  1  0.66423822  0.07453268  0.83660166  1
  Ca2+  Ca9  1  0.66639808  0.56722132  0.17259491  1
  Ca2+  Ca10  1  0.66057480  0.57558189  0.50480599  1
  Ca2+  Ca11  1  0.66378346  0.57949333  0.83877966  1
  Ca2+  Ca12  1  0.07662469  0.32268734  0.16371441  1
  Ca2+  Ca13  1  0.07635737  0.32214699  0.49272346  1
  Ca2+  Ca14  1  0.08457203  0.32182244  0.82866339  1
  Ca2+  Ca15  1  0.07708393  0.83076216  0.16229016  1
  Ca2+  Ca16  1  0.06694838  0.83330698  0.49454110  1
  Ca2+  Ca17  1  0.08021734  0.83484923  0.83115419  1
  Ca2+  Ca18  1  0.59611906  0.32218638  0.16435929  1
  Ca2+  Ca19  1  0.58784213  0.31955270  0.49462755  1
  Ca2+  Ca20  1  0.58845700  0.32215929  0.83129509  1
  Ca2+  Ca21  1  0.58387322  0.83989859  0.16173833  1
  Ca2+  Ca22  1  0.58135181  0.84068777  0.50055362  1
  Ca2+  Ca23  1  0.58105297  0.83168800  0.82030919  1
  Ca2+  Ca24  1  0.33293082  0.42353431  0.16833047  1
  Ca2+  Ca25  1  0.33089853  0.42303519  0.50826232  1
  Ca2+  Ca26  1  0.33616996  0.42958954  0.83666289  1
  Ca2+  Ca27  1  0.32374847  0.91707166  0.16665875  1
  Ca2+  Ca28  1  0.32931820  0.92081284  0.50886511  1
  Ca2+  Ca29  1  0.33169258  0.91976516  0.83453376  1
  Ca2+  Ca30  1  0.82751004  0.41103254  0.17307869  1
  Ca2+  Ca31  1  0.83223043  0.41208320  0.49717574  1
  Ca2+  Ca32  1  0.82699412  0.41956887  0.83849643  1
  Ca2+  Ca33  1  0.82353781  0.92160535  0.17590704  1
  Ca2+  Ca34  1  0.83168334  0.92267747  0.50602525  1
  Ca2+  Ca35  1  0.82520976  0.91728350  0.83250842  1
  Ca2+  Ca36  1  0.43125434  0.16675447  0.16202131  1
  Ca2+  Ca37  1  0.43094550  0.15382938  0.50041040  1
  Ca2+  Ca38  1  0.42817612  0.16107206  0.82640898  1
  Ca2+  Ca39  1  0.41662862  0.66790374  0.16173809  1
  Ca2+  Ca40  1  0.41910246  0.67009696  0.50488662  1
  Ca2+  Ca41  1  0.41903505  0.67100888  0.82439549  1
  Ca2+  Ca42  1  0.91822639  0.16496337  0.16826602  1
  Ca2+  Ca43  1  0.92229783  0.16130499  0.49271153  1
  Ca2+  Ca44  1  0.92690373  0.15707304  0.82880179  1
  Ca2+  Ca45  1  0.92557902  0.67071722  0.16448162  1
  Ca2+  Ca46  1  0.91562557  0.68142454  0.49286009  1
  Ca2+  Ca47  1  0.92150730  0.67442205  0.82680559  1
  Al0+  Al48  1  -0.00062549  0.00002496  0.00000290  1
  Al0+  Al49  1  -0.00059347  -0.00295413  0.32845142  1
  Al0+  Al50  1  0.00007363  -0.00071956  0.66240268  1
  Al0+  Al51  1  0.00238058  0.50085733  -0.00573467  1
  Al0+  Al52  1  0.00116240  0.49934548  0.32716288  1
  Al0+  Al53  1  -0.00112202  0.49722955  0.66919488  1
  Al0+  Al54  1  0.49888429  0.00080749  -0.00033117  1
  Al0+  Al55  1  0.49713799  -0.00100066  0.33050472  1
  Al0+  Al56  1  0.49830507  -0.00115428  0.66565255  1
  Al0+  Al57  1  0.49974491  0.50052460  0.00977439  1
  Al0+  Al58  1  0.49898753  0.50082661  0.33859949  1
  Al0+  Al59  1  0.49832514  0.49961796  0.66819471  1
  Al0+  Al60  1  0.25153531  0.25319957  -0.00350674  1
  Al0+  Al61  1  0.25137430  0.25271077  0.33048008  1
  Al0+  Al62  1  0.25063551  0.25064974  0.66916418  1
  Al0+  Al63  1  0.25026107  0.75230427  0.00479051  1
  Al0+  Al64  1  0.25278030  0.75194937  0.33307203  1
  Al0+  Al65  1  0.25105033  0.74925241  0.66648687  1
  Al0+  Al66  1  0.75074305  0.25026907  -0.00282734  1
  Al0+  Al67  1  0.75042605  0.24831721  0.33479667  1
  Al0+  Al68  1  0.75205477  0.24983783  0.66825856  1
  Al0+  Al69  1  0.75043290  0.75001501  0.00477072  1
  Al0+  Al70  1  0.74710116  0.74757158  0.33078420  1
  Al0+  Al71  1  0.75043557  0.74711682  0.66234524  1
  Al0+  Al72  1  0.67982851  0.92825781  0.68072393  1
  Al0+  Al73  1  0.67963125  0.42845054  0.34946779  1
  Al0+  Al74  1  0.82169711  0.06877042  0.34823512  1
  Al0+  Al75  1  0.92907070  0.81984426  0.65411387  1
  Al0+  Al76  1  0.07096537  0.17889426  0.98446063  1
  Al0+  Al77  1  0.31927386  0.57085643  0.68071820  1
  Al0+  Al78  1  0.67735734  0.92911250  0.01319157  1
  Al0+  Al79  1  0.07226403  0.68091355  0.98466066  1
  Al0+  Al80  1  0.82345153  0.07214984  0.68340815  1
  Al0+  Al81  1  0.42808729  0.82127919  0.65147021  1
  Al0+  Al82  1  0.56874483  0.17927146  0.32068161  1
  Al0+  Al83  1  0.68144646  0.42963270  0.01340356  1
  Al0+  Al84  1  0.07415516  0.17753866  0.31808006  1
  Al0+  Al85  1  0.07110582  0.18002254  0.65384662  1
  Al0+  Al86  1  0.57097924  0.17919564  0.98511457  1
  Al0+  Al87  1  0.92447744  0.82141448  0.31541923  1
  Al0+  Al88  1  0.67512212  0.92649719  0.34948458  1
  Al0+  Al89  1  0.32099882  0.07185644  0.68012646  1
  Al0+  Al90  1  0.31904777  0.57135372  0.01610904  1
  Al0+  Al91  1  0.92840984  0.31997051  0.31804836  1
  Al0+  Al92  1  0.57208119  0.17849457  0.65313994  1
  Al0+  Al93  1  0.07235924  0.68089065  0.31981461  1
  Al0+  Al94  1  0.57152368  0.67648039  0.65247371  1
  Al0+  Al95  1  0.17905614  0.93196207  0.01336220  1
  Si0+  Si96  1  0.32229518  0.07472866  0.01692337  1
  Si0+  Si97  1  0.43025502  0.82005959  0.31574745  1
  Si0+  Si98  1  0.82530659  0.57260101  0.01653503  1
  Si0+  Si99  1  0.17760956  0.92802067  0.68138868  1
  Si0+  Si100  1  0.17724435  0.42713631  0.01780716  1
  Si0+  Si101  1  0.18017225  0.92869339  0.34782832  1
  Si0+  Si102  1  0.31890730  0.07254567  0.34611604  1
  Si0+  Si103  1  0.42904943  0.32213093  0.65125530  1
  Si0+  Si104  1  0.42980359  0.82067824  0.98609090  1
  Si0+  Si105  1  0.82363083  0.57061278  0.34934918  1
  Si0+  Si106  1  0.07212162  0.67610982  0.65248493  1
  Si0+  Si107  1  0.92623981  0.82135689  0.98199727  1
  Si0+  Si108  1  0.42839556  0.32599853  0.31680886  1
  Si0+  Si109  1  0.92765673  0.32408633  0.65007497  1
  Si0+  Si110  1  0.42893760  0.32490928  0.98332907  1
  Si0+  Si111  1  0.17671430  0.42804979  0.68472331  1
  Si0+  Si112  1  0.67871565  0.42899087  0.68196439  1
  Si0+  Si113  1  0.57081624  0.67834545  0.98899593  1
  Si0+  Si114  1  0.17867438  0.42912325  0.34801555  1
  Si0+  Si115  1  0.92778832  0.32273941  0.98086923  1
  Si0+  Si116  1  0.32014756  0.57288592  0.35129395  1
  Si0+  Si117  1  0.82162690  0.07125844  0.01631245  1
  Si0+  Si118  1  0.82186660  0.57112382  0.68102178  1
  Si0+  Si119  1  0.56930011  0.67509654  0.31687934  1
  O2-  O120  1  0.24940187  0.01086041  0.06154798  1
  O2-  O121  1  0.24236487  0.00784691  0.38886869  1
  O2-  O122  1  0.24591923  -0.00287502  0.72571669  1
  O2-  O123  1  0.24258425  0.49858766  0.06347314  1
  O2-  O124  1  0.24796940  0.50200051  0.39123327  1
  O2-  O125  1  0.24211213  0.49978425  0.72897321  1
  O2-  O126  1  0.75017521  0.00512322  0.05963989  1
  O2-  O127  1  0.75080410  -0.00488943  0.39782974  1
  O2-  O128  1  0.74875148  0.00229488  0.73290105  1
  O2-  O129  1  0.75800193  0.50253079  0.06047541  1
  O2-  O130  1  0.75454627  0.50323482  0.39598448  1
  O2-  O131  1  0.74926345  0.50132201  0.72316358  1
  O2-  O132  1  -0.00085852  0.24658833  0.26850253  1
  O2-  O133  1  -0.00543604  0.25289566  0.60820826  1
  O2-  O134  1  -0.00291892  0.25441916  0.93726068  1
  O2-  O135  1  -0.00098800  0.75000455  0.26797536  1
  O2-  O136  1  0.00360568  0.74365815  0.60827695  1
  O2-  O137  1  -0.00486374  0.75237573  0.93762527  1
  O2-  O138  1  0.49704284  0.25737672  0.27322746  1
  O2-  O139  1  0.49557362  0.25229546  0.60641155  1
  O2-  O140  1  0.49537067  0.25426269  0.93933284  1
  O2-  O141  1  0.50419087  0.75156955  0.27424359  1
  O2-  O142  1  0.50345227  0.75211355  0.60152528  1
  O2-  O143  1  0.50513034  0.75332307  0.94564065  1
  O2-  O144  1  0.06938119  0.18046451  0.09708939  1
  O2-  O145  1  0.07838580  0.18218072  0.43153837  1
  O2-  O146  1  0.07162235  0.18159733  0.76715945  1
  O2-  O147  1  0.07132534  0.68350129  0.09742687  1
  O2-  O148  1  0.07352636  0.68271993  0.43375412  1
  O2-  O149  1  0.07148902  0.67715727  0.75809913  1
  O2-  O150  1  0.57004385  0.17958592  0.09836057  1
  O2-  O151  1  0.56602584  0.17892000  0.43356943  1
  O2-  O152  1  0.57124743  0.18116208  0.76645071  1
  O2-  O153  1  0.56751711  0.67783911  0.09422334  1
  O2-  O154  1  0.56429822  0.66984279  0.42127348  1
  O2-  O155  1  0.56887531  0.67404312  0.76680922  1
  O2-  O156  1  0.18196738  0.42781938  0.24315827  1
  O2-  O157  1  0.17714581  0.42868901  0.57886530  1
  O2-  O158  1  0.18016820  0.42649295  0.91228166  1
  O2-  O159  1  0.18496630  0.92535344  0.24274657  1
  O2-  O160  1  0.17865343  0.92788238  0.57551341  1
  O2-  O161  1  0.18187908  0.93117313  0.90025252  1
  O2-  O162  1  0.67910090  0.43048483  0.23628149  1
  O2-  O163  1  0.67893538  0.42898539  0.57693321  1
  O2-  O164  1  0.68095265  0.43281721  0.89985679  1
  O2-  O165  1  0.67349419  0.93156639  0.23530992  1
  O2-  O166  1  0.68164776  0.92949317  0.56766029  1
  O2-  O167  1  0.67662915  0.92640596  0.90057510  1
  O2-  O168  1  0.42797441  0.32459516  0.08901005  1
  O2-  O169  1  0.42695662  0.32805425  0.42220728  1
  O2-  O170  1  0.43188526  0.32473119  0.75684132  1
  O2-  O171  1  0.42941260  0.81973517  0.09170615  1
  O2-  O172  1  0.42593144  0.81923724  0.42024794  1
  O2-  O173  1  0.42614152  0.81866041  0.76548694  1
  O2-  O174  1  0.92723573  0.32295012  0.08615340  1
  O2-  O175  1  0.93276328  0.32239641  0.43164772  1
  O2-  O176  1  0.92952356  0.32998480  0.75543963  1
  O2-  O177  1  0.92608183  0.81973374  0.08723830  1
  O2-  O178  1  0.92744456  0.82035701  0.42924181  1
  O2-  O179  1  0.93025167  0.81738324  0.76747217  1
  O2-  O180  1  0.32095315  0.06955088  0.24092794  1
  O2-  O181  1  0.31869227  0.07125117  0.56643047  1
  O2-  O182  1  0.32434202  0.07108880  0.91151172  1
  O2-  O183  1  0.32110733  0.57302907  0.24610028  1
  O2-  O184  1  0.31749509  0.56826836  0.56728670  1
  O2-  O185  1  0.32087296  0.57081931  0.90325108  1
  O2-  O186  1  0.81841585  0.06984857  0.23411937  1
  O2-  O187  1  0.82444969  0.07194253  0.57029912  1
  O2-  O188  1  0.82275563  0.06887188  0.91078305  1
  O2-  O189  1  0.82140546  0.56889368  0.24360386  1
  O2-  O190  1  0.82539600  0.56867294  0.57630851  1
  O2-  O191  1  0.82278671  0.57330553  0.91053201  1
  O2-  O192  1  0.05001830  0.07784876  0.26716533  1
  O2-  O193  1  0.04525627  0.08292084  0.59968666  1
  O2-  O194  1  0.03986784  0.08179239  0.93137073  1
  O2-  O195  1  0.04886372  0.58172597  0.26613219  1
  O2-  O196  1  0.04751179  0.58094979  0.60881397  1
  O2-  O197  1  0.04805779  0.58249279  0.93035493  1
  O2-  O198  1  0.53245314  0.08488395  0.26500588  1
  O2-  O199  1  0.53905925  0.08315591  0.59960029  1
  O2-  O200  1  0.53692722  0.08314381  0.93159030  1
  O2-  O201  1  0.53407530  0.58590068  0.26770164  1
  O2-  O202  1  0.53658655  0.57989483  0.59840323  1
  O2-  O203  1  0.53890901  0.58733922  0.94264913  1
  O2-  O204  1  0.17156141  0.20982151  0.26377911  1
  O2-  O205  1  0.16785882  0.21333912  0.60108191  1
  O2-  O206  1  0.16934652  0.20898466  0.93243132  1
  O2-  O207  1  0.17102021  0.71203320  0.26773808  1
  O2-  O208  1  0.16587672  0.69981213  0.60695968  1
  O2-  O209  1  0.16885618  0.71606749  0.93304031  1
  O2-  O210  1  0.66535555  0.20930172  0.26785699  1
  O2-  O211  1  0.66853163  0.21216824  0.60099599  1
  O2-  O212  1  0.66710942  0.21081837  0.93108389  1
  O2-  O213  1  0.66312879  0.69333084  0.27035338  1
  O2-  O214  1  0.67153974  0.69461244  0.59986725  1
  O2-  O215  1  0.66549204  0.69932591  0.94418111  1
  O2-  O216  1  0.08157358  0.44955940  0.06038394  1
  O2-  O217  1  0.08657358  0.45577076  0.39518447  1
  O2-  O218  1  0.08204636  0.44887453  0.73111065  1
  O2-  O219  1  0.08141577  0.95870775  0.06739572  1
  O2-  O220  1  0.08510484  0.94684873  0.39113918  1
  O2-  O221  1  0.08483634  0.95358269  0.72785182  1
  O2-  O222  1  0.58691438  0.46143957  0.07061325  1
  O2-  O223  1  0.58296105  0.46131790  0.40308212  1
  O2-  O224  1  0.58708359  0.45644415  0.72937119  1
  O2-  O225  1  0.57955971  0.95829162  0.06633254  1
  O2-  O226  1  0.57540846  0.95675115  0.39915538  1
  O2-  O227  1  0.57944476  0.95345694  0.73119258  1
  O2-  O228  1  0.20684088  0.33488428  0.06515921  1
  O2-  O229  1  0.20952800  0.33865090  0.39723860  1
  O2-  O230  1  0.20682572  0.33681650  0.73270920  1
  O2-  O231  1  0.21561959  0.83886699  0.07050901  1
  O2-  O232  1  0.21804257  0.84121271  0.39737356  1
  O2-  O233  1  0.20351294  0.83441598  0.72747837  1
  O2-  O234  1  0.71223141  0.33236701  0.06613871  1
  O2-  O235  1  0.71007948  0.33248108  0.40346944  1
  O2-  O236  1  0.70858577  0.33872966  0.73093011  1
  O2-  O237  1  0.70615448  0.83189994  0.06820861  1
  O2-  O238  1  0.69432980  0.82312756  0.39551162  1
  O2-  O239  1  0.70832854  0.82761797  0.73096247  1
  O2-  O240  1  0.45332942  0.42004993  0.27088580  1
  O2-  O241  1  0.45518864  0.41470399  0.60341452  1
  O2-  O242  1  0.45862091  0.41861879  0.93929632  1
  O2-  O243  1  0.45384338  0.91172789  0.26599547  1
  O2-  O244  1  0.45205453  0.91969281  0.59705071  1
  O2-  O245  1  0.45239460  0.91372272  0.93940592  1
  O2-  O246  1  0.95737789  0.41735918  0.26275453  1
  O2-  O247  1  0.95528135  0.41655067  0.60126912  1
  O2-  O248  1  0.95194182  0.41683755  0.93416596  1
  O2-  O249  1  0.95425437  0.91795158  0.26062275  1
  O2-  O250  1  0.96209668  0.91389441  0.59746240  1
  O2-  O251  1  0.95323563  0.91458495  0.93705564  1
  O2-  O252  1  0.33547488  0.30103719  0.26896440  1
  O2-  O253  1  0.33398728  0.30018452  0.60682794  1
  O2-  O254  1  0.33467902  0.30479237  0.93614529  1
  O2-  O255  1  0.34058035  0.78758635  0.26618199  1
  O2-  O256  1  0.33077536  0.78909232  0.59652909  1
  O2-  O257  1  0.33962186  0.78880256  0.93943340  1
  O2-  O258  1  0.82978303  0.29273075  0.26546382  1
  O2-  O259  1  0.83320613  0.30189958  0.60543867  1
  O2-  O260  1  0.83473602  0.29765290  0.93356445  1
  O2-  O261  1  0.82611084  0.79177358  0.26271035  1
  O2-  O262  1  0.83505691  0.78689002  0.59777351  1
  O2-  O263  1  0.83250185  0.79339115  0.93651426  1
  O2-  O264  1  0.41309837  0.04288165  0.06533288  1
  O2-  O265  1  0.40761537  0.03685731  0.39419926  1
  O2-  O266  1  0.41606330  0.03937439  0.73538129  1
  O2-  O267  1  0.41368368  0.53900142  0.07389245  1
  O2-  O268  1  0.41054574  0.54319816  0.39973550  1
  O2-  O269  1  0.41482308  0.53715783  0.73586119  1
  O2-  O270  1  0.91405815  0.04391760  0.06333415  1
  O2-  O271  1  0.92244659  0.04181587  0.39843144  1
  O2-  O272  1  0.92156045  0.03874277  0.73486217  1
  O2-  O273  1  0.92042769  0.54832786  0.05980435  1
  O2-  O274  1  0.91784053  0.54491783  0.39435749  1
  O2-  O275  1  0.91259468  0.54164696  0.73157795  1
  O2-  O276  1  0.30300508  0.17122770  0.05936017  1
  O2-  O277  1  0.29888523  0.16694266  0.39195458  1
  O2-  O278  1  0.29298455  0.16873305  0.73538569  1
  O2-  O279  1  0.28939683  0.66759912  0.07132864  1
  O2-  O280  1  0.29313285  0.66511572  0.39809802  1
  O2-  O281  1  0.29121088  0.66795634  0.73542961  1
  O2-  O282  1  0.79899542  0.16672087  0.05906801  1
  O2-  O283  1  0.79412883  0.16716452  0.40109276  1
  O2-  O284  1  0.80066954  0.17284588  0.73514636  1
  O2-  O285  1  0.79925554  0.66493994  0.06437901  1
  O2-  O286  1  0.79732352  0.66445306  0.39397194  1
  O2-  O287  1  0.79566928  0.66188278  0.73042777  1
