# generated using pymatgen
data_Ca2Al2SiO7
_symmetry_space_group_name_H-M   'P 1'
_cell_length_a   15.45453510
_cell_length_b   15.45462393
_cell_length_c   15.28147400
_cell_angle_alpha   90.00315031
_cell_angle_beta   89.99976715
_cell_angle_gamma   89.99104528
_symmetry_Int_Tables_number   1
_chemical_formula_structural   Ca2Al2SiO7
_chemical_formula_sum   'Ca48 Al48 Si24 O168'
_cell_volume   3649.88875071
_cell_formula_units_Z   24
loop_
 _symmetry_equiv_pos_site_id
 _symmetry_equiv_pos_as_xyz
  1  'x, y, z'
loop_
 _atom_type_symbol
 _atom_type_oxidation_number
  Ca2+  2.0
  Al0+  0.0
  Si0+  0.0
  O2-  -2.0
loop_
 _atom_site_type_symbol
 _atom_site_label
 _atom_site_symmetry_multiplicity
 _atom_site_fract_x
 _atom_site_fract_y
 _atom_site_fract_z
 _atom_site_occupancy
  Ca2+  Ca0  1  0.16727447  0.08237175  0.17159481  1
  Ca2+  Ca1  1  0.16973116  0.07920088  0.50317215  1
  Ca2+  Ca2  1  0.18103267  0.09034658  0.83746492  1
  Ca2+  Ca3  1  0.16466016  0.57498600  0.17034978  1
  Ca2+  Ca4  1  0.17460401  0.57877244  0.51466580  1
  Ca2+  Ca5  1  0.16457441  0.57577277  0.82948063  1
  Ca2+  Ca6  1  0.67086163  0.07362726  0.17423446  1
  Ca2+  Ca7  1  0.66592288  0.07967368  0.50944005  1
  Ca2+  Ca8  1  0.67361344  0.08942524  0.83063819  1
  Ca2+  Ca9  1  0.67061761  0.58281921  0.17409386  1
  Ca2+  Ca10  1  0.66591686  0.58411388  0.50486660  1
  Ca2+  Ca11  1  0.65666659  0.56981574  0.83252839  1
  Ca2+  Ca12  1  0.08758319  0.32172284  0.16034879  1
  Ca2+  Ca13  1  0.08180602  0.33014595  0.49822808  1
  Ca2+  Ca14  1  0.08379284  0.33369949  0.82731761  1
  Ca2+  Ca15  1  0.07843951  0.83529337  0.16137445  1
  Ca2+  Ca16  1  0.08316517  0.83128555  0.49973230  1
  Ca2+  Ca17  1  0.07340014  0.82892951  0.82416332  1
  Ca2+  Ca18  1  0.57628701  0.33883602  0.16465187  1
  Ca2+  Ca19  1  0.57451607  0.33372337  0.50220328  1
  Ca2+  Ca20  1  0.57947134  0.33158280  0.81938623  1
  Ca2+  Ca21  1  0.58610627  0.83053563  0.16953781  1
  Ca2+  Ca22  1  0.57348848  0.82794648  0.49496110  1
  Ca2+  Ca23  1  0.57639144  0.82340217  0.82037916  1
  Ca2+  Ca24  1  0.32879886  0.41332060  0.16888777  1
  Ca2+  Ca25  1  0.33241893  0.41788138  0.51133054  1
  Ca2+  Ca26  1  0.32514009  0.41711015  0.83145337  1
  Ca2+  Ca27  1  0.32934414  0.92343111  0.17654049  1
  Ca2+  Ca28  1  0.33211181  0.91410464  0.50726401  1
  Ca2+  Ca29  1  0.34143175  0.92835549  0.83390716  1
  Ca2+  Ca30  1  0.82628252  0.42374143  0.17219284  1
  Ca2+  Ca31  1  0.82990164  0.42151768  0.51033969  1
  Ca2+  Ca32  1  0.82074928  0.40825987  0.83338957  1
  Ca2+  Ca33  1  0.83021703  0.91397549  0.17425450  1
  Ca2+  Ca34  1  0.82772563  0.92159029  0.50692778  1
  Ca2+  Ca35  1  0.83981724  0.91704299  0.83159515  1
  Ca2+  Ca36  1  0.41336680  0.17051811  0.16500410  1
  Ca2+  Ca37  1  0.41312366  0.17559450  0.50248098  1
  Ca2+  Ca38  1  0.42041686  0.16883916  0.82256590  1
  Ca2+  Ca39  1  0.41983157  0.67359686  0.16955885  1
  Ca2+  Ca40  1  0.42462716  0.66902813  0.49760200  1
  Ca2+  Ca41  1  0.41887777  0.67014259  0.81933401  1
  Ca2+  Ca42  1  0.93205895  0.16132995  0.16241003  1
  Ca2+  Ca43  1  0.91640478  0.17201892  0.50086139  1
  Ca2+  Ca44  1  0.92431745  0.16985107  0.82356233  1
  Ca2+  Ca45  1  0.91220404  0.67195190  0.16348570  1
  Ca2+  Ca46  1  0.92011772  0.66540480  0.50010538  1
  Ca2+  Ca47  1  0.92078693  0.67688034  0.82380985  1
  Al0+  Al48  1  0.00204273  0.00084144  -0.00973982  1
  Al0+  Al49  1  0.00183945  0.00012996  0.33417902  1
  Al0+  Al50  1  -0.00073622  0.00000781  0.66699144  1
  Al0+  Al51  1  -0.00087090  0.49962095  0.00585417  1
  Al0+  Al52  1  -0.00166818  0.49972883  0.33556758  1
  Al0+  Al53  1  -0.00117383  0.50005296  0.66406729  1
  Al0+  Al54  1  0.50109551  0.00151067  0.00589559  1
  Al0+  Al55  1  0.49949982  0.00199934  0.33394992  1
  Al0+  Al56  1  0.50087975  -0.00113668  0.66479934  1
  Al0+  Al57  1  0.49904479  0.50059723  0.00562389  1
  Al0+  Al58  1  0.49940163  0.50012591  0.32332493  1
  Al0+  Al59  1  0.49907253  0.50005179  0.66736361  1
  Al0+  Al60  1  0.25178419  0.25067965  0.00398588  1
  Al0+  Al61  1  0.24928951  0.24945889  0.32551107  1
  Al0+  Al62  1  0.24993590  0.24796792  0.67057788  1
  Al0+  Al63  1  0.25037543  0.75052531  -0.00051725  1
  Al0+  Al64  1  0.24953647  0.74959540  0.33146099  1
  Al0+  Al65  1  0.24809642  0.74937338  0.66634541  1
  Al0+  Al66  1  0.74989654  0.24887770  0.01024830  1
  Al0+  Al67  1  0.74945899  0.25149563  0.33146177  1
  Al0+  Al68  1  0.75188853  0.24867444  0.66599688  1
  Al0+  Al69  1  0.74916649  0.74982119  -0.00627681  1
  Al0+  Al70  1  0.75021144  0.74989882  0.33941249  1
  Al0+  Al71  1  0.75051092  0.75093906  0.66089471  1
  Al0+  Al72  1  0.67825343  0.93031139  0.34807243  1
  Al0+  Al73  1  0.32238868  0.07036084  0.01611851  1
  Al0+  Al74  1  0.06817411  0.17996958  0.32014211  1
  Al0+  Al75  1  0.68004019  0.43009247  0.67743044  1
  Al0+  Al76  1  0.67764125  0.42762156  0.01584494  1
  Al0+  Al77  1  0.17661880  0.42746706  0.67988619  1
  Al0+  Al78  1  0.32156321  0.06885380  0.67893362  1
  Al0+  Al79  1  0.92890112  0.32051782  0.65494442  1
  Al0+  Al80  1  0.17886282  0.43061296  0.01534758  1
  Al0+  Al81  1  0.92911893  0.82345545  0.64741168  1
  Al0+  Al82  1  0.57296260  0.17893433  0.65319165  1
  Al0+  Al83  1  0.57083118  0.67629651  0.65220860  1
  Al0+  Al84  1  0.42978892  0.31997859  0.31790468  1
  Al0+  Al85  1  0.42703041  0.32022676  0.65497639  1
  Al0+  Al86  1  0.07266652  0.18110282  0.98368455  1
  Al0+  Al87  1  0.07007679  0.67829469  0.65120113  1
  Al0+  Al88  1  0.82117433  0.07072012  0.68043071  1
  Al0+  Al89  1  0.42770803  0.82229161  0.65335003  1
  Al0+  Al90  1  0.82063985  0.57026195  0.34876478  1
  Al0+  Al91  1  0.57258570  0.68091537  0.31643867  1
  Al0+  Al92  1  0.17911461  0.92799207  0.34674310  1
  Al0+  Al93  1  0.32157416  0.57210431  0.68026440  1
  Al0+  Al94  1  0.92867949  0.81988663  0.98653800  1
  Al0+  Al95  1  0.42699098  0.82314753  0.31693534  1
  Si0+  Si96  1  0.17803954  0.92843853  0.01473080  1
  Si0+  Si97  1  0.67562339  0.42838007  0.35083422  1
  Si0+  Si98  1  0.67884806  0.92748096  0.68450225  1
  Si0+  Si99  1  0.17712783  0.92731917  0.68462680  1
  Si0+  Si100  1  0.07326473  0.67541973  0.98464840  1
  Si0+  Si101  1  0.57246102  0.17802786  0.98721080  1
  Si0+  Si102  1  0.42933289  0.82307788  0.98639088  1
  Si0+  Si103  1  0.82312950  0.07222750  0.34865020  1
  Si0+  Si104  1  0.57443219  0.17757069  0.31485521  1
  Si0+  Si105  1  0.68064111  0.92821884  0.01355546  1
  Si0+  Si106  1  0.56954660  0.67947093  0.98461284  1
  Si0+  Si107  1  0.92659610  0.32191012  0.98594305  1
  Si0+  Si108  1  0.82210404  0.57374177  0.68428352  1
  Si0+  Si109  1  0.32021757  0.56975053  0.34630961  1
  Si0+  Si110  1  0.07348583  0.17836623  0.65042103  1
  Si0+  Si111  1  0.93129303  0.81972141  0.31977370  1
  Si0+  Si112  1  0.32068447  0.07350262  0.35051318  1
  Si0+  Si113  1  0.32242145  0.57466282  0.01949104  1
  Si0+  Si114  1  0.43133979  0.32117431  0.98438651  1
  Si0+  Si115  1  0.81956819  0.57332711  0.01497689  1
  Si0+  Si116  1  0.82381243  0.06980829  0.01538650  1
  Si0+  Si117  1  0.17985153  0.42745625  0.34743994  1
  Si0+  Si118  1  0.07165356  0.67665470  0.31732289  1
  Si0+  Si119  1  0.92631813  0.32444171  0.31477681  1
  O2-  O120  1  0.24760900  -0.00522475  0.06117437  1
  O2-  O121  1  0.25768687  -0.00107613  0.39299705  1
  O2-  O122  1  0.24799737  -0.00603032  0.72849045  1
  O2-  O123  1  0.25121900  0.50775157  0.06307348  1
  O2-  O124  1  0.24932112  0.49918486  0.38909601  1
  O2-  O125  1  0.24910018  0.49966728  0.72954257  1
  O2-  O126  1  0.75406175  -0.00305837  0.05666561  1
  O2-  O127  1  0.74928695  0.00957895  0.39249578  1
  O2-  O128  1  0.74806032  -0.00464770  0.72988249  1
  O2-  O129  1  0.75308002  0.50289131  0.06024396  1
  O2-  O130  1  0.74652056  0.49458561  0.39414895  1
  O2-  O131  1  0.75211459  0.50615805  0.72815383  1
  O2-  O132  1  -0.00714571  0.25352891  0.27106375  1
  O2-  O133  1  0.00604281  0.24873613  0.60731941  1
  O2-  O134  1  -0.00303584  0.25623415  0.94001858  1
  O2-  O135  1  0.00133465  0.74868628  0.27510057  1
  O2-  O136  1  -0.00000731  0.75046672  0.59800310  1
  O2-  O137  1  0.00474390  0.74524575  0.94252642  1
  O2-  O138  1  0.50617590  0.24662504  0.27014358  1
  O2-  O139  1  0.49930400  0.24916821  0.60386729  1
  O2-  O140  1  0.50516118  0.25207449  0.94435692  1
  O2-  O141  1  0.50192620  0.75438993  0.26540985  1
  O2-  O142  1  0.49818801  0.74858588  0.60439518  1
  O2-  O143  1  0.49662396  0.74895720  0.94380996  1
  O2-  O144  1  0.06985510  0.17891058  0.09718073  1
  O2-  O145  1  0.06876084  0.18177141  0.43284036  1
  O2-  O146  1  0.07295845  0.17913857  0.75628167  1
  O2-  O147  1  0.07277510  0.67623780  0.09088086  1
  O2-  O148  1  0.07191396  0.67496748  0.42148247  1
  O2-  O149  1  0.06714215  0.67939309  0.76548434  1
  O2-  O150  1  0.57119339  0.17665062  0.09239464  1
  O2-  O151  1  0.57665460  0.17805407  0.41969238  1
  O2-  O152  1  0.57302508  0.18098961  0.76785477  1
  O2-  O153  1  0.57266365  0.68201787  0.08955178  1
  O2-  O154  1  0.56984863  0.67902666  0.42897865  1
  O2-  O155  1  0.56954616  0.67770188  0.76704699  1
  O2-  O156  1  0.18057337  0.42904401  0.24184212  1
  O2-  O157  1  0.17839046  0.42704136  0.56574896  1
  O2-  O158  1  0.17934830  0.43100652  0.90302085  1
  O2-  O159  1  0.17618424  0.93043612  0.23305374  1
  O2-  O160  1  0.17632399  0.92979993  0.57880190  1
  O2-  O161  1  0.17958628  0.92810687  0.90967251  1
  O2-  O162  1  0.67795202  0.42981607  0.24454407  1
  O2-  O163  1  0.68209819  0.42989808  0.56458260  1
  O2-  O164  1  0.67629604  0.42634181  0.90307874  1
  O2-  O165  1  0.68403638  0.93017430  0.23358218  1
  O2-  O166  1  0.67930605  0.92954840  0.57906938  1
  O2-  O167  1  0.67855805  0.92881615  0.90909209  1
  O2-  O168  1  0.43197662  0.31982244  0.08996298  1
  O2-  O169  1  0.42779988  0.32011895  0.43026443  1
  O2-  O170  1  0.42800797  0.31858746  0.76906521  1
  O2-  O171  1  0.43081772  0.82281019  0.09129472  1
  O2-  O172  1  0.42544929  0.81911674  0.42952594  1
  O2-  O173  1  0.43216224  0.82327052  0.76814269  1
  O2-  O174  1  0.92717550  0.31911338  0.09183584  1
  O2-  O175  1  0.92686709  0.32511852  0.42009833  1
  O2-  O176  1  0.92732809  0.31720956  0.76844047  1
  O2-  O177  1  0.92752667  0.81899873  0.10049060  1
  O2-  O178  1  0.93369209  0.82068560  0.42386096  1
  O2-  O179  1  0.93095935  0.82153854  0.76164127  1
  O2-  O180  1  0.31731319  0.07391724  0.24433234  1
  O2-  O181  1  0.31751626  0.07096764  0.56605175  1
  O2-  O182  1  0.32547862  0.06935097  0.90332071  1
  O2-  O183  1  0.31685321  0.56913494  0.24061860  1
  O2-  O184  1  0.32147734  0.57007257  0.56613841  1
  O2-  O185  1  0.32553356  0.57502313  0.91466196  1
  O2-  O186  1  0.82471802  0.06791702  0.24222345  1
  O2-  O187  1  0.81990385  0.07050122  0.56726098  1
  O2-  O188  1  0.82179581  0.07300389  0.91084660  1
  O2-  O189  1  0.82060077  0.56971156  0.23462894  1
  O2-  O190  1  0.82250563  0.57088279  0.57860142  1
  O2-  O191  1  0.81863874  0.57508077  0.91010427  1
  O2-  O192  1  0.03686384  0.08333820  0.26431606  1
  O2-  O193  1  0.04539044  0.08557048  0.60527911  1
  O2-  O194  1  0.04310485  0.08566110  0.92784637  1
  O2-  O195  1  0.04133083  0.58506845  0.26920931  1
  O2-  O196  1  0.04192719  0.58074002  0.59669920  1
  O2-  O197  1  0.04637901  0.58156580  0.94048859  1
  O2-  O198  1  0.54821615  0.08439244  0.26768347  1
  O2-  O199  1  0.54608927  0.08063394  0.60119704  1
  O2-  O200  1  0.54301731  0.08661850  0.93996746  1
  O2-  O201  1  0.54251739  0.58405342  0.26022127  1
  O2-  O202  1  0.54329024  0.57895542  0.59839475  1
  O2-  O203  1  0.54135512  0.58610086  0.94078995  1
  O2-  O204  1  0.16276723  0.21169058  0.26235259  1
  O2-  O205  1  0.16654020  0.20253107  0.60396452  1
  O2-  O206  1  0.17034416  0.21317042  0.93333899  1
  O2-  O207  1  0.16257904  0.70320349  0.26764336  1
  O2-  O208  1  0.16851199  0.70504309  0.59834567  1
  O2-  O209  1  0.16760025  0.69946223  0.93935763  1
  O2-  O210  1  0.66886423  0.20111194  0.26707051  1
  O2-  O211  1  0.66975664  0.20754083  0.59887048  1
  O2-  O212  1  0.66726894  0.20244207  0.94422889  1
  O2-  O213  1  0.67203501  0.71126646  0.26459011  1
  O2-  O214  1  0.66902383  0.70362321  0.60013771  1
  O2-  O215  1  0.65982967  0.70757221  0.93509357  1
  O2-  O216  1  0.08150357  0.45741512  0.07224835  1
  O2-  O217  1  0.08645846  0.45246598  0.39202997  1
  O2-  O218  1  0.07844153  0.45726237  0.73353086  1
  O2-  O219  1  0.08394719  0.95671837  0.05939009  1
  O2-  O220  1  0.08441856  0.96257600  0.40204390  1
  O2-  O221  1  0.08416552  0.95510974  0.73079023  1
  O2-  O222  1  0.58220368  0.46081838  0.07127402  1
  O2-  O223  1  0.58112480  0.45606428  0.39238208  1
  O2-  O224  1  0.58381638  0.45872476  0.73381578  1
  O2-  O225  1  0.59132725  0.95895756  0.06458777  1
  O2-  O226  1  0.58029929  0.95817101  0.40018868  1
  O2-  O227  1  0.58577440  0.95328807  0.73133239  1
  O2-  O228  1  0.21441902  0.33592240  0.07079100  1
  O2-  O229  1  0.20896985  0.33536572  0.39205843  1
  O2-  O230  1  0.20491707  0.33000412  0.73475431  1
  O2-  O231  1  0.19954840  0.83311780  0.06069434  1
  O2-  O232  1  0.20504891  0.82931076  0.39888212  1
  O2-  O233  1  0.19797606  0.83280945  0.73009660  1
  O2-  O234  1  0.70713914  0.33214782  0.07417190  1
  O2-  O235  1  0.69778542  0.33244093  0.39316152  1
  O2-  O236  1  0.71398808  0.33469154  0.73260708  1
  O2-  O237  1  0.70795377  0.83555081  0.06027750  1
  O2-  O238  1  0.71158663  0.83599773  0.40258928  1
  O2-  O239  1  0.70530037  0.83335730  0.72995265  1
  O2-  O240  1  0.45889598  0.41503478  0.25886122  1
  O2-  O241  1  0.45522277  0.41773211  0.60205317  1
  O2-  O242  1  0.45672512  0.41522013  0.94087486  1
  O2-  O243  1  0.45266216  0.92376442  0.26616984  1
  O2-  O244  1  0.45768955  0.91852754  0.59815833  1
  O2-  O245  1  0.46173259  0.91448578  0.94091525  1
  O2-  O246  1  0.95447859  0.41728301  0.26773681  1
  O2-  O247  1  0.95499507  0.41697319  0.59946631  1
  O2-  O248  1  0.94792671  0.41785904  0.94358178  1
  O2-  O249  1  0.95910004  0.91131750  0.27104845  1
  O2-  O250  1  0.95787130  0.92220248  0.59597188  1
  O2-  O251  1  0.95846367  0.91539115  0.93057600  1
  O2-  O252  1  0.33484566  0.28708561  0.26043665  1
  O2-  O253  1  0.32952849  0.28964913  0.60120251  1
  O2-  O254  1  0.33979208  0.29147938  0.93954400  1
  O2-  O255  1  0.32973291  0.79040459  0.26156430  1
  O2-  O256  1  0.32780264  0.79881683  0.60359354  1
  O2-  O257  1  0.33558881  0.80028952  0.94055858  1
  O2-  O258  1  0.83123962  0.30242408  0.26921019  1
  O2-  O259  1  0.83612535  0.28541026  0.59716906  1
  O2-  O260  1  0.83211163  0.29305820  0.94320679  1
  O2-  O261  1  0.83931734  0.79093198  0.27318558  1
  O2-  O262  1  0.83013047  0.79801813  0.59618917  1
  O2-  O263  1  0.83293716  0.78987104  0.92997776  1
  O2-  O264  1  0.41850197  0.04026545  0.07282637  1
  O2-  O265  1  0.41724651  0.05741411  0.39238696  1
  O2-  O266  1  0.41870119  0.03903229  0.73408019  1
  O2-  O267  1  0.41409263  0.54586800  0.06845167  1
  O2-  O268  1  0.41336864  0.54115576  0.38904211  1
  O2-  O269  1  0.41873213  0.54401469  0.73585148  1
  O2-  O270  1  0.91667401  0.04081104  0.06028616  1
  O2-  O271  1  0.91418696  0.04216796  0.39580709  1
  O2-  O272  1  0.91786376  0.04067111  0.73581735  1
  O2-  O273  1  0.91344864  0.55135954  0.06324415  1
  O2-  O274  1  0.91756647  0.53975968  0.40291922  1
  O2-  O275  1  0.91510156  0.54728265  0.73021598  1
  O2-  O276  1  0.29099988  0.16638967  0.07034101  1
  O2-  O277  1  0.28690661  0.16537847  0.39475315  1
  O2-  O278  1  0.29001488  0.16371840  0.73659485  1
  O2-  O279  1  0.29849192  0.66951760  0.06540429  1
  O2-  O280  1  0.29282050  0.66148497  0.39239594  1
  O2-  O281  1  0.29231882  0.67000007  0.73510434  1
  O2-  O282  1  0.79578443  0.15917622  0.06790874  1
  O2-  O283  1  0.80337533  0.16937118  0.38975052  1
  O2-  O284  1  0.78930818  0.16552591  0.73734237  1
  O2-  O285  1  0.78971040  0.66622418  0.06213331  1
  O2-  O286  1  0.79238050  0.66617840  0.40346648  1
  O2-  O287  1  0.79856183  0.66911586  0.72767419  1
