# generated using pymatgen
data_Ca2Al2SiO7
_symmetry_space_group_name_H-M   'P 1'
_cell_length_a   15.46135886
_cell_length_b   15.46016173
_cell_length_c   15.28578212
_cell_angle_alpha   89.99263612
_cell_angle_beta   89.97971730
_cell_angle_gamma   89.99952997
_symmetry_Int_Tables_number   1
_chemical_formula_structural   Ca2Al2SiO7
_chemical_formula_sum   'Ca48 Al48 Si24 O168'
_cell_volume   3653.83832962
_cell_formula_units_Z   24
loop_
 _symmetry_equiv_pos_site_id
 _symmetry_equiv_pos_as_xyz
  1  'x, y, z'
loop_
 _atom_type_symbol
 _atom_type_oxidation_number
  Ca2+  2.0
  Al0+  0.0
  Si0+  0.0
  O2-  -2.0
loop_
 _atom_site_type_symbol
 _atom_site_label
 _atom_site_symmetry_multiplicity
 _atom_site_fract_x
 _atom_site_fract_y
 _atom_site_fract_z
 _atom_site_occupancy
  Ca2+  Ca0  1  0.16749794  0.09054048  0.17372443  1
  Ca2+  Ca1  1  0.17356349  0.09358510  0.50308472  1
  Ca2+  Ca2  1  0.16766438  0.09566575  0.83494580  1
  Ca2+  Ca3  1  0.16566159  0.57612447  0.17271663  1
  Ca2+  Ca4  1  0.17126285  0.58816807  0.50429956  1
  Ca2+  Ca5  1  0.17259554  0.57434022  0.83800264  1
  Ca2+  Ca6  1  0.68486497  0.08702478  0.16853789  1
  Ca2+  Ca7  1  0.67272491  0.08033542  0.50570576  1
  Ca2+  Ca8  1  0.66905730  0.08115132  0.83393684  1
  Ca2+  Ca9  1  0.67737997  0.57573753  0.16574780  1
  Ca2+  Ca10  1  0.68009137  0.58054518  0.50439430  1
  Ca2+  Ca11  1  0.67755395  0.57554953  0.83934181  1
  Ca2+  Ca12  1  0.07578320  0.32600016  0.16129719  1
  Ca2+  Ca13  1  0.07501725  0.32616173  0.49829178  1
  Ca2+  Ca14  1  0.07683552  0.32916675  0.83234939  1
  Ca2+  Ca15  1  0.07317487  0.82541690  0.16715403  1
  Ca2+  Ca16  1  0.07740089  0.82492025  0.49096910  1
  Ca2+  Ca17  1  0.07560116  0.83179977  0.83353873  1
  Ca2+  Ca18  1  0.57545539  0.34130151  0.15972965  1
  Ca2+  Ca19  1  0.58283153  0.32734286  0.50050515  1
  Ca2+  Ca20  1  0.58228248  0.33196037  0.83209668  1
  Ca2+  Ca21  1  0.58240870  0.83017937  0.16361895  1
  Ca2+  Ca22  1  0.57931806  0.83931588  0.50227706  1
  Ca2+  Ca23  1  0.57996385  0.83458571  0.82274909  1
  Ca2+  Ca24  1  0.32394569  0.41346944  0.17028834  1
  Ca2+  Ca25  1  0.33015730  0.42948242  0.50498974  1
  Ca2+  Ca26  1  0.32872630  0.41444548  0.84165743  1
  Ca2+  Ca27  1  0.32666511  0.92490565  0.17494522  1
  Ca2+  Ca28  1  0.33014657  0.92466452  0.50799049  1
  Ca2+  Ca29  1  0.33356888  0.92218303  0.83132645  1
  Ca2+  Ca30  1  0.84028829  0.41978664  0.17017027  1
  Ca2+  Ca31  1  0.84874456  0.42486094  0.50259020  1
  Ca2+  Ca32  1  0.83791377  0.42238731  0.84178142  1
  Ca2+  Ca33  1  0.84645007  0.92617936  0.16850172  1
  Ca2+  Ca34  1  0.83390268  0.92174528  0.50204192  1
  Ca2+  Ca35  1  0.82959430  0.92107459  0.84082670  1
  Ca2+  Ca36  1  0.41827777  0.17058758  0.16097845  1
  Ca2+  Ca37  1  0.42177334  0.15501452  0.49925912  1
  Ca2+  Ca38  1  0.42114239  0.17214743  0.82567098  1
  Ca2+  Ca39  1  0.41693221  0.66178468  0.16430469  1
  Ca2+  Ca40  1  0.40978288  0.67103621  0.49539007  1
  Ca2+  Ca41  1  0.41798213  0.67218966  0.82308964  1
  Ca2+  Ca42  1  0.92178918  0.17128486  0.15710485  1
  Ca2+  Ca43  1  0.92403684  0.17446439  0.48809352  1
  Ca2+  Ca44  1  0.92138302  0.17729519  0.82651445  1
  Ca2+  Ca45  1  0.90601538  0.67438899  0.16500661  1
  Ca2+  Ca46  1  0.91717173  0.66906444  0.48951927  1
  Ca2+  Ca47  1  0.90811864  0.66731032  0.83079383  1
  Al0+  Al48  1  0.00220785  -0.00382866  -0.00564504  1
  Al0+  Al49  1  0.00106838  -0.00187397  0.33327343  1
  Al0+  Al50  1  0.00165917  -0.00064514  0.66277628  1
  Al0+  Al51  1  0.00407473  0.50086599  0.00642150  1
  Al0+  Al52  1  0.00108934  0.49802201  0.33192466  1
  Al0+  Al53  1  0.00232448  0.50152281  0.66905105  1
  Al0+  Al54  1  0.49922413  -0.00076874  0.00145854  1
  Al0+  Al55  1  0.49900206  -0.00044747  0.33312779  1
  Al0+  Al56  1  0.49857072  -0.00037094  0.66731075  1
  Al0+  Al57  1  0.50206976  0.50198585  -0.00305280  1
  Al0+  Al58  1  0.49926881  0.50015188  0.33879994  1
  Al0+  Al59  1  0.50305984  0.50198892  0.66900857  1
  Al0+  Al60  1  0.25254471  0.25202711  -0.00233329  1
  Al0+  Al61  1  0.25157454  0.25132244  0.33775061  1
  Al0+  Al62  1  0.24990968  0.25216296  0.66697673  1
  Al0+  Al63  1  0.24979511  0.75267025  -0.00028001  1
  Al0+  Al64  1  0.24956498  0.75155469  0.33053482  1
  Al0+  Al65  1  0.25004013  0.75225348  0.66850277  1
  Al0+  Al66  1  0.74829854  0.24884149  0.00323245  1
  Al0+  Al67  1  0.74767503  0.24818655  0.33459591  1
  Al0+  Al68  1  0.74836580  0.25199638  0.65752355  1
  Al0+  Al69  1  0.74772596  0.74937614  -0.00127285  1
  Al0+  Al70  1  0.74559990  0.74783357  0.33264331  1
  Al0+  Al71  1  0.74795812  0.74987330  0.67314329  1
  Al0+  Al72  1  0.82262309  0.07001980  0.34690778  1
  Al0+  Al73  1  0.92512380  0.81914667  0.31935023  1
  Al0+  Al74  1  0.82213663  0.06901177  0.00989809  1
  Al0+  Al75  1  0.42902376  0.81946909  0.65205174  1
  Al0+  Al76  1  0.31896979  0.07119964  0.68188639  1
  Al0+  Al77  1  0.56893449  0.17900817  0.65262091  1
  Al0+  Al78  1  0.92725769  0.32242281  0.98560341  1
  Al0+  Al79  1  0.92870348  0.81805245  0.98439221  1
  Al0+  Al80  1  0.07188551  0.17794394  0.64977157  1
  Al0+  Al81  1  0.68043746  0.93146319  0.67942951  1
  Al0+  Al82  1  0.32041524  0.07164746  0.34699577  1
  Al0+  Al83  1  0.07324179  0.17930049  0.31866972  1
  Al0+  Al84  1  0.07181917  0.17793085  0.98463916  1
  Al0+  Al85  1  0.92670357  0.31980114  0.31649743  1
  Al0+  Al86  1  0.18133373  0.42817721  0.01493897  1
  Al0+  Al87  1  0.82202075  0.56910313  0.68023926  1
  Al0+  Al88  1  0.82248031  0.57068822  0.01635084  1
  Al0+  Al89  1  0.43099802  0.32134623  0.98742137  1
  Al0+  Al90  1  0.32223481  0.57348728  0.68079753  1
  Al0+  Al91  1  0.82022935  0.56918968  0.34700418  1
  Al0+  Al92  1  0.32007971  0.57100279  0.34600587  1
  Al0+  Al93  1  0.92872718  0.32318530  0.65158510  1
  Al0+  Al94  1  0.07279968  0.67762658  0.31852491  1
  Al0+  Al95  1  0.67827209  0.42715164  0.01421676  1
  Si0+  Si96  1  0.32066156  0.07037546  0.01435994  1
  Si0+  Si97  1  0.67592901  0.92771617  0.01715990  1
  Si0+  Si98  1  0.67764643  0.42565364  0.68317816  1
  Si0+  Si99  1  0.32221839  0.57435080  0.01498987  1
  Si0+  Si100  1  0.42946706  0.82168461  0.31707564  1
  Si0+  Si101  1  0.67564689  0.42735837  0.35212853  1
  Si0+  Si102  1  0.17632244  0.92722804  0.68506024  1
  Si0+  Si103  1  0.82376643  0.07368255  0.68079853  1
  Si0+  Si104  1  0.17855520  0.92777450  0.35036606  1
  Si0+  Si105  1  0.56861190  0.67668873  0.31783281  1
  Si0+  Si106  1  0.56935598  0.17601403  0.31684888  1
  Si0+  Si107  1  0.17796357  0.42751617  0.35279607  1
  Si0+  Si108  1  0.92551651  0.82016871  0.65265922  1
  Si0+  Si109  1  0.42805149  0.82244845  0.98462424  1
  Si0+  Si110  1  0.07025650  0.68116441  0.65437490  1
  Si0+  Si111  1  0.42779911  0.32525515  0.64941573  1
  Si0+  Si112  1  0.57298561  0.67835520  0.64838041  1
  Si0+  Si113  1  0.57178423  0.17506317  0.98418955  1
  Si0+  Si114  1  0.17948056  0.92706918  0.01626986  1
  Si0+  Si115  1  0.56963982  0.68049025  0.98289530  1
  Si0+  Si116  1  0.07518354  0.67808219  0.98230761  1
  Si0+  Si117  1  0.67611071  0.92761812  0.34875957  1
  Si0+  Si118  1  0.43187842  0.32236231  0.32093481  1
  Si0+  Si119  1  0.18036537  0.43015841  0.68470396  1
  O2-  O120  1  0.24689556  0.00267232  0.05700713  1
  O2-  O121  1  0.24315419  0.00036208  0.39429321  1
  O2-  O122  1  0.23969107  0.00142638  0.72920851  1
  O2-  O123  1  0.25528926  0.50545920  0.06008749  1
  O2-  O124  1  0.24212781  0.50206812  0.39539804  1
  O2-  O125  1  0.25384418  0.49474001  0.72869187  1
  O2-  O126  1  0.74668217  -0.00551937  0.05927599  1
  O2-  O127  1  0.74896792  -0.00771202  0.39152054  1
  O2-  O128  1  0.75618906  0.00436857  0.72644066  1
  O2-  O129  1  0.75653793  0.49185085  0.06518821  1
  O2-  O130  1  0.75080725  0.48968170  0.39494008  1
  O2-  O131  1  0.75056239  0.49073190  0.72526175  1
  O2-  O132  1  -0.00326512  0.24517396  0.26763751  1
  O2-  O133  1  -0.00536618  0.24515997  0.60185925  1
  O2-  O134  1  -0.00288367  0.24787987  0.93577758  1
  O2-  O135  1  -0.00540420  0.74385427  0.26965007  1
  O2-  O136  1  -0.00267094  0.74979121  0.61157526  1
  O2-  O137  1  0.00005236  0.73969324  0.93750962  1
  O2-  O138  1  0.50076042  0.25022274  0.27665508  1
  O2-  O139  1  0.49380338  0.25397751  0.60493529  1
  O2-  O140  1  0.50623327  0.24725775  0.94115128  1
  O2-  O141  1  0.49782273  0.74837985  0.27469761  1
  O2-  O142  1  0.50043671  0.74255590  0.60304822  1
  O2-  O143  1  0.49822451  0.75175505  0.94183183  1
  O2-  O144  1  0.07329954  0.17814211  0.09800762  1
  O2-  O145  1  0.07454124  0.18353777  0.43192270  1
  O2-  O146  1  0.07135404  0.18068618  0.76321475  1
  O2-  O147  1  0.08267757  0.68412757  0.08700687  1
  O2-  O148  1  0.07505263  0.68270790  0.43284228  1
  O2-  O149  1  0.07075725  0.68224313  0.75943153  1
  O2-  O150  1  0.56686012  0.16932787  0.08974217  1
  O2-  O151  1  0.56726503  0.17327590  0.42188771  1
  O2-  O152  1  0.56769652  0.17974928  0.76579293  1
  O2-  O153  1  0.56777965  0.68101937  0.08846429  1
  O2-  O154  1  0.56829220  0.67678444  0.42255795  1
  O2-  O155  1  0.57241408  0.68127510  0.75410027  1
  O2-  O156  1  0.18326754  0.42446216  0.24728200  1
  O2-  O157  1  0.17980382  0.43343444  0.57914941  1
  O2-  O158  1  0.18477566  0.42931095  0.90169171  1
  O2-  O159  1  0.18341656  0.92519606  0.24453860  1
  O2-  O160  1  0.17917538  0.92127861  0.57991980  1
  O2-  O161  1  0.18357589  0.92144490  0.91152909  1
  O2-  O162  1  0.66834763  0.43200888  0.24705590  1
  O2-  O163  1  0.67204118  0.42895979  0.57775969  1
  O2-  O164  1  0.67401944  0.43241110  0.90098366  1
  O2-  O165  1  0.67033145  0.93024290  0.24327565  1
  O2-  O166  1  0.68208772  0.93105556  0.56621559  1
  O2-  O167  1  0.67205214  0.92896158  0.91168703  1
  O2-  O168  1  0.43026188  0.31895068  0.10119088  1
  O2-  O169  1  0.43506080  0.32474219  0.42576799  1
  O2-  O170  1  0.42968477  0.32497771  0.75513438  1
  O2-  O171  1  0.42910235  0.82328606  0.09003461  1
  O2-  O172  1  0.43070848  0.82299423  0.42183974  1
  O2-  O173  1  0.43108491  0.81872286  0.76561742  1
  O2-  O174  1  0.92927619  0.31986932  0.09876350  1
  O2-  O175  1  0.92946908  0.32019719  0.43013835  1
  O2-  O176  1  0.93032251  0.32467675  0.76517334  1
  O2-  O177  1  0.93041051  0.81899993  0.09706811  1
  O2-  O178  1  0.92560940  0.81766413  0.43368462  1
  O2-  O179  1  0.92595774  0.81965624  0.75781584  1
  O2-  O180  1  0.32330051  0.06905548  0.23333443  1
  O2-  O181  1  0.32003905  0.06679901  0.56889400  1
  O2-  O182  1  0.32381124  0.06751525  0.90954673  1
  O2-  O183  1  0.32357486  0.56642851  0.23295181  1
  O2-  O184  1  0.31745462  0.57426639  0.56760543  1
  O2-  O185  1  0.32042878  0.57616484  0.90937885  1
  O2-  O186  1  0.82127608  0.06991934  0.23359487  1
  O2-  O187  1  0.82221437  0.07014574  0.57514452  1
  O2-  O188  1  0.81849983  0.06662787  0.89669574  1
  O2-  O189  1  0.81474548  0.57240684  0.23465496  1
  O2-  O190  1  0.82117460  0.57176793  0.56700463  1
  O2-  O191  1  0.81743129  0.57295853  0.90261792  1
  O2-  O192  1  0.05395141  0.07674212  0.27142305  1
  O2-  O193  1  0.05310691  0.07596327  0.59916462  1
  O2-  O194  1  0.05130865  0.07725436  0.93285029  1
  O2-  O195  1  0.05373453  0.57657481  0.26975751  1
  O2-  O196  1  0.04639617  0.58910641  0.60664484  1
  O2-  O197  1  0.05778084  0.58166675  0.94045503  1
  O2-  O198  1  0.53737072  0.08637280  0.26753326  1
  O2-  O199  1  0.53550772  0.08355533  0.59810325  1
  O2-  O200  1  0.54126675  0.08275820  0.93666369  1
  O2-  O201  1  0.53708655  0.58603380  0.27025595  1
  O2-  O202  1  0.55328260  0.58288316  0.60400834  1
  O2-  O203  1  0.54232561  0.59013338  0.93299601  1
  O2-  O204  1  0.17265678  0.21101475  0.26769026  1
  O2-  O205  1  0.17029832  0.21100032  0.59863795  1
  O2-  O206  1  0.16998903  0.21022295  0.93299477  1
  O2-  O207  1  0.16886231  0.71176200  0.26261917  1
  O2-  O208  1  0.16092733  0.71222199  0.60655405  1
  O2-  O209  1  0.16596765  0.71202186  0.93309447  1
  O2-  O210  1  0.66174570  0.20132224  0.27050958  1
  O2-  O211  1  0.66400523  0.20797431  0.59414003  1
  O2-  O212  1  0.66583319  0.19648265  0.93873826  1
  O2-  O213  1  0.65827183  0.70526317  0.26719538  1
  O2-  O214  1  0.66478150  0.71043951  0.60221505  1
  O2-  O215  1  0.65994654  0.70940506  0.93405784  1
  O2-  O216  1  0.08686044  0.45764923  0.07252354  1
  O2-  O217  1  0.08345109  0.44837526  0.39763257  1
  O2-  O218  1  0.09004851  0.46247977  0.73309314  1
  O2-  O219  1  0.08627233  0.94927343  0.06175971  1
  O2-  O220  1  0.08378309  0.94574489  0.39598917  1
  O2-  O221  1  0.08024098  0.94681395  0.72918462  1
  O2-  O222  1  0.58209662  0.46584433  0.06865323  1
  O2-  O223  1  0.58606177  0.46054819  0.40263083  1
  O2-  O224  1  0.58604046  0.45511380  0.73213413  1
  O2-  O225  1  0.58243521  0.95356778  0.06512057  1
  O2-  O226  1  0.58469512  0.95864828  0.39701604  1
  O2-  O227  1  0.58420398  0.96238106  0.73412991  1
  O2-  O228  1  0.21821320  0.33367797  0.06986829  1
  O2-  O229  1  0.21173100  0.33817772  0.40233015  1
  O2-  O230  1  0.20306356  0.33608415  0.73032982  1
  O2-  O231  1  0.21386326  0.83861223  0.06717562  1
  O2-  O232  1  0.21047616  0.83653472  0.39800473  1
  O2-  O233  1  0.20854992  0.83725808  0.73520405  1
  O2-  O234  1  0.69135739  0.32533258  0.06547071  1
  O2-  O235  1  0.69239026  0.33044886  0.39417116  1
  O2-  O236  1  0.69734963  0.32976348  0.72646309  1
  O2-  O237  1  0.69858186  0.83312639  0.06169715  1
  O2-  O238  1  0.69426857  0.83191314  0.39320583  1
  O2-  O239  1  0.70784629  0.83524304  0.73628122  1
  O2-  O240  1  0.46144785  0.41328309  0.27223924  1
  O2-  O241  1  0.45690613  0.41863789  0.60372043  1
  O2-  O242  1  0.45884385  0.41877873  0.93307066  1
  O2-  O243  1  0.46080733  0.91173139  0.26724959  1
  O2-  O244  1  0.46285287  0.91454035  0.59793473  1
  O2-  O245  1  0.45629255  0.91421690  0.93709688  1
  O2-  O246  1  0.95654334  0.41823007  0.26555101  1
  O2-  O247  1  0.96621935  0.42015377  0.59958460  1
  O2-  O248  1  0.95922800  0.42235850  0.93707988  1
  O2-  O249  1  0.95846301  0.91607922  0.26666990  1
  O2-  O250  1  0.95219218  0.91207761  0.60501284  1
  O2-  O251  1  0.96393777  0.91134821  0.92682553  1
  O2-  O252  1  0.33943637  0.29548951  0.27520693  1
  O2-  O253  1  0.33306774  0.30411500  0.60518001  1
  O2-  O254  1  0.33737949  0.28840385  0.93020255  1
  O2-  O255  1  0.33787720  0.79656222  0.26838361  1
  O2-  O256  1  0.33150993  0.79075593  0.59858820  1
  O2-  O257  1  0.33628564  0.79593493  0.93691166  1
  O2-  O258  1  0.82468862  0.29641944  0.26837965  1
  O2-  O259  1  0.82800262  0.30580290  0.59928649  1
  O2-  O260  1  0.82607016  0.29739301  0.93596789  1
  O2-  O261  1  0.82508896  0.79426553  0.26699918  1
  O2-  O262  1  0.83376056  0.79138652  0.60673768  1
  O2-  O263  1  0.82953886  0.79191502  0.93219661  1
  O2-  O264  1  0.41108007  0.03878078  0.06379510  1
  O2-  O265  1  0.41575564  0.03501090  0.40034884  1
  O2-  O266  1  0.41332010  0.03485992  0.73649302  1
  O2-  O267  1  0.41720223  0.55103224  0.05812490  1
  O2-  O268  1  0.41468932  0.53818784  0.40348025  1
  O2-  O269  1  0.42215882  0.54999795  0.73154144  1
  O2-  O270  1  0.91869324  0.03468295  0.06197319  1
  O2-  O271  1  0.91903314  0.03987704  0.40158333  1
  O2-  O272  1  0.91821625  0.04856498  0.72483031  1
  O2-  O273  1  0.92398939  0.55465392  0.06644639  1
  O2-  O274  1  0.91971666  0.54411281  0.39869037  1
  O2-  O275  1  0.91994270  0.54431077  0.73451059  1
  O2-  O276  1  0.29698963  0.16328447  0.06047561  1
  O2-  O277  1  0.29657713  0.16914157  0.40228312  1
  O2-  O278  1  0.29486869  0.17087325  0.73360928  1
  O2-  O279  1  0.29747034  0.66872275  0.06098853  1
  O2-  O280  1  0.29430551  0.67075210  0.39638546  1
  O2-  O281  1  0.28869279  0.66878634  0.73564370  1
  O2-  O282  1  0.79071727  0.16378224  0.06696284  1
  O2-  O283  1  0.78702520  0.16491603  0.40179719  1
  O2-  O284  1  0.79522001  0.16809449  0.72269149  1
  O2-  O285  1  0.78290524  0.66716908  0.06773273  1
  O2-  O286  1  0.78326968  0.66475095  0.40100470  1
  O2-  O287  1  0.78634045  0.66369279  0.73557514  1
