# generated using pymatgen
data_Ca2Al2SiO7
_symmetry_space_group_name_H-M   'P 1'
_cell_length_a   15.45317870
_cell_length_b   15.45301085
_cell_length_c   15.28005995
_cell_angle_alpha   90.00308245
_cell_angle_beta   90.00613918
_cell_angle_gamma   90.00432029
_symmetry_Int_Tables_number   1
_chemical_formula_structural   Ca2Al2SiO7
_chemical_formula_sum   'Ca48 Al48 Si24 O168'
_cell_volume   3648.84982958
_cell_formula_units_Z   24
loop_
 _symmetry_equiv_pos_site_id
 _symmetry_equiv_pos_as_xyz
  1  'x, y, z'
loop_
 _atom_type_symbol
 _atom_type_oxidation_number
  Ca2+  2.0
  Al0+  0.0
  Si0+  0.0
  O2-  -2.0
loop_
 _atom_site_type_symbol
 _atom_site_label
 _atom_site_symmetry_multiplicity
 _atom_site_fract_x
 _atom_site_fract_y
 _atom_site_fract_z
 _atom_site_occupancy
  Ca2+  Ca0  1  0.16154398  0.08167009  0.16422869  1
  Ca2+  Ca1  1  0.16622306  0.07798952  0.50717606  1
  Ca2+  Ca2  1  0.15931556  0.07546955  0.83893362  1
  Ca2+  Ca3  1  0.17493385  0.57437791  0.17764744  1
  Ca2+  Ca4  1  0.17342798  0.58389436  0.50479413  1
  Ca2+  Ca5  1  0.17229883  0.59203556  0.83329203  1
  Ca2+  Ca6  1  0.67065868  0.07902630  0.17347058  1
  Ca2+  Ca7  1  0.67057171  0.07738302  0.50183804  1
  Ca2+  Ca8  1  0.67162269  0.07418178  0.84359521  1
  Ca2+  Ca9  1  0.66927815  0.58079661  0.16669030  1
  Ca2+  Ca10  1  0.66460804  0.57895384  0.50448148  1
  Ca2+  Ca11  1  0.66991035  0.57284174  0.84127127  1
  Ca2+  Ca12  1  0.07937525  0.33035901  0.16220825  1
  Ca2+  Ca13  1  0.07853853  0.33010324  0.49287190  1
  Ca2+  Ca14  1  0.08284129  0.31807001  0.82749278  1
  Ca2+  Ca15  1  0.06911642  0.83992993  0.16021062  1
  Ca2+  Ca16  1  0.08177374  0.82954541  0.49848843  1
  Ca2+  Ca17  1  0.07661801  0.83641625  0.82729964  1
  Ca2+  Ca18  1  0.58263689  0.32207210  0.15706885  1
  Ca2+  Ca19  1  0.58622254  0.32826942  0.49286960  1
  Ca2+  Ca20  1  0.58896747  0.33324830  0.83539693  1
  Ca2+  Ca21  1  0.59380898  0.82978923  0.16465034  1
  Ca2+  Ca22  1  0.58176120  0.83332614  0.49318397  1
  Ca2+  Ca23  1  0.58011753  0.83839085  0.82708277  1
  Ca2+  Ca24  1  0.32950127  0.41562411  0.17372493  1
  Ca2+  Ca25  1  0.33106066  0.42901109  0.50170596  1
  Ca2+  Ca26  1  0.33740947  0.42162891  0.83784084  1
  Ca2+  Ca27  1  0.32482277  0.91612533  0.16699285  1
  Ca2+  Ca28  1  0.33011323  0.91545487  0.50957152  1
  Ca2+  Ca29  1  0.32056615  0.91016238  0.83455285  1
  Ca2+  Ca30  1  0.83327872  0.41797620  0.16891375  1
  Ca2+  Ca31  1  0.82892407  0.41336556  0.50361825  1
  Ca2+  Ca32  1  0.82456911  0.42289307  0.84019357  1
  Ca2+  Ca33  1  0.83046203  0.92597042  0.17079370  1
  Ca2+  Ca34  1  0.82469419  0.91487775  0.49813358  1
  Ca2+  Ca35  1  0.82357834  0.91721626  0.84453281  1
  Ca2+  Ca36  1  0.42994180  0.16942026  0.15811960  1
  Ca2+  Ca37  1  0.42595021  0.16701707  0.49290380  1
  Ca2+  Ca38  1  0.42225755  0.17180616  0.83469915  1
  Ca2+  Ca39  1  0.42239763  0.66138620  0.16855023  1
  Ca2+  Ca40  1  0.41748363  0.66832708  0.49731157  1
  Ca2+  Ca41  1  0.41666095  0.67302499  0.82441125  1
  Ca2+  Ca42  1  0.91444612  0.16659808  0.16232011  1
  Ca2+  Ca43  1  0.91838226  0.16929879  0.49376968  1
  Ca2+  Ca44  1  0.92500664  0.15570782  0.83470189  1
  Ca2+  Ca45  1  0.90909303  0.67970547  0.16040661  1
  Ca2+  Ca46  1  0.92222828  0.67246875  0.49343959  1
  Ca2+  Ca47  1  0.91885761  0.66996735  0.83225402  1
  Al0+  Al48  1  -0.00191451  -0.00200019  -0.00081228  1
  Al0+  Al49  1  -0.00062831  0.00044885  0.33506028  1
  Al0+  Al50  1  -0.00000588  0.00040660  0.66273327  1
  Al0+  Al51  1  0.00225468  0.50140502  0.00230541  1
  Al0+  Al52  1  0.00007544  0.49846025  0.33342356  1
  Al0+  Al53  1  0.00104374  0.49968449  0.66276378  1
  Al0+  Al54  1  0.49765272  -0.00041118  -0.00147953  1
  Al0+  Al55  1  0.49828088  -0.00151630  0.33131946  1
  Al0+  Al56  1  0.49964022  0.00160767  0.66593377  1
  Al0+  Al57  1  0.50024463  0.50093538  0.00043405  1
  Al0+  Al58  1  0.49918396  0.50152162  0.33340845  1
  Al0+  Al59  1  0.49948665  0.49996800  0.67448979  1
  Al0+  Al60  1  0.25076883  0.25023137  -0.00880277  1
  Al0+  Al61  1  0.24909412  0.24896106  0.33877383  1
  Al0+  Al62  1  0.25134311  0.25095089  0.66000358  1
  Al0+  Al63  1  0.25007533  0.74981381  0.00792010  1
  Al0+  Al64  1  0.25112129  0.74929443  0.33530380  1
  Al0+  Al65  1  0.24997896  0.75115977  0.66617059  1
  Al0+  Al66  1  0.75020256  0.25033394  0.00067648  1
  Al0+  Al67  1  0.75241723  0.24897877  0.32886235  1
  Al0+  Al68  1  0.75049264  0.24988289  0.67221880  1
  Al0+  Al69  1  0.74973859  0.74890724  -0.00102974  1
  Al0+  Al70  1  0.74927120  0.74948988  0.33003006  1
  Al0+  Al71  1  0.74970580  0.74949664  0.67030421  1
  Al0+  Al72  1  0.67823177  0.92758930  0.34905583  1
  Al0+  Al73  1  0.17860156  0.92894459  0.01390868  1
  Al0+  Al74  1  0.07076740  0.67969435  0.65306282  1
  Al0+  Al75  1  0.82331870  0.57064473  0.01564082  1
  Al0+  Al76  1  0.31819481  0.57035980  0.68225737  1
  Al0+  Al77  1  0.82156154  0.07258232  0.35059299  1
  Al0+  Al78  1  0.92978020  0.32143235  0.31914414  1
  Al0+  Al79  1  0.42994975  0.32233514  0.98452032  1
  Al0+  Al80  1  0.92881678  0.81937645  0.98517402  1
  Al0+  Al81  1  0.82142224  0.07011631  0.01472331  1
  Al0+  Al82  1  0.57352961  0.17725053  0.98283726  1
  Al0+  Al83  1  0.93058384  0.82017607  0.31971605  1
  Al0+  Al84  1  0.07143969  0.17774680  0.65077321  1
  Al0+  Al85  1  0.18009723  0.93121325  0.67915749  1
  Al0+  Al86  1  0.67984999  0.42879039  0.67964916  1
  Al0+  Al87  1  0.57006623  0.67883592  0.31991472  1
  Al0+  Al88  1  0.67806913  0.92861615  0.68017372  1
  Al0+  Al89  1  0.32212782  0.57084725  0.35020144  1
  Al0+  Al90  1  0.43065837  0.82134796  0.65409681  1
  Al0+  Al91  1  0.17676668  0.42698970  0.34968920  1
  Al0+  Al92  1  0.06881678  0.17999153  0.98674612  1
  Al0+  Al93  1  0.67485314  0.92872168  0.01545399  1
  Al0+  Al94  1  0.67844006  0.42945641  0.01801805  1
  Al0+  Al95  1  0.57096298  0.17805527  0.32073255  1
  Si0+  Si96  1  0.92781919  0.32105243  0.65128109  1
  Si0+  Si97  1  0.32156797  0.07030385  0.34786265  1
  Si0+  Si98  1  0.57000681  0.68018765  0.98360262  1
  Si0+  Si99  1  0.92548020  0.82183116  0.64892430  1
  Si0+  Si100  1  0.92829138  0.32594670  0.98225932  1
  Si0+  Si101  1  0.07465561  0.67761712  0.98555762  1
  Si0+  Si102  1  0.32003400  0.07375179  0.01527523  1
  Si0+  Si103  1  0.42811754  0.32124647  0.31963691  1
  Si0+  Si104  1  0.17848543  0.92980963  0.34853913  1
  Si0+  Si105  1  0.07350827  0.17780794  0.31661588  1
  Si0+  Si106  1  0.82495259  0.57254458  0.68169363  1
  Si0+  Si107  1  0.07373873  0.67794544  0.31609368  1
  Si0+  Si108  1  0.68026274  0.42923040  0.34615317  1
  Si0+  Si109  1  0.17700253  0.42662876  0.68430446  1
  Si0+  Si110  1  0.18075501  0.42671362  0.01227087  1
  Si0+  Si111  1  0.57203810  0.67695117  0.65252427  1
  Si0+  Si112  1  0.82126676  0.07155575  0.68368092  1
  Si0+  Si113  1  0.42558851  0.82004904  0.98581150  1
  Si0+  Si114  1  0.32091276  0.57168459  0.01617097  1
  Si0+  Si115  1  0.82074167  0.57218900  0.34841552  1
  Si0+  Si116  1  0.42563600  0.82242922  0.31463196  1
  Si0+  Si117  1  0.32321066  0.07540779  0.68331803  1
  Si0+  Si118  1  0.57162157  0.18060927  0.65145432  1
  Si0+  Si119  1  0.43007378  0.32392356  0.64921574  1
  O2-  O120  1  0.25198413  0.00500865  0.06095748  1
  O2-  O121  1  0.25090052  -0.00068005  0.39065485  1
  O2-  O122  1  0.25212112  0.00868334  0.72662148  1
  O2-  O123  1  0.25110426  0.49821884  0.05530533  1
  O2-  O124  1  0.24721308  0.50108597  0.39897491  1
  O2-  O125  1  0.24378258  0.49595159  0.73074963  1
  O2-  O126  1  0.74435246  0.00335446  0.06444471  1
  O2-  O127  1  0.74863164  0.00086904  0.39973755  1
  O2-  O128  1  0.75488056  0.00042209  0.72661696  1
  O2-  O129  1  0.75390480  0.49754076  0.06819615  1
  O2-  O130  1  0.75067555  0.49994170  0.39060754  1
  O2-  O131  1  0.75433537  0.50493844  0.72396330  1
  O2-  O132  1  0.00617948  0.24780590  0.27341161  1
  O2-  O133  1  -0.00244793  0.25396905  0.60608309  1
  O2-  O134  1  -0.00640371  0.25376209  0.93824995  1
  O2-  O135  1  0.00581153  0.74611252  0.27118804  1
  O2-  O136  1  -0.00631894  0.75169917  0.60568542  1
  O2-  O137  1  0.00457570  0.74413624  0.94070296  1
  O2-  O138  1  0.49589339  0.25301397  0.27487191  1
  O2-  O139  1  0.50122565  0.25236875  0.60812014  1
  O2-  O140  1  0.50403273  0.25288599  0.93313939  1
  O2-  O141  1  0.49658885  0.75515718  0.27216965  1
  O2-  O142  1  0.50816522  0.74947045  0.60733300  1
  O2-  O143  1  0.50055240  0.75355510  0.94311643  1
  O2-  O144  1  0.07163960  0.18359556  0.09978362  1
  O2-  O145  1  0.07375258  0.17777973  0.42233272  1
  O2-  O146  1  0.07006550  0.17715068  0.76391945  1
  O2-  O147  1  0.07729163  0.67806185  0.09088673  1
  O2-  O148  1  0.07341439  0.68019616  0.42200495  1
  O2-  O149  1  0.06968973  0.68130045  0.76631018  1
  O2-  O150  1  0.56894507  0.17694469  0.09653329  1
  O2-  O151  1  0.56916208  0.18079067  0.43476390  1
  O2-  O152  1  0.57057383  0.18078054  0.75597266  1
  O2-  O153  1  0.56808445  0.67808985  0.08879558  1
  O2-  O154  1  0.56922319  0.67703351  0.43332470  1
  O2-  O155  1  0.56954722  0.67632577  0.75812960  1
  O2-  O156  1  0.18009834  0.42613370  0.23532943  1
  O2-  O157  1  0.17895585  0.42746139  0.57895142  1
  O2-  O158  1  0.18113506  0.42745802  0.90721578  1
  O2-  O159  1  0.17884336  0.93130457  0.24336438  1
  O2-  O160  1  0.18259411  0.93185217  0.56552638  1
  O2-  O161  1  0.18038548  0.92724514  0.90083595  1
  O2-  O162  1  0.68017535  0.43097721  0.24175420  1
  O2-  O163  1  0.68060332  0.42814845  0.56567085  1
  O2-  O164  1  0.67871440  0.43428750  0.90406960  1
  O2-  O165  1  0.67988222  0.92806361  0.23612842  1
  O2-  O166  1  0.67772529  0.92959143  0.56727604  1
  O2-  O167  1  0.67613910  0.92887261  0.90130979  1
  O2-  O168  1  0.42707727  0.31968469  0.09841698  1
  O2-  O169  1  0.43085874  0.32043175  0.42569420  1
  O2-  O170  1  0.42858948  0.32385592  0.75389766  1
  O2-  O171  1  0.42081583  0.81621187  0.09065652  1
  O2-  O172  1  0.42350845  0.82300915  0.42024354  1
  O2-  O173  1  0.42947476  0.81856720  0.76752320  1
  O2-  O174  1  0.93336012  0.32849522  0.08774929  1
  O2-  O175  1  0.92885073  0.32027829  0.43275079  1
  O2-  O176  1  0.92869569  0.32178896  0.75656415  1
  O2-  O177  1  0.93083357  0.81982375  0.09828101  1
  O2-  O178  1  0.93243604  0.81709866  0.43326837  1
  O2-  O179  1  0.92581828  0.82169863  0.75440472  1
  O2-  O180  1  0.32089490  0.07119185  0.24290198  1
  O2-  O181  1  0.32426021  0.07381769  0.57709410  1
  O2-  O182  1  0.31921718  0.07300444  0.90971923  1
  O2-  O183  1  0.32159429  0.56834100  0.23607016  1
  O2-  O184  1  0.31941208  0.56873805  0.56966132  1
  O2-  O185  1  0.31971895  0.57526944  0.91103559  1
  O2-  O186  1  0.82245706  0.07228645  0.23767939  1
  O2-  O187  1  0.81862827  0.07549473  0.57821878  1
  O2-  O188  1  0.82338144  0.06422736  0.90062733  1
  O2-  O189  1  0.81996755  0.57229277  0.24378195  1
  O2-  O190  1  0.82475838  0.57268248  0.57570209  1
  O2-  O191  1  0.82182654  0.56948134  0.90141047  1
  O2-  O192  1  0.04740413  0.08424035  0.27147118  1
  O2-  O193  1  0.04056258  0.08218428  0.59457573  1
  O2-  O194  1  0.03769698  0.08331162  0.93291056  1
  O2-  O195  1  0.04967738  0.58312797  0.27268632  1
  O2-  O196  1  0.04433051  0.58182267  0.59786538  1
  O2-  O197  1  0.05241571  0.58332032  0.93843862  1
  O2-  O198  1  0.53771858  0.08247503  0.26671348  1
  O2-  O199  1  0.54186283  0.09000947  0.60260544  1
  O2-  O200  1  0.53925634  0.07986366  0.92952119  1
  O2-  O201  1  0.53649516  0.58342163  0.26372843  1
  O2-  O202  1  0.54196432  0.58406204  0.60699025  1
  O2-  O203  1  0.53875399  0.58963810  0.93568177  1
  O2-  O204  1  0.16842629  0.20170690  0.27170049  1
  O2-  O205  1  0.16894538  0.20644096  0.59646537  1
  O2-  O206  1  0.16418585  0.21014563  0.92959132  1
  O2-  O207  1  0.16838846  0.70225322  0.27126763  1
  O2-  O208  1  0.16529479  0.71445590  0.59782346  1
  O2-  O209  1  0.16827696  0.70618095  0.94016700  1
  O2-  O210  1  0.66620466  0.20930912  0.26668527  1
  O2-  O211  1  0.66424736  0.20933200  0.60582048  1
  O2-  O212  1  0.67285666  0.20377457  0.93042577  1
  O2-  O213  1  0.66613988  0.70700514  0.26403663  1
  O2-  O214  1  0.66820530  0.69638723  0.60861899  1
  O2-  O215  1  0.66182266  0.70438440  0.93513420  1
  O2-  O216  1  0.08955221  0.45358005  0.06114944  1
  O2-  O217  1  0.07801857  0.45446808  0.40274605  1
  O2-  O218  1  0.08179348  0.44924901  0.72809393  1
  O2-  O219  1  0.08343642  0.96136913  0.06784380  1
  O2-  O220  1  0.08826452  0.95830702  0.39778717  1
  O2-  O221  1  0.08158427  0.95968001  0.73073922  1
  O2-  O222  1  0.58044879  0.46195527  0.06989259  1
  O2-  O223  1  0.58812742  0.45653229  0.39368110  1
  O2-  O224  1  0.58471447  0.45870792  0.73612415  1
  O2-  O225  1  0.57353940  0.95030367  0.06584672  1
  O2-  O226  1  0.57704059  0.95340638  0.39856948  1
  O2-  O227  1  0.58140283  0.96132272  0.73289523  1
  O2-  O228  1  0.21007906  0.33550475  0.05964756  1
  O2-  O229  1  0.20528327  0.32907904  0.40452129  1
  O2-  O230  1  0.20554874  0.33242640  0.72778365  1
  O2-  O231  1  0.21198587  0.83484810  0.07199595  1
  O2-  O232  1  0.20531774  0.83698058  0.39434538  1
  O2-  O233  1  0.21328545  0.83627203  0.73401083  1
  O2-  O234  1  0.70182606  0.32904604  0.06711048  1
  O2-  O235  1  0.70936460  0.33786642  0.39344823  1
  O2-  O236  1  0.71149135  0.33392237  0.73651692  1
  O2-  O237  1  0.70498719  0.82957897  0.06421189  1
  O2-  O238  1  0.70887396  0.82881472  0.40124736  1
  O2-  O239  1  0.70400977  0.83029098  0.73403579  1
  O2-  O240  1  0.45178475  0.41502201  0.27405306  1
  O2-  O241  1  0.46019170  0.41577445  0.60328743  1
  O2-  O242  1  0.45626315  0.42219942  0.93214556  1
  O2-  O243  1  0.44657587  0.91664300  0.26822630  1
  O2-  O244  1  0.45655972  0.91956393  0.59968649  1
  O2-  O245  1  0.44622761  0.91341311  0.93880992  1
  O2-  O246  1  0.95867796  0.41860264  0.26427903  1
  O2-  O247  1  0.95050151  0.41492071  0.60360431  1
  O2-  O248  1  0.95794859  0.41846647  0.93510393  1
  O2-  O249  1  0.96311290  0.91701533  0.26721592  1
  O2-  O250  1  0.95227181  0.91457127  0.60242850  1
  O2-  O251  1  0.96191441  0.91390860  0.92948973  1
  O2-  O252  1  0.33340919  0.29509250  0.27610031  1
  O2-  O253  1  0.33884297  0.29726856  0.59968901  1
  O2-  O254  1  0.33371834  0.29267484  0.92673868  1
  O2-  O255  1  0.33267592  0.79385717  0.26740876  1
  O2-  O256  1  0.33565248  0.78799139  0.59898272  1
  O2-  O257  1  0.33527705  0.78595852  0.93797405  1
  O2-  O258  1  0.83487521  0.29127674  0.26258083  1
  O2-  O259  1  0.83419633  0.29287430  0.60550982  1
  O2-  O260  1  0.83286923  0.30511474  0.93914574  1
  O2-  O261  1  0.83498203  0.78806866  0.26604700  1
  O2-  O262  1  0.83161435  0.79502022  0.60318317  1
  O2-  O263  1  0.83290567  0.78697304  0.93001360  1
  O2-  O264  1  0.41264874  0.04649421  0.06207238  1
  O2-  O265  1  0.41236638  0.04224235  0.39722588  1
  O2-  O266  1  0.41590851  0.04893793  0.72976607  1
  O2-  O267  1  0.41278165  0.54482621  0.06281402  1
  O2-  O268  1  0.41951086  0.53999516  0.40452848  1
  O2-  O269  1  0.41411967  0.54009009  0.73797084  1
  O2-  O270  1  0.91773616  0.03755045  0.06898195  1
  O2-  O271  1  0.92025326  0.04327475  0.40368078  1
  O2-  O272  1  0.91639832  0.04685910  0.72603553  1
  O2-  O273  1  0.92360134  0.54774721  0.06829578  1
  O2-  O274  1  0.91319036  0.54536379  0.39532587  1
  O2-  O275  1  0.91798316  0.54522197  0.72816121  1
  O2-  O276  1  0.29302614  0.16728039  0.06065927  1
  O2-  O277  1  0.29548889  0.16143656  0.39830098  1
  O2-  O278  1  0.30005134  0.17077590  0.72645686  1
  O2-  O279  1  0.29180070  0.66072655  0.06792867  1
  O2-  O280  1  0.29583303  0.67066630  0.40195779  1
  O2-  O281  1  0.28620587  0.66658970  0.73612347  1
  O2-  O282  1  0.80229034  0.17207076  0.06304976  1
  O2-  O283  1  0.79259424  0.17174328  0.40277288  1
  O2-  O284  1  0.79506074  0.16368976  0.73235480  1
  O2-  O285  1  0.78949683  0.66737715  0.06764553  1
  O2-  O286  1  0.79116070  0.66229811  0.39739539  1
  O2-  O287  1  0.80146341  0.66590109  0.72892863  1
