# generated using pymatgen
data_Ca2Al2SiO7
_symmetry_space_group_name_H-M   'P 1'
_cell_length_a   15.45699949
_cell_length_b   15.45738219
_cell_length_c   15.28240681
_cell_angle_alpha   89.99724417
_cell_angle_beta   90.00520147
_cell_angle_gamma   90.00496391
_symmetry_Int_Tables_number   1
_chemical_formula_structural   Ca2Al2SiO7
_chemical_formula_sum   'Ca48 Al48 Si24 O168'
_cell_volume   3651.34517120
_cell_formula_units_Z   24
loop_
 _symmetry_equiv_pos_site_id
 _symmetry_equiv_pos_as_xyz
  1  'x, y, z'
loop_
 _atom_type_symbol
 _atom_type_oxidation_number
  Ca2+  2.0
  Al0+  0.0
  Si0+  0.0
  O2-  -2.0
loop_
 _atom_site_type_symbol
 _atom_site_label
 _atom_site_symmetry_multiplicity
 _atom_site_fract_x
 _atom_site_fract_y
 _atom_site_fract_z
 _atom_site_occupancy
  Ca2+  Ca0  1  0.16584391  0.07480218  0.17425229  1
  Ca2+  Ca1  1  0.16731545  0.08269195  0.50467490  1
  Ca2+  Ca2  1  0.17512789  0.08272072  0.83713771  1
  Ca2+  Ca3  1  0.16794366  0.57893857  0.17558660  1
  Ca2+  Ca4  1  0.16116288  0.57906776  0.49559692  1
  Ca2+  Ca5  1  0.17500285  0.58499212  0.84137184  1
  Ca2+  Ca6  1  0.66712127  0.07950381  0.17459853  1
  Ca2+  Ca7  1  0.66852323  0.08132846  0.49524838  1
  Ca2+  Ca8  1  0.66537951  0.07588253  0.84458883  1
  Ca2+  Ca9  1  0.67329817  0.57449881  0.17303261  1
  Ca2+  Ca10  1  0.67553815  0.58458492  0.50780489  1
  Ca2+  Ca11  1  0.66630928  0.57411196  0.83378479  1
  Ca2+  Ca12  1  0.07919620  0.33039584  0.16641782  1
  Ca2+  Ca13  1  0.08782529  0.32193971  0.49076253  1
  Ca2+  Ca14  1  0.07697880  0.32950740  0.82969972  1
  Ca2+  Ca15  1  0.08257865  0.83616926  0.16755268  1
  Ca2+  Ca16  1  0.07197988  0.82974146  0.48751497  1
  Ca2+  Ca17  1  0.07841425  0.83678497  0.82892993  1
  Ca2+  Ca18  1  0.58817922  0.32122343  0.16150793  1
  Ca2+  Ca19  1  0.57778672  0.33054311  0.49153886  1
  Ca2+  Ca20  1  0.58770613  0.33214304  0.83249500  1
  Ca2+  Ca21  1  0.57957350  0.84250389  0.16539871  1
  Ca2+  Ca22  1  0.57998215  0.83141825  0.49226343  1
  Ca2+  Ca23  1  0.58532134  0.82686724  0.82785098  1
  Ca2+  Ca24  1  0.33248896  0.42084232  0.17337205  1
  Ca2+  Ca25  1  0.32766885  0.40655443  0.49769328  1
  Ca2+  Ca26  1  0.33310265  0.42504767  0.83903234  1
  Ca2+  Ca27  1  0.32519641  0.92075099  0.17215890  1
  Ca2+  Ca28  1  0.32905564  0.91877604  0.49978722  1
  Ca2+  Ca29  1  0.32786477  0.92865728  0.84321469  1
  Ca2+  Ca30  1  0.83244458  0.41568894  0.17207743  1
  Ca2+  Ca31  1  0.82959609  0.43088254  0.50646358  1
  Ca2+  Ca32  1  0.82543006  0.41748894  0.83825322  1
  Ca2+  Ca33  1  0.82219310  0.91969930  0.17873321  1
  Ca2+  Ca34  1  0.83711056  0.91639663  0.49698794  1
  Ca2+  Ca35  1  0.82932875  0.91584988  0.83673134  1
  Ca2+  Ca36  1  0.42568387  0.16718172  0.16447378  1
  Ca2+  Ca37  1  0.42126057  0.16938360  0.48980261  1
  Ca2+  Ca38  1  0.41978778  0.15839852  0.83239667  1
  Ca2+  Ca39  1  0.40999392  0.67421901  0.16456155  1
  Ca2+  Ca40  1  0.42638132  0.67135104  0.49247979  1
  Ca2+  Ca41  1  0.42221645  0.66569233  0.82854824  1
  Ca2+  Ca42  1  0.92031150  0.16414011  0.16470580  1
  Ca2+  Ca43  1  0.92705684  0.16331070  0.49153007  1
  Ca2+  Ca44  1  0.92124894  0.17354903  0.82950283  1
  Ca2+  Ca45  1  0.91874715  0.66629678  0.17092215  1
  Ca2+  Ca46  1  0.91309448  0.67359548  0.49189660  1
  Ca2+  Ca47  1  0.91322930  0.67447926  0.82557810  1
  Al0+  Al48  1  0.00037402  -0.00047119  -0.00067451  1
  Al0+  Al49  1  -0.00085765  -0.00115753  0.33181208  1
  Al0+  Al50  1  -0.00063578  0.00016358  0.66098718  1
  Al0+  Al51  1  0.00033919  0.50157448  -0.00781203  1
  Al0+  Al52  1  0.00120238  0.49990385  0.33949884  1
  Al0+  Al53  1  -0.00072044  0.50106430  0.67255428  1
  Al0+  Al54  1  0.49880534  -0.00012977  0.00131239  1
  Al0+  Al55  1  0.49994181  -0.00070771  0.33044506  1
  Al0+  Al56  1  0.49938460  0.00051546  0.66976010  1
  Al0+  Al57  1  0.50171748  0.49969456  0.00937102  1
  Al0+  Al58  1  0.49903373  0.50098448  0.33020368  1
  Al0+  Al59  1  0.49983199  0.49925075  0.66432089  1
  Al0+  Al60  1  0.25146690  0.25189680  0.00180949  1
  Al0+  Al61  1  0.24995987  0.25095111  0.32667774  1
  Al0+  Al62  1  0.25090502  0.24915881  0.67016374  1
  Al0+  Al63  1  0.24987657  0.75050433  0.00387149  1
  Al0+  Al64  1  0.25101391  0.74959338  0.33224208  1
  Al0+  Al65  1  0.24834557  0.75033017  0.66667124  1
  Al0+  Al66  1  0.75027334  0.25028849  -0.00668100  1
  Al0+  Al67  1  0.75028061  0.24901050  0.33632418  1
  Al0+  Al68  1  0.75003656  0.24972972  0.66820317  1
  Al0+  Al69  1  0.74985322  0.74915421  0.00302144  1
  Al0+  Al70  1  0.74920495  0.74936206  0.33576576  1
  Al0+  Al71  1  0.74976545  0.74997089  0.66287332  1
  Al0+  Al72  1  0.57250831  0.18001109  0.31880692  1
  Al0+  Al73  1  0.32172878  0.57028032  0.01381061  1
  Al0+  Al74  1  0.82052687  0.56903424  0.34670608  1
  Al0+  Al75  1  0.82184223  0.07198008  0.34852691  1
  Al0+  Al76  1  0.68038213  0.92748731  0.01204580  1
  Al0+  Al77  1  0.17895220  0.92771102  0.34875627  1
  Al0+  Al78  1  0.07022332  0.67767112  0.31845974  1
  Al0+  Al79  1  0.92984950  0.81988029  0.65260134  1
  Al0+  Al80  1  0.67657963  0.92923860  0.35013387  1
  Al0+  Al81  1  0.32107006  0.07062084  0.67973767  1
  Al0+  Al82  1  0.67762106  0.42801247  0.68158623  1
  Al0+  Al83  1  0.17754621  0.93027963  0.01535978  1
  Al0+  Al84  1  0.82087235  0.57354726  0.68441061  1
  Al0+  Al85  1  0.56861653  0.17865111  0.98400557  1
  Al0+  Al86  1  0.42960366  0.82013487  0.31928333  1
  Al0+  Al87  1  0.68168909  0.42796822  0.01541718  1
  Al0+  Al88  1  0.07080751  0.18274409  0.65367471  1
  Al0+  Al89  1  0.32189249  0.07373131  0.01799491  1
  Al0+  Al90  1  0.18093765  0.42859111  0.34635118  1
  Al0+  Al91  1  0.56862163  0.67864527  0.65387193  1
  Al0+  Al92  1  0.92730797  0.82056940  0.31516273  1
  Al0+  Al93  1  0.42805056  0.32241593  0.31676548  1
  Al0+  Al94  1  0.92973189  0.32175717  0.98571244  1
  Al0+  Al95  1  0.07068576  0.17748840  0.31887804  1
  Si0+  Si96  1  0.07191977  0.68020239  0.98377949  1
  Si0+  Si97  1  0.67632028  0.42711115  0.34981948  1
  Si0+  Si98  1  0.57205389  0.17631057  0.65262585  1
  Si0+  Si99  1  0.07342419  0.17676787  0.98281728  1
  Si0+  Si100  1  0.42813197  0.81964896  0.98376225  1
  Si0+  Si101  1  0.82368275  0.57231891  0.01677517  1
  Si0+  Si102  1  0.17645222  0.92825397  0.68177543  1
  Si0+  Si103  1  0.17584717  0.42975222  0.01502171  1
  Si0+  Si104  1  0.92908263  0.32228720  0.32089417  1
  Si0+  Si105  1  0.82183866  0.07232851  0.01303725  1
  Si0+  Si106  1  0.32048857  0.57181636  0.67928314  1
  Si0+  Si107  1  0.57317875  0.67763751  0.31441894  1
  Si0+  Si108  1  0.42712384  0.82366159  0.65209249  1
  Si0+  Si109  1  0.07496497  0.67592732  0.65067446  1
  Si0+  Si110  1  0.42872820  0.32477216  0.98235428  1
  Si0+  Si111  1  0.82313705  0.07091107  0.68221776  1
  Si0+  Si112  1  0.17986390  0.42767147  0.68237035  1
  Si0+  Si113  1  0.67890863  0.93074841  0.68127876  1
  Si0+  Si114  1  0.92690479  0.32358994  0.64911432  1
  Si0+  Si115  1  0.92752250  0.82051478  0.98525935  1
  Si0+  Si116  1  0.32024648  0.07171908  0.34904733  1
  Si0+  Si117  1  0.57152058  0.67793637  0.98636576  1
  Si0+  Si118  1  0.42984687  0.32046528  0.65377062  1
  Si0+  Si119  1  0.32323680  0.57280123  0.35213557  1
  O2-  O120  1  0.24598788  0.00508012  0.06577684  1
  O2-  O121  1  0.25094953  0.00502074  0.39589252  1
  O2-  O122  1  0.24762977  -0.00588026  0.72601233  1
  O2-  O123  1  0.24734674  0.49505449  0.05887609  1
  O2-  O124  1  0.25692745  0.50138366  0.39586339  1
  O2-  O125  1  0.24616432  0.50445874  0.72281212  1
  O2-  O126  1  0.75405255  0.00320430  0.05677220  1
  O2-  O127  1  0.75048789  -0.00056427  0.40006562  1
  O2-  O128  1  0.74934014  0.00230521  0.72438191  1
  O2-  O129  1  0.75864999  0.50062182  0.06098768  1
  O2-  O130  1  0.74337813  0.49687215  0.39386938  1
  O2-  O131  1  0.75127289  0.49826430  0.73283984  1
  O2-  O132  1  -0.00706064  0.25031790  0.27449298  1
  O2-  O133  1  -0.00313919  0.25699034  0.60462670  1
  O2-  O134  1  0.00560674  0.24710213  0.93929618  1
  O2-  O135  1  0.00106460  0.75019046  0.26495769  1
  O2-  O136  1  0.00454884  0.74353288  0.60912086  1
  O2-  O137  1  0.00054927  0.75139873  0.94234184  1
  O2-  O138  1  0.50342363  0.25416238  0.26768627  1
  O2-  O139  1  0.50258432  0.25021591  0.61309252  1
  O2-  O140  1  0.49292044  0.25287931  0.93585322  1
  O2-  O141  1  0.50469276  0.74641940  0.27034825  1
  O2-  O142  1  0.49339413  0.75310576  0.60790343  1
  O2-  O143  1  0.50055393  0.74907031  0.94248337  1
  O2-  O144  1  0.07117660  0.17540150  0.08795913  1
  O2-  O145  1  0.07305164  0.18038361  0.43234983  1
  O2-  O146  1  0.06974323  0.18506306  0.76713014  1
  O2-  O147  1  0.07174205  0.67629345  0.08803654  1
  O2-  O148  1  0.06802634  0.67756809  0.43240459  1
  O2-  O149  1  0.07976899  0.67804202  0.75665519  1
  O2-  O150  1  0.57069994  0.17952641  0.09620012  1
  O2-  O151  1  0.57008078  0.18106171  0.43340973  1
  O2-  O152  1  0.57060193  0.17319399  0.75754663  1
  O2-  O153  1  0.57208112  0.67916293  0.09091204  1
  O2-  O154  1  0.57032724  0.67672016  0.42048497  1
  O2-  O155  1  0.56610904  0.67957015  0.76776292  1
  O2-  O156  1  0.17991591  0.43105918  0.23330223  1
  O2-  O157  1  0.18204358  0.42464332  0.57765741  1
  O2-  O158  1  0.17644132  0.43259700  0.90856238  1
  O2-  O159  1  0.18145690  0.92911836  0.23592023  1
  O2-  O160  1  0.17765494  0.92806197  0.57665238  1
  O2-  O161  1  0.17807834  0.92947833  0.90077787  1
  O2-  O162  1  0.67905738  0.42721258  0.24405346  1
  O2-  O163  1  0.67691470  0.42880334  0.56822529  1
  O2-  O164  1  0.68008065  0.43107802  0.90232650  1
  O2-  O165  1  0.67688334  0.93158800  0.23637232  1
  O2-  O166  1  0.67543049  0.93289621  0.57698364  1
  O2-  O167  1  0.68312042  0.92554494  0.89786367  1
  O2-  O168  1  0.43139379  0.32632288  0.08714268  1
  O2-  O169  1  0.42827345  0.31930630  0.43164399  1
  O2-  O170  1  0.42843435  0.32276734  0.75869773  1
  O2-  O171  1  0.42737697  0.81828479  0.08848067  1
  O2-  O172  1  0.43035275  0.81783625  0.43317753  1
  O2-  O173  1  0.42827174  0.82283684  0.75805179  1
  O2-  O174  1  0.93219582  0.32274308  0.09871219  1
  O2-  O175  1  0.93228202  0.32239783  0.42656585  1
  O2-  O176  1  0.92830338  0.32099382  0.75505157  1
  O2-  O177  1  0.92560395  0.81942540  0.08932815  1
  O2-  O178  1  0.92854717  0.81811339  0.42898837  1
  O2-  O179  1  0.93134043  0.82083623  0.76691061  1
  O2-  O180  1  0.31920510  0.06973457  0.24381346  1
  O2-  O181  1  0.32197893  0.07163462  0.56702245  1
  O2-  O182  1  0.32084346  0.06965613  0.90351820  1
  O2-  O183  1  0.32166443  0.57282496  0.24647598  1
  O2-  O184  1  0.32129645  0.57169764  0.57492398  1
  O2-  O185  1  0.32043314  0.57024961  0.89943264  1
  O2-  O186  1  0.82032987  0.07294386  0.23456750  1
  O2-  O187  1  0.82378837  0.07098612  0.57783828  1
  O2-  O188  1  0.82200757  0.06947234  0.90655065  1
  O2-  O189  1  0.82036642  0.56493026  0.23309116  1
  O2-  O190  1  0.81934924  0.57282712  0.57111294  1
  O2-  O191  1  0.82103389  0.57504404  0.91130378  1
  O2-  O192  1  0.04051205  0.08197093  0.26401212  1
  O2-  O193  1  0.04110956  0.08603799  0.60048697  1
  O2-  O194  1  0.04647171  0.08390262  0.93467000  1
  O2-  O195  1  0.03961469  0.57896074  0.26642389  1
  O2-  O196  1  0.05158291  0.58021900  0.60825513  1
  O2-  O197  1  0.04581096  0.58974387  0.93189852  1
  O2-  O198  1  0.54244116  0.08251323  0.26637168  1
  O2-  O199  1  0.54127906  0.08573912  0.60452511  1
  O2-  O200  1  0.53740319  0.08113128  0.92950521  1
  O2-  O201  1  0.54792748  0.58393771  0.26840153  1
  O2-  O202  1  0.53692108  0.58336891  0.59780792  1
  O2-  O203  1  0.54155418  0.58595622  0.94015840  1
  O2-  O204  1  0.16446382  0.21136929  0.26269647  1
  O2-  O205  1  0.16805539  0.21424303  0.60119408  1
  O2-  O206  1  0.16798975  0.20280856  0.93799332  1
  O2-  O207  1  0.17028927  0.70201809  0.26792894  1
  O2-  O208  1  0.16834086  0.70029963  0.60286160  1
  O2-  O209  1  0.16386359  0.70922173  0.93578310  1
  O2-  O210  1  0.67197316  0.20659479  0.26641007  1
  O2-  O211  1  0.66525156  0.20096687  0.60677624  1
  O2-  O212  1  0.66521218  0.20855006  0.92855383  1
  O2-  O213  1  0.66687470  0.70102509  0.26928391  1
  O2-  O214  1  0.66383476  0.71046472  0.59958236  1
  O2-  O215  1  0.66335454  0.70629164  0.93808009  1
  O2-  O216  1  0.08332154  0.45983196  0.05970275  1
  O2-  O217  1  0.08676180  0.45961630  0.40486304  1
  O2-  O218  1  0.08660550  0.45019369  0.72959609  1
  O2-  O219  1  0.07741930  0.95444877  0.06669535  1
  O2-  O220  1  0.08119079  0.95595038  0.40014392  1
  O2-  O221  1  0.08374701  0.95734328  0.72812709  1
  O2-  O222  1  0.58728984  0.45964508  0.07166454  1
  O2-  O223  1  0.58127712  0.45216830  0.39339820  1
  O2-  O224  1  0.57895766  0.45876862  0.73456044  1
  O2-  O225  1  0.58295453  0.95608251  0.06295365  1
  O2-  O226  1  0.57829031  0.95914293  0.40358292  1
  O2-  O227  1  0.58740965  0.95733030  0.73099829  1
  O2-  O228  1  0.19585743  0.33447369  0.05861454  1
  O2-  O229  1  0.21361875  0.33194949  0.40073487  1
  O2-  O230  1  0.21343180  0.33979694  0.73371162  1
  O2-  O231  1  0.20740225  0.83252839  0.06714412  1
  O2-  O232  1  0.21258138  0.83169646  0.40248526  1
  O2-  O233  1  0.19834005  0.83306330  0.72794289  1
  O2-  O234  1  0.71323907  0.33040424  0.06592095  1
  O2-  O235  1  0.70046648  0.33402051  0.39666298  1
  O2-  O236  1  0.70426850  0.32830863  0.73463360  1
  O2-  O237  1  0.70996920  0.83181818  0.06763028  1
  O2-  O238  1  0.70200669  0.82949772  0.40119519  1
  O2-  O239  1  0.70780739  0.83877584  0.72744151  1
  O2-  O240  1  0.45013358  0.42342505  0.26641037  1
  O2-  O241  1  0.45484334  0.41152173  0.60360741  1
  O2-  O242  1  0.45882960  0.41828723  0.93683383  1
  O2-  O243  1  0.45867926  0.91601091  0.26398673  1
  O2-  O244  1  0.45572923  0.91609225  0.60567342  1
  O2-  O245  1  0.45581842  0.91128734  0.93619909  1
  O2-  O246  1  0.95972087  0.41350042  0.27365485  1
  O2-  O247  1  0.95087987  0.41951034  0.60777912  1
  O2-  O248  1  0.96020283  0.41762000  0.92756324  1
  O2-  O249  1  0.95369499  0.91929637  0.26341414  1
  O2-  O250  1  0.95989001  0.91565210  0.59759324  1
  O2-  O251  1  0.95340678  0.91302099  0.93680467  1
  O2-  O252  1  0.33163541  0.29403976  0.26127487  1
  O2-  O253  1  0.33866408  0.29018590  0.60666995  1
  O2-  O254  1  0.33207033  0.30588935  0.93793096  1
  O2-  O255  1  0.33471781  0.78716632  0.26374785  1
  O2-  O256  1  0.33205018  0.80061321  0.60786869  1
  O2-  O257  1  0.33679986  0.78981342  0.93552819  1
  O2-  O258  1  0.83366253  0.30178953  0.27689924  1
  O2-  O259  1  0.83299189  0.29764183  0.60456991  1
  O2-  O260  1  0.83545870  0.28973288  0.92747491  1
  O2-  O261  1  0.82830510  0.79016259  0.26463541  1
  O2-  O262  1  0.83331909  0.79138012  0.59863446  1
  O2-  O263  1  0.83664405  0.78940294  0.93618056  1
  O2-  O264  1  0.41840983  0.04029257  0.06954670  1
  O2-  O265  1  0.41358293  0.04431182  0.39444708  1
  O2-  O266  1  0.41698997  0.03947466  0.73628863  1
  O2-  O267  1  0.41669724  0.54238968  0.07074244  1
  O2-  O268  1  0.41840929  0.54957602  0.39673297  1
  O2-  O269  1  0.41041465  0.53998087  0.72819370  1
  O2-  O270  1  0.91600257  0.04868723  0.05779444  1
  O2-  O271  1  0.91986854  0.04277599  0.40170697  1
  O2-  O272  1  0.91389849  0.04016898  0.73062619  1
  O2-  O273  1  0.91966601  0.54940196  0.05813679  1
  O2-  O274  1  0.91503405  0.53764732  0.40384261  1
  O2-  O275  1  0.92113530  0.54971769  0.73762044  1
  O2-  O276  1  0.30187407  0.17557506  0.06632062  1
  O2-  O277  1  0.29569998  0.16653292  0.39260822  1
  O2-  O278  1  0.28957012  0.16596521  0.73675368  1
  O2-  O279  1  0.28985884  0.66587020  0.06731941  1
  O2-  O280  1  0.29607021  0.66484504  0.39961821  1
  O2-  O281  1  0.29635412  0.66478856  0.72820888  1
  O2-  O282  1  0.79708000  0.16608434  0.05677188  1
  O2-  O283  1  0.79455445  0.17013035  0.40457722  1
  O2-  O284  1  0.79821766  0.16379333  0.72923072  1
  O2-  O285  1  0.79490836  0.66387650  0.06447200  1
  O2-  O286  1  0.79001078  0.66521349  0.40064127  1
  O2-  O287  1  0.78866096  0.67169154  0.73650820  1
