# generated using pymatgen
data_Ca2Al2SiO7
_symmetry_space_group_name_H-M   'P 1'
_cell_length_a   15.45564667
_cell_length_b   15.45464732
_cell_length_c   15.28146235
_cell_angle_alpha   89.99952035
_cell_angle_beta   89.99080010
_cell_angle_gamma   90.01335586
_symmetry_Int_Tables_number   1
_chemical_formula_structural   Ca2Al2SiO7
_chemical_formula_sum   'Ca48 Al48 Si24 O168'
_cell_volume   3650.15391717
_cell_formula_units_Z   24
loop_
 _symmetry_equiv_pos_site_id
 _symmetry_equiv_pos_as_xyz
  1  'x, y, z'
loop_
 _atom_type_symbol
 _atom_type_oxidation_number
  Ca2+  2.0
  Al0+  0.0
  Si0+  0.0
  O2-  -2.0
loop_
 _atom_site_type_symbol
 _atom_site_label
 _atom_site_symmetry_multiplicity
 _atom_site_fract_x
 _atom_site_fract_y
 _atom_site_fract_z
 _atom_site_occupancy
  Ca2+  Ca0  1  0.17441637  0.07557883  0.17799708  1
  Ca2+  Ca1  1  0.16406806  0.06931410  0.50456206  1
  Ca2+  Ca2  1  0.16215051  0.07987567  0.82998914  1
  Ca2+  Ca3  1  0.16708438  0.58141777  0.17186987  1
  Ca2+  Ca4  1  0.16402393  0.57420120  0.50664513  1
  Ca2+  Ca5  1  0.17994276  0.58021926  0.83281964  1
  Ca2+  Ca6  1  0.66897907  0.07807666  0.17013110  1
  Ca2+  Ca7  1  0.67881477  0.08139916  0.50318377  1
  Ca2+  Ca8  1  0.66852262  0.08001367  0.83893736  1
  Ca2+  Ca9  1  0.67511001  0.59025973  0.16389853  1
  Ca2+  Ca10  1  0.68048155  0.58932031  0.50324767  1
  Ca2+  Ca11  1  0.67410048  0.57955112  0.84354826  1
  Ca2+  Ca12  1  0.08432016  0.33484911  0.16668408  1
  Ca2+  Ca13  1  0.08489495  0.33412100  0.49927808  1
  Ca2+  Ca14  1  0.07915118  0.32763069  0.82000380  1
  Ca2+  Ca15  1  0.07363033  0.83336566  0.16814466  1
  Ca2+  Ca16  1  0.08480470  0.82648373  0.48940755  1
  Ca2+  Ca17  1  0.07803372  0.83352069  0.82913768  1
  Ca2+  Ca18  1  0.58769126  0.32623788  0.15752826  1
  Ca2+  Ca19  1  0.57629961  0.33491227  0.49991791  1
  Ca2+  Ca20  1  0.58473611  0.33232974  0.82986105  1
  Ca2+  Ca21  1  0.57995084  0.83090702  0.15928227  1
  Ca2+  Ca22  1  0.57010145  0.83521646  0.49700284  1
  Ca2+  Ca23  1  0.58089038  0.82797363  0.83149900  1
  Ca2+  Ca24  1  0.32967707  0.42537305  0.17123518  1
  Ca2+  Ca25  1  0.32228653  0.42009523  0.50990939  1
  Ca2+  Ca26  1  0.33603083  0.42202312  0.83417136  1
  Ca2+  Ca27  1  0.33119616  0.92213293  0.17857973  1
  Ca2+  Ca28  1  0.32540881  0.91167606  0.50422561  1
  Ca2+  Ca29  1  0.32756998  0.90943998  0.83156766  1
  Ca2+  Ca30  1  0.82811811  0.42821623  0.16993175  1
  Ca2+  Ca31  1  0.83912789  0.42904878  0.50701755  1
  Ca2+  Ca32  1  0.83480055  0.42697628  0.83784612  1
  Ca2+  Ca33  1  0.82983018  0.91198732  0.17098224  1
  Ca2+  Ca34  1  0.84613522  0.92835180  0.50193230  1
  Ca2+  Ca35  1  0.82945274  0.92179054  0.84021376  1
  Ca2+  Ca36  1  0.42074181  0.16598507  0.16061101  1
  Ca2+  Ca37  1  0.40932742  0.17168748  0.49661798  1
  Ca2+  Ca38  1  0.42572513  0.17320510  0.82626854  1
  Ca2+  Ca39  1  0.41848322  0.67222697  0.15995610  1
  Ca2+  Ca40  1  0.40787970  0.67667880  0.49832270  1
  Ca2+  Ca41  1  0.42092782  0.66188555  0.82669191  1
  Ca2+  Ca42  1  0.91537431  0.16521989  0.16428579  1
  Ca2+  Ca43  1  0.91773752  0.16765244  0.50066741  1
  Ca2+  Ca44  1  0.91937490  0.17478255  0.81955177  1
  Ca2+  Ca45  1  0.91624347  0.67084293  0.16456834  1
  Ca2+  Ca46  1  0.92186421  0.66838918  0.48845329  1
  Ca2+  Ca47  1  0.90763918  0.67093095  0.83105970  1
  Al0+  Al48  1  0.00057412  -0.00067934  -0.00403548  1
  Al0+  Al49  1  0.00056167  0.00066893  0.33494745  1
  Al0+  Al50  1  -0.00023289  0.00091388  0.67320865  1
  Al0+  Al51  1  0.00225837  0.50062113  0.00226369  1
  Al0+  Al52  1  -0.00072811  0.49913329  0.33457223  1
  Al0+  Al53  1  0.00025144  0.50044529  0.67397213  1
  Al0+  Al54  1  0.49999230  0.00139279  -0.00250862  1
  Al0+  Al55  1  0.50129877  0.00225662  0.33373145  1
  Al0+  Al56  1  0.49976774  -0.00194714  0.66202022  1
  Al0+  Al57  1  0.49903466  0.50045547  0.00562115  1
  Al0+  Al58  1  0.50008052  0.49902443  0.33191853  1
  Al0+  Al59  1  0.50325870  0.49942676  0.66173662  1
  Al0+  Al60  1  0.24973476  0.24927778  -0.00112728  1
  Al0+  Al61  1  0.24976694  0.25156673  0.33673053  1
  Al0+  Al62  1  0.25035071  0.24644093  0.66258574  1
  Al0+  Al63  1  0.24692887  0.75017673  0.00478878  1
  Al0+  Al64  1  0.25050164  0.74968796  0.32499552  1
  Al0+  Al65  1  0.24902894  0.74975743  0.67204912  1
  Al0+  Al66  1  0.75122625  0.25036904  -0.00234842  1
  Al0+  Al67  1  0.74901216  0.24981606  0.33693704  1
  Al0+  Al68  1  0.75142961  0.25031327  0.66441052  1
  Al0+  Al69  1  0.74837192  0.75270740  -0.00126611  1
  Al0+  Al70  1  0.74800574  0.75009934  0.33570535  1
  Al0+  Al71  1  0.74881724  0.75156786  0.66829879  1
  Al0+  Al72  1  0.17909580  0.43070445  0.34692172  1
  Al0+  Al73  1  0.82152062  0.57259370  0.68109904  1
  Al0+  Al74  1  0.82199083  0.57307066  0.01623374  1
  Al0+  Al75  1  0.32367084  0.07161857  0.34846547  1
  Al0+  Al76  1  0.32208427  0.57049594  0.67944900  1
  Al0+  Al77  1  0.17941880  0.42549361  0.68296343  1
  Al0+  Al78  1  0.18061020  0.92776970  0.34718763  1
  Al0+  Al79  1  0.07072738  0.67572292  0.31797404  1
  Al0+  Al80  1  0.81844036  0.57092684  0.34697793  1
  Al0+  Al81  1  0.82085886  0.07102881  0.34630800  1
  Al0+  Al82  1  0.92833348  0.82300043  0.31979282  1
  Al0+  Al83  1  0.43045660  0.32123971  0.65250081  1
  Al0+  Al84  1  0.42970268  0.82167346  0.31852725  1
  Al0+  Al85  1  0.32123893  0.57167115  0.01506627  1
  Al0+  Al86  1  0.57192302  0.17884088  0.98619095  1
  Al0+  Al87  1  0.67903433  0.42727760  0.01435840  1
  Al0+  Al88  1  0.92942408  0.32346252  0.65053311  1
  Al0+  Al89  1  0.07088585  0.17676429  0.64920844  1
  Al0+  Al90  1  0.67801390  0.93087681  0.01300056  1
  Al0+  Al91  1  0.17932474  0.92853063  0.68208529  1
  Al0+  Al92  1  0.92928070  0.81986943  0.98458565  1
  Al0+  Al93  1  0.56880105  0.67927059  0.98661733  1
  Al0+  Al94  1  0.42788755  0.81835854  0.65405521  1
  Al0+  Al95  1  0.81993864  0.07086487  0.68193147  1
  Si0+  Si96  1  0.93062209  0.32172315  0.98653465  1
  Si0+  Si97  1  0.67844860  0.42825696  0.68164108  1
  Si0+  Si98  1  0.32396921  0.57205375  0.34881845  1
  Si0+  Si99  1  0.67693629  0.42620952  0.35153096  1
  Si0+  Si100  1  0.57396542  0.67780183  0.64866152  1
  Si0+  Si101  1  0.92734816  0.82099021  0.65329968  1
  Si0+  Si102  1  0.17955124  0.42580511  0.01683775  1
  Si0+  Si103  1  0.67534796  0.92930270  0.68378724  1
  Si0+  Si104  1  0.57190730  0.67694619  0.31606829  1
  Si0+  Si105  1  0.42699583  0.32137169  0.98476316  1
  Si0+  Si106  1  0.67734778  0.92728349  0.35101626  1
  Si0+  Si107  1  0.82307222  0.07150008  0.01554058  1
  Si0+  Si108  1  0.57231000  0.18155946  0.31807148  1
  Si0+  Si109  1  0.07093483  0.18002074  0.31786741  1
  Si0+  Si110  1  0.42555020  0.82274226  0.98331044  1
  Si0+  Si111  1  0.31982437  0.07115557  0.01251727  1
  Si0+  Si112  1  0.07206198  0.17886233  0.98555435  1
  Si0+  Si113  1  0.06980627  0.68080889  0.65510022  1
  Si0+  Si114  1  0.42732784  0.32092450  0.31668789  1
  Si0+  Si115  1  0.57287393  0.17638962  0.64740160  1
  Si0+  Si116  1  0.07301741  0.67670839  0.98065289  1
  Si0+  Si117  1  0.32435181  0.07094317  0.68435191  1
  Si0+  Si118  1  0.17694205  0.92983599  0.01640635  1
  Si0+  Si119  1  0.92733929  0.32071906  0.31739952  1
  O2-  O120  1  0.25111430  -0.00120230  0.05614885  1
  O2-  O121  1  0.25489783  -0.00314478  0.39832382  1
  O2-  O122  1  0.25492527  0.00315044  0.72922446  1
  O2-  O123  1  0.24644689  0.49610259  0.06054140  1
  O2-  O124  1  0.25262062  0.50652552  0.39269634  1
  O2-  O125  1  0.25544521  0.49415477  0.73136772  1
  O2-  O126  1  0.75403545  0.00413560  0.06056686  1
  O2-  O127  1  0.75127774  -0.00855884  0.39357717  1
  O2-  O128  1  0.74352570  -0.00170133  0.72809908  1
  O2-  O129  1  0.74920079  0.50064061  0.06517425  1
  O2-  O130  1  0.74320083  0.49722098  0.39488083  1
  O2-  O131  1  0.74810223  0.49567874  0.72558629  1
  O2-  O132  1  -0.00162991  0.24938027  0.27435201  1
  O2-  O133  1  0.00207454  0.25230087  0.59927653  1
  O2-  O134  1  0.00155327  0.25045334  0.94483885  1
  O2-  O135  1  -0.00155258  0.74904461  0.26943683  1
  O2-  O136  1  -0.00405290  0.74816569  0.61163947  1
  O2-  O137  1  0.00120267  0.74254320  0.93672327  1
  O2-  O138  1  0.49909548  0.25030428  0.27497394  1
  O2-  O139  1  0.50296215  0.24440454  0.60389427  1
  O2-  O140  1  0.49930647  0.25622970  0.94077807  1
  O2-  O141  1  0.50289330  0.74554640  0.27211524  1
  O2-  O142  1  0.50119290  0.74297432  0.60574285  1
  O2-  O143  1  0.49110853  0.75112330  0.93938544  1
  O2-  O144  1  0.07341280  0.17853043  0.09095904  1
  O2-  O145  1  0.07059358  0.18002168  0.42220028  1
  O2-  O146  1  0.06699166  0.17690251  0.76384016  1
  O2-  O147  1  0.07431746  0.67776559  0.08604331  1
  O2-  O148  1  0.06912860  0.67442617  0.43224848  1
  O2-  O149  1  0.07079430  0.68411960  0.76029120  1
  O2-  O150  1  0.56883695  0.17798048  0.09969695  1
  O2-  O151  1  0.57436731  0.18430079  0.42291198  1
  O2-  O152  1  0.57198830  0.17612831  0.75325615  1
  O2-  O153  1  0.56752762  0.68340694  0.09984349  1
  O2-  O154  1  0.57205568  0.67671013  0.42172467  1
  O2-  O155  1  0.57562440  0.67874173  0.75421627  1
  O2-  O156  1  0.18237246  0.42828082  0.23326165  1
  O2-  O157  1  0.17879992  0.43011419  0.56937027  1
  O2-  O158  1  0.18074569  0.42183682  0.91188376  1
  O2-  O159  1  0.18012703  0.93323726  0.23298865  1
  O2-  O160  1  0.17934138  0.92605592  0.56952982  1
  O2-  O161  1  0.17631511  0.93085894  0.91120953  1
  O2-  O162  1  0.67879946  0.42220071  0.24623382  1
  O2-  O163  1  0.67742318  0.43007125  0.57583939  1
  O2-  O164  1  0.68199377  0.42655575  0.90073982  1
  O2-  O165  1  0.67511380  0.92977486  0.24524679  1
  O2-  O166  1  0.67443053  0.92985811  0.57818123  1
  O2-  O167  1  0.67796767  0.93335170  0.89992932  1
  O2-  O168  1  0.42268774  0.31614831  0.09046505  1
  O2-  O169  1  0.42848353  0.32144804  0.42162490  1
  O2-  O170  1  0.43457592  0.32030418  0.76598156  1
  O2-  O171  1  0.42755769  0.82480944  0.08895888  1
  O2-  O172  1  0.42991009  0.82028857  0.43180803  1
  O2-  O173  1  0.43016374  0.81797115  0.76721498  1
  O2-  O174  1  0.93134639  0.32009024  0.09210185  1
  O2-  O175  1  0.92709031  0.32103540  0.42194681  1
  O2-  O176  1  0.92954217  0.32153395  0.76486815  1
  O2-  O177  1  0.93247543  0.82373720  0.09727955  1
  O2-  O178  1  0.93119423  0.82230051  0.43386425  1
  O2-  O179  1  0.92719976  0.81988550  0.75864290  1
  O2-  O180  1  0.32167676  0.07230617  0.23366584  1
  O2-  O181  1  0.32562917  0.06876544  0.57913165  1
  O2-  O182  1  0.31806085  0.07343086  0.90775343  1
  O2-  O183  1  0.32633709  0.56770663  0.24302255  1
  O2-  O184  1  0.31684974  0.57276580  0.56594742  1
  O2-  O185  1  0.32123182  0.57009147  0.90210209  1
  O2-  O186  1  0.81667340  0.07526236  0.23315219  1
  O2-  O187  1  0.81977968  0.06837702  0.56862182  1
  O2-  O188  1  0.82281668  0.07064243  0.91009118  1
  O2-  O189  1  0.81749802  0.56981710  0.23417875  1
  O2-  O190  1  0.82068074  0.57468242  0.56775618  1
  O2-  O191  1  0.82065689  0.57019607  0.90262952  1
  O2-  O192  1  0.04378211  0.08865288  0.26907558  1
  O2-  O193  1  0.03644627  0.07870476  0.59864150  1
  O2-  O194  1  0.04492681  0.08768889  0.93691575  1
  O2-  O195  1  0.04074293  0.57773586  0.26361836  1
  O2-  O196  1  0.04476871  0.58747197  0.61036190  1
  O2-  O197  1  0.05298765  0.58071403  0.93695502  1
  O2-  O198  1  0.54755055  0.08885983  0.27098484  1
  O2-  O199  1  0.54883930  0.08262764  0.60126172  1
  O2-  O200  1  0.53747804  0.08470071  0.92921641  1
  O2-  O201  1  0.54823205  0.58232337  0.27027342  1
  O2-  O202  1  0.55550953  0.58340444  0.60187930  1
  O2-  O203  1  0.54089631  0.58046516  0.93492592  1
  O2-  O204  1  0.16226125  0.21090373  0.26972328  1
  O2-  O205  1  0.17146873  0.19634119  0.59809796  1
  O2-  O206  1  0.16364988  0.20594805  0.93682754  1
  O2-  O207  1  0.16870185  0.70186223  0.26283909  1
  O2-  O208  1  0.16022555  0.71119636  0.60717200  1
  O2-  O209  1  0.16549900  0.70806182  0.93478120  1
  O2-  O210  1  0.66287239  0.21203799  0.26883130  1
  O2-  O211  1  0.66573514  0.20392655  0.60114797  1
  O2-  O212  1  0.66927834  0.20686583  0.93167640  1
  O2-  O213  1  0.66495274  0.70413098  0.26999055  1
  O2-  O214  1  0.66500683  0.71113833  0.60039768  1
  O2-  O215  1  0.66398034  0.71232760  0.93154847  1
  O2-  O216  1  0.08593299  0.45048902  0.06349050  1
  O2-  O217  1  0.08176448  0.45715675  0.40053755  1
  O2-  O218  1  0.08339443  0.45715490  0.73823900  1
  O2-  O219  1  0.08666752  0.96271262  0.06356697  1
  O2-  O220  1  0.08327538  0.95872394  0.40013385  1
  O2-  O221  1  0.08465992  0.96143689  0.73900596  1
  O2-  O222  1  0.57944112  0.44924698  0.06731486  1
  O2-  O223  1  0.58164975  0.45008344  0.39542337  1
  O2-  O224  1  0.58560901  0.45409637  0.72868554  1
  O2-  O225  1  0.58141418  0.96315717  0.06722190  1
  O2-  O226  1  0.58704592  0.96064318  0.39898697  1
  O2-  O227  1  0.58172316  0.95435068  0.73014271  1
  O2-  O228  1  0.20610267  0.33229669  0.06451096  1
  O2-  O229  1  0.21093809  0.33530980  0.40138526  1
  O2-  O230  1  0.20394416  0.32423184  0.73160242  1
  O2-  O231  1  0.19990201  0.83735074  0.06358809  1
  O2-  O232  1  0.20663558  0.82702279  0.39607948  1
  O2-  O233  1  0.21134637  0.83428736  0.74002915  1
  O2-  O234  1  0.71034221  0.32899894  0.06803896  1
  O2-  O235  1  0.70351857  0.33425569  0.39988902  1
  O2-  O236  1  0.70071845  0.33320743  0.72570112  1
  O2-  O237  1  0.70766536  0.83522430  0.06801425  1
  O2-  O238  1  0.69480728  0.83234005  0.39668765  1
  O2-  O239  1  0.70214919  0.83617944  0.72980987  1
  O2-  O240  1  0.45481393  0.41303880  0.26904706  1
  O2-  O241  1  0.46274842  0.41613813  0.59480802  1
  O2-  O242  1  0.44858345  0.41668481  0.94226439  1
  O2-  O243  1  0.46167000  0.91952381  0.26616942  1
  O2-  O244  1  0.45859242  0.91442068  0.59815227  1
  O2-  O245  1  0.45280631  0.91549114  0.93646327  1
  O2-  O246  1  0.95685990  0.41105698  0.26854547  1
  O2-  O247  1  0.95789842  0.42361210  0.60081344  1
  O2-  O248  1  0.95871517  0.41373761  0.93973393  1
  O2-  O249  1  0.95698809  0.92152271  0.26568855  1
  O2-  O250  1  0.95807154  0.91289845  0.60940110  1
  O2-  O251  1  0.96340715  0.91596970  0.92925905  1
  O2-  O252  1  0.33591814  0.29271674  0.26845724  1
  O2-  O253  1  0.33402367  0.29092482  0.59827371  1
  O2-  O254  1  0.33528086  0.29133000  0.93619440  1
  O2-  O255  1  0.33422163  0.79406495  0.26086949  1
  O2-  O256  1  0.33072191  0.78709671  0.60106581  1
  O2-  O257  1  0.32936450  0.79967291  0.94149217  1
  O2-  O258  1  0.83524563  0.29137538  0.27079558  1
  O2-  O259  1  0.83075333  0.29534610  0.59731383  1
  O2-  O260  1  0.83969192  0.29459308  0.93782112  1
  O2-  O261  1  0.82752872  0.79651614  0.27020304  1
  O2-  O262  1  0.83418545  0.79806319  0.60644103  1
  O2-  O263  1  0.83172159  0.79373734  0.93053806  1
  O2-  O264  1  0.41208615  0.04525634  0.05970904  1
  O2-  O265  1  0.42408098  0.05070884  0.39986697  1
  O2-  O266  1  0.41836048  0.04415668  0.72975963  1
  O2-  O267  1  0.41587847  0.54171309  0.07256212  1
  O2-  O268  1  0.41692098  0.54463168  0.39539532  1
  O2-  O269  1  0.42371538  0.54547553  0.72761888  1
  O2-  O270  1  0.91751099  0.04579020  0.06033918  1
  O2-  O271  1  0.91817083  0.04466888  0.40044078  1
  O2-  O272  1  0.91435474  0.03919913  0.73856948  1
  O2-  O273  1  0.92140864  0.54420037  0.06737691  1
  O2-  O274  1  0.91424231  0.53768675  0.39994110  1
  O2-  O275  1  0.91686678  0.54452834  0.73804073  1
  O2-  O276  1  0.29092626  0.16226418  0.06182963  1
  O2-  O277  1  0.29313735  0.16940796  0.39978652  1
  O2-  O278  1  0.30010231  0.16470744  0.73021507  1
  O2-  O279  1  0.28949691  0.66808965  0.06960905  1
  O2-  O280  1  0.30144708  0.66791144  0.38924460  1
  O2-  O281  1  0.28943066  0.66543820  0.73659923  1
  O2-  O282  1  0.79925877  0.16582410  0.06030302  1
  O2-  O283  1  0.78587335  0.16554869  0.40230648  1
  O2-  O284  1  0.79108942  0.16909385  0.73377239  1
  O2-  O285  1  0.79159200  0.67148479  0.06683275  1
  O2-  O286  1  0.78872522  0.66744926  0.40240404  1
  O2-  O287  1  0.78797887  0.66897867  0.73433156  1
