# generated using pymatgen
data_Ca2Al2SiO7
_symmetry_space_group_name_H-M   'P 1'
_cell_length_a   15.45456410
_cell_length_b   15.45457543
_cell_length_c   15.28158299
_cell_angle_alpha   89.99332569
_cell_angle_beta   89.99492400
_cell_angle_gamma   89.98087962
_symmetry_Int_Tables_number   1
_chemical_formula_structural   Ca2Al2SiO7
_chemical_formula_sum   'Ca48 Al48 Si24 O168'
_cell_volume   3649.90998862
_cell_formula_units_Z   24
loop_
 _symmetry_equiv_pos_site_id
 _symmetry_equiv_pos_as_xyz
  1  'x, y, z'
loop_
 _atom_type_symbol
 _atom_type_oxidation_number
  Ca2+  2.0
  Al0+  0.0
  Si0+  0.0
  O2-  -2.0
loop_
 _atom_site_type_symbol
 _atom_site_label
 _atom_site_symmetry_multiplicity
 _atom_site_fract_x
 _atom_site_fract_y
 _atom_site_fract_z
 _atom_site_occupancy
  Ca2+  Ca0  1  0.16460881  0.08479972  0.17060718  1
  Ca2+  Ca1  1  0.16651187  0.07631058  0.50879478  1
  Ca2+  Ca2  1  0.15383210  0.08078753  0.83435829  1
  Ca2+  Ca3  1  0.16808753  0.57469575  0.17678822  1
  Ca2+  Ca4  1  0.17720840  0.58260886  0.50466939  1
  Ca2+  Ca5  1  0.16819115  0.58962252  0.83536898  1
  Ca2+  Ca6  1  0.67902978  0.08609568  0.17407560  1
  Ca2+  Ca7  1  0.66916208  0.09125981  0.50311895  1
  Ca2+  Ca8  1  0.67147774  0.08402501  0.83861050  1
  Ca2+  Ca9  1  0.67751485  0.58539695  0.17310377  1
  Ca2+  Ca10  1  0.66642578  0.58259536  0.50596110  1
  Ca2+  Ca11  1  0.67149830  0.57761615  0.83632979  1
  Ca2+  Ca12  1  0.08001398  0.33014833  0.15727924  1
  Ca2+  Ca13  1  0.08342892  0.33287909  0.49992411  1
  Ca2+  Ca14  1  0.06886076  0.32485006  0.82836328  1
  Ca2+  Ca15  1  0.07186335  0.82464195  0.16083186  1
  Ca2+  Ca16  1  0.08334723  0.82886059  0.49881842  1
  Ca2+  Ca17  1  0.07837731  0.82642648  0.82988865  1
  Ca2+  Ca18  1  0.57265234  0.33595276  0.16817331  1
  Ca2+  Ca19  1  0.58298866  0.32835776  0.49590213  1
  Ca2+  Ca20  1  0.58258026  0.33279965  0.82614607  1
  Ca2+  Ca21  1  0.58078525  0.82882316  0.17134497  1
  Ca2+  Ca22  1  0.57721397  0.82019405  0.49035694  1
  Ca2+  Ca23  1  0.58322936  0.82515046  0.82699227  1
  Ca2+  Ca24  1  0.32784935  0.41531002  0.17720725  1
  Ca2+  Ca25  1  0.33445136  0.42305739  0.49996126  1
  Ca2+  Ca26  1  0.33648402  0.42255816  0.83652206  1
  Ca2+  Ca27  1  0.33161837  0.91599635  0.17343470  1
  Ca2+  Ca28  1  0.32965146  0.91267214  0.50722320  1
  Ca2+  Ca29  1  0.32369523  0.91773939  0.83423970  1
  Ca2+  Ca30  1  0.84236874  0.42976202  0.17072826  1
  Ca2+  Ca31  1  0.82819908  0.42160723  0.50628137  1
  Ca2+  Ca32  1  0.83128536  0.41305752  0.83752376  1
  Ca2+  Ca33  1  0.84313787  0.92499769  0.17238629  1
  Ca2+  Ca34  1  0.83805962  0.92171779  0.49797856  1
  Ca2+  Ca35  1  0.83479414  0.92166116  0.84228866  1
  Ca2+  Ca36  1  0.41913002  0.17916197  0.16394570  1
  Ca2+  Ca37  1  0.43051899  0.17004231  0.48966464  1
  Ca2+  Ca38  1  0.42234033  0.17583484  0.82785345  1
  Ca2+  Ca39  1  0.41972177  0.66217103  0.17084882  1
  Ca2+  Ca40  1  0.42316145  0.66111760  0.49363905  1
  Ca2+  Ca41  1  0.42149641  0.66501826  0.82340336  1
  Ca2+  Ca42  1  0.91838234  0.17007120  0.15765206  1
  Ca2+  Ca43  1  0.91698987  0.17305141  0.49888623  1
  Ca2+  Ca44  1  0.91835903  0.17241688  0.83034247  1
  Ca2+  Ca45  1  0.91368115  0.67294868  0.15814059  1
  Ca2+  Ca46  1  0.92018278  0.67056918  0.49251039  1
  Ca2+  Ca47  1  0.92671512  0.66253134  0.83254971  1
  Al0+  Al48  1  -0.00051603  -0.00301694  -0.00047109  1
  Al0+  Al49  1  -0.00008737  0.00000639  0.33583515  1
  Al0+  Al50  1  -0.00005171  0.00097009  0.66853622  1
  Al0+  Al51  1  0.00093390  0.49923045  -0.00370494  1
  Al0+  Al52  1  0.00029044  0.49851623  0.34429444  1
  Al0+  Al53  1  0.00157606  0.50186099  0.65828018  1
  Al0+  Al54  1  0.49831292  -0.00091551  0.00127210  1
  Al0+  Al55  1  0.50232494  -0.00136277  0.32503300  1
  Al0+  Al56  1  0.50022182  0.00123281  0.66626801  1
  Al0+  Al57  1  0.49995581  0.50002291  -0.00214917  1
  Al0+  Al58  1  0.50052258  0.49894327  0.32770109  1
  Al0+  Al59  1  0.50135686  0.50044273  0.67198336  1
  Al0+  Al60  1  0.25194297  0.24983716  -0.00959713  1
  Al0+  Al61  1  0.24982083  0.24740683  0.33662910  1
  Al0+  Al62  1  0.24907771  0.25148065  0.66445452  1
  Al0+  Al63  1  0.25162879  0.75103816  -0.00016592  1
  Al0+  Al64  1  0.24941467  0.74881920  0.33276815  1
  Al0+  Al65  1  0.24795952  0.75182275  0.67358065  1
  Al0+  Al66  1  0.74705787  0.24898023  0.00430745  1
  Al0+  Al67  1  0.75295233  0.25060069  0.33293327  1
  Al0+  Al68  1  0.74921298  0.25210110  0.66452373  1
  Al0+  Al69  1  0.74738290  0.74986583  -0.00030827  1
  Al0+  Al70  1  0.75059772  0.75310176  0.33037371  1
  Al0+  Al71  1  0.74997538  0.75120139  0.66400338  1
  Al0+  Al72  1  0.17873400  0.93118522  0.68226512  1
  Al0+  Al73  1  0.92615988  0.32191209  0.98752602  1
  Al0+  Al74  1  0.57095726  0.67852921  0.65446027  1
  Al0+  Al75  1  0.57533332  0.17843899  0.31579256  1
  Al0+  Al76  1  0.82022202  0.06927701  0.01355660  1
  Al0+  Al77  1  0.56987212  0.17909098  0.65421286  1
  Al0+  Al78  1  0.57209159  0.67688060  0.31703979  1
  Al0+  Al79  1  0.68126591  0.43015896  0.68012366  1
  Al0+  Al80  1  0.17808677  0.42494061  0.34967672  1
  Al0+  Al81  1  0.42783444  0.31948199  0.31968232  1
  Al0+  Al82  1  0.07061307  0.17779313  0.64947523  1
  Al0+  Al83  1  0.82034013  0.57475561  0.34795733  1
  Al0+  Al84  1  0.92651330  0.81996424  0.98442708  1
  Al0+  Al85  1  0.32133276  0.57080096  0.34733697  1
  Al0+  Al86  1  0.42594039  0.82033151  0.31884532  1
  Al0+  Al87  1  0.82145275  0.07163897  0.34922494  1
  Al0+  Al88  1  0.07238642  0.68080508  0.65094435  1
  Al0+  Al89  1  0.31954059  0.56906573  0.68177609  1
  Al0+  Al90  1  0.82130167  0.56884144  0.01160022  1
  Al0+  Al91  1  0.92779750  0.32158737  0.64922945  1
  Al0+  Al92  1  0.07272815  0.67804251  0.98660657  1
  Al0+  Al93  1  0.07138092  0.17771338  0.98631108  1
  Al0+  Al94  1  0.93125639  0.82121160  0.32052028  1
  Al0+  Al95  1  0.42991276  0.32181289  0.98398547  1
  Si0+  Si96  1  0.32407486  0.07385799  0.68329830  1
  Si0+  Si97  1  0.57055864  0.17684373  0.98391207  1
  Si0+  Si98  1  0.18165848  0.42871731  0.01102353  1
  Si0+  Si99  1  0.93046801  0.32220811  0.31888273  1
  Si0+  Si100  1  0.06992806  0.17826892  0.32008242  1
  Si0+  Si101  1  0.67474020  0.92656114  0.01830181  1
  Si0+  Si102  1  0.67737194  0.92764576  0.68068164  1
  Si0+  Si103  1  0.81865652  0.07053315  0.68170613  1
  Si0+  Si104  1  0.82380482  0.57484343  0.68256769  1
  Si0+  Si105  1  0.42820745  0.32371124  0.65003173  1
  Si0+  Si106  1  0.42836733  0.82278520  0.98284392  1
  Si0+  Si107  1  0.42818545  0.82143666  0.65365993  1
  Si0+  Si108  1  0.18013948  0.92886021  0.01722496  1
  Si0+  Si109  1  0.92733510  0.82303167  0.64952364  1
  Si0+  Si110  1  0.32139445  0.07167323  0.01519690  1
  Si0+  Si111  1  0.67682375  0.92957767  0.35122555  1
  Si0+  Si112  1  0.07094053  0.67593290  0.31841943  1
  Si0+  Si113  1  0.67565679  0.42764265  0.01880464  1
  Si0+  Si114  1  0.17979667  0.92986031  0.34696828  1
  Si0+  Si115  1  0.17584372  0.42685250  0.68642723  1
  Si0+  Si116  1  0.32314926  0.06969100  0.34661843  1
  Si0+  Si117  1  0.32279907  0.57208242  0.01556215  1
  Si0+  Si118  1  0.56940413  0.67983539  0.98367696  1
  Si0+  Si119  1  0.67925168  0.42933682  0.34844729  1
  O2-  O120  1  0.24833500  0.00317833  0.05913310  1
  O2-  O121  1  0.25649409  -0.00512572  0.38917610  1
  O2-  O122  1  0.25154438  0.00923126  0.72847656  1
  O2-  O123  1  0.25011321  0.50182463  0.05511821  1
  O2-  O124  1  0.25014240  0.49835189  0.39766683  1
  O2-  O125  1  0.24510516  0.49505191  0.73123422  1
  O2-  O126  1  0.74546537  -0.00594413  0.06075210  1
  O2-  O127  1  0.74312001  0.00052252  0.39635155  1
  O2-  O128  1  0.74815801  -0.00155343  0.72347272  1
  O2-  O129  1  0.74958481  0.49185460  0.06103178  1
  O2-  O130  1  0.74356866  0.50175963  0.39353684  1
  O2-  O131  1  0.75723328  0.50402116  0.72677083  1
  O2-  O132  1  0.00290003  0.25223759  0.27750056  1
  O2-  O133  1  0.00195238  0.25170268  0.59834827  1
  O2-  O134  1  -0.00465321  0.24652086  0.93842928  1
  O2-  O135  1  -0.00087501  0.74061379  0.27341370  1
  O2-  O136  1  -0.00585087  0.75245563  0.60557894  1
  O2-  O137  1  -0.00214541  0.74702108  0.93558690  1
  O2-  O138  1  0.50057486  0.24871901  0.26800319  1
  O2-  O139  1  0.49216821  0.25006358  0.60725850  1
  O2-  O140  1  0.50575789  0.24806898  0.93823065  1
  O2-  O141  1  0.49663926  0.74708550  0.26811251  1
  O2-  O142  1  0.49614316  0.75326929  0.60881324  1
  O2-  O143  1  0.49831258  0.75097462  0.94121220  1
  O2-  O144  1  0.07416444  0.18083581  0.10058993  1
  O2-  O145  1  0.06846207  0.17555039  0.42477688  1
  O2-  O146  1  0.06494384  0.17655945  0.76277804  1
  O2-  O147  1  0.07531752  0.67951184  0.10024421  1
  O2-  O148  1  0.07235595  0.68079432  0.42393697  1
  O2-  O149  1  0.07188156  0.68304245  0.76406266  1
  O2-  O150  1  0.56773514  0.17574421  0.08899198  1
  O2-  O151  1  0.57315070  0.18010219  0.42976514  1
  O2-  O152  1  0.56924563  0.17868188  0.76758905  1
  O2-  O153  1  0.56838321  0.67993671  0.08839133  1
  O2-  O154  1  0.57135064  0.67841266  0.43080708  1
  O2-  O155  1  0.57034301  0.68134365  0.76814835  1
  O2-  O156  1  0.17689579  0.42433384  0.23500382  1
  O2-  O157  1  0.17863369  0.42697749  0.58108203  1
  O2-  O158  1  0.18423474  0.42937471  0.90621003  1
  O2-  O159  1  0.17854217  0.93313058  0.24172087  1
  O2-  O160  1  0.18183936  0.93056271  0.56861813  1
  O2-  O161  1  0.18298625  0.92788891  0.91230284  1
  O2-  O162  1  0.68214830  0.42905517  0.24263318  1
  O2-  O163  1  0.68023947  0.43105919  0.56708263  1
  O2-  O164  1  0.67269711  0.42992891  0.91306251  1
  O2-  O165  1  0.67792115  0.92967095  0.24556405  1
  O2-  O166  1  0.67620520  0.92668566  0.57618763  1
  O2-  O167  1  0.67174002  0.92794170  0.91206954  1
  O2-  O168  1  0.42765328  0.32073356  0.09668923  1
  O2-  O169  1  0.42864436  0.31700117  0.43319718  1
  O2-  O170  1  0.43124683  0.32305335  0.75614164  1
  O2-  O171  1  0.42694272  0.82404456  0.08743421  1
  O2-  O172  1  0.42700404  0.82226632  0.43249081  1
  O2-  O173  1  0.43095682  0.82160445  0.75988511  1
  O2-  O174  1  0.93170844  0.32359459  0.10157765  1
  O2-  O175  1  0.92855266  0.32017145  0.42361389  1
  O2-  O176  1  0.92572760  0.31770792  0.76294805  1
  O2-  O177  1  0.93029716  0.82056694  0.09810146  1
  O2-  O178  1  0.93623815  0.82369764  0.43370912  1
  O2-  O179  1  0.92648122  0.82360415  0.75495976  1
  O2-  O180  1  0.31807027  0.07184044  0.24124225  1
  O2-  O181  1  0.32714242  0.06892063  0.57766201  1
  O2-  O182  1  0.32551478  0.06792427  0.91043959  1
  O2-  O183  1  0.31701648  0.57025978  0.23302784  1
  O2-  O184  1  0.32105534  0.56834808  0.56922211  1
  O2-  O185  1  0.32483174  0.57241864  0.91043983  1
  O2-  O186  1  0.82461324  0.06967139  0.23625082  1
  O2-  O187  1  0.81848637  0.06931353  0.57651170  1
  O2-  O188  1  0.81661409  0.06851373  0.89992123  1
  O2-  O189  1  0.82236179  0.57214878  0.23440072  1
  O2-  O190  1  0.81989193  0.57669609  0.57696715  1
  O2-  O191  1  0.81765046  0.56918129  0.89854210  1
  O2-  O192  1  0.03936768  0.08803147  0.27127048  1
  O2-  O193  1  0.04087149  0.07910113  0.59750231  1
  O2-  O194  1  0.04556304  0.07802005  0.93621752  1
  O2-  O195  1  0.04843471  0.57961656  0.27738231  1
  O2-  O196  1  0.04833991  0.58397125  0.59558234  1
  O2-  O197  1  0.04754826  0.58014690  0.93177380  1
  O2-  O198  1  0.55023664  0.07970680  0.26310907  1
  O2-  O199  1  0.54276693  0.08145283  0.59948137  1
  O2-  O200  1  0.54216609  0.08347490  0.93782392  1
  O2-  O201  1  0.54702343  0.57926542  0.26132019  1
  O2-  O202  1  0.53950957  0.58211420  0.60223117  1
  O2-  O203  1  0.54086151  0.58844045  0.93620772  1
  O2-  O204  1  0.16357019  0.20097561  0.27422700  1
  O2-  O205  1  0.17191961  0.20114911  0.59921419  1
  O2-  O206  1  0.16820017  0.20520032  0.93010304  1
  O2-  O207  1  0.16299069  0.70385888  0.27114335  1
  O2-  O208  1  0.16806042  0.71779184  0.59918557  1
  O2-  O209  1  0.17076361  0.71055987  0.93381600  1
  O2-  O210  1  0.67332333  0.20945365  0.26375362  1
  O2-  O211  1  0.66457115  0.21200340  0.59963362  1
  O2-  O212  1  0.66525286  0.19932463  0.93943839  1
  O2-  O213  1  0.66829834  0.71163186  0.26305042  1
  O2-  O214  1  0.66692876  0.70962022  0.60008117  1
  O2-  O215  1  0.66007864  0.70813849  0.93491993  1
  O2-  O216  1  0.08913220  0.45342089  0.05871283  1
  O2-  O217  1  0.08161923  0.45225294  0.40649861  1
  O2-  O218  1  0.08119267  0.45457574  0.72892908  1
  O2-  O219  1  0.08747507  0.95292193  0.06424448  1
  O2-  O220  1  0.09171905  0.96395548  0.39727121  1
  O2-  O221  1  0.08165665  0.96067091  0.73711479  1
  O2-  O222  1  0.58415999  0.46103036  0.06551506  1
  O2-  O223  1  0.58361163  0.44952291  0.39185632  1
  O2-  O224  1  0.58640486  0.46144771  0.73777705  1
  O2-  O225  1  0.58121920  0.95321186  0.06492985  1
  O2-  O226  1  0.58137298  0.95148405  0.39554116  1
  O2-  O227  1  0.58576592  0.95506365  0.73021574  1
  O2-  O228  1  0.21220398  0.33669931  0.05726079  1
  O2-  O229  1  0.20677865  0.32679085  0.40396738  1
  O2-  O230  1  0.19934586  0.33173713  0.73112030  1
  O2-  O231  1  0.21334749  0.83886622  0.06560021  1
  O2-  O232  1  0.20228956  0.83637874  0.39332602  1
  O2-  O233  1  0.21230100  0.83784630  0.74082356  1
  O2-  O234  1  0.69221076  0.33186521  0.06312012  1
  O2-  O235  1  0.70944198  0.33727078  0.39511936  1
  O2-  O236  1  0.71112039  0.33333562  0.73575680  1
  O2-  O237  1  0.69713695  0.83214364  0.06331394  1
  O2-  O238  1  0.70541486  0.83704915  0.39759243  1
  O2-  O239  1  0.70591503  0.83643539  0.73023349  1
  O2-  O240  1  0.45436002  0.41679359  0.26389533  1
  O2-  O241  1  0.46032225  0.41518386  0.60526490  1
  O2-  O242  1  0.46060066  0.41864137  0.93009206  1
  O2-  O243  1  0.45523281  0.91716395  0.26190384  1
  O2-  O244  1  0.45231962  0.91532739  0.60811066  1
  O2-  O245  1  0.45618494  0.91441346  0.93468681  1
  O2-  O246  1  0.95864071  0.41525243  0.27413481  1
  O2-  O247  1  0.95270325  0.42077390  0.59695389  1
  O2-  O248  1  0.95689823  0.41742341  0.93117675  1
  O2-  O249  1  0.96904711  0.91582219  0.26624181  1
  O2-  O250  1  0.95574152  0.91601163  0.60439569  1
  O2-  O251  1  0.95802033  0.91675350  0.93083601  1
  O2-  O252  1  0.32979400  0.28676179  0.26660987  1
  O2-  O253  1  0.33237441  0.30525999  0.60718147  1
  O2-  O254  1  0.33660750  0.28915156  0.92553449  1
  O2-  O255  1  0.32711238  0.79451112  0.26393660  1
  O2-  O256  1  0.33377057  0.79739422  0.61072620  1
  O2-  O257  1  0.33691727  0.79512860  0.93495986  1
  O2-  O258  1  0.83998875  0.29435077  0.27006504  1
  O2-  O259  1  0.83111551  0.28950558  0.59543502  1
  O2-  O260  1  0.82529308  0.29627338  0.93828394  1
  O2-  O261  1  0.83294900  0.79962573  0.26715900  1
  O2-  O262  1  0.83333790  0.80046028  0.60270957  1
  O2-  O263  1  0.82581328  0.79722131  0.93356083  1
  O2-  O264  1  0.41174803  0.04133710  0.06474317  1
  O2-  O265  1  0.41748054  0.04533176  0.39023782  1
  O2-  O266  1  0.41591836  0.04453666  0.73269793  1
  O2-  O267  1  0.41422214  0.54225883  0.06246670  1
  O2-  O268  1  0.42163590  0.54311130  0.39691045  1
  O2-  O269  1  0.41549603  0.53802610  0.73814058  1
  O2-  O270  1  0.91753521  0.03850556  0.06738826  1
  O2-  O271  1  0.91625946  0.03569448  0.40453245  1
  O2-  O272  1  0.91013647  0.04277925  0.72913570  1
  O2-  O273  1  0.91958521  0.54139753  0.06551036  1
  O2-  O274  1  0.91503181  0.54263062  0.40431911  1
  O2-  O275  1  0.91971806  0.55128958  0.72413941  1
  O2-  O276  1  0.29425854  0.16502573  0.05998170  1
  O2-  O277  1  0.29287344  0.15836463  0.39788758  1
  O2-  O278  1  0.30303841  0.16984513  0.72634035  1
  O2-  O279  1  0.29864934  0.66557342  0.06140203  1
  O2-  O280  1  0.29337657  0.66977177  0.40049258  1
  O2-  O281  1  0.28997144  0.66612463  0.73667729  1
  O2-  O282  1  0.79016664  0.16593733  0.06920553  1
  O2-  O283  1  0.79327761  0.16937238  0.40250509  1
  O2-  O284  1  0.78823067  0.16157441  0.72825609  1
  O2-  O285  1  0.78687095  0.66548377  0.06469579  1
  O2-  O286  1  0.79307388  0.67303351  0.40009132  1
  O2-  O287  1  0.79627178  0.66824376  0.72881208  1
