# generated using pymatgen
data_Ca2Al2SiO7
_symmetry_space_group_name_H-M   'P 1'
_cell_length_a   15.45917067
_cell_length_b   15.45966736
_cell_length_c   15.28427381
_cell_angle_alpha   90.00353024
_cell_angle_beta   89.99324940
_cell_angle_gamma   90.01519130
_symmetry_Int_Tables_number   1
_chemical_formula_structural   Ca2Al2SiO7
_chemical_formula_sum   'Ca48 Al48 Si24 O168'
_cell_volume   3652.84401359
_cell_formula_units_Z   24
loop_
 _symmetry_equiv_pos_site_id
 _symmetry_equiv_pos_as_xyz
  1  'x, y, z'
loop_
 _atom_type_symbol
 _atom_type_oxidation_number
  Ca2+  2.0
  Al0+  0.0
  Si0+  0.0
  O2-  -2.0
loop_
 _atom_site_type_symbol
 _atom_site_label
 _atom_site_symmetry_multiplicity
 _atom_site_fract_x
 _atom_site_fract_y
 _atom_site_fract_z
 _atom_site_occupancy
  Ca2+  Ca0  1  0.16843882  0.07779006  0.17523904  1
  Ca2+  Ca1  1  0.17291478  0.07489650  0.50721347  1
  Ca2+  Ca2  1  0.16810413  0.08660012  0.83119620  1
  Ca2+  Ca3  1  0.16890122  0.57999520  0.17389523  1
  Ca2+  Ca4  1  0.16911656  0.57857502  0.50184518  1
  Ca2+  Ca5  1  0.16286611  0.58980884  0.83550776  1
  Ca2+  Ca6  1  0.67416666  0.07184265  0.17180991  1
  Ca2+  Ca7  1  0.66994041  0.08248109  0.49761161  1
  Ca2+  Ca8  1  0.66738051  0.07824617  0.83963028  1
  Ca2+  Ca9  1  0.67963270  0.58095492  0.16808405  1
  Ca2+  Ca10  1  0.67855222  0.58137311  0.50762602  1
  Ca2+  Ca11  1  0.67582724  0.57375042  0.83908178  1
  Ca2+  Ca12  1  0.07991627  0.32815653  0.15880580  1
  Ca2+  Ca13  1  0.08984916  0.32618957  0.49599900  1
  Ca2+  Ca14  1  0.07797125  0.32363826  0.83194511  1
  Ca2+  Ca15  1  0.07739520  0.82863848  0.15771317  1
  Ca2+  Ca16  1  0.09095405  0.83093923  0.49904982  1
  Ca2+  Ca17  1  0.07990922  0.82294021  0.82760345  1
  Ca2+  Ca18  1  0.57899652  0.33630434  0.16380442  1
  Ca2+  Ca19  1  0.57296912  0.33970489  0.49630844  1
  Ca2+  Ca20  1  0.58156433  0.33988898  0.82565407  1
  Ca2+  Ca21  1  0.58076812  0.83777348  0.15939394  1
  Ca2+  Ca22  1  0.57785771  0.83796954  0.49562872  1
  Ca2+  Ca23  1  0.57312372  0.84032506  0.83042761  1
  Ca2+  Ca24  1  0.32553979  0.42292288  0.17879011  1
  Ca2+  Ca25  1  0.33444138  0.41572024  0.50016862  1
  Ca2+  Ca26  1  0.33327336  0.41580889  0.83479897  1
  Ca2+  Ca27  1  0.32645060  0.92106244  0.17508799  1
  Ca2+  Ca28  1  0.32539312  0.92445602  0.50798738  1
  Ca2+  Ca29  1  0.33135727  0.91551925  0.83366968  1
  Ca2+  Ca30  1  0.83959826  0.42551080  0.16811366  1
  Ca2+  Ca31  1  0.82936565  0.42801192  0.50948002  1
  Ca2+  Ca32  1  0.82973551  0.42325270  0.84203431  1
  Ca2+  Ca33  1  0.82633480  0.91427784  0.17245018  1
  Ca2+  Ca34  1  0.82905717  0.92041412  0.49865356  1
  Ca2+  Ca35  1  0.82906908  0.91369843  0.84155487  1
  Ca2+  Ca36  1  0.41253489  0.17009356  0.16788641  1
  Ca2+  Ca37  1  0.40648859  0.17415672  0.49627353  1
  Ca2+  Ca38  1  0.41883891  0.17193868  0.82255749  1
  Ca2+  Ca39  1  0.41613381  0.67277604  0.16090513  1
  Ca2+  Ca40  1  0.41497081  0.67110174  0.49577958  1
  Ca2+  Ca41  1  0.41720614  0.68087512  0.82783209  1
  Ca2+  Ca42  1  0.92184816  0.16968416  0.15691167  1
  Ca2+  Ca43  1  0.92117535  0.16352328  0.49517064  1
  Ca2+  Ca44  1  0.92626712  0.16843749  0.82975034  1
  Ca2+  Ca45  1  0.91943159  0.66764798  0.15773920  1
  Ca2+  Ca46  1  0.91889956  0.66070955  0.49850412  1
  Ca2+  Ca47  1  0.91994215  0.66393484  0.83240407  1
  Al0+  Al48  1  0.00236431  -0.00148344  -0.00812189  1
  Al0+  Al49  1  -0.00162953  -0.00198027  0.33819723  1
  Al0+  Al50  1  0.00021950  -0.00172051  0.66610475  1
  Al0+  Al51  1  0.00146646  0.49744099  -0.00364604  1
  Al0+  Al52  1  0.00089163  0.49888149  0.34094305  1
  Al0+  Al53  1  0.00105908  0.50067557  0.66671093  1
  Al0+  Al54  1  0.49941964  0.00267729  0.00070314  1
  Al0+  Al55  1  0.49988053  0.00184770  0.33796610  1
  Al0+  Al56  1  0.49910510  0.00260609  0.66402918  1
  Al0+  Al57  1  0.49982289  0.50158543  0.00363671  1
  Al0+  Al58  1  0.49989080  0.50192181  0.32909147  1
  Al0+  Al59  1  0.49992358  0.50166098  0.66578876  1
  Al0+  Al60  1  0.25180370  0.25050963  -0.00273026  1
  Al0+  Al61  1  0.24934137  0.25021814  0.33219431  1
  Al0+  Al62  1  0.25041657  0.24966638  0.66336649  1
  Al0+  Al63  1  0.25109038  0.75210402  -0.00614973  1
  Al0+  Al64  1  0.25030849  0.74823861  0.33721152  1
  Al0+  Al65  1  0.24860389  0.75054255  0.66137745  1
  Al0+  Al66  1  0.74768474  0.24927224  0.00069240  1
  Al0+  Al67  1  0.74920067  0.24969200  0.33405047  1
  Al0+  Al68  1  0.74945385  0.24936182  0.66929222  1
  Al0+  Al69  1  0.74843980  0.74749423  0.00377338  1
  Al0+  Al70  1  0.74927266  0.74895703  0.34114201  1
  Al0+  Al71  1  0.75073739  0.75031065  0.67114620  1
  Al0+  Al72  1  0.17864385  0.92723636  0.68576761  1
  Al0+  Al73  1  0.32320033  0.57138382  0.34821407  1
  Al0+  Al74  1  0.32021584  0.07178232  0.34740509  1
  Al0+  Al75  1  0.17740261  0.92716213  0.34670240  1
  Al0+  Al76  1  0.42887780  0.32085877  0.31697705  1
  Al0+  Al77  1  0.82348540  0.56847323  0.01676447  1
  Al0+  Al78  1  0.82348444  0.57168117  0.68545443  1
  Al0+  Al79  1  0.42977426  0.82250551  0.65020017  1
  Al0+  Al80  1  0.82122122  0.56978047  0.34812062  1
  Al0+  Al81  1  0.43085248  0.82308088  0.98765711  1
  Al0+  Al82  1  0.82156241  0.07285536  0.34673928  1
  Al0+  Al83  1  0.06939014  0.67858562  0.64928565  1
  Al0+  Al84  1  0.07159848  0.67844381  0.98710113  1
  Al0+  Al85  1  0.67847901  0.92815108  0.34909063  1
  Al0+  Al86  1  0.92681448  0.32005499  0.98562631  1
  Al0+  Al87  1  0.67840977  0.92931089  0.01182197  1
  Al0+  Al88  1  0.06959925  0.17888417  0.64994483  1
  Al0+  Al89  1  0.32026057  0.07184425  0.68393899  1
  Al0+  Al90  1  0.67654061  0.42641675  0.01794797  1
  Al0+  Al91  1  0.67789142  0.42919311  0.68075271  1
  Al0+  Al92  1  0.07398014  0.17744062  0.98517543  1
  Al0+  Al93  1  0.92543878  0.82028521  0.98670542  1
  Al0+  Al94  1  0.17902736  0.42906773  0.34804199  1
  Al0+  Al95  1  0.43074360  0.32219868  0.65282981  1
  Si0+  Si96  1  0.07063912  0.67771364  0.31942356  1
  Si0+  Si97  1  0.92739716  0.32065271  0.64921733  1
  Si0+  Si98  1  0.82184948  0.07091918  0.68283204  1
  Si0+  Si99  1  0.18029741  0.42822571  0.68314358  1
  Si0+  Si100  1  0.67853904  0.93040447  0.68192454  1
  Si0+  Si101  1  0.06903054  0.17769962  0.31903212  1
  Si0+  Si102  1  0.57101330  0.67670986  0.98351918  1
  Si0+  Si103  1  0.32065578  0.57177251  0.68224453  1
  Si0+  Si104  1  0.92840473  0.32193313  0.32058869  1
  Si0+  Si105  1  0.18179257  0.42741698  0.01271829  1
  Si0+  Si106  1  0.57189142  0.68024580  0.65027417  1
  Si0+  Si107  1  0.42919475  0.82164488  0.31865187  1
  Si0+  Si108  1  0.32060578  0.07273428  0.01516568  1
  Si0+  Si109  1  0.57284362  0.68051389  0.31740914  1
  Si0+  Si110  1  0.18010324  0.92807660  0.01358477  1
  Si0+  Si111  1  0.43047373  0.32265162  0.98579740  1
  Si0+  Si112  1  0.31985211  0.57339606  0.01269713  1
  Si0+  Si113  1  0.92523121  0.82198576  0.64763125  1
  Si0+  Si114  1  0.67721249  0.42791505  0.34878911  1
  Si0+  Si115  1  0.92783815  0.81942843  0.32022409  1
  Si0+  Si116  1  0.57349992  0.17729441  0.31387046  1
  Si0+  Si117  1  0.57436568  0.17770358  0.64862633  1
  Si0+  Si118  1  0.56928302  0.17913445  0.98622793  1
  Si0+  Si119  1  0.82447745  0.07057645  0.01353669  1
  O2-  O120  1  0.24794145  0.00251389  0.05566308  1
  O2-  O121  1  0.25008350  -0.00177437  0.39644490  1
  O2-  O122  1  0.25040981  -0.00050650  0.73658407  1
  O2-  O123  1  0.24879828  0.50243453  0.05441268  1
  O2-  O124  1  0.25336530  0.49813179  0.39902000  1
  O2-  O125  1  0.24992256  0.50090608  0.72575440  1
  O2-  O126  1  0.75976496  -0.00227388  0.05749202  1
  O2-  O127  1  0.74901762  0.00207056  0.39804552  1
  O2-  O128  1  0.75027990  0.00025026  0.72461478  1
  O2-  O129  1  0.75262128  0.49465560  0.06696933  1
  O2-  O130  1  0.74759267  0.49370584  0.39364297  1
  O2-  O131  1  0.75241102  0.49711195  0.73209236  1
  O2-  O132  1  -0.00302217  0.24836782  0.27775422  1
  O2-  O133  1  -0.00550139  0.25246688  0.60167959  1
  O2-  O134  1  -0.00270887  0.24566304  0.93666502  1
  O2-  O135  1  0.00037103  0.74972404  0.27795959  1
  O2-  O136  1  -0.00654712  0.75277066  0.60319272  1
  O2-  O137  1  -0.00342422  0.74733511  0.93707078  1
  O2-  O138  1  0.50412295  0.24615091  0.26995028  1
  O2-  O139  1  0.50710722  0.24876061  0.60659413  1
  O2-  O140  1  0.50460096  0.25567231  0.94360612  1
  O2-  O141  1  0.50119037  0.75185821  0.27548396  1
  O2-  O142  1  0.50572219  0.74944555  0.60285244  1
  O2-  O143  1  0.50660756  0.74982766  0.93981069  1
  O2-  O144  1  0.07576436  0.17926539  0.09941694  1
  O2-  O145  1  0.06840741  0.17854811  0.42400053  1
  O2-  O146  1  0.06825375  0.18221389  0.76299440  1
  O2-  O147  1  0.07516987  0.68120521  0.10129663  1
  O2-  O148  1  0.06956763  0.67719784  0.42425790  1
  O2-  O149  1  0.06977400  0.67958588  0.76222949  1
  O2-  O150  1  0.56512709  0.17541674  0.09089325  1
  O2-  O151  1  0.57661389  0.17873581  0.41913732  1
  O2-  O152  1  0.57375609  0.17537267  0.75466191  1
  O2-  O153  1  0.56728210  0.67555770  0.08938709  1
  O2-  O154  1  0.57289307  0.68098698  0.42252584  1
  O2-  O155  1  0.56879138  0.68139695  0.75581698  1
  O2-  O156  1  0.17760156  0.43137163  0.23368119  1
  O2-  O157  1  0.18154915  0.42836330  0.57819501  1
  O2-  O158  1  0.18636901  0.42389710  0.90766596  1
  O2-  O159  1  0.17724266  0.92793867  0.23206627  1
  O2-  O160  1  0.18087958  0.92873067  0.57211667  1
  O2-  O161  1  0.18301333  0.92515681  0.90927322  1
  O2-  O162  1  0.67831116  0.42968588  0.24332454  1
  O2-  O163  1  0.67814610  0.43205456  0.56682089  1
  O2-  O164  1  0.67270017  0.43049021  0.90482817  1
  O2-  O165  1  0.68010209  0.92756727  0.23528066  1
  O2-  O166  1  0.67965209  0.93105634  0.57699033  1
  O2-  O167  1  0.67499057  0.93546855  0.89858261  1
  O2-  O168  1  0.42771336  0.32056220  0.09062324  1
  O2-  O169  1  0.43126698  0.32100927  0.42982826  1
  O2-  O170  1  0.43134000  0.32166309  0.76677189  1
  O2-  O171  1  0.42928862  0.82149625  0.10114465  1
  O2-  O172  1  0.43046267  0.81983206  0.42352164  1
  O2-  O173  1  0.43219029  0.82136305  0.76376360  1
  O2-  O174  1  0.93139066  0.31946397  0.10010972  1
  O2-  O175  1  0.92935875  0.32149290  0.42558103  1
  O2-  O176  1  0.92850633  0.31769912  0.75462438  1
  O2-  O177  1  0.92874424  0.82175939  0.10106582  1
  O2-  O178  1  0.92676645  0.81877817  0.42514106  1
  O2-  O179  1  0.92339496  0.82214341  0.75306438  1
  O2-  O180  1  0.31804362  0.06985926  0.23269737  1
  O2-  O181  1  0.31842527  0.07199765  0.57080038  1
  O2-  O182  1  0.32275427  0.07494965  0.91062743  1
  O2-  O183  1  0.31952992  0.57360133  0.23378785  1
  O2-  O184  1  0.32118884  0.57016809  0.57739127  1
  O2-  O185  1  0.32128123  0.57205415  0.90745446  1
  O2-  O186  1  0.82281703  0.07122587  0.23300489  1
  O2-  O187  1  0.82048174  0.07125460  0.57776859  1
  O2-  O188  1  0.82048483  0.07141782  0.90771879  1
  O2-  O189  1  0.82288585  0.57064077  0.23538550  1
  O2-  O190  1  0.82080568  0.57085006  0.57135838  1
  O2-  O191  1  0.82169910  0.56774567  0.90379461  1
  O2-  O192  1  0.04114495  0.08508633  0.27252550  1
  O2-  O193  1  0.03878104  0.08138902  0.59809242  1
  O2-  O194  1  0.05165506  0.07904717  0.93045170  1
  O2-  O195  1  0.04170889  0.58524900  0.27354453  1
  O2-  O196  1  0.04127097  0.58041841  0.59589762  1
  O2-  O197  1  0.05033707  0.57865348  0.93459710  1
  O2-  O198  1  0.54663943  0.08309055  0.26866318  1
  O2-  O199  1  0.54781173  0.08556338  0.60068452  1
  O2-  O200  1  0.53566735  0.09108136  0.93468615  1
  O2-  O201  1  0.54594750  0.58957351  0.26788521  1
  O2-  O202  1  0.54448107  0.58777747  0.60310601  1
  O2-  O203  1  0.53918716  0.58546816  0.93577747  1
  O2-  O204  1  0.16011320  0.20592007  0.27063260  1
  O2-  O205  1  0.16540282  0.21228592  0.59681452  1
  O2-  O206  1  0.17007869  0.21272225  0.93062746  1
  O2-  O207  1  0.16361381  0.70356030  0.27274003  1
  O2-  O208  1  0.16577729  0.70886258  0.59471821  1
  O2-  O209  1  0.16794223  0.71009790  0.93109284  1
  O2-  O210  1  0.66706470  0.20294334  0.26639477  1
  O2-  O211  1  0.66909639  0.20039778  0.60302192  1
  O2-  O212  1  0.66293667  0.19874044  0.93896372  1
  O2-  O213  1  0.66467455  0.70999961  0.27051954  1
  O2-  O214  1  0.66681694  0.70507087  0.60628105  1
  O2-  O215  1  0.66592120  0.69703818  0.93977519  1
  O2-  O216  1  0.08869462  0.45002367  0.05866942  1
  O2-  O217  1  0.08355630  0.45786676  0.40562248  1
  O2-  O218  1  0.08794572  0.45476070  0.72941372  1
  O2-  O219  1  0.08644203  0.95284929  0.05912277  1
  O2-  O220  1  0.07985585  0.95317887  0.40088398  1
  O2-  O221  1  0.07826559  0.95411222  0.73506417  1
  O2-  O222  1  0.57885641  0.45950281  0.07172875  1
  O2-  O223  1  0.58413353  0.45678606  0.39289927  1
  O2-  O224  1  0.57998480  0.46074693  0.73395972  1
  O2-  O225  1  0.58424268  0.96704214  0.06745370  1
  O2-  O226  1  0.58086385  0.95665487  0.40230554  1
  O2-  O227  1  0.58705173  0.96045777  0.72824294  1
  O2-  O228  1  0.21445880  0.33798934  0.06278443  1
  O2-  O229  1  0.20612646  0.33042207  0.39923530  1
  O2-  O230  1  0.21106410  0.33784216  0.73078875  1
  O2-  O231  1  0.21210778  0.83783780  0.06226637  1
  O2-  O232  1  0.20529552  0.82945767  0.39953268  1
  O2-  O233  1  0.20945191  0.82784017  0.73534549  1
  O2-  O234  1  0.69706192  0.32481466  0.06813250  1
  O2-  O235  1  0.69773666  0.33298162  0.39334866  1
  O2-  O236  1  0.70022951  0.32819167  0.73196260  1
  O2-  O237  1  0.69977574  0.83064910  0.06528507  1
  O2-  O238  1  0.70786005  0.83220732  0.40548339  1
  O2-  O239  1  0.70378091  0.83839637  0.72976159  1
  O2-  O240  1  0.45822985  0.41856773  0.26265088  1
  O2-  O241  1  0.45949471  0.41953498  0.59837813  1
  O2-  O242  1  0.45391356  0.41636726  0.93980126  1
  O2-  O243  1  0.45526994  0.91499493  0.27301189  1
  O2-  O244  1  0.46085436  0.91922876  0.59702515  1
  O2-  O245  1  0.46142402  0.91964947  0.93333727  1
  O2-  O246  1  0.96061511  0.41290589  0.27353785  1
  O2-  O247  1  0.95364655  0.41481306  0.60547145  1
  O2-  O248  1  0.95915288  0.41552620  0.93025239  1
  O2-  O249  1  0.95344732  0.91212488  0.27301741  1
  O2-  O250  1  0.95046179  0.91573898  0.60187727  1
  O2-  O251  1  0.95271362  0.91770949  0.93131769  1
  O2-  O252  1  0.33184389  0.28968780  0.26215963  1
  O2-  O253  1  0.33479946  0.29086414  0.59870350  1
  O2-  O254  1  0.34068724  0.29185785  0.93641268  1
  O2-  O255  1  0.33722974  0.79182986  0.27167110  1
  O2-  O256  1  0.33455863  0.78917964  0.59681309  1
  O2-  O257  1  0.33712977  0.78978304  0.93045097  1
  O2-  O258  1  0.83521575  0.29862181  0.27360981  1
  O2-  O259  1  0.83272376  0.29561022  0.60456903  1
  O2-  O260  1  0.82684157  0.29480068  0.93426654  1
  O2-  O261  1  0.83568095  0.78966908  0.27430725  1
  O2-  O262  1  0.83065008  0.79694572  0.60224028  1
  O2-  O263  1  0.82550054  0.79495174  0.93519141  1
  O2-  O264  1  0.41108860  0.04355389  0.06392658  1
  O2-  O265  1  0.41953200  0.04965625  0.39955293  1
  O2-  O266  1  0.42122352  0.04606452  0.73398618  1
  O2-  O267  1  0.41070768  0.54611472  0.06194931  1
  O2-  O268  1  0.42292017  0.54605708  0.39917375  1
  O2-  O269  1  0.41238703  0.54472520  0.73005225  1
  O2-  O270  1  0.92081847  0.05027109  0.05623226  1
  O2-  O271  1  0.91709182  0.04200375  0.40314481  1
  O2-  O272  1  0.91292137  0.04237613  0.73005966  1
  O2-  O273  1  0.92358041  0.54016142  0.06804856  1
  O2-  O274  1  0.91615946  0.53896700  0.40397957  1
  O2-  O275  1  0.92288378  0.54370826  0.73553068  1
  O2-  O276  1  0.29332285  0.16502158  0.06279333  1
  O2-  O277  1  0.29071679  0.16950966  0.39878327  1
  O2-  O278  1  0.29047973  0.17098095  0.73581229  1
  O2-  O279  1  0.29233194  0.66545267  0.05997288  1
  O2-  O280  1  0.29397430  0.66792376  0.40285347  1
  O2-  O281  1  0.29151770  0.66342725  0.72839493  1
  O2-  O282  1  0.79498382  0.16233353  0.06086287  1
  O2-  O283  1  0.79424585  0.17112636  0.40146178  1
  O2-  O284  1  0.79469645  0.16245408  0.73109507  1
  O2-  O285  1  0.79280447  0.66638169  0.07031009  1
  O2-  O286  1  0.78867408  0.66400674  0.40454124  1
  O2-  O287  1  0.79381139  0.67032591  0.73705054  1
