# generated using pymatgen
data_Ca2Al2SiO7
_symmetry_space_group_name_H-M   'P 1'
_cell_length_a   15.46534054
_cell_length_b   15.46436126
_cell_length_c   15.28911760
_cell_angle_alpha   89.98017246
_cell_angle_beta   89.99821560
_cell_angle_gamma   90.02420971
_symmetry_Int_Tables_number   1
_chemical_formula_structural   Ca2Al2SiO7
_chemical_formula_sum   'Ca48 Al48 Si24 O168'
_cell_volume   3656.56947984
_cell_formula_units_Z   24
loop_
 _symmetry_equiv_pos_site_id
 _symmetry_equiv_pos_as_xyz
  1  'x, y, z'
loop_
 _atom_type_symbol
 _atom_type_oxidation_number
  Ca2+  2.0
  Al0+  0.0
  Si0+  0.0
  O2-  -2.0
loop_
 _atom_site_type_symbol
 _atom_site_label
 _atom_site_symmetry_multiplicity
 _atom_site_fract_x
 _atom_site_fract_y
 _atom_site_fract_z
 _atom_site_occupancy
  Ca2+  Ca0  1  0.17167569  0.08804505  0.17156731  1
  Ca2+  Ca1  1  0.16813360  0.08799368  0.50504563  1
  Ca2+  Ca2  1  0.15644390  0.07274730  0.83990934  1
  Ca2+  Ca3  1  0.17383378  0.58014587  0.17362213  1
  Ca2+  Ca4  1  0.16795952  0.58037042  0.50122286  1
  Ca2+  Ca5  1  0.16611359  0.58821977  0.84129199  1
  Ca2+  Ca6  1  0.67137708  0.08727125  0.16911666  1
  Ca2+  Ca7  1  0.67000232  0.08167771  0.50976739  1
  Ca2+  Ca8  1  0.68220769  0.08035173  0.83276391  1
  Ca2+  Ca9  1  0.67844266  0.57821748  0.17425476  1
  Ca2+  Ca10  1  0.67706417  0.57161566  0.50401483  1
  Ca2+  Ca11  1  0.68257467  0.58006831  0.83322668  1
  Ca2+  Ca12  1  0.09484495  0.32388894  0.16661739  1
  Ca2+  Ca13  1  0.07888376  0.32659449  0.49610641  1
  Ca2+  Ca14  1  0.07672820  0.31930799  0.82557446  1
  Ca2+  Ca15  1  0.08678174  0.82573333  0.15926688  1
  Ca2+  Ca16  1  0.08104667  0.83072063  0.50494773  1
  Ca2+  Ca17  1  0.08488559  0.82586786  0.82522812  1
  Ca2+  Ca18  1  0.58034429  0.33677072  0.17079684  1
  Ca2+  Ca19  1  0.58220275  0.33393743  0.48958954  1
  Ca2+  Ca20  1  0.58134567  0.33740332  0.82784235  1
  Ca2+  Ca21  1  0.57800580  0.83145740  0.16230793  1
  Ca2+  Ca22  1  0.58590675  0.83424065  0.49558685  1
  Ca2+  Ca23  1  0.58173069  0.83606246  0.82714001  1
  Ca2+  Ca24  1  0.32928455  0.42382733  0.17649715  1
  Ca2+  Ca25  1  0.32782780  0.41116464  0.49518662  1
  Ca2+  Ca26  1  0.32809484  0.42359270  0.83888494  1
  Ca2+  Ca27  1  0.32534967  0.92768269  0.16653967  1
  Ca2+  Ca28  1  0.32639336  0.92557699  0.50457295  1
  Ca2+  Ca29  1  0.31809741  0.92298273  0.83985627  1
  Ca2+  Ca30  1  0.83322731  0.42871172  0.17477106  1
  Ca2+  Ca31  1  0.82665265  0.41760409  0.50921860  1
  Ca2+  Ca32  1  0.84169784  0.42360834  0.83179811  1
  Ca2+  Ca33  1  0.83841987  0.92531877  0.16621284  1
  Ca2+  Ca34  1  0.83037134  0.92242425  0.51211368  1
  Ca2+  Ca35  1  0.84421335  0.92595785  0.82998871  1
  Ca2+  Ca36  1  0.41539771  0.16789903  0.16698660  1
  Ca2+  Ca37  1  0.42537120  0.17116880  0.48469139  1
  Ca2+  Ca38  1  0.41723279  0.16269330  0.83220141  1
  Ca2+  Ca39  1  0.41313793  0.66129683  0.16132128  1
  Ca2+  Ca40  1  0.41715064  0.66742147  0.49367548  1
  Ca2+  Ca41  1  0.41651213  0.66640292  0.82900959  1
  Ca2+  Ca42  1  0.92775050  0.16888925  0.15884152  1
  Ca2+  Ca43  1  0.92305290  0.16694274  0.49916428  1
  Ca2+  Ca44  1  0.92131790  0.16506347  0.82459341  1
  Ca2+  Ca45  1  0.91919811  0.66469573  0.15871563  1
  Ca2+  Ca46  1  0.90881586  0.66985610  0.50053776  1
  Ca2+  Ca47  1  0.92474685  0.66776192  0.82371130  1
  Al0+  Al48  1  -0.00221470  -0.00223388  0.00672125  1
  Al0+  Al49  1  -0.00090982  -0.00169425  0.32860613  1
  Al0+  Al50  1  0.00217946  -0.00342765  0.66522819  1
  Al0+  Al51  1  -0.00034865  0.49865987  0.00113978  1
  Al0+  Al52  1  0.00216725  0.50294411  0.34055680  1
  Al0+  Al53  1  0.00252246  0.49710086  0.66262722  1
  Al0+  Al54  1  0.49848691  0.00029507  0.00120074  1
  Al0+  Al55  1  0.49858613  -0.00082681  0.33058859  1
  Al0+  Al56  1  0.49876133  0.00045954  0.66950762  1
  Al0+  Al57  1  0.49952575  0.49976820  0.00098843  1
  Al0+  Al58  1  0.50234762  0.50170942  0.33473264  1
  Al0+  Al59  1  0.49986182  0.50128417  0.66872923  1
  Al0+  Al60  1  0.25139229  0.24981890  -0.00490681  1
  Al0+  Al61  1  0.25225737  0.25071664  0.33400817  1
  Al0+  Al62  1  0.25251447  0.25297192  0.66522830  1
  Al0+  Al63  1  0.25100997  0.75162259  0.00304575  1
  Al0+  Al64  1  0.24911124  0.75176611  0.33605850  1
  Al0+  Al65  1  0.25186172  0.75224417  0.66456599  1
  Al0+  Al66  1  0.74719193  0.24902804  0.00312546  1
  Al0+  Al67  1  0.75210872  0.25006289  0.33092385  1
  Al0+  Al68  1  0.74748852  0.24888883  0.67157500  1
  Al0+  Al69  1  0.74768815  0.74864945  0.00237377  1
  Al0+  Al70  1  0.74952924  0.75246639  0.33291726  1
  Al0+  Al71  1  0.74813465  0.74732298  0.66934715  1
  Al0+  Al72  1  0.32011942  0.07003970  0.34722082  1
  Al0+  Al73  1  0.82182210  0.56994058  0.01359754  1
  Al0+  Al74  1  0.07069040  0.17854288  0.98665055  1
  Al0+  Al75  1  0.32025777  0.57058191  0.01180331  1
  Al0+  Al76  1  0.32095742  0.07267452  0.01536563  1
  Al0+  Al77  1  0.82042350  0.07105142  0.01536092  1
  Al0+  Al78  1  0.82275673  0.57460802  0.34925691  1
  Al0+  Al79  1  0.68225633  0.42778059  0.34762563  1
  Al0+  Al80  1  0.17672026  0.92895425  0.01633070  1
  Al0+  Al81  1  0.57389084  0.17668103  0.31700409  1
  Al0+  Al82  1  0.07209329  0.17688976  0.65217892  1
  Al0+  Al83  1  0.17980610  0.42782372  0.34981362  1
  Al0+  Al84  1  0.82197143  0.06952218  0.67928081  1
  Al0+  Al85  1  0.07434801  0.67736455  0.65005787  1
  Al0+  Al86  1  0.67586092  0.92694592  0.68058528  1
  Al0+  Al87  1  0.43078882  0.32245118  0.31686475  1
  Al0+  Al88  1  0.92651523  0.31942632  0.65203770  1
  Al0+  Al89  1  0.07086804  0.67932385  0.98904993  1
  Al0+  Al90  1  0.92770142  0.81857032  0.65211875  1
  Al0+  Al91  1  0.32188286  0.57340112  0.34941160  1
  Al0+  Al92  1  0.06992289  0.17976859  0.31912604  1
  Al0+  Al93  1  0.82419917  0.56914268  0.68238576  1
  Al0+  Al94  1  0.67702163  0.42787033  0.68292014  1
  Al0+  Al95  1  0.18085023  0.92986084  0.67930294  1
  Si0+  Si96  1  0.56784049  0.17860575  0.65416763  1
  Si0+  Si97  1  0.43055054  0.82182020  0.65089560  1
  Si0+  Si98  1  0.31941003  0.57118728  0.68108773  1
  Si0+  Si99  1  0.57040947  0.67794025  0.98383323  1
  Si0+  Si100  1  0.43020247  0.82152139  0.98389742  1
  Si0+  Si101  1  0.92452603  0.82032099  0.98418990  1
  Si0+  Si102  1  0.92887352  0.32490314  0.31683607  1
  Si0+  Si103  1  0.42685631  0.82111645  0.31650590  1
  Si0+  Si104  1  0.67623300  0.92811973  0.01734231  1
  Si0+  Si105  1  0.57111243  0.68182841  0.31761309  1
  Si0+  Si106  1  0.92476394  0.32087817  0.98503292  1
  Si0+  Si107  1  0.57120078  0.17753852  0.98223967  1
  Si0+  Si108  1  0.43022398  0.32454034  0.65146820  1
  Si0+  Si109  1  0.07221440  0.67986516  0.31814970  1
  Si0+  Si110  1  0.17968372  0.42697769  0.68325731  1
  Si0+  Si111  1  0.17571026  0.92863187  0.35176114  1
  Si0+  Si112  1  0.67611959  0.42829216  0.01763599  1
  Si0+  Si113  1  0.92728392  0.81981490  0.31620301  1
  Si0+  Si114  1  0.32152061  0.07479748  0.68266286  1
  Si0+  Si115  1  0.67859716  0.93075623  0.34533755  1
  Si0+  Si116  1  0.43075200  0.32216074  0.98302448  1
  Si0+  Si117  1  0.17802342  0.42728962  0.01408512  1
  Si0+  Si118  1  0.56972696  0.67801974  0.65104668  1
  Si0+  Si119  1  0.82232790  0.07007627  0.34655295  1
  O2-  O120  1  0.24328407  0.00680930  0.06507629  1
  O2-  O121  1  0.24199263  0.00004905  0.39518592  1
  O2-  O122  1  0.24829998  0.01129438  0.72602717  1
  O2-  O123  1  0.24321036  0.49942893  0.05804991  1
  O2-  O124  1  0.25162113  0.50091324  0.40022477  1
  O2-  O125  1  0.24589017  0.50370609  0.72437959  1
  O2-  O126  1  0.74603706  -0.00501766  0.06200119  1
  O2-  O127  1  0.74462679  0.00565489  0.38717065  1
  O2-  O128  1  0.75252865  -0.00606125  0.72953281  1
  O2-  O129  1  0.74882500  0.49343842  0.05989181  1
  O2-  O130  1  0.75740603  0.49603861  0.39750318  1
  O2-  O131  1  0.75434290  0.49426838  0.73225341  1
  O2-  O132  1  -0.00180912  0.25731507  0.27131887  1
  O2-  O133  1  -0.00184398  0.24684931  0.60215990  1
  O2-  O134  1  -0.00747867  0.25056107  0.94175457  1
  O2-  O135  1  -0.00240099  0.74728181  0.27596016  1
  O2-  O136  1  -0.00302741  0.74438410  0.60018202  1
  O2-  O137  1  -0.00559079  0.75194950  0.94213274  1
  O2-  O138  1  0.50241563  0.24958351  0.26664802  1
  O2-  O139  1  0.49960845  0.25145640  0.61129069  1
  O2-  O140  1  0.50051543  0.24966250  0.94067696  1
  O2-  O141  1  0.49543228  0.74755091  0.27397437  1
  O2-  O142  1  0.50411276  0.75408267  0.60785454  1
  O2-  O143  1  0.50009896  0.74952611  0.94092560  1
  O2-  O144  1  0.07215453  0.18274978  0.09989598  1
  O2-  O145  1  0.06652496  0.17686052  0.43171589  1
  O2-  O146  1  0.07221032  0.17850155  0.76610880  1
  O2-  O147  1  0.07049362  0.68010929  0.10249181  1
  O2-  O148  1  0.07623925  0.68366902  0.42251335  1
  O2-  O149  1  0.07788742  0.68128229  0.76399395  1
  O2-  O150  1  0.57171598  0.17675485  0.08698035  1
  O2-  O151  1  0.57172471  0.17332060  0.43089374  1
  O2-  O152  1  0.56427468  0.17674709  0.75936805  1
  O2-  O153  1  0.56977384  0.67931175  0.08916497  1
  O2-  O154  1  0.57227126  0.68690473  0.42263194  1
  O2-  O155  1  0.56452255  0.67592029  0.75621047  1
  O2-  O156  1  0.18070936  0.43050820  0.23558784  1
  O2-  O157  1  0.18442236  0.42298584  0.57880488  1
  O2-  O158  1  0.18087002  0.42742784  0.90824238  1
  O2-  O159  1  0.17780310  0.92646149  0.24631010  1
  O2-  O160  1  0.18638966  0.92747024  0.56635841  1
  O2-  O161  1  0.17998475  0.92721514  0.90278364  1
  O2-  O162  1  0.68239273  0.43227297  0.23357246  1
  O2-  O163  1  0.67234824  0.43106247  0.56991510  1
  O2-  O164  1  0.67220197  0.43101467  0.91243403  1
  O2-  O165  1  0.68061814  0.92714357  0.24022562  1
  O2-  O166  1  0.67173533  0.93266209  0.56660512  1
  O2-  O167  1  0.67337641  0.92921785  0.91232214  1
  O2-  O168  1  0.43232783  0.32545714  0.08739823  1
  O2-  O169  1  0.43261805  0.31975943  0.43095067  1
  O2-  O170  1  0.42978972  0.32621928  0.75693018  1
  O2-  O171  1  0.43300831  0.82137304  0.08918422  1
  O2-  O172  1  0.42956984  0.82240737  0.42178040  1
  O2-  O173  1  0.42990405  0.81947301  0.75602789  1
  O2-  O174  1  0.92409440  0.32090396  0.09066984  1
  O2-  O175  1  0.92731496  0.32056795  0.42200906  1
  O2-  O176  1  0.93075863  0.31913870  0.76617298  1
  O2-  O177  1  0.92254533  0.81782851  0.09038656  1
  O2-  O178  1  0.92440958  0.82212028  0.42066697  1
  O2-  O179  1  0.93075563  0.81891241  0.76570463  1
  O2-  O180  1  0.32060528  0.06721763  0.23446862  1
  O2-  O181  1  0.32541493  0.07208205  0.57713093  1
  O2-  O182  1  0.32541223  0.06815116  0.90185332  1
  O2-  O183  1  0.31827920  0.57478561  0.23567371  1
  O2-  O184  1  0.32222910  0.57037846  0.57648728  1
  O2-  O185  1  0.32260269  0.56875223  0.89831624  1
  O2-  O186  1  0.82338532  0.06620175  0.24134747  1
  O2-  O187  1  0.81770783  0.06975323  0.56526777  1
  O2-  O188  1  0.82003204  0.07096065  0.90272133  1
  O2-  O189  1  0.81927111  0.57621902  0.23509885  1
  O2-  O190  1  0.81797729  0.57063782  0.56938231  1
  O2-  O191  1  0.82165596  0.57108190  0.90112401  1
  O2-  O192  1  0.03763687  0.08311264  0.26472081  1
  O2-  O193  1  0.04915482  0.07754712  0.59998257  1
  O2-  O194  1  0.03979380  0.07909997  0.93890398  1
  O2-  O195  1  0.04965889  0.58597367  0.27263980  1
  O2-  O196  1  0.05557070  0.57603963  0.60087519  1
  O2-  O197  1  0.04422980  0.58068337  0.93628339  1
  O2-  O198  1  0.54395409  0.07814850  0.26349594  1
  O2-  O199  1  0.53802222  0.08758058  0.60534267  1
  O2-  O200  1  0.54092107  0.08605938  0.93540078  1
  O2-  O201  1  0.54852454  0.58914556  0.27050578  1
  O2-  O202  1  0.53438894  0.58933665  0.60220155  1
  O2-  O203  1  0.54019404  0.58701746  0.93641614  1
  O2-  O204  1  0.16780025  0.20976825  0.26751068  1
  O2-  O205  1  0.17121196  0.20942298  0.60158076  1
  O2-  O206  1  0.16696534  0.20867433  0.93111688  1
  O2-  O207  1  0.16294005  0.71215271  0.26966572  1
  O2-  O208  1  0.17111265  0.71279976  0.59632133  1
  O2-  O209  1  0.16846254  0.71064923  0.93618739  1
  O2-  O210  1  0.67303450  0.20366956  0.26380097  1
  O2-  O211  1  0.66098104  0.20159848  0.60852665  1
  O2-  O212  1  0.66301845  0.20547203  0.93486255  1
  O2-  O213  1  0.66011769  0.71649218  0.26773970  1
  O2-  O214  1  0.66225660  0.70035299  0.60380398  1
  O2-  O215  1  0.66193498  0.70624699  0.93621261  1
  O2-  O216  1  0.08369904  0.44668112  0.06019595  1
  O2-  O217  1  0.08235461  0.45548637  0.40406665  1
  O2-  O218  1  0.08641763  0.44790211  0.72910564  1
  O2-  O219  1  0.07687732  0.94669434  0.06943721  1
  O2-  O220  1  0.08031629  0.95137653  0.39457142  1
  O2-  O221  1  0.08308682  0.95223645  0.73322944  1
  O2-  O222  1  0.58490322  0.45951280  0.06526882  1
  O2-  O223  1  0.58470201  0.45928166  0.39958749  1
  O2-  O224  1  0.58060296  0.46398521  0.73770752  1
  O2-  O225  1  0.58371483  0.95571280  0.06480796  1
  O2-  O226  1  0.58481905  0.95144504  0.39144214  1
  O2-  O227  1  0.57935296  0.95966667  0.73627048  1
  O2-  O228  1  0.21007167  0.33578126  0.05965306  1
  O2-  O229  1  0.21093674  0.33110918  0.40396861  1
  O2-  O230  1  0.21475529  0.33852145  0.73398696  1
  O2-  O231  1  0.21447547  0.83434172  0.07145525  1
  O2-  O232  1  0.20561451  0.83702250  0.39861395  1
  O2-  O233  1  0.22003562  0.83591263  0.73414822  1
  O2-  O234  1  0.69531276  0.33281952  0.06155699  1
  O2-  O235  1  0.70546494  0.32718349  0.39881347  1
  O2-  O236  1  0.69619929  0.32768368  0.73532792  1
  O2-  O237  1  0.69826620  0.83332002  0.06314055  1
  O2-  O238  1  0.70980959  0.84115385  0.39472001  1
  O2-  O239  1  0.69399115  0.82588804  0.73078935  1
  O2-  O240  1  0.45968691  0.42210109  0.26480521  1
  O2-  O241  1  0.45901457  0.41561733  0.60373473  1
  O2-  O242  1  0.46106510  0.41319973  0.93368521  1
  O2-  O243  1  0.45855541  0.91017890  0.26629538  1
  O2-  O244  1  0.45623838  0.91477544  0.60393333  1
  O2-  O245  1  0.46005257  0.91235002  0.93553269  1
  O2-  O246  1  0.95344984  0.42083698  0.27442874  1
  O2-  O247  1  0.95538610  0.41673395  0.59802249  1
  O2-  O248  1  0.95290607  0.41375999  0.93879864  1
  O2-  O249  1  0.95725868  0.90995873  0.26606958  1
  O2-  O250  1  0.95789980  0.91565858  0.59704718  1
  O2-  O251  1  0.94923756  0.91522744  0.94181543  1
  O2-  O252  1  0.33234392  0.29461422  0.26446917  1
  O2-  O253  1  0.33835082  0.29885357  0.60398822  1
  O2-  O254  1  0.33945440  0.29642782  0.93317869  1
  O2-  O255  1  0.33423208  0.79523825  0.26999096  1
  O2-  O256  1  0.34163671  0.79079732  0.60060602  1
  O2-  O257  1  0.33874704  0.79341636  0.93678564  1
  O2-  O258  1  0.83614611  0.29939764  0.26878169  1
  O2-  O259  1  0.82608663  0.29226234  0.60214959  1
  O2-  O260  1  0.82976080  0.29783896  0.94042044  1
  O2-  O261  1  0.83536818  0.79377106  0.26706319  1
  O2-  O262  1  0.82635255  0.79420072  0.60078417  1
  O2-  O263  1  0.83005989  0.79636443  0.93916235  1
  O2-  O264  1  0.41755220  0.03839610  0.06911129  1
  O2-  O265  1  0.41615101  0.03439542  0.40055075  1
  O2-  O266  1  0.41223645  0.04292881  0.73103217  1
  O2-  O267  1  0.41617584  0.53822018  0.06624569  1
  O2-  O268  1  0.42244060  0.55047641  0.39911245  1
  O2-  O269  1  0.40969081  0.54046003  0.73013747  1
  O2-  O270  1  0.91440672  0.03932755  0.07347090  1
  O2-  O271  1  0.91106418  0.03439855  0.39423913  1
  O2-  O272  1  0.92036315  0.04116172  0.73165882  1
  O2-  O273  1  0.91820004  0.54013057  0.06917896  1
  O2-  O274  1  0.92377038  0.55834484  0.39879429  1
  O2-  O275  1  0.92466928  0.54279453  0.73262047  1
  O2-  O276  1  0.29904732  0.17410756  0.06405257  1
  O2-  O277  1  0.29573110  0.16762495  0.40033230  1
  O2-  O278  1  0.30419343  0.17094345  0.72659313  1
  O2-  O279  1  0.29592694  0.66809988  0.06551764  1
  O2-  O280  1  0.29329820  0.67222489  0.40228127  1
  O2-  O281  1  0.29597866  0.66452481  0.72737514  1
  O2-  O282  1  0.78744170  0.16676203  0.07005360  1
  O2-  O283  1  0.80238692  0.16430079  0.39073593  1
  O2-  O284  1  0.78947007  0.16476723  0.73571519  1
  O2-  O285  1  0.78747852  0.66566699  0.06796950  1
  O2-  O286  1  0.78524809  0.67104939  0.40066283  1
  O2-  O287  1  0.79071894  0.66579847  0.73602321  1
