# generated using pymatgen
data_Ca2Al2SiO7
_symmetry_space_group_name_H-M   'P 1'
_cell_length_a   15.47009400
_cell_length_b   15.46751053
_cell_length_c   15.29250124
_cell_angle_alpha   89.99904890
_cell_angle_beta   90.00580234
_cell_angle_gamma   90.02176408
_symmetry_Int_Tables_number   1
_chemical_formula_structural   Ca2Al2SiO7
_chemical_formula_sum   'Ca48 Al48 Si24 O168'
_cell_volume   3659.24816454
_cell_formula_units_Z   24
loop_
 _symmetry_equiv_pos_site_id
 _symmetry_equiv_pos_as_xyz
  1  'x, y, z'
loop_
 _atom_type_symbol
 _atom_type_oxidation_number
  Ca2+  2.0
  Al0+  0.0
  Si0+  0.0
  O2-  -2.0
loop_
 _atom_site_type_symbol
 _atom_site_label
 _atom_site_symmetry_multiplicity
 _atom_site_fract_x
 _atom_site_fract_y
 _atom_site_fract_z
 _atom_site_occupancy
  Ca2+  Ca0  1  0.15956260  0.07824915  0.17251628  1
  Ca2+  Ca1  1  0.16505052  0.07569111  0.50061792  1
  Ca2+  Ca2  1  0.16521844  0.08476086  0.84072501  1
  Ca2+  Ca3  1  0.17901236  0.58512422  0.17062215  1
  Ca2+  Ca4  1  0.17158235  0.57968048  0.50637512  1
  Ca2+  Ca5  1  0.16396381  0.57387054  0.83645200  1
  Ca2+  Ca6  1  0.67159510  0.07597636  0.17968643  1
  Ca2+  Ca7  1  0.67200397  0.08499317  0.50583512  1
  Ca2+  Ca8  1  0.67076616  0.08190902  0.82882301  1
  Ca2+  Ca9  1  0.67525054  0.57564210  0.17419143  1
  Ca2+  Ca10  1  0.67344630  0.57516678  0.50183440  1
  Ca2+  Ca11  1  0.67413817  0.57570191  0.83772232  1
  Ca2+  Ca12  1  0.07695291  0.33156385  0.16206295  1
  Ca2+  Ca13  1  0.07521221  0.33661141  0.49477959  1
  Ca2+  Ca14  1  0.08979709  0.33263713  0.82932905  1
  Ca2+  Ca15  1  0.07653010  0.83291717  0.16029195  1
  Ca2+  Ca16  1  0.07743789  0.82809780  0.49854678  1
  Ca2+  Ca17  1  0.06846766  0.82153619  0.82416492  1
  Ca2+  Ca18  1  0.58524641  0.33841327  0.16851632  1
  Ca2+  Ca19  1  0.58985203  0.32815822  0.48943674  1
  Ca2+  Ca20  1  0.58894532  0.33396420  0.82707207  1
  Ca2+  Ca21  1  0.59460782  0.82318812  0.16907983  1
  Ca2+  Ca22  1  0.59409855  0.82871268  0.49340490  1
  Ca2+  Ca23  1  0.58252452  0.83303149  0.82518965  1
  Ca2+  Ca24  1  0.32997390  0.42154275  0.17016653  1
  Ca2+  Ca25  1  0.33231744  0.41627533  0.49981814  1
  Ca2+  Ca26  1  0.32219524  0.42208060  0.84044848  1
  Ca2+  Ca27  1  0.32222731  0.91794683  0.17516327  1
  Ca2+  Ca28  1  0.32705271  0.91353838  0.49938048  1
  Ca2+  Ca29  1  0.33144432  0.92016927  0.83624808  1
  Ca2+  Ca30  1  0.82692107  0.42243418  0.17602598  1
  Ca2+  Ca31  1  0.82735169  0.42155786  0.50356073  1
  Ca2+  Ca32  1  0.82467099  0.42752375  0.83721955  1
  Ca2+  Ca33  1  0.83410082  0.92363700  0.17609711  1
  Ca2+  Ca34  1  0.82372578  0.92747911  0.50536567  1
  Ca2+  Ca35  1  0.83721961  0.91486430  0.83037900  1
  Ca2+  Ca36  1  0.42255120  0.17310637  0.16869351  1
  Ca2+  Ca37  1  0.43197757  0.17514655  0.49146152  1
  Ca2+  Ca38  1  0.42653607  0.17165218  0.82326858  1
  Ca2+  Ca39  1  0.42143339  0.65583624  0.16797260  1
  Ca2+  Ca40  1  0.42603174  0.66411369  0.48852315  1
  Ca2+  Ca41  1  0.41515914  0.66422332  0.83267643  1
  Ca2+  Ca42  1  0.91331002  0.17516407  0.16664011  1
  Ca2+  Ca43  1  0.90816633  0.17174891  0.49369490  1
  Ca2+  Ca44  1  0.92007865  0.16785589  0.83000120  1
  Ca2+  Ca45  1  0.90570995  0.67334756  0.16082180  1
  Ca2+  Ca46  1  0.91462131  0.66293444  0.49828701  1
  Ca2+  Ca47  1  0.91033914  0.67126713  0.82474769  1
  Al0+  Al48  1  -0.00074391  0.00009810  -0.00885346  1
  Al0+  Al49  1  0.00004076  -0.00245906  0.34298978  1
  Al0+  Al50  1  0.00040340  -0.00157685  0.66636095  1
  Al0+  Al51  1  -0.00063382  0.50077368  0.00653823  1
  Al0+  Al52  1  0.00257820  0.50000983  0.32902058  1
  Al0+  Al53  1  0.00239246  0.49917011  0.67106626  1
  Al0+  Al54  1  0.49961455  0.00025256  -0.00021630  1
  Al0+  Al55  1  0.49665628  -0.00157267  0.33140229  1
  Al0+  Al56  1  0.49953090  0.00184342  0.66502616  1
  Al0+  Al57  1  0.49974991  0.49941943  0.00271017  1
  Al0+  Al58  1  0.49965199  0.50064460  0.33183574  1
  Al0+  Al59  1  0.49738635  0.50103976  0.66938934  1
  Al0+  Al60  1  0.25236701  0.25006247  -0.00011514  1
  Al0+  Al61  1  0.25133662  0.24799147  0.32973156  1
  Al0+  Al62  1  0.25158682  0.24982740  0.66782878  1
  Al0+  Al63  1  0.24974607  0.75204667  0.00129293  1
  Al0+  Al64  1  0.24981064  0.74891354  0.34137960  1
  Al0+  Al65  1  0.24883492  0.75092017  0.66445209  1
  Al0+  Al66  1  0.75029382  0.24760189  0.00091483  1
  Al0+  Al67  1  0.75175154  0.24985944  0.32793815  1
  Al0+  Al68  1  0.75182170  0.24806294  0.67189175  1
  Al0+  Al69  1  0.74686713  0.75077146  -0.00484756  1
  Al0+  Al70  1  0.75175556  0.75073367  0.33453844  1
  Al0+  Al71  1  0.74796555  0.75306077  0.66763376  1
  Al0+  Al72  1  0.67694606  0.92851571  0.34586895  1
  Al0+  Al73  1  0.32071459  0.56879683  0.34864026  1
  Al0+  Al74  1  0.82116076  0.57135296  0.68058479  1
  Al0+  Al75  1  0.92996057  0.32222317  0.32025959  1
  Al0+  Al76  1  0.07062310  0.18186928  0.98738423  1
  Al0+  Al77  1  0.68039232  0.42682612  0.01656158  1
  Al0+  Al78  1  0.92781403  0.81944363  0.98607027  1
  Al0+  Al79  1  0.82040238  0.07188266  0.34683800  1
  Al0+  Al80  1  0.07018473  0.67651271  0.65046890  1
  Al0+  Al81  1  0.82364332  0.07132166  0.68487990  1
  Al0+  Al82  1  0.82452907  0.57199544  0.34823590  1
  Al0+  Al83  1  0.57232380  0.68105697  0.31979643  1
  Al0+  Al84  1  0.67717369  0.42805287  0.68034921  1
  Al0+  Al85  1  0.67970809  0.42941449  0.34740715  1
  Al0+  Al86  1  0.57205581  0.18187535  0.65336581  1
  Al0+  Al87  1  0.92616325  0.82107335  0.64659120  1
  Al0+  Al88  1  0.18064663  0.42852789  0.67850585  1
  Al0+  Al89  1  0.82009044  0.57466869  0.01470965  1
  Al0+  Al90  1  0.31914956  0.57262480  0.01524677  1
  Al0+  Al91  1  0.17838821  0.92835677  0.34800592  1
  Al0+  Al92  1  0.42853964  0.32222292  0.31625947  1
  Al0+  Al93  1  0.17771434  0.42580724  0.01737197  1
  Al0+  Al94  1  0.67712189  0.93060800  0.68261674  1
  Al0+  Al95  1  0.57305026  0.17767897  0.31653164  1
  Si0+  Si96  1  0.42726251  0.32271635  0.65106541  1
  Si0+  Si97  1  0.56857042  0.67900026  0.65269694  1
  Si0+  Si98  1  0.32347945  0.07111539  0.01497460  1
  Si0+  Si99  1  0.42405316  0.82038081  0.31603954  1
  Si0+  Si100  1  0.31930249  0.06957146  0.68148569  1
  Si0+  Si101  1  0.32188274  0.57477617  0.68315066  1
  Si0+  Si102  1  0.07405279  0.67883495  0.31741885  1
  Si0+  Si103  1  0.92671583  0.32338440  0.98227911  1
  Si0+  Si104  1  0.07496780  0.17799628  0.65129112  1
  Si0+  Si105  1  0.56792252  0.67970571  0.98356787  1
  Si0+  Si106  1  0.32164470  0.07296390  0.35106381  1
  Si0+  Si107  1  0.57076674  0.17626137  0.98316646  1
  Si0+  Si108  1  0.17877252  0.42532190  0.34888451  1
  Si0+  Si109  1  0.17919245  0.92801893  0.68460069  1
  Si0+  Si110  1  0.07471187  0.67843430  0.98539841  1
  Si0+  Si111  1  0.17895175  0.93291290  0.01236443  1
  Si0+  Si112  1  0.82231472  0.06796780  0.01443860  1
  Si0+  Si113  1  0.42702429  0.82350583  0.98500223  1
  Si0+  Si114  1  0.93197958  0.81966004  0.31917153  1
  Si0+  Si115  1  0.43093998  0.32116436  0.98296960  1
  Si0+  Si116  1  0.42785031  0.82280059  0.65149850  1
  Si0+  Si117  1  0.67582166  0.93047866  0.01429743  1
  Si0+  Si118  1  0.07120406  0.17540808  0.32007286  1
  Si0+  Si119  1  0.93163767  0.31898284  0.65472339  1
  O2-  O120  1  0.24857061  0.00404597  0.05695018  1
  O2-  O121  1  0.25319630  0.00346849  0.39454057  1
  O2-  O122  1  0.24778508  0.00103307  0.72751127  1
  O2-  O123  1  0.24595797  0.50222868  0.06564587  1
  O2-  O124  1  0.24827305  0.49208938  0.39433870  1
  O2-  O125  1  0.25280615  0.50579973  0.72512005  1
  O2-  O126  1  0.74960032  -0.00156528  0.05571687  1
  O2-  O127  1  0.74141931  0.00685574  0.39526443  1
  O2-  O128  1  0.75256286  -0.00225030  0.73468879  1
  O2-  O129  1  0.75467074  0.49714465  0.06473431  1
  O2-  O130  1  0.75320612  0.49941134  0.39727293  1
  O2-  O131  1  0.74706137  0.50163622  0.73055172  1
  O2-  O132  1  0.00456985  0.24510134  0.27575100  1
  O2-  O133  1  0.00195989  0.24683538  0.61090526  1
  O2-  O134  1  0.00091423  0.25976968  0.93786851  1
  O2-  O135  1  -0.00017451  0.74643110  0.27492860  1
  O2-  O136  1  -0.00406653  0.74530839  0.59856314  1
  O2-  O137  1  -0.00161691  0.73910012  0.94207495  1
  O2-  O138  1  0.50300751  0.25199632  0.26598226  1
  O2-  O139  1  0.50307395  0.26226490  0.60786456  1
  O2-  O140  1  0.50411624  0.25179222  0.94119919  1
  O2-  O141  1  0.49756507  0.75718202  0.27173002  1
  O2-  O142  1  0.49747543  0.75068367  0.61071029  1
  O2-  O143  1  0.49557919  0.75080386  0.94221460  1
  O2-  O144  1  0.06684195  0.17647595  0.10010031  1
  O2-  O145  1  0.07229794  0.17612700  0.42585199  1
  O2-  O146  1  0.07828777  0.17988775  0.75645992  1
  O2-  O147  1  0.08192787  0.68691225  0.09061562  1
  O2-  O148  1  0.07594164  0.68002116  0.42213589  1
  O2-  O149  1  0.07385986  0.67990352  0.76432104  1
  O2-  O150  1  0.56710402  0.16994088  0.08735734  1
  O2-  O151  1  0.57062503  0.17830993  0.43021661  1
  O2-  O152  1  0.56677513  0.17983599  0.76721781  1
  O2-  O153  1  0.56899588  0.68225917  0.08830188  1
  O2-  O154  1  0.57056282  0.68222273  0.43310782  1
  O2-  O155  1  0.56473650  0.67898590  0.75820036  1
  O2-  O156  1  0.17907807  0.42636352  0.24365462  1
  O2-  O157  1  0.18325374  0.42567627  0.56567227  1
  O2-  O158  1  0.18301165  0.42458713  0.90348607  1
  O2-  O159  1  0.17734906  0.93035839  0.23395832  1
  O2-  O160  1  0.18178043  0.92813378  0.57973033  1
  O2-  O161  1  0.18295144  0.93431725  0.90744101  1
  O2-  O162  1  0.68134547  0.43206014  0.23396451  1
  O2-  O163  1  0.67747732  0.42818294  0.56743658  1
  O2-  O164  1  0.67970619  0.42855070  0.90271962  1
  O2-  O165  1  0.68401928  0.92679094  0.23139018  1
  O2-  O166  1  0.67369278  0.93377098  0.56985963  1
  O2-  O167  1  0.67051334  0.93327874  0.90976231  1
  O2-  O168  1  0.42938394  0.31906972  0.08745682  1
  O2-  O169  1  0.42480798  0.31808171  0.42992546  1
  O2-  O170  1  0.42336170  0.31817645  0.75690596  1
  O2-  O171  1  0.42567356  0.82857289  0.08913722  1
  O2-  O172  1  0.42025357  0.81685835  0.42168479  1
  O2-  O173  1  0.42669989  0.82312792  0.75724076  1
  O2-  O174  1  0.92498474  0.31772713  0.08753659  1
  O2-  O175  1  0.93254742  0.32318678  0.43379248  1
  O2-  O176  1  0.93432587  0.31744615  0.75986868  1
  O2-  O177  1  0.93134333  0.82427321  0.09954474  1
  O2-  O178  1  0.93461425  0.82079437  0.42340333  1
  O2-  O179  1  0.93094502  0.82074073  0.76077911  1
  O2-  O180  1  0.31982110  0.07203228  0.24498492  1
  O2-  O181  1  0.31656679  0.06761026  0.57697841  1
  O2-  O182  1  0.32534813  0.06781332  0.90963143  1
  O2-  O183  1  0.31713864  0.57158030  0.23584094  1
  O2-  O184  1  0.32389653  0.57517592  0.57797031  1
  O2-  O185  1  0.31874699  0.57223284  0.90130359  1
  O2-  O186  1  0.82547341  0.06669927  0.23248305  1
  O2-  O187  1  0.82205709  0.07379024  0.57197565  1
  O2-  O188  1  0.82259460  0.06836322  0.90972209  1
  O2-  O189  1  0.82209721  0.57338684  0.23471201  1
  O2-  O190  1  0.82073669  0.56737124  0.56748215  1
  O2-  O191  1  0.81511634  0.57618645  0.90126164  1
  O2-  O192  1  0.04450756  0.08092359  0.27583272  1
  O2-  O193  1  0.05111432  0.08436076  0.60655601  1
  O2-  O194  1  0.03848060  0.08701510  0.92921437  1
  O2-  O195  1  0.05350388  0.58609181  0.26945437  1
  O2-  O196  1  0.04819885  0.57570228  0.59973220  1
  O2-  O197  1  0.05807686  0.58052469  0.94568132  1
  O2-  O198  1  0.53996261  0.07889232  0.26406375  1
  O2-  O199  1  0.53320911  0.08771548  0.59991125  1
  O2-  O200  1  0.53655302  0.08682286  0.93357513  1
  O2-  O201  1  0.53897541  0.58627937  0.26473376  1
  O2-  O202  1  0.53937778  0.58752538  0.60516692  1
  O2-  O203  1  0.53905955  0.58801496  0.93633652  1
  O2-  O204  1  0.16539863  0.19650504  0.27314663  1
  O2-  O205  1  0.16621132  0.20658317  0.60298087  1
  O2-  O206  1  0.17052936  0.20552123  0.93404173  1
  O2-  O207  1  0.16421352  0.71354770  0.27071418  1
  O2-  O208  1  0.16843723  0.70982826  0.59788049  1
  O2-  O209  1  0.16470681  0.71207466  0.93546185  1
  O2-  O210  1  0.67155652  0.20130204  0.26236113  1
  O2-  O211  1  0.67135669  0.20600737  0.60303852  1
  O2-  O212  1  0.66480465  0.19952393  0.93816674  1
  O2-  O213  1  0.66819779  0.71406689  0.26392163  1
  O2-  O214  1  0.65987247  0.70683165  0.60615534  1
  O2-  O215  1  0.65711377  0.71030718  0.93298390  1
  O2-  O216  1  0.07691386  0.44593701  0.06728299  1
  O2-  O217  1  0.08632317  0.45390668  0.39451926  1
  O2-  O218  1  0.08566281  0.45606769  0.73661814  1
  O2-  O219  1  0.08690523  0.96160408  0.05834501  1
  O2-  O220  1  0.08568092  0.95983611  0.40759820  1
  O2-  O221  1  0.08747472  0.95464556  0.73121285  1
  O2-  O222  1  0.58163589  0.45663324  0.06631810  1
  O2-  O223  1  0.58086157  0.45684435  0.39825425  1
  O2-  O224  1  0.57726672  0.45474013  0.73303800  1
  O2-  O225  1  0.58524459  0.95963387  0.06354674  1
  O2-  O226  1  0.57315801  0.94291792  0.39203725  1
  O2-  O227  1  0.57829409  0.96172758  0.73606696  1
  O2-  O228  1  0.21091404  0.32828575  0.06949708  1
  O2-  O229  1  0.20198749  0.33022946  0.39318596  1
  O2-  O230  1  0.21379356  0.33262685  0.73425029  1
  O2-  O231  1  0.20760722  0.84218961  0.06069404  1
  O2-  O232  1  0.21187745  0.83489521  0.40533668  1
  O2-  O233  1  0.21077528  0.83755294  0.73240037  1
  O2-  O234  1  0.70464132  0.32594678  0.06652975  1
  O2-  O235  1  0.70741496  0.32953812  0.39554479  1
  O2-  O236  1  0.70751160  0.33128244  0.73475055  1
  O2-  O237  1  0.70105084  0.83687110  0.05756446  1
  O2-  O238  1  0.71231448  0.83391837  0.40025662  1
  O2-  O239  1  0.70021612  0.83108225  0.73579259  1
  O2-  O240  1  0.45332403  0.42109718  0.26357154  1
  O2-  O241  1  0.44274689  0.41991224  0.60941760  1
  O2-  O242  1  0.45630851  0.41373083  0.93553200  1
  O2-  O243  1  0.43984658  0.91667149  0.27185520  1
  O2-  O244  1  0.45371472  0.91451068  0.60383725  1
  O2-  O245  1  0.45730319  0.91415595  0.93480512  1
  O2-  O246  1  0.96331553  0.41651412  0.26238851  1
  O2-  O247  1  0.96148769  0.40978014  0.60764180  1
  O2-  O248  1  0.94595955  0.42035700  0.94076527  1
  O2-  O249  1  0.96449111  0.91116207  0.27267130  1
  O2-  O250  1  0.96136738  0.91903964  0.59638638  1
  O2-  O251  1  0.96436122  0.91256203  0.92870652  1
  O2-  O252  1  0.33122399  0.28877199  0.26135726  1
  O2-  O253  1  0.33738161  0.28817901  0.60260866  1
  O2-  O254  1  0.34030453  0.29009609  0.93446511  1
  O2-  O255  1  0.33172778  0.78948598  0.26934946  1
  O2-  O256  1  0.33557532  0.79709674  0.60415575  1
  O2-  O257  1  0.33490603  0.79768070  0.93573127  1
  O2-  O258  1  0.83634716  0.29073486  0.26158012  1
  O2-  O259  1  0.83992700  0.29074720  0.60834754  1
  O2-  O260  1  0.83548731  0.29015470  0.93499705  1
  O2-  O261  1  0.83994845  0.79524072  0.27070037  1
  O2-  O262  1  0.82465848  0.79998692  0.59797914  1
  O2-  O263  1  0.82966873  0.79464930  0.93159104  1
  O2-  O264  1  0.41250666  0.03821822  0.06418985  1
  O2-  O265  1  0.41431013  0.04649348  0.39752376  1
  O2-  O266  1  0.40959305  0.03964507  0.73057674  1
  O2-  O267  1  0.41724306  0.54263503  0.06635664  1
  O2-  O268  1  0.41753874  0.54093001  0.40203159  1
  O2-  O269  1  0.41394112  0.54918306  0.73221626  1
  O2-  O270  1  0.91377260  0.03715082  0.06014475  1
  O2-  O271  1  0.91552939  0.03945775  0.40316672  1
  O2-  O272  1  0.92381294  0.04391981  0.73620852  1
  O2-  O273  1  0.92231827  0.55910587  0.06374969  1
  O2-  O274  1  0.92503466  0.54525728  0.39713335  1
  O2-  O275  1  0.91900221  0.54246419  0.73431136  1
  O2-  O276  1  0.30010338  0.16367435  0.06087276  1
  O2-  O277  1  0.29470968  0.16545348  0.39805019  1
  O2-  O278  1  0.29325299  0.16133916  0.73020350  1
  O2-  O279  1  0.29432730  0.67303808  0.06742396  1
  O2-  O280  1  0.28861052  0.66365350  0.40461542  1
  O2-  O281  1  0.29737584  0.66917492  0.72868192  1
  O2-  O282  1  0.79585500  0.16009225  0.06106575  1
  O2-  O283  1  0.79820994  0.17205381  0.39666180  1
  O2-  O284  1  0.79395896  0.16769343  0.74115722  1
  O2-  O285  1  0.78455844  0.67219821  0.06644679  1
  O2-  O286  1  0.79608535  0.67013375  0.39977992  1
  O2-  O287  1  0.79317828  0.67080912  0.73050674  1
