# generated using pymatgen
data_Ca2Al2SiO7
_symmetry_space_group_name_H-M   'P 1'
_cell_length_a   15.46714061
_cell_length_b   15.46546523
_cell_length_c   15.28980671
_cell_angle_alpha   89.99980572
_cell_angle_beta   90.00564801
_cell_angle_gamma   89.99272289
_symmetry_Int_Tables_number   1
_chemical_formula_structural   Ca2Al2SiO7
_chemical_formula_sum   'Ca48 Al48 Si24 O168'
_cell_volume   3657.42148814
_cell_formula_units_Z   24
loop_
 _symmetry_equiv_pos_site_id
 _symmetry_equiv_pos_as_xyz
  1  'x, y, z'
loop_
 _atom_type_symbol
 _atom_type_oxidation_number
  Ca2+  2.0
  Al0+  0.0
  Si0+  0.0
  O2-  -2.0
loop_
 _atom_site_type_symbol
 _atom_site_label
 _atom_site_symmetry_multiplicity
 _atom_site_fract_x
 _atom_site_fract_y
 _atom_site_fract_z
 _atom_site_occupancy
  Ca2+  Ca0  1  0.17673356  0.08460282  0.17587382  1
  Ca2+  Ca1  1  0.17450684  0.08639880  0.49824778  1
  Ca2+  Ca2  1  0.16682091  0.08074977  0.83737535  1
  Ca2+  Ca3  1  0.17610229  0.58646745  0.17506623  1
  Ca2+  Ca4  1  0.16792824  0.58558304  0.49334635  1
  Ca2+  Ca5  1  0.17479934  0.58466638  0.84543035  1
  Ca2+  Ca6  1  0.66218451  0.07598434  0.17625142  1
  Ca2+  Ca7  1  0.66687450  0.07236236  0.49564560  1
  Ca2+  Ca8  1  0.65914473  0.07056853  0.83905385  1
  Ca2+  Ca9  1  0.66715650  0.57990837  0.17181902  1
  Ca2+  Ca10  1  0.65728649  0.57408625  0.50269681  1
  Ca2+  Ca11  1  0.66983055  0.58160765  0.84043145  1
  Ca2+  Ca12  1  0.07238137  0.34364138  0.16662010  1
  Ca2+  Ca13  1  0.07083599  0.33855656  0.49145101  1
  Ca2+  Ca14  1  0.06801271  0.33870503  0.83108705  1
  Ca2+  Ca15  1  0.07891419  0.82378070  0.16668675  1
  Ca2+  Ca16  1  0.07413955  0.82849578  0.48679768  1
  Ca2+  Ca17  1  0.08313119  0.82493471  0.83237477  1
  Ca2+  Ca18  1  0.58591294  0.32165187  0.16274494  1
  Ca2+  Ca19  1  0.59073007  0.32918496  0.48986401  1
  Ca2+  Ca20  1  0.58137076  0.33379437  0.83249990  1
  Ca2+  Ca21  1  0.58474136  0.82770510  0.16594314  1
  Ca2+  Ca22  1  0.58638345  0.82470086  0.49100749  1
  Ca2+  Ca23  1  0.59479037  0.82160576  0.83214273  1
  Ca2+  Ca24  1  0.33150089  0.42528614  0.17502130  1
  Ca2+  Ca25  1  0.32972311  0.42428999  0.49745904  1
  Ca2+  Ca26  1  0.33291085  0.42182668  0.84479383  1
  Ca2+  Ca27  1  0.33882777  0.92141944  0.17759002  1
  Ca2+  Ca28  1  0.34316564  0.92006327  0.49398715  1
  Ca2+  Ca29  1  0.33215812  0.91685832  0.83838151  1
  Ca2+  Ca30  1  0.83329342  0.41920169  0.17321859  1
  Ca2+  Ca31  1  0.82355745  0.41114821  0.50052646  1
  Ca2+  Ca32  1  0.83078165  0.41779977  0.83729116  1
  Ca2+  Ca33  1  0.82224672  0.92209677  0.17680189  1
  Ca2+  Ca34  1  0.82286067  0.91216096  0.49950945  1
  Ca2+  Ca35  1  0.82020333  0.91565667  0.84077479  1
  Ca2+  Ca36  1  0.42661530  0.16927627  0.16258130  1
  Ca2+  Ca37  1  0.42471685  0.16750881  0.48885245  1
  Ca2+  Ca38  1  0.42201320  0.17195824  0.83701054  1
  Ca2+  Ca39  1  0.42678419  0.66056735  0.16519383  1
  Ca2+  Ca40  1  0.42721817  0.67137560  0.48921077  1
  Ca2+  Ca41  1  0.43089986  0.65972392  0.83366055  1
  Ca2+  Ca42  1  0.90625094  0.17861113  0.16676146  1
  Ca2+  Ca43  1  0.90790335  0.17588191  0.49164865  1
  Ca2+  Ca44  1  0.91028704  0.17982573  0.83075040  1
  Ca2+  Ca45  1  0.92651716  0.66162605  0.16298842  1
  Ca2+  Ca46  1  0.92169097  0.67367801  0.48763380  1
  Ca2+  Ca47  1  0.91937730  0.65981810  0.83632204  1
  Al0+  Al48  1  -0.00162333  -0.00061629  -0.00007547  1
  Al0+  Al49  1  0.00078433  0.00353526  0.33272649  1
  Al0+  Al50  1  0.00227404  0.00092962  0.66841019  1
  Al0+  Al51  1  -0.00016387  0.50021987  -0.00638708  1
  Al0+  Al52  1  0.00026977  0.50043133  0.33078256  1
  Al0+  Al53  1  0.00086239  0.49926140  0.66147250  1
  Al0+  Al54  1  0.49770996  -0.00067230  -0.00092872  1
  Al0+  Al55  1  0.50143307  -0.00002727  0.33568068  1
  Al0+  Al56  1  0.49932463  0.00090164  0.67298586  1
  Al0+  Al57  1  0.49991329  0.49999266  -0.00303203  1
  Al0+  Al58  1  0.49866275  0.49978140  0.33882059  1
  Al0+  Al59  1  0.49940264  0.49937442  0.66744879  1
  Al0+  Al60  1  0.24836143  0.24883492  -0.00394471  1
  Al0+  Al61  1  0.24825801  0.25132485  0.34371115  1
  Al0+  Al62  1  0.24956554  0.25076428  0.66924579  1
  Al0+  Al63  1  0.24948389  0.74935158  -0.00003028  1
  Al0+  Al64  1  0.25079409  0.75219798  0.33272560  1
  Al0+  Al65  1  0.25151706  0.75139051  0.66714030  1
  Al0+  Al66  1  0.74930640  0.24749382  -0.01165259  1
  Al0+  Al67  1  0.74952363  0.24985538  0.33131165  1
  Al0+  Al68  1  0.74863408  0.25039314  0.66775989  1
  Al0+  Al69  1  0.75056011  0.74943139  0.00561261  1
  Al0+  Al70  1  0.75047635  0.74991127  0.32953286  1
  Al0+  Al71  1  0.75184832  0.74848734  0.66676151  1
  Al0+  Al72  1  0.07019860  0.67967752  0.31781730  1
  Al0+  Al73  1  0.92929873  0.32058236  0.98523941  1
  Al0+  Al74  1  0.32222528  0.57022115  0.01405312  1
  Al0+  Al75  1  0.82179500  0.56838780  0.01375914  1
  Al0+  Al76  1  0.57252709  0.67981413  0.98648893  1
  Al0+  Al77  1  0.17686066  0.43037656  0.34886270  1
  Al0+  Al78  1  0.68026956  0.92803532  0.68161172  1
  Al0+  Al79  1  0.42818902  0.32129097  0.98678738  1
  Al0+  Al80  1  0.67956047  0.92688123  0.34853488  1
  Al0+  Al81  1  0.67837851  0.42868010  0.68197069  1
  Al0+  Al82  1  0.67785131  0.92956647  0.01559530  1
  Al0+  Al83  1  0.57052781  0.17648073  0.98279815  1
  Al0+  Al84  1  0.57162196  0.67506593  0.31770245  1
  Al0+  Al85  1  0.82186962  0.07273244  0.34676081  1
  Al0+  Al86  1  0.32187256  0.57423602  0.35013280  1
  Al0+  Al87  1  0.92696469  0.82555633  0.31740845  1
  Al0+  Al88  1  0.32226104  0.07147297  0.34651064  1
  Al0+  Al89  1  0.92871338  0.31942073  0.64968823  1
  Al0+  Al90  1  0.67997194  0.42988851  0.34321638  1
  Al0+  Al91  1  0.57006300  0.18096549  0.32202012  1
  Al0+  Al92  1  0.43145474  0.82158040  0.31938281  1
  Al0+  Al93  1  0.07130539  0.68059037  0.98529725  1
  Al0+  Al94  1  0.92910095  0.31938141  0.31956608  1
  Al0+  Al95  1  0.57173115  0.67917909  0.65325846  1
  Si0+  Si96  1  0.32064921  0.07228682  0.68469766  1
  Si0+  Si97  1  0.42738978  0.82339109  0.65133614  1
  Si0+  Si98  1  0.82216410  0.07301740  0.01507572  1
  Si0+  Si99  1  0.17729664  0.92774474  0.01506474  1
  Si0+  Si100  1  0.31943548  0.57141817  0.68308957  1
  Si0+  Si101  1  0.82431328  0.57129610  0.68209395  1
  Si0+  Si102  1  0.07380691  0.68011682  0.65154892  1
  Si0+  Si103  1  0.17827847  0.42987277  0.68358135  1
  Si0+  Si104  1  0.17768748  0.42710668  0.01439734  1
  Si0+  Si105  1  0.42483760  0.32203035  0.32048342  1
  Si0+  Si106  1  0.07231425  0.17503732  0.98299279  1
  Si0+  Si107  1  0.07539220  0.17924859  0.31745803  1
  Si0+  Si108  1  0.67836740  0.42597261  0.01507057  1
  Si0+  Si109  1  0.07348683  0.17700346  0.64895496  1
  Si0+  Si110  1  0.56805059  0.17834384  0.65089361  1
  Si0+  Si111  1  0.42728254  0.82176349  0.98303021  1
  Si0+  Si112  1  0.82315111  0.07164170  0.68410523  1
  Si0+  Si113  1  0.17778299  0.92924597  0.34985155  1
  Si0+  Si114  1  0.31811290  0.07056541  0.01459093  1
  Si0+  Si115  1  0.82282619  0.57192842  0.34878288  1
  Si0+  Si116  1  0.42688330  0.32102670  0.65063934  1
  Si0+  Si117  1  0.17854958  0.92880976  0.68262092  1
  Si0+  Si118  1  0.92824902  0.82266450  0.98233295  1
  Si0+  Si119  1  0.93080809  0.82166024  0.65393240  1
  O2-  O120  1  0.24692438  -0.00003762  0.05646339  1
  O2-  O121  1  0.24754548  -0.00308198  0.39475518  1
  O2-  O122  1  0.24928988  0.00024077  0.72532122  1
  O2-  O123  1  0.24890771  0.49278042  0.05782138  1
  O2-  O124  1  0.24864965  0.50249618  0.39980958  1
  O2-  O125  1  0.24851945  0.50072284  0.72677583  1
  O2-  O126  1  0.75136486  0.00702131  0.05852752  1
  O2-  O127  1  0.75588058  -0.00431915  0.39760878  1
  O2-  O128  1  0.75572214  0.00230985  0.72914178  1
  O2-  O129  1  0.74813830  0.49269838  0.05981517  1
  O2-  O130  1  0.75037375  0.50753824  0.39311197  1
  O2-  O131  1  0.75384186  0.50400688  0.72590877  1
  O2-  O132  1  0.00522894  0.24568500  0.27302344  1
  O2-  O133  1  0.00281341  0.24275325  0.60484307  1
  O2-  O134  1  0.00331462  0.24363769  0.93930431  1
  O2-  O135  1  -0.00346892  0.75039031  0.26839211  1
  O2-  O136  1  0.00149686  0.75034507  0.61152767  1
  O2-  O137  1  -0.00356001  0.75405748  0.93611416  1
  O2-  O138  1  0.49428134  0.25492656  0.27612125  1
  O2-  O139  1  0.49917251  0.25157298  0.60845845  1
  O2-  O140  1  0.50201695  0.25266969  0.93335757  1
  O2-  O141  1  0.49977478  0.74767284  0.26806567  1
  O2-  O142  1  0.49839804  0.75673611  0.60942140  1
  O2-  O143  1  0.49734672  0.75464854  0.93882028  1
  O2-  O144  1  0.07620565  0.17267484  0.08770924  1
  O2-  O145  1  0.07714280  0.18046865  0.42323508  1
  O2-  O146  1  0.07504294  0.17680887  0.75473178  1
  O2-  O147  1  0.07257465  0.68234162  0.09717366  1
  O2-  O148  1  0.06813795  0.68203309  0.43260274  1
  O2-  O149  1  0.07597310  0.68136239  0.75676578  1
  O2-  O150  1  0.56845314  0.17581843  0.09607685  1
  O2-  O151  1  0.56904623  0.18157673  0.43583179  1
  O2-  O152  1  0.56402532  0.17675794  0.75581199  1
  O2-  O153  1  0.57158275  0.67831567  0.09840995  1
  O2-  O154  1  0.56974832  0.67530521  0.43185997  1
  O2-  O155  1  0.57097336  0.67912885  0.76666364  1
  O2-  O156  1  0.17850964  0.42908092  0.23529205  1
  O2-  O157  1  0.17869527  0.42979328  0.57914060  1
  O2-  O158  1  0.17816940  0.42959381  0.90787025  1
  O2-  O159  1  0.17778122  0.93149744  0.24419934  1
  O2-  O160  1  0.17627050  0.92809430  0.57838769  1
  O2-  O161  1  0.17878783  0.92888819  0.90906238  1
  O2-  O162  1  0.68246118  0.42727957  0.23033785  1
  O2-  O163  1  0.67874023  0.42749351  0.56905617  1
  O2-  O164  1  0.67950242  0.42876290  0.90893264  1
  O2-  O165  1  0.67681106  0.93104765  0.23532836  1
  O2-  O166  1  0.68021585  0.92818906  0.56939251  1
  O2-  O167  1  0.68076761  0.92929257  0.90156559  1
  O2-  O168  1  0.42530000  0.31755374  0.09985167  1
  O2-  O169  1  0.42580886  0.31922762  0.42681893  1
  O2-  O170  1  0.42475992  0.31918400  0.75560538  1
  O2-  O171  1  0.42572625  0.82389939  0.08778104  1
  O2-  O172  1  0.43409795  0.82159907  0.43371205  1
  O2-  O173  1  0.42206291  0.82211512  0.75682907  1
  O2-  O174  1  0.93015522  0.32062509  0.09781709  1
  O2-  O175  1  0.92892105  0.31807540  0.43276874  1
  O2-  O176  1  0.93185189  0.32005382  0.76300809  1
  O2-  O177  1  0.93219999  0.82564113  0.08690112  1
  O2-  O178  1  0.93021406  0.82274765  0.43250980  1
  O2-  O179  1  0.93301726  0.82175810  0.75909214  1
  O2-  O180  1  0.32001246  0.07183784  0.23325704  1
  O2-  O181  1  0.32135731  0.07305095  0.58005400  1
  O2-  O182  1  0.31596551  0.06912658  0.90879766  1
  O2-  O183  1  0.32209765  0.57099612  0.23665560  1
  O2-  O184  1  0.31738014  0.57184274  0.57862990  1
  O2-  O185  1  0.31961855  0.57012973  0.89977845  1
  O2-  O186  1  0.81714889  0.07478918  0.23323540  1
  O2-  O187  1  0.82393205  0.07036532  0.57904493  1
  O2-  O188  1  0.82519799  0.06974322  0.90907947  1
  O2-  O189  1  0.82560935  0.56758051  0.24328799  1
  O2-  O190  1  0.82747439  0.57247767  0.57700903  1
  O2-  O191  1  0.82159549  0.56687355  0.89990469  1
  O2-  O192  1  0.05545362  0.08485338  0.27153142  1
  O2-  O193  1  0.05314525  0.08127360  0.60471200  1
  O2-  O194  1  0.04676001  0.08127641  0.93511374  1
  O2-  O195  1  0.04348907  0.58164343  0.26462929  1
  O2-  O196  1  0.04818536  0.58789904  0.60515518  1
  O2-  O197  1  0.04132850  0.58504828  0.92827339  1
  O2-  O198  1  0.53769765  0.08544990  0.26912926  1
  O2-  O199  1  0.53628808  0.08685114  0.60510780  1
  O2-  O200  1  0.53314011  0.08083933  0.92812438  1
  O2-  O201  1  0.54091686  0.57632446  0.26634052  1
  O2-  O202  1  0.53735867  0.58275244  0.60119865  1
  O2-  O203  1  0.54099213  0.58393040  0.93068594  1
  O2-  O204  1  0.16898206  0.20674354  0.27206509  1
  O2-  O205  1  0.16743322  0.20483519  0.60450180  1
  O2-  O206  1  0.16473871  0.20002622  0.93322372  1
  O2-  O207  1  0.16849244  0.70963406  0.26710125  1
  O2-  O208  1  0.16472721  0.71072514  0.60429851  1
  O2-  O209  1  0.16655850  0.71456393  0.92868467  1
  O2-  O210  1  0.66380109  0.21327552  0.26526256  1
  O2-  O211  1  0.66146703  0.20381577  0.60726498  1
  O2-  O212  1  0.66872357  0.19799363  0.92645002  1
  O2-  O213  1  0.67103341  0.69955485  0.26689443  1
  O2-  O214  1  0.67000540  0.70610203  0.60116715  1
  O2-  O215  1  0.66964225  0.71161994  0.93289899  1
  O2-  O216  1  0.08470782  0.45573637  0.05792522  1
  O2-  O217  1  0.07934421  0.46152487  0.40329536  1
  O2-  O218  1  0.08594051  0.45845852  0.72981325  1
  O2-  O219  1  0.08468467  0.95373722  0.06071451  1
  O2-  O220  1  0.08544941  0.95678219  0.39780599  1
  O2-  O221  1  0.08798991  0.95665210  0.73377018  1
  O2-  O222  1  0.58465714  0.45147163  0.05901563  1
  O2-  O223  1  0.58295434  0.45403630  0.40036405  1
  O2-  O224  1  0.58055555  0.45793537  0.73524859  1
  O2-  O225  1  0.57924286  0.95870150  0.06532491  1
  O2-  O226  1  0.58412419  0.96091097  0.40406390  1
  O2-  O227  1  0.58348201  0.95969488  0.73607606  1
  O2-  O228  1  0.19777986  0.33112226  0.05714750  1
  O2-  O229  1  0.20329670  0.33348735  0.40690662  1
  O2-  O230  1  0.20524053  0.33738991  0.73094678  1
  O2-  O231  1  0.20561562  0.83692638  0.06200455  1
  O2-  O232  1  0.20207122  0.83645141  0.39760960  1
  O2-  O233  1  0.20826953  0.83765328  0.73178191  1
  O2-  O234  1  0.70240849  0.32930617  0.05459757  1
  O2-  O235  1  0.71485139  0.33556335  0.39942982  1
  O2-  O236  1  0.70867310  0.33179453  0.73635788  1
  O2-  O237  1  0.71008308  0.83428901  0.06903840  1
  O2-  O238  1  0.70659117  0.82734602  0.40105103  1
  O2-  O239  1  0.71410569  0.83158249  0.73535463  1
  O2-  O240  1  0.44798976  0.41629054  0.27722642  1
  O2-  O241  1  0.45175928  0.41390521  0.60516524  1
  O2-  O242  1  0.45485508  0.41884590  0.93069912  1
  O2-  O243  1  0.45992729  0.91974983  0.26661035  1
  O2-  O244  1  0.45038597  0.91935565  0.60914335  1
  O2-  O245  1  0.44979693  0.91565744  0.93547619  1
  O2-  O246  1  0.96021801  0.41553928  0.26593007  1
  O2-  O247  1  0.96190600  0.41563664  0.59654862  1
  O2-  O248  1  0.96293753  0.41455012  0.92721488  1
  O2-  O249  1  0.95784619  0.92356016  0.26551320  1
  O2-  O250  1  0.95983558  0.91364073  0.60770740  1
  O2-  O251  1  0.95455067  0.91587262  0.93388527  1
  O2-  O252  1  0.33088303  0.29550309  0.27702522  1
  O2-  O253  1  0.33484139  0.29142487  0.60442939  1
  O2-  O254  1  0.33048183  0.29005312  0.93040330  1
  O2-  O255  1  0.32997272  0.80244075  0.26970451  1
  O2-  O256  1  0.33413496  0.79737416  0.60390469  1
  O2-  O257  1  0.33379982  0.79576016  0.93587843  1
  O2-  O258  1  0.83464342  0.28686017  0.26378503  1
  O2-  O259  1  0.83055908  0.28912263  0.59894402  1
  O2-  O260  1  0.83453512  0.29076815  0.92656204  1
  O2-  O261  1  0.82826373  0.80147660  0.26569210  1
  O2-  O262  1  0.83987988  0.79359738  0.60614245  1
  O2-  O263  1  0.83510406  0.79450464  0.93748003  1
  O2-  O264  1  0.40950501  0.04263674  0.06094292  1
  O2-  O265  1  0.41622764  0.03883202  0.40426308  1
  O2-  O266  1  0.41066638  0.04401561  0.73510966  1
  O2-  O267  1  0.41926189  0.54042894  0.06635825  1
  O2-  O268  1  0.41749023  0.54228947  0.40698090  1
  O2-  O269  1  0.41080266  0.54174064  0.72994864  1
  O2-  O270  1  0.91587176  0.04783983  0.06133940  1
  O2-  O271  1  0.92383011  0.05488752  0.39769494  1
  O2-  O272  1  0.91847015  0.04904660  0.72967162  1
  O2-  O273  1  0.91964339  0.53745377  0.06500724  1
  O2-  O274  1  0.91485621  0.54367297  0.39647077  1
  O2-  O275  1  0.91817426  0.54315765  0.72823670  1
  O2-  O276  1  0.28987529  0.16242562  0.06085192  1
  O2-  O277  1  0.29056702  0.16530382  0.40599589  1
  O2-  O278  1  0.29058534  0.16328547  0.73332186  1
  O2-  O279  1  0.28885473  0.66663928  0.06556067  1
  O2-  O280  1  0.29278750  0.67274075  0.40332574  1
  O2-  O281  1  0.29177880  0.66393359  0.73000209  1
  O2-  O282  1  0.79869705  0.16887036  0.05628330  1
  O2-  O283  1  0.78590658  0.16763154  0.40208870  1
  O2-  O284  1  0.79523817  0.16475106  0.72975401  1
  O2-  O285  1  0.79490853  0.66523154  0.06742477  1
  O2-  O286  1  0.80308893  0.66758231  0.39231142  1
  O2-  O287  1  0.80110564  0.66494977  0.72955494  1
