# generated using pymatgen
data_Ca2Al2SiO7
_symmetry_space_group_name_H-M   'P 1'
_cell_length_a   15.46095794
_cell_length_b   15.46333181
_cell_length_c   15.28612200
_cell_angle_alpha   89.99308048
_cell_angle_beta   89.98604015
_cell_angle_gamma   90.01177581
_symmetry_Int_Tables_number   1
_chemical_formula_structural   Ca2Al2SiO7
_chemical_formula_sum   'Ca48 Al48 Si24 O168'
_cell_volume   3654.57408184
_cell_formula_units_Z   24
loop_
 _symmetry_equiv_pos_site_id
 _symmetry_equiv_pos_as_xyz
  1  'x, y, z'
loop_
 _atom_type_symbol
 _atom_type_oxidation_number
  Ca2+  2.0
  Al0+  0.0
  Si0+  0.0
  O2-  -2.0
loop_
 _atom_site_type_symbol
 _atom_site_label
 _atom_site_symmetry_multiplicity
 _atom_site_fract_x
 _atom_site_fract_y
 _atom_site_fract_z
 _atom_site_occupancy
  Ca2+  Ca0  1  0.17882947  0.08796947  0.16973703  1
  Ca2+  Ca1  1  0.16953746  0.08751156  0.50216218  1
  Ca2+  Ca2  1  0.16650942  0.08578855  0.83804428  1
  Ca2+  Ca3  1  0.17852645  0.57661709  0.16801859  1
  Ca2+  Ca4  1  0.17929479  0.59110939  0.50613515  1
  Ca2+  Ca5  1  0.17575560  0.58289822  0.84071315  1
  Ca2+  Ca6  1  0.67045840  0.07723634  0.17107288  1
  Ca2+  Ca7  1  0.66213390  0.06748046  0.50481450  1
  Ca2+  Ca8  1  0.67044074  0.07599074  0.83757358  1
  Ca2+  Ca9  1  0.67142748  0.58394415  0.17383355  1
  Ca2+  Ca10  1  0.67172937  0.57959993  0.50451136  1
  Ca2+  Ca11  1  0.67362239  0.58346881  0.83277063  1
  Ca2+  Ca12  1  0.07837803  0.33727453  0.15780047  1
  Ca2+  Ca13  1  0.07635827  0.33393340  0.50288975  1
  Ca2+  Ca14  1  0.07241401  0.33668876  0.82880071  1
  Ca2+  Ca15  1  0.07710438  0.83170134  0.16691011  1
  Ca2+  Ca16  1  0.07545145  0.82539277  0.49562969  1
  Ca2+  Ca17  1  0.08025777  0.82556735  0.82495876  1
  Ca2+  Ca18  1  0.57197263  0.34332893  0.16482773  1
  Ca2+  Ca19  1  0.58097761  0.34180445  0.49286048  1
  Ca2+  Ca20  1  0.57703452  0.33997375  0.83018602  1
  Ca2+  Ca21  1  0.58912881  0.82098557  0.16508849  1
  Ca2+  Ca22  1  0.59299558  0.82216554  0.49547765  1
  Ca2+  Ca23  1  0.58539801  0.82121813  0.82814391  1
  Ca2+  Ca24  1  0.33580475  0.41949128  0.16909969  1
  Ca2+  Ca25  1  0.33800630  0.42718754  0.50115280  1
  Ca2+  Ca26  1  0.32730546  0.42540179  0.84117273  1
  Ca2+  Ca27  1  0.33882216  0.92986002  0.17051329  1
  Ca2+  Ca28  1  0.33861162  0.92574912  0.50247605  1
  Ca2+  Ca29  1  0.33043558  0.92350887  0.83992555  1
  Ca2+  Ca30  1  0.82965561  0.42771118  0.17260725  1
  Ca2+  Ca31  1  0.82164676  0.42260555  0.50873374  1
  Ca2+  Ca32  1  0.83556775  0.42253631  0.83814314  1
  Ca2+  Ca33  1  0.83064389  0.92045652  0.17396421  1
  Ca2+  Ca34  1  0.82391011  0.90838092  0.50082344  1
  Ca2+  Ca35  1  0.82836713  0.92110610  0.83658384  1
  Ca2+  Ca36  1  0.41255771  0.17530822  0.16150054  1
  Ca2+  Ca37  1  0.41840770  0.17555918  0.48984648  1
  Ca2+  Ca38  1  0.41070879  0.17387884  0.83375015  1
  Ca2+  Ca39  1  0.42892185  0.65427889  0.16252410  1
  Ca2+  Ca40  1  0.42824852  0.65802599  0.49498706  1
  Ca2+  Ca41  1  0.42691869  0.65553941  0.82891278  1
  Ca2+  Ca42  1  0.91462567  0.17475295  0.15537431  1
  Ca2+  Ca43  1  0.91946010  0.17102347  0.50005019  1
  Ca2+  Ca44  1  0.91579755  0.17890416  0.82705057  1
  Ca2+  Ca45  1  0.90614521  0.66997600  0.16361591  1
  Ca2+  Ca46  1  0.91580317  0.66319370  0.49531681  1
  Ca2+  Ca47  1  0.92187546  0.65729468  0.82614462  1
  Al0+  Al48  1  -0.00175998  -0.00070509  0.00330296  1
  Al0+  Al49  1  0.00181096  -0.00075441  0.32867216  1
  Al0+  Al50  1  0.00130533  0.00069810  0.66229852  1
  Al0+  Al51  1  -0.00041989  0.50119661  0.00477402  1
  Al0+  Al52  1  0.00308705  0.49947349  0.33441844  1
  Al0+  Al53  1  0.00151910  0.49942517  0.65720692  1
  Al0+  Al54  1  0.49894339  -0.00217251  0.00319982  1
  Al0+  Al55  1  0.50072220  0.00008376  0.34134333  1
  Al0+  Al56  1  0.49943698  0.00093073  0.67363118  1
  Al0+  Al57  1  0.50069245  0.49882368  -0.00872469  1
  Al0+  Al58  1  0.49917042  0.49947269  0.33115150  1
  Al0+  Al59  1  0.50032869  0.50103004  0.66975997  1
  Al0+  Al60  1  0.24894187  0.24908531  0.00192060  1
  Al0+  Al61  1  0.25023015  0.25007854  0.33457850  1
  Al0+  Al62  1  0.25030791  0.25176214  0.66218758  1
  Al0+  Al63  1  0.25029362  0.75056787  0.00547926  1
  Al0+  Al64  1  0.24972537  0.75166072  0.33476846  1
  Al0+  Al65  1  0.25091815  0.75434359  0.66708043  1
  Al0+  Al66  1  0.74864930  0.24851360  -0.00049568  1
  Al0+  Al67  1  0.75084635  0.24912896  0.33527188  1
  Al0+  Al68  1  0.74683681  0.24860762  0.66484267  1
  Al0+  Al69  1  0.74905188  0.74958153  -0.00362967  1
  Al0+  Al70  1  0.75160908  0.75132631  0.33108262  1
  Al0+  Al71  1  0.74882146  0.74961391  0.67261184  1
  Al0+  Al72  1  0.92785937  0.32243265  0.98797348  1
  Al0+  Al73  1  0.57074735  0.67910898  0.98370206  1
  Al0+  Al74  1  0.56973354  0.68010393  0.65165276  1
  Al0+  Al75  1  0.82214133  0.57233531  0.34784837  1
  Al0+  Al76  1  0.93043325  0.81847847  0.31898379  1
  Al0+  Al77  1  0.82308372  0.56905750  0.68140851  1
  Al0+  Al78  1  0.42818661  0.31885282  0.98425211  1
  Al0+  Al79  1  0.31967884  0.07012298  0.01311477  1
  Al0+  Al80  1  0.82032848  0.07154131  0.01251143  1
  Al0+  Al81  1  0.17815527  0.42929987  0.01326713  1
  Al0+  Al82  1  0.56931890  0.68052809  0.32008652  1
  Al0+  Al83  1  0.68115066  0.93033698  0.34612069  1
  Al0+  Al84  1  0.92543870  0.32218884  0.64959400  1
  Al0+  Al85  1  0.31996695  0.57333461  0.68036318  1
  Al0+  Al86  1  0.32403003  0.57082652  0.01531190  1
  Al0+  Al87  1  0.67766813  0.42665747  0.68333676  1
  Al0+  Al88  1  0.07179173  0.17890812  0.65128500  1
  Al0+  Al89  1  0.07349245  0.67882067  0.65397523  1
  Al0+  Al90  1  0.67871777  0.92822432  0.68275115  1
  Al0+  Al91  1  0.43046240  0.31953842  0.31968382  1
  Al0+  Al92  1  0.67878378  0.42891575  0.34606879  1
  Al0+  Al93  1  0.31992575  0.07119719  0.34892901  1
  Al0+  Al94  1  0.82013729  0.57066508  0.01353975  1
  Al0+  Al95  1  0.32026320  0.57089069  0.34690867  1
  Si0+  Si96  1  0.42837512  0.82579690  0.65067151  1
  Si0+  Si97  1  0.92849977  0.32096871  0.31703399  1
  Si0+  Si98  1  0.17789866  0.42660010  0.35254663  1
  Si0+  Si99  1  0.42652914  0.82474702  0.31767851  1
  Si0+  Si100  1  0.07052367  0.17963664  0.31611100  1
  Si0+  Si101  1  0.57117634  0.17419822  0.98315428  1
  Si0+  Si102  1  0.43089718  0.31999016  0.65111099  1
  Si0+  Si103  1  0.82527903  0.07269542  0.35033046  1
  Si0+  Si104  1  0.92897944  0.82214887  0.98369101  1
  Si0+  Si105  1  0.07131070  0.68070301  0.98703046  1
  Si0+  Si106  1  0.56976199  0.17528974  0.65218404  1
  Si0+  Si107  1  0.17804679  0.93095675  0.68119532  1
  Si0+  Si108  1  0.17981089  0.42742816  0.68119044  1
  Si0+  Si109  1  0.92848607  0.82171151  0.65181796  1
  Si0+  Si110  1  0.82345416  0.07114838  0.68172911  1
  Si0+  Si111  1  0.67753333  0.42641870  0.01516948  1
  Si0+  Si112  1  0.57301657  0.17477702  0.31777469  1
  Si0+  Si113  1  0.07564811  0.67653574  0.31405215  1
  Si0+  Si114  1  0.31968196  0.07332075  0.68236983  1
  Si0+  Si115  1  0.07045437  0.17688622  0.98532410  1
  Si0+  Si116  1  0.17572270  0.92638314  0.01811512  1
  Si0+  Si117  1  0.17645543  0.92908738  0.35167970  1
  Si0+  Si118  1  0.67883535  0.92771992  0.01740734  1
  Si0+  Si119  1  0.42655342  0.82326809  0.98413095  1
  O2-  O120  1  0.24518704  -0.00470910  0.06048648  1
  O2-  O121  1  0.24759912  -0.00520037  0.39677045  1
  O2-  O122  1  0.24740489  0.00339840  0.72388097  1
  O2-  O123  1  0.25391522  0.49661788  0.06449937  1
  O2-  O124  1  0.24344743  0.49899430  0.39519174  1
  O2-  O125  1  0.24199656  0.50149899  0.72588734  1
  O2-  O126  1  0.74614212  -0.00224932  0.06114478  1
  O2-  O127  1  0.75495376  0.00587747  0.39426826  1
  O2-  O128  1  0.75476954  0.00290130  0.72689105  1
  O2-  O129  1  0.74631433  0.49486387  0.05903519  1
  O2-  O130  1  0.75213354  0.49855208  0.39692650  1
  O2-  O131  1  0.75453103  0.49405900  0.73241277  1
  O2-  O132  1  -0.00128852  0.24920622  0.27374911  1
  O2-  O133  1  -0.00208251  0.24855559  0.60095524  1
  O2-  O134  1  0.00177063  0.24563503  0.94215821  1
  O2-  O135  1  0.00219975  0.74110926  0.27066247  1
  O2-  O136  1  -0.00640699  0.74911509  0.60848238  1
  O2-  O137  1  0.00054488  0.75147444  0.94286389  1
  O2-  O138  1  0.50718389  0.24582632  0.27329868  1
  O2-  O139  1  0.50384611  0.25057495  0.60948637  1
  O2-  O140  1  0.50324662  0.24342616  0.93795919  1
  O2-  O141  1  0.49199544  0.75368895  0.27303988  1
  O2-  O142  1  0.49455635  0.75561218  0.60591390  1
  O2-  O143  1  0.49133579  0.75160572  0.93956851  1
  O2-  O144  1  0.06916396  0.17572628  0.09113864  1
  O2-  O145  1  0.06975901  0.17937113  0.42115767  1
  O2-  O146  1  0.07259312  0.17849892  0.76481895  1
  O2-  O147  1  0.07147376  0.68341605  0.09195807  1
  O2-  O148  1  0.07842488  0.68042401  0.41960413  1
  O2-  O149  1  0.07510507  0.68315066  0.76761164  1
  O2-  O150  1  0.57021839  0.17170320  0.08859863  1
  O2-  O151  1  0.56963489  0.17253672  0.42353768  1
  O2-  O152  1  0.56558146  0.17109206  0.75717394  1
  O2-  O153  1  0.57259469  0.68163719  0.09698064  1
  O2-  O154  1  0.56960957  0.68163332  0.43309863  1
  O2-  O155  1  0.56855037  0.68179335  0.76477924  1
  O2-  O156  1  0.17722699  0.42495094  0.24695349  1
  O2-  O157  1  0.18542668  0.42407358  0.57572195  1
  O2-  O158  1  0.17658588  0.43260404  0.89946793  1
  O2-  O159  1  0.17515010  0.93178092  0.24604532  1
  O2-  O160  1  0.17901390  0.93069925  0.57642062  1
  O2-  O161  1  0.17475944  0.92583752  0.91219690  1
  O2-  O162  1  0.67954616  0.42903943  0.23224362  1
  O2-  O163  1  0.67546813  0.42930291  0.56995039  1
  O2-  O164  1  0.67908937  0.42616304  0.90970086  1
  O2-  O165  1  0.68248231  0.93231770  0.23290263  1
  O2-  O166  1  0.67931473  0.92943173  0.56965468  1
  O2-  O167  1  0.68011639  0.92910522  0.91168540  1
  O2-  O168  1  0.42949446  0.31782976  0.09730845  1
  O2-  O169  1  0.43025349  0.31825840  0.43321935  1
  O2-  O170  1  0.42794212  0.31640371  0.75626323  1
  O2-  O171  1  0.42908829  0.82826771  0.08940010  1
  O2-  O172  1  0.42712503  0.82639725  0.42325158  1
  O2-  O173  1  0.42824388  0.82932556  0.75621572  1
  O2-  O174  1  0.92939729  0.32056034  0.10145190  1
  O2-  O175  1  0.92933017  0.31853507  0.42179263  1
  O2-  O176  1  0.92784302  0.32096329  0.76359164  1
  O2-  O177  1  0.92932292  0.82305293  0.08880790  1
  O2-  O178  1  0.93292362  0.82009271  0.43208376  1
  O2-  O179  1  0.93299565  0.82632869  0.75762725  1
  O2-  O180  1  0.31825454  0.07109647  0.23588112  1
  O2-  O181  1  0.32073152  0.07220685  0.57738363  1
  O2-  O182  1  0.31697281  0.06860902  0.89951931  1
  O2-  O183  1  0.32038552  0.56791586  0.23416238  1
  O2-  O184  1  0.32103048  0.57069830  0.56709221  1
  O2-  O185  1  0.31993414  0.57153869  0.90160090  1
  O2-  O186  1  0.82491370  0.07214609  0.24449573  1
  O2-  O187  1  0.82355948  0.06920572  0.57611594  1
  O2-  O188  1  0.82056442  0.06850543  0.89938203  1
  O2-  O189  1  0.81926213  0.57131083  0.23387702  1
  O2-  O190  1  0.82029561  0.57091892  0.56814047  1
  O2-  O191  1  0.82320834  0.57065720  0.90088393  1
  O2-  O192  1  0.04679045  0.08708643  0.26833068  1
  O2-  O193  1  0.04621033  0.08011033  0.59597542  1
  O2-  O194  1  0.04569511  0.08220238  0.93994625  1
  O2-  O195  1  0.05634030  0.58031108  0.27121957  1
  O2-  O196  1  0.05182312  0.58225956  0.59680052  1
  O2-  O197  1  0.04261202  0.58934510  0.94039611  1
  O2-  O198  1  0.54434978  0.08190162  0.27163234  1
  O2-  O199  1  0.53579999  0.08554874  0.60351066  1
  O2-  O200  1  0.54433764  0.08044350  0.93690105  1
  O2-  O201  1  0.53852533  0.58454102  0.26525308  1
  O2-  O202  1  0.53680061  0.58333768  0.59943923  1
  O2-  O203  1  0.54299856  0.58305230  0.92769641  1
  O2-  O204  1  0.16230928  0.20925286  0.26987007  1
  O2-  O205  1  0.16945625  0.20930983  0.59606808  1
  O2-  O206  1  0.16431339  0.20022377  0.93962743  1
  O2-  O207  1  0.16685734  0.70884634  0.26603429  1
  O2-  O208  1  0.16742143  0.71794356  0.59872021  1
  O2-  O209  1  0.16380052  0.70887699  0.94013163  1
  O2-  O210  1  0.66906052  0.19522865  0.27408447  1
  O2-  O211  1  0.66327334  0.19387979  0.60502096  1
  O2-  O212  1  0.66504302  0.19813015  0.93683673  1
  O2-  O213  1  0.66475745  0.71469347  0.26577119  1
  O2-  O214  1  0.66733317  0.71323198  0.60099564  1
  O2-  O215  1  0.66554435  0.71485252  0.92818020  1
  O2-  O216  1  0.08331844  0.46207770  0.07087650  1
  O2-  O217  1  0.08362855  0.44883820  0.39840093  1
  O2-  O218  1  0.08298395  0.44672510  0.72118068  1
  O2-  O219  1  0.08267591  0.95223956  0.06508438  1
  O2-  O220  1  0.08435833  0.95894520  0.39852427  1
  O2-  O221  1  0.08595543  0.95732505  0.72947800  1
  O2-  O222  1  0.58346716  0.45392269  0.05806329  1
  O2-  O223  1  0.58061803  0.45769973  0.39815211  1
  O2-  O224  1  0.58138965  0.45995838  0.73742509  1
  O2-  O225  1  0.58476602  0.95077796  0.06294019  1
  O2-  O226  1  0.58572424  0.95879005  0.40380817  1
  O2-  O227  1  0.58348100  0.96190424  0.73833898  1
  O2-  O228  1  0.20082064  0.32928666  0.06530347  1
  O2-  O229  1  0.20656174  0.33451038  0.39923449  1
  O2-  O230  1  0.21092987  0.33593090  0.72908190  1
  O2-  O231  1  0.20037987  0.83416770  0.06683931  1
  O2-  O232  1  0.19818470  0.83440953  0.39648840  1
  O2-  O233  1  0.20760123  0.84149602  0.73219938  1
  O2-  O234  1  0.69855027  0.33178404  0.06067007  1
  O2-  O235  1  0.70318000  0.32841185  0.39836396  1
  O2-  O236  1  0.69576941  0.32367621  0.73208566  1
  O2-  O237  1  0.70843546  0.83532008  0.06224664  1
  O2-  O238  1  0.71579135  0.83569887  0.40034239  1
  O2-  O239  1  0.70989415  0.83406581  0.73979620  1
  O2-  O240  1  0.46012690  0.41508611  0.26369050  1
  O2-  O241  1  0.45840745  0.41227970  0.60560254  1
  O2-  O242  1  0.45854289  0.41378865  0.92711435  1
  O2-  O243  1  0.45602896  0.91830566  0.27267869  1
  O2-  O244  1  0.45591700  0.91970667  0.60516237  1
  O2-  O245  1  0.45444684  0.91578629  0.93541654  1
  O2-  O246  1  0.95794768  0.41314115  0.27096330  1
  O2-  O247  1  0.95639874  0.41754006  0.59232097  1
  O2-  O248  1  0.96186293  0.41857924  0.93492989  1
  O2-  O249  1  0.96406693  0.91474370  0.26308027  1
  O2-  O250  1  0.95771121  0.91292441  0.60277983  1
  O2-  O251  1  0.95766897  0.91388713  0.93595840  1
  O2-  O252  1  0.33372671  0.28627652  0.26694276  1
  O2-  O253  1  0.34068800  0.29032119  0.60198461  1
  O2-  O254  1  0.33133749  0.28590316  0.93092652  1
  O2-  O255  1  0.33064056  0.80569757  0.27317905  1
  O2-  O256  1  0.33343334  0.80572291  0.60522395  1
  O2-  O257  1  0.32995457  0.80320426  0.94090364  1
  O2-  O258  1  0.83618953  0.29375205  0.27007841  1
  O2-  O259  1  0.82692533  0.29166668  0.59714745  1
  O2-  O260  1  0.83137710  0.29092794  0.93410789  1
  O2-  O261  1  0.83450953  0.79194548  0.26186544  1
  O2-  O262  1  0.83310045  0.79919821  0.60955462  1
  O2-  O263  1  0.83728124  0.79600852  0.93620849  1
  O2-  O264  1  0.41602981  0.03951691  0.06804262  1
  O2-  O265  1  0.41592448  0.04238275  0.40497414  1
  O2-  O266  1  0.40965410  0.04453253  0.73221267  1
  O2-  O267  1  0.42345659  0.54034821  0.06363391  1
  O2-  O268  1  0.41522964  0.53602512  0.40064092  1
  O2-  O269  1  0.41384952  0.53713768  0.73454352  1
  O2-  O270  1  0.91618122  0.04088982  0.06858361  1
  O2-  O271  1  0.91905495  0.04478255  0.39418449  1
  O2-  O272  1  0.91738601  0.04506955  0.72719006  1
  O2-  O273  1  0.91609154  0.54320944  0.06981870  1
  O2-  O274  1  0.92381379  0.54860269  0.39594248  1
  O2-  O275  1  0.92531860  0.54390467  0.72915517  1
  O2-  O276  1  0.28829192  0.16506545  0.06899125  1
  O2-  O277  1  0.28592243  0.16632306  0.40360854  1
  O2-  O278  1  0.29150194  0.16557277  0.72835819  1
  O2-  O279  1  0.29636323  0.66959140  0.06808762  1
  O2-  O280  1  0.29290618  0.66959161  0.39932996  1
  O2-  O281  1  0.29359582  0.67218610  0.73225401  1
  O2-  O282  1  0.78987774  0.16732613  0.06841280  1
  O2-  O283  1  0.80256217  0.16646434  0.39637076  1
  O2-  O284  1  0.79645565  0.16430476  0.72709219  1
  O2-  O285  1  0.78833300  0.66855356  0.06479519  1
  O2-  O286  1  0.79457758  0.67098600  0.39870205  1
  O2-  O287  1  0.79467664  0.66718412  0.73527487  1
