# generated using pymatgen
data_Ca2Al2SiO7
_symmetry_space_group_name_H-M   'P 1'
_cell_length_a   15.46168459
_cell_length_b   15.46376450
_cell_length_c   15.28663168
_cell_angle_alpha   89.98946925
_cell_angle_beta   90.00034192
_cell_angle_gamma   90.01471289
_symmetry_Int_Tables_number   1
_chemical_formula_structural   Ca2Al2SiO7
_chemical_formula_sum   'Ca48 Al48 Si24 O168'
_cell_volume   3654.97000028
_cell_formula_units_Z   24
loop_
 _symmetry_equiv_pos_site_id
 _symmetry_equiv_pos_as_xyz
  1  'x, y, z'
loop_
 _atom_type_symbol
 _atom_type_oxidation_number
  Ca2+  2.0
  Al0+  0.0
  Si0+  0.0
  O2-  -2.0
loop_
 _atom_site_type_symbol
 _atom_site_label
 _atom_site_symmetry_multiplicity
 _atom_site_fract_x
 _atom_site_fract_y
 _atom_site_fract_z
 _atom_site_occupancy
  Ca2+  Ca0  1  0.17357334  0.08484259  0.17323181  1
  Ca2+  Ca1  1  0.17250559  0.07377132  0.50847266  1
  Ca2+  Ca2  1  0.17515304  0.08860727  0.83857946  1
  Ca2+  Ca3  1  0.16769248  0.58727112  0.17339214  1
  Ca2+  Ca4  1  0.17737187  0.58364785  0.50682294  1
  Ca2+  Ca5  1  0.16597159  0.57714895  0.83400036  1
  Ca2+  Ca6  1  0.67175327  0.09101840  0.16301774  1
  Ca2+  Ca7  1  0.66677454  0.07344513  0.50654005  1
  Ca2+  Ca8  1  0.66645637  0.08047610  0.84085559  1
  Ca2+  Ca9  1  0.67134367  0.57791366  0.16814861  1
  Ca2+  Ca10  1  0.67175030  0.58238109  0.51297682  1
  Ca2+  Ca11  1  0.67526467  0.57334955  0.83531037  1
  Ca2+  Ca12  1  0.07078965  0.33003768  0.15747073  1
  Ca2+  Ca13  1  0.07225470  0.34462912  0.49961616  1
  Ca2+  Ca14  1  0.07426120  0.33196219  0.82813652  1
  Ca2+  Ca15  1  0.09562551  0.82321651  0.16626664  1
  Ca2+  Ca16  1  0.09135819  0.83074338  0.49547822  1
  Ca2+  Ca17  1  0.08509293  0.82916180  0.83060169  1
  Ca2+  Ca18  1  0.57994143  0.32860086  0.15671191  1
  Ca2+  Ca19  1  0.57493795  0.34183772  0.50227749  1
  Ca2+  Ca20  1  0.58329340  0.33349920  0.82770113  1
  Ca2+  Ca21  1  0.58180342  0.82637993  0.16423692  1
  Ca2+  Ca22  1  0.58487194  0.82123676  0.49810018  1
  Ca2+  Ca23  1  0.58445556  0.82813538  0.82267088  1
  Ca2+  Ca24  1  0.32808653  0.42215041  0.17325752  1
  Ca2+  Ca25  1  0.32904242  0.42471626  0.51182312  1
  Ca2+  Ca26  1  0.33258703  0.41592125  0.82913083  1
  Ca2+  Ca27  1  0.32775821  0.92901677  0.17400841  1
  Ca2+  Ca28  1  0.32485208  0.92471804  0.50508129  1
  Ca2+  Ca29  1  0.33009031  0.92739668  0.83437768  1
  Ca2+  Ca30  1  0.83298217  0.41169412  0.16350175  1
  Ca2+  Ca31  1  0.83033712  0.42133881  0.51023825  1
  Ca2+  Ca32  1  0.82987133  0.41890969  0.83844175  1
  Ca2+  Ca33  1  0.83731727  0.92464740  0.16527147  1
  Ca2+  Ca34  1  0.82738845  0.91662965  0.50797094  1
  Ca2+  Ca35  1  0.82665908  0.92218602  0.83589279  1
  Ca2+  Ca36  1  0.41925304  0.16116276  0.15855337  1
  Ca2+  Ca37  1  0.40959259  0.16754730  0.50256403  1
  Ca2+  Ca38  1  0.41929336  0.16660230  0.82707072  1
  Ca2+  Ca39  1  0.41941062  0.66434796  0.16663942  1
  Ca2+  Ca40  1  0.42716451  0.65386940  0.49672972  1
  Ca2+  Ca41  1  0.42417125  0.66541038  0.82242020  1
  Ca2+  Ca42  1  0.92055014  0.17476022  0.15411288  1
  Ca2+  Ca43  1  0.91567799  0.18230261  0.49510437  1
  Ca2+  Ca44  1  0.91337748  0.17656638  0.83100076  1
  Ca2+  Ca45  1  0.92928485  0.66588694  0.15818517  1
  Ca2+  Ca46  1  0.92328491  0.66540262  0.49546355  1
  Ca2+  Ca47  1  0.91742158  0.65774992  0.83070482  1
  Al0+  Al48  1  0.00055409  -0.00340550  0.00082822  1
  Al0+  Al49  1  -0.00129020  0.00173231  0.33836703  1
  Al0+  Al50  1  -0.00012493  -0.00136795  0.66851151  1
  Al0+  Al51  1  0.00059415  0.50087927  -0.00377134  1
  Al0+  Al52  1  -0.00282711  0.50180119  0.32344149  1
  Al0+  Al53  1  0.00197158  0.50084506  0.66739006  1
  Al0+  Al54  1  0.49764399  -0.00099541  0.00075106  1
  Al0+  Al55  1  0.50118468  -0.00036712  0.33649741  1
  Al0+  Al56  1  0.49956219  -0.00230090  0.67125527  1
  Al0+  Al57  1  0.50057017  0.50059880  0.00379923  1
  Al0+  Al58  1  0.50088783  0.49800725  0.32910958  1
  Al0+  Al59  1  0.50135100  0.49837443  0.66599869  1
  Al0+  Al60  1  0.24985933  0.25227598  0.00310319  1
  Al0+  Al61  1  0.24848569  0.25206136  0.33762127  1
  Al0+  Al62  1  0.25045471  0.24968159  0.66808787  1
  Al0+  Al63  1  0.25088080  0.75043042  -0.00554879  1
  Al0+  Al64  1  0.25319474  0.75101414  0.33682008  1
  Al0+  Al65  1  0.25176079  0.75240505  0.67334303  1
  Al0+  Al66  1  0.74706258  0.24821388  -0.00043821  1
  Al0+  Al67  1  0.74768153  0.25106346  0.33080842  1
  Al0+  Al68  1  0.75025955  0.24945610  0.66164200  1
  Al0+  Al69  1  0.75046888  0.74842672  0.00462303  1
  Al0+  Al70  1  0.75059456  0.74941935  0.32631253  1
  Al0+  Al71  1  0.75134896  0.75083321  0.66987465  1
  Al0+  Al72  1  0.32008375  0.07125638  0.68388513  1
  Al0+  Al73  1  0.57102066  0.67974607  0.65476840  1
  Al0+  Al74  1  0.32303638  0.57093949  0.68220724  1
  Al0+  Al75  1  0.92934601  0.32152339  0.65179883  1
  Al0+  Al76  1  0.17842727  0.92981486  0.34811559  1
  Al0+  Al77  1  0.42919276  0.31927458  0.65312448  1
  Al0+  Al78  1  0.56800709  0.17858355  0.98651727  1
  Al0+  Al79  1  0.67908844  0.42695681  0.67958557  1
  Al0+  Al80  1  0.32206327  0.56930119  0.34598439  1
  Al0+  Al81  1  0.31925719  0.07192935  0.01474278  1
  Al0+  Al82  1  0.17812027  0.42915726  0.68163625  1
  Al0+  Al83  1  0.07352719  0.17654804  0.98620091  1
  Al0+  Al84  1  0.67973504  0.92895089  0.67863483  1
  Al0+  Al85  1  0.82300215  0.57060725  0.01825342  1
  Al0+  Al86  1  0.67830839  0.42826465  0.01668643  1
  Al0+  Al87  1  0.17626566  0.92835585  0.68519977  1
  Al0+  Al88  1  0.92828245  0.31918764  0.98250275  1
  Al0+  Al89  1  0.57215122  0.67690715  0.31736907  1
  Al0+  Al90  1  0.32326597  0.07428990  0.35026272  1
  Al0+  Al91  1  0.82069563  0.06943812  0.01214655  1
  Al0+  Al92  1  0.07168384  0.68031662  0.98364155  1
  Al0+  Al93  1  0.07207652  0.68266786  0.32197044  1
  Al0+  Al94  1  0.82260426  0.57157689  0.67930836  1
  Al0+  Al95  1  0.92749432  0.32102935  0.31737762  1
  Si0+  Si96  1  0.67973469  0.42847853  0.34857221  1
  Si0+  Si97  1  0.42777760  0.32049114  0.31883730  1
  Si0+  Si98  1  0.07274025  0.68058857  0.65169660  1
  Si0+  Si99  1  0.43084389  0.82303901  0.31672201  1
  Si0+  Si100  1  0.68066711  0.92711326  0.34703658  1
  Si0+  Si101  1  0.67618197  0.92698765  0.01831657  1
  Si0+  Si102  1  0.43038953  0.81974963  0.98441014  1
  Si0+  Si103  1  0.07079611  0.17744383  0.31887050  1
  Si0+  Si104  1  0.17919084  0.43056913  0.01618958  1
  Si0+  Si105  1  0.17449800  0.43044730  0.34803494  1
  Si0+  Si106  1  0.82044719  0.57154867  0.34678878  1
  Si0+  Si107  1  0.92534001  0.82151520  0.98195887  1
  Si0+  Si108  1  0.92644450  0.82495072  0.31647277  1
  Si0+  Si109  1  0.42772918  0.82253126  0.64872754  1
  Si0+  Si110  1  0.32087313  0.57288090  0.01510238  1
  Si0+  Si111  1  0.81923587  0.07316668  0.34821834  1
  Si0+  Si112  1  0.56916582  0.17736165  0.31897182  1
  Si0+  Si113  1  0.57169686  0.67840388  0.98442077  1
  Si0+  Si114  1  0.82146126  0.07245349  0.68103055  1
  Si0+  Si115  1  0.42742363  0.32493771  0.98439678  1
  Si0+  Si116  1  0.57201388  0.17487706  0.64888406  1
  Si0+  Si117  1  0.07180140  0.17666226  0.64924727  1
  Si0+  Si118  1  0.17897072  0.92592618  0.01722963  1
  Si0+  Si119  1  0.92930336  0.82182039  0.65213675  1
  O2-  O120  1  0.24063063  0.00106013  0.06112496  1
  O2-  O121  1  0.24816615  0.00420135  0.39742283  1
  O2-  O122  1  0.24521205  0.00288098  0.73450766  1
  O2-  O123  1  0.24980435  0.50268255  0.05821173  1
  O2-  O124  1  0.24487921  0.49729034  0.39194183  1
  O2-  O125  1  0.25055429  0.50029509  0.73305907  1
  O2-  O126  1  0.74583452  -0.00480390  0.06192424  1
  O2-  O127  1  0.75217988  -0.00226406  0.38955044  1
  O2-  O128  1  0.74988134  0.00711241  0.72518342  1
  O2-  O129  1  0.75179278  0.49788247  0.06885396  1
  O2-  O130  1  0.74912604  0.50146436  0.38975324  1
  O2-  O131  1  0.75375632  0.49629893  0.72828087  1
  O2-  O132  1  0.00342746  0.24647424  0.27335578  1
  O2-  O133  1  0.00479770  0.24718888  0.60408916  1
  O2-  O134  1  -0.00056598  0.24512830  0.93432652  1
  O2-  O135  1  -0.00005151  0.76028402  0.27438329  1
  O2-  O136  1  0.00195702  0.75245147  0.60981545  1
  O2-  O137  1  -0.00692999  0.75178178  0.93815156  1
  O2-  O138  1  0.49294574  0.24353508  0.27779141  1
  O2-  O139  1  0.50429012  0.24461100  0.60459515  1
  O2-  O140  1  0.49431474  0.25424803  0.94141059  1
  O2-  O141  1  0.49696893  0.75190031  0.27112616  1
  O2-  O142  1  0.49356437  0.75060871  0.60494418  1
  O2-  O143  1  0.50261166  0.75040149  0.94187690  1
  O2-  O144  1  0.07320206  0.18074112  0.10052667  1
  O2-  O145  1  0.06738198  0.17636769  0.42418689  1
  O2-  O146  1  0.06876309  0.17589711  0.75458564  1
  O2-  O147  1  0.07555883  0.68369462  0.09721202  1
  O2-  O148  1  0.06930855  0.68098496  0.43500720  1
  O2-  O149  1  0.07145034  0.68085349  0.75665799  1
  O2-  O150  1  0.56565804  0.17835917  0.10054205  1
  O2-  O151  1  0.57343575  0.17723578  0.42362989  1
  O2-  O152  1  0.57196773  0.17330091  0.75416359  1
  O2-  O153  1  0.56895623  0.67922302  0.08991029  1
  O2-  O154  1  0.57449801  0.67807941  0.43021224  1
  O2-  O155  1  0.57076913  0.68324288  0.76799791  1
  O2-  O156  1  0.17694781  0.43044754  0.24206388  1
  O2-  O157  1  0.17660332  0.43458403  0.56742267  1
  O2-  O158  1  0.18061400  0.43015229  0.91158774  1
  O2-  O159  1  0.18103450  0.92987761  0.23431483  1
  O2-  O160  1  0.17727469  0.92867150  0.57148044  1
  O2-  O161  1  0.18328849  0.92252172  0.91232159  1
  O2-  O162  1  0.67949993  0.42689038  0.24381988  1
  O2-  O163  1  0.67997913  0.42996131  0.56503795  1
  O2-  O164  1  0.67475570  0.43160570  0.90384725  1
  O2-  O165  1  0.68013552  0.92765439  0.24201345  1
  O2-  O166  1  0.68276511  0.92840126  0.56473946  1
  O2-  O167  1  0.67606361  0.92624665  0.91297084  1
  O2-  O168  1  0.42813575  0.32599049  0.09078537  1
  O2-  O169  1  0.43112179  0.32425145  0.42330499  1
  O2-  O170  1  0.43140485  0.31865553  0.76609078  1
  O2-  O171  1  0.43065557  0.81798047  0.08979129  1
  O2-  O172  1  0.43469467  0.82595122  0.42162952  1
  O2-  O173  1  0.43105111  0.82320366  0.75469753  1
  O2-  O174  1  0.93083986  0.31750351  0.09670836  1
  O2-  O175  1  0.92662896  0.32177919  0.43057335  1
  O2-  O176  1  0.92792856  0.31927986  0.76408792  1
  O2-  O177  1  0.92502489  0.82186728  0.08783342  1
  O2-  O178  1  0.92018517  0.82205122  0.42186571  1
  O2-  O179  1  0.92763293  0.82264677  0.75684223  1
  O2-  O180  1  0.32420263  0.07191008  0.23633368  1
  O2-  O181  1  0.31982002  0.06829786  0.57025426  1
  O2-  O182  1  0.32202941  0.06911746  0.90251998  1
  O2-  O183  1  0.32147267  0.56723764  0.23216013  1
  O2-  O184  1  0.32177193  0.56940745  0.56824731  1
  O2-  O185  1  0.32245363  0.57269619  0.91059606  1
  O2-  O186  1  0.81792469  0.07336272  0.24328777  1
  O2-  O187  1  0.82049960  0.06977416  0.57462796  1
  O2-  O188  1  0.81725713  0.06703071  0.89931667  1
  O2-  O189  1  0.81997998  0.57138313  0.24224364  1
  O2-  O190  1  0.82204695  0.57303210  0.56467701  1
  O2-  O191  1  0.81938298  0.57179612  0.90511325  1
  O2-  O192  1  0.04524280  0.08363868  0.27276013  1
  O2-  O193  1  0.04359443  0.08297013  0.60333437  1
  O2-  O194  1  0.05190954  0.07479059  0.93795858  1
  O2-  O195  1  0.03920510  0.58864989  0.26375624  1
  O2-  O196  1  0.04530632  0.58949510  0.60322968  1
  O2-  O197  1  0.04399183  0.58331660  0.93031096  1
  O2-  O198  1  0.54718766  0.08396382  0.27134879  1
  O2-  O199  1  0.54415408  0.08105382  0.60303486  1
  O2-  O200  1  0.53805246  0.08094635  0.93380239  1
  O2-  O201  1  0.53989515  0.58123713  0.26193638  1
  O2-  O202  1  0.54299669  0.58293346  0.59980371  1
  O2-  O203  1  0.54113653  0.58696409  0.93893540  1
  O2-  O204  1  0.16606382  0.20208054  0.27511684  1
  O2-  O205  1  0.16634661  0.19959546  0.60484359  1
  O2-  O206  1  0.17112414  0.20974695  0.93445115  1
  O2-  O207  1  0.17024992  0.71107389  0.26800511  1
  O2-  O208  1  0.16565852  0.70946464  0.60654935  1
  O2-  O209  1  0.16736261  0.71269158  0.92860612  1
  O2-  O210  1  0.65854184  0.21075465  0.26949122  1
  O2-  O211  1  0.66601910  0.19698252  0.60134305  1
  O2-  O212  1  0.66472366  0.20507062  0.93241610  1
  O2-  O213  1  0.66701869  0.71018368  0.26080580  1
  O2-  O214  1  0.66709801  0.71502635  0.60080576  1
  O2-  O215  1  0.66472809  0.70519313  0.94025583  1
  O2-  O216  1  0.08768969  0.45912236  0.06304901  1
  O2-  O217  1  0.08040488  0.45902578  0.39098544  1
  O2-  O218  1  0.08198291  0.46005953  0.73644751  1
  O2-  O219  1  0.08232604  0.94004348  0.06066335  1
  O2-  O220  1  0.07797834  0.95272433  0.40102620  1
  O2-  O221  1  0.07571525  0.95093748  0.73602341  1
  O2-  O222  1  0.58045735  0.45985143  0.07214260  1
  O2-  O223  1  0.58684448  0.45546090  0.39347111  1
  O2-  O224  1  0.58233988  0.45595486  0.73298446  1
  O2-  O225  1  0.58331598  0.95377594  0.06517033  1
  O2-  O226  1  0.59017690  0.95567000  0.39583279  1
  O2-  O227  1  0.58341846  0.95444773  0.73414813  1
  O2-  O228  1  0.20768302  0.34055277  0.06721138  1
  O2-  O229  1  0.19601733  0.33641814  0.39441550  1
  O2-  O230  1  0.20437321  0.33050418  0.73301963  1
  O2-  O231  1  0.21482781  0.83500159  0.06411008  1
  O2-  O232  1  0.21005421  0.83288675  0.40203233  1
  O2-  O233  1  0.20685595  0.83179950  0.73951334  1
  O2-  O234  1  0.70303187  0.32843177  0.06869749  1
  O2-  O235  1  0.70759209  0.33682357  0.39626279  1
  O2-  O236  1  0.70330224  0.32620577  0.72876407  1
  O2-  O237  1  0.70171090  0.83377111  0.06552112  1
  O2-  O238  1  0.70926860  0.83485395  0.39325307  1
  O2-  O239  1  0.71477965  0.83627777  0.73604450  1
  O2-  O240  1  0.46096437  0.40844433  0.26659546  1
  O2-  O241  1  0.46140012  0.41497992  0.59677724  1
  O2-  O242  1  0.45484489  0.41828233  0.93874515  1
  O2-  O243  1  0.46082060  0.91529639  0.26844714  1
  O2-  O244  1  0.45792835  0.91453183  0.60192364  1
  O2-  O245  1  0.45783034  0.91122297  0.93694348  1
  O2-  O246  1  0.95644899  0.41663665  0.26101014  1
  O2-  O247  1  0.96178186  0.41867908  0.59778019  1
  O2-  O248  1  0.95843788  0.41762079  0.93240741  1
  O2-  O249  1  0.94758334  0.92122444  0.27358387  1
  O2-  O250  1  0.95358478  0.91415541  0.60266220  1
  O2-  O251  1  0.95127940  0.91442709  0.93514089  1
  O2-  O252  1  0.33264504  0.30070024  0.27344947  1
  O2-  O253  1  0.33202485  0.29069036  0.59779248  1
  O2-  O254  1  0.33284508  0.30228244  0.94094083  1
  O2-  O255  1  0.33718394  0.79825568  0.27082601  1
  O2-  O256  1  0.33223881  0.80073368  0.60547913  1
  O2-  O257  1  0.34039491  0.79100338  0.93494783  1
  O2-  O258  1  0.83105375  0.28725858  0.26447753  1
  O2-  O259  1  0.83351045  0.28978488  0.59459209  1
  O2-  O260  1  0.82890721  0.29096102  0.93315216  1
  O2-  O261  1  0.83573607  0.79683044  0.26571048  1
  O2-  O262  1  0.83857167  0.79242697  0.60278276  1
  O2-  O263  1  0.83011297  0.79770943  0.93786129  1
  O2-  O264  1  0.41440173  0.03512249  0.06942551  1
  O2-  O265  1  0.42175857  0.04393733  0.40219623  1
  O2-  O266  1  0.41772244  0.03956439  0.73614472  1
  O2-  O267  1  0.41224086  0.54545956  0.06401403  1
  O2-  O268  1  0.41862619  0.53466936  0.39763740  1
  O2-  O269  1  0.42046951  0.54057965  0.73455296  1
  O2-  O270  1  0.91692770  0.03766166  0.06835427  1
  O2-  O271  1  0.91131641  0.05072806  0.39691476  1
  O2-  O272  1  0.91300172  0.04378467  0.72761226  1
  O2-  O273  1  0.92342553  0.54410354  0.06821719  1
  O2-  O274  1  0.91289825  0.54314267  0.39248596  1
  O2-  O275  1  0.92124276  0.54656878  0.73106988  1
  O2-  O276  1  0.29449884  0.17048906  0.06883924  1
  O2-  O277  1  0.29817635  0.17430402  0.40133639  1
  O2-  O278  1  0.29633102  0.17057678  0.73535207  1
  O2-  O279  1  0.29266145  0.66522968  0.06147856  1
  O2-  O280  1  0.29786541  0.66713265  0.39911016  1
  O2-  O281  1  0.29886440  0.67008720  0.73407288  1
  O2-  O282  1  0.78748194  0.16406405  0.06841140  1
  O2-  O283  1  0.78522825  0.16292631  0.39623395  1
  O2-  O284  1  0.79852925  0.16669659  0.72485860  1
  O2-  O285  1  0.79427013  0.66944631  0.07177686  1
  O2-  O286  1  0.79423802  0.66501934  0.39203835  1
  O2-  O287  1  0.79339099  0.66833110  0.73384338  1
