# generated using pymatgen
data_Ca2Al2SiO7
_symmetry_space_group_name_H-M   'P 1'
_cell_length_a   15.45272198
_cell_length_b   15.45340887
_cell_length_c   15.28024258
_cell_angle_alpha   90.00562239
_cell_angle_beta   90.00116944
_cell_angle_gamma   89.99930106
_symmetry_Int_Tables_number   1
_chemical_formula_structural   Ca2Al2SiO7
_chemical_formula_sum   'Ca48 Al48 Si24 O168'
_cell_volume   3648.87959522
_cell_formula_units_Z   24
loop_
 _symmetry_equiv_pos_site_id
 _symmetry_equiv_pos_as_xyz
  1  'x, y, z'
loop_
 _atom_type_symbol
 _atom_type_oxidation_number
  Ca2+  2.0
  Al0+  0.0
  Si0+  0.0
  O2-  -2.0
loop_
 _atom_site_type_symbol
 _atom_site_label
 _atom_site_symmetry_multiplicity
 _atom_site_fract_x
 _atom_site_fract_y
 _atom_site_fract_z
 _atom_site_occupancy
  Ca2+  Ca0  1  0.18202519  0.08600861  0.17149534  1
  Ca2+  Ca1  1  0.17509149  0.08111215  0.50576752  1
  Ca2+  Ca2  1  0.17544791  0.07561173  0.83772897  1
  Ca2+  Ca3  1  0.16558870  0.57582609  0.17292749  1
  Ca2+  Ca4  1  0.16371634  0.57465297  0.50183366  1
  Ca2+  Ca5  1  0.16860263  0.57313487  0.83650906  1
  Ca2+  Ca6  1  0.66030177  0.08023510  0.17121980  1
  Ca2+  Ca7  1  0.67049014  0.09025548  0.49651742  1
  Ca2+  Ca8  1  0.66153512  0.07621343  0.84297159  1
  Ca2+  Ca9  1  0.66970160  0.57867941  0.16962888  1
  Ca2+  Ca10  1  0.67566241  0.58025414  0.51092869  1
  Ca2+  Ca11  1  0.66112746  0.57798314  0.83602994  1
  Ca2+  Ca12  1  0.07269037  0.34419410  0.16417226  1
  Ca2+  Ca13  1  0.07911047  0.34126433  0.49185257  1
  Ca2+  Ca14  1  0.08222541  0.33834303  0.83314389  1
  Ca2+  Ca15  1  0.08336139  0.82589970  0.16572274  1
  Ca2+  Ca16  1  0.08111906  0.82890259  0.49734419  1
  Ca2+  Ca17  1  0.07812745  0.83440455  0.82188838  1
  Ca2+  Ca18  1  0.58453949  0.32120404  0.16038409  1
  Ca2+  Ca19  1  0.57209607  0.33547947  0.49383308  1
  Ca2+  Ca20  1  0.58389748  0.33172836  0.82697603  1
  Ca2+  Ca21  1  0.58153912  0.82887755  0.15433845  1
  Ca2+  Ca22  1  0.58212330  0.82731378  0.50279455  1
  Ca2+  Ca23  1  0.57824231  0.82602919  0.83005955  1
  Ca2+  Ca24  1  0.32086028  0.40899436  0.17266637  1
  Ca2+  Ca25  1  0.32526358  0.40739857  0.50565063  1
  Ca2+  Ca26  1  0.32481889  0.40947601  0.83621827  1
  Ca2+  Ca27  1  0.34498859  0.92858571  0.16788987  1
  Ca2+  Ca28  1  0.33098310  0.92048082  0.50554151  1
  Ca2+  Ca29  1  0.33793234  0.91595449  0.83900055  1
  Ca2+  Ca30  1  0.82970310  0.41454247  0.17141666  1
  Ca2+  Ca31  1  0.83084230  0.42650103  0.50551622  1
  Ca2+  Ca32  1  0.82249228  0.42203310  0.83757237  1
  Ca2+  Ca33  1  0.82401129  0.92439154  0.17192930  1
  Ca2+  Ca34  1  0.83815936  0.92300250  0.50433069  1
  Ca2+  Ca35  1  0.82794394  0.91590412  0.83791266  1
  Ca2+  Ca36  1  0.42086311  0.16600127  0.16476146  1
  Ca2+  Ca37  1  0.41922992  0.17668538  0.49155271  1
  Ca2+  Ca38  1  0.42043973  0.16820904  0.83265768  1
  Ca2+  Ca39  1  0.42387900  0.67526523  0.15537239  1
  Ca2+  Ca40  1  0.41993121  0.66815162  0.50061729  1
  Ca2+  Ca41  1  0.42710436  0.67335632  0.82721683  1
  Ca2+  Ca42  1  0.91026675  0.17924996  0.16441061  1
  Ca2+  Ca43  1  0.91902862  0.17395394  0.48942898  1
  Ca2+  Ca44  1  0.91527982  0.17657223  0.83192251  1
  Ca2+  Ca45  1  0.92238864  0.65601412  0.16859796  1
  Ca2+  Ca46  1  0.91670153  0.66543818  0.49552851  1
  Ca2+  Ca47  1  0.91441864  0.67198795  0.82560087  1
  Al0+  Al48  1  0.00188283  0.00083861  0.00173145  1
  Al0+  Al49  1  -0.00147627  -0.00110396  0.33441755  1
  Al0+  Al50  1  0.00219069  0.00073370  0.66721755  1
  Al0+  Al51  1  -0.00043063  0.50009378  -0.00347388  1
  Al0+  Al52  1  -0.00063306  0.50118543  0.33339971  1
  Al0+  Al53  1  -0.00060449  0.50052228  0.67592522  1
  Al0+  Al54  1  0.50048575  0.00061786  0.00027752  1
  Al0+  Al55  1  0.49929538  -0.00046391  0.33883863  1
  Al0+  Al56  1  0.50228257  0.00062185  0.66121066  1
  Al0+  Al57  1  0.49941805  0.49929092  0.00248055  1
  Al0+  Al58  1  0.49675780  0.50124571  0.32692818  1
  Al0+  Al59  1  0.49948425  0.49868175  0.66100712  1
  Al0+  Al60  1  0.24771912  0.24811983  0.00847501  1
  Al0+  Al61  1  0.24896657  0.24850913  0.33944989  1
  Al0+  Al62  1  0.25098709  0.24752760  0.66940043  1
  Al0+  Al63  1  0.24850295  0.74907841  -0.00416592  1
  Al0+  Al64  1  0.24950843  0.74859328  0.32777907  1
  Al0+  Al65  1  0.24899520  0.74942000  0.66672676  1
  Al0+  Al66  1  0.75068511  0.25215894  -0.00720792  1
  Al0+  Al67  1  0.74869424  0.24851630  0.33109433  1
  Al0+  Al68  1  0.75256933  0.25109403  0.66894023  1
  Al0+  Al69  1  0.75192652  0.75000053  0.00258680  1
  Al0+  Al70  1  0.74972450  0.75061327  0.33674036  1
  Al0+  Al71  1  0.75214020  0.75341811  0.66069463  1
  Al0+  Al72  1  0.57003175  0.18043799  0.98536507  1
  Al0+  Al73  1  0.68081708  0.92951974  0.01195244  1
  Al0+  Al74  1  0.06915541  0.68020071  0.32004870  1
  Al0+  Al75  1  0.93021415  0.82277960  0.65266540  1
  Al0+  Al76  1  0.93052834  0.32077888  0.32187985  1
  Al0+  Al77  1  0.18007597  0.92836603  0.67894825  1
  Al0+  Al78  1  0.82044103  0.07174099  0.34616699  1
  Al0+  Al79  1  0.18045411  0.43148035  0.34717062  1
  Al0+  Al80  1  0.18000565  0.42758323  0.68150196  1
  Al0+  Al81  1  0.81921453  0.56950371  0.34673152  1
  Al0+  Al82  1  0.42943496  0.82172507  0.98543451  1
  Al0+  Al83  1  0.82039715  0.57397387  0.68294721  1
  Al0+  Al84  1  0.17915665  0.43055677  0.01551420  1
  Al0+  Al85  1  0.67724456  0.42795665  0.01477223  1
  Al0+  Al86  1  0.57154377  0.67815713  0.65008588  1
  Al0+  Al87  1  0.42711857  0.82209608  0.64962495  1
  Al0+  Al88  1  0.42847088  0.31885290  0.65484648  1
  Al0+  Al89  1  0.42504929  0.32236796  0.31615465  1
  Al0+  Al90  1  0.92984427  0.32150641  0.98365049  1
  Al0+  Al91  1  0.56951046  0.17964673  0.31819044  1
  Al0+  Al92  1  0.67725375  0.42913224  0.68048258  1
  Al0+  Al93  1  0.32094222  0.06978687  0.35003848  1
  Al0+  Al94  1  0.57386559  0.67659258  0.98576000  1
  Al0+  Al95  1  0.32065841  0.06816099  0.01345795  1
  Si0+  Si96  1  0.17797042  0.92519513  0.34861036  1
  Si0+  Si97  1  0.82396163  0.07323094  0.01499631  1
  Si0+  Si98  1  0.07374118  0.17722842  0.98343510  1
  Si0+  Si99  1  0.07001903  0.67886905  0.98283133  1
  Si0+  Si100  1  0.32266887  0.57249063  0.68277026  1
  Si0+  Si101  1  0.17563464  0.92523714  0.01783753  1
  Si0+  Si102  1  0.07085876  0.67603695  0.65097836  1
  Si0+  Si103  1  0.42953507  0.81979906  0.31861635  1
  Si0+  Si104  1  0.67549370  0.42736189  0.34787633  1
  Si0+  Si105  1  0.93054124  0.32172714  0.65170905  1
  Si0+  Si106  1  0.82337424  0.07208919  0.68237036  1
  Si0+  Si107  1  0.67777186  0.92749811  0.35325659  1
  Si0+  Si108  1  0.57552968  0.17784207  0.64939002  1
  Si0+  Si109  1  0.93070202  0.82313709  0.98681149  1
  Si0+  Si110  1  0.32146692  0.57347164  0.01632725  1
  Si0+  Si111  1  0.57326485  0.67948336  0.31761488  1
  Si0+  Si112  1  0.07189070  0.17477053  0.31779320  1
  Si0+  Si113  1  0.82157041  0.57182032  0.01736048  1
  Si0+  Si114  1  0.42465080  0.32104841  0.98520408  1
  Si0+  Si115  1  0.92611583  0.82384647  0.31459654  1
  Si0+  Si116  1  0.07045747  0.17964006  0.65277851  1
  Si0+  Si117  1  0.67986629  0.93152052  0.68080686  1
  Si0+  Si118  1  0.32301089  0.57491992  0.34929576  1
  Si0+  Si119  1  0.32377047  0.06983359  0.68410576  1
  O2-  O120  1  0.24715520  -0.00890709  0.06067504  1
  O2-  O121  1  0.24356084  -0.00403244  0.39381884  1
  O2-  O122  1  0.26017493  -0.00413762  0.72760730  1
  O2-  O123  1  0.25577414  0.50281982  0.06220775  1
  O2-  O124  1  0.25936166  0.50178678  0.39390794  1
  O2-  O125  1  0.25607706  0.50141499  0.72746692  1
  O2-  O126  1  0.75406200  0.00578070  0.05887379  1
  O2-  O127  1  0.74762961  -0.00356351  0.39555840  1
  O2-  O128  1  0.74930113  0.00411626  0.72381362  1
  O2-  O129  1  0.75078827  0.50474023  0.06043363  1
  O2-  O130  1  0.74211562  0.49751021  0.39301342  1
  O2-  O131  1  0.74537637  0.50465094  0.73179045  1
  O2-  O132  1  0.00342391  0.24392939  0.27408874  1
  O2-  O133  1  0.00347241  0.25337830  0.60877943  1
  O2-  O134  1  0.00435602  0.24491742  0.93848376  1
  O2-  O135  1  -0.00572705  0.75443341  0.27086548  1
  O2-  O136  1  0.00275480  0.74561138  0.60698170  1
  O2-  O137  1  0.00244772  0.75398116  0.94286256  1
  O2-  O138  1  0.49949023  0.25263610  0.26662668  1
  O2-  O139  1  0.50717394  0.24790915  0.60820077  1
  O2-  O140  1  0.49727283  0.25744750  0.93937098  1
  O2-  O141  1  0.50098924  0.74955721  0.27625819  1
  O2-  O142  1  0.49746082  0.74859250  0.59930543  1
  O2-  O143  1  0.50041725  0.74802875  0.93713572  1
  O2-  O144  1  0.07341444  0.17524404  0.08872212  1
  O2-  O145  1  0.06971766  0.17394024  0.42390140  1
  O2-  O146  1  0.06794706  0.17858484  0.75792691  1
  O2-  O147  1  0.06921847  0.67788679  0.08810165  1
  O2-  O148  1  0.06894776  0.68130083  0.43298005  1
  O2-  O149  1  0.06986189  0.67754785  0.75696141  1
  O2-  O150  1  0.56949775  0.17838703  0.09798689  1
  O2-  O151  1  0.56941902  0.18168325  0.43210255  1
  O2-  O152  1  0.57490707  0.17473575  0.75503608  1
  O2-  O153  1  0.57361807  0.68025786  0.10016016  1
  O2-  O154  1  0.57367869  0.68034157  0.42239561  1
  O2-  O155  1  0.57112455  0.68077930  0.76349710  1
  O2-  O156  1  0.17831461  0.43501040  0.23412015  1
  O2-  O157  1  0.17797847  0.42890016  0.56855253  1
  O2-  O158  1  0.18047578  0.43165592  0.90218279  1
  O2-  O159  1  0.17945774  0.92447691  0.24295193  1
  O2-  O160  1  0.17767000  0.93351228  0.56589825  1
  O2-  O161  1  0.17151163  0.92737827  0.91235115  1
  O2-  O162  1  0.67835585  0.42832069  0.24208803  1
  O2-  O163  1  0.68140376  0.42683787  0.56663485  1
  O2-  O164  1  0.67891604  0.42753403  0.90187493  1
  O2-  O165  1  0.67771773  0.92572468  0.24746299  1
  O2-  O166  1  0.68050981  0.93302346  0.57565527  1
  O2-  O167  1  0.68335605  0.92991584  0.89850585  1
  O2-  O168  1  0.42346209  0.31732275  0.09045260  1
  O2-  O169  1  0.42587781  0.32052180  0.43007393  1
  O2-  O170  1  0.42510285  0.31409461  0.76807408  1
  O2-  O171  1  0.43157066  0.82080254  0.09978989  1
  O2-  O172  1  0.42837576  0.81802633  0.42351183  1
  O2-  O173  1  0.43051428  0.82279165  0.76281659  1
  O2-  O174  1  0.93057513  0.32143853  0.09698185  1
  O2-  O175  1  0.93266039  0.32065600  0.43542596  1
  O2-  O176  1  0.93031741  0.31860892  0.75675599  1
  O2-  O177  1  0.93204761  0.82404700  0.09176701  1
  O2-  O178  1  0.92810239  0.82543179  0.42004716  1
  O2-  O179  1  0.93211291  0.82465384  0.76638299  1
  O2-  O180  1  0.32197445  0.06712750  0.23682756  1
  O2-  O181  1  0.31987931  0.07145764  0.57861353  1
  O2-  O182  1  0.31790094  0.06851132  0.90021102  1
  O2-  O183  1  0.32003547  0.57960352  0.24388023  1
  O2-  O184  1  0.31968299  0.57373600  0.57704478  1
  O2-  O185  1  0.31822585  0.57457471  0.91077604  1
  O2-  O186  1  0.82012189  0.06934265  0.23315801  1
  O2-  O187  1  0.82430711  0.07266772  0.57723901  1
  O2-  O188  1  0.82632386  0.06931820  0.90896484  1
  O2-  O189  1  0.81844601  0.56867817  0.23340300  1
  O2-  O190  1  0.82282622  0.56966005  0.56914320  1
  O2-  O191  1  0.82336314  0.57302602  0.91210603  1
  O2-  O192  1  0.04791436  0.08082896  0.27114989  1
  O2-  O193  1  0.03958039  0.08998005  0.60337210  1
  O2-  O194  1  0.04923856  0.08265361  0.93692732  1
  O2-  O195  1  0.03535805  0.58573607  0.26371089  1
  O2-  O196  1  0.04288684  0.58232186  0.60648540  1
  O2-  O197  1  0.03861880  0.58949665  0.93351395  1
  O2-  O198  1  0.54017251  0.07893268  0.26957529  1
  O2-  O199  1  0.55096834  0.08516537  0.60106469  1
  O2-  O200  1  0.53684618  0.08489105  0.93083102  1
  O2-  O201  1  0.54748753  0.58776967  0.26914535  1
  O2-  O202  1  0.54560723  0.57989486  0.59551481  1
  O2-  O203  1  0.54490776  0.57758600  0.93434361  1
  O2-  O204  1  0.16591616  0.20027064  0.27434488  1
  O2-  O205  1  0.16391342  0.20312492  0.60698082  1
  O2-  O206  1  0.16646427  0.20517440  0.93675617  1
  O2-  O207  1  0.16479323  0.71042724  0.26219116  1
  O2-  O208  1  0.16455519  0.69980991  0.60489592  1
  O2-  O209  1  0.16236108  0.70239535  0.93454002  1
  O2-  O210  1  0.66867220  0.20346624  0.26444028  1
  O2-  O211  1  0.67069526  0.20237910  0.60530599  1
  O2-  O212  1  0.66713237  0.20656573  0.93000961  1
  O2-  O213  1  0.66467945  0.70943163  0.27044560  1
  O2-  O214  1  0.66820756  0.71202749  0.59618278  1
  O2-  O215  1  0.67285983  0.70636855  0.93498543  1
  O2-  O216  1  0.08259489  0.46625717  0.06648036  1
  O2-  O217  1  0.08554750  0.46749867  0.40128241  1
  O2-  O218  1  0.08502645  0.45927832  0.73801978  1
  O2-  O219  1  0.08326236  0.95276258  0.06653656  1
  O2-  O220  1  0.08237911  0.94640156  0.39255973  1
  O2-  O221  1  0.08612291  0.96563695  0.73555977  1
  O2-  O222  1  0.57962368  0.45389820  0.06966047  1
  O2-  O223  1  0.57970626  0.45250902  0.38984995  1
  O2-  O224  1  0.57636737  0.45190429  0.73087932  1
  O2-  O225  1  0.58505313  0.95987156  0.06694917  1
  O2-  O226  1  0.58531959  0.95348037  0.40085595  1
  O2-  O227  1  0.58738445  0.95852653  0.72772174  1
  O2-  O228  1  0.20418842  0.33306063  0.06994418  1
  O2-  O229  1  0.20394243  0.33308747  0.40117240  1
  O2-  O230  1  0.20987717  0.33034386  0.73569068  1
  O2-  O231  1  0.19733371  0.82936265  0.06088730  1
  O2-  O232  1  0.20691740  0.83240751  0.39457030  1
  O2-  O233  1  0.20136327  0.82926806  0.73242698  1
  O2-  O234  1  0.71336061  0.33152446  0.06640485  1
  O2-  O235  1  0.70107992  0.33395541  0.39294195  1
  O2-  O236  1  0.71020272  0.33155586  0.73432204  1
  O2-  O237  1  0.71380659  0.83468652  0.06909254  1
  O2-  O238  1  0.70467030  0.83485941  0.40056001  1
  O2-  O239  1  0.71017271  0.84054798  0.72705255  1
  O2-  O240  1  0.44498732  0.42343894  0.26432080  1
  O2-  O241  1  0.45175948  0.41598409  0.59859149  1
  O2-  O242  1  0.44360500  0.41734152  0.94269085  1
  O2-  O243  1  0.45902831  0.91198233  0.27382964  1
  O2-  O244  1  0.45832307  0.91992317  0.59582333  1
  O2-  O245  1  0.45923957  0.91892306  0.93245455  1
  O2-  O246  1  0.96326344  0.41559500  0.26624407  1
  O2-  O247  1  0.95762124  0.41528376  0.60822714  1
  O2-  O248  1  0.96327721  0.41678145  0.92862031  1
  O2-  O249  1  0.95231299  0.91689544  0.26705497  1
  O2-  O250  1  0.96473966  0.91858531  0.59809842  1
  O2-  O251  1  0.95634039  0.91575338  0.93882049  1
  O2-  O252  1  0.32630627  0.28913396  0.26679843  1
  O2-  O253  1  0.33288877  0.28343736  0.60000746  1
  O2-  O254  1  0.33157744  0.28997241  0.94030283  1
  O2-  O255  1  0.33838838  0.79350365  0.26926322  1
  O2-  O256  1  0.32713333  0.79549656  0.59829134  1
  O2-  O257  1  0.32916579  0.79610876  0.93386365  1
  O2-  O258  1  0.83410519  0.29008174  0.26758218  1
  O2-  O259  1  0.83949762  0.29166912  0.60416033  1
  O2-  O260  1  0.83555935  0.29015144  0.92580689  1
  O2-  O261  1  0.83137482  0.79869264  0.27081533  1
  O2-  O262  1  0.83436066  0.79840360  0.59516275  1
  O2-  O263  1  0.83956356  0.79392957  0.93938475  1
  O2-  O264  1  0.41637562  0.03771711  0.06893036  1
  O2-  O265  1  0.41569064  0.03700273  0.40615105  1
  O2-  O266  1  0.42032559  0.04928223  0.72599710  1
  O2-  O267  1  0.41609603  0.55307758  0.06209715  1
  O2-  O268  1  0.41904244  0.55500539  0.39301670  1
  O2-  O269  1  0.41725282  0.54904525  0.72629248  1
  O2-  O270  1  0.91712660  0.04716381  0.06249859  1
  O2-  O271  1  0.91758186  0.04179112  0.40145581  1
  O2-  O272  1  0.91352736  0.04139140  0.73085991  1
  O2-  O273  1  0.91464061  0.54179553  0.06237938  1
  O2-  O274  1  0.91481134  0.53768595  0.40112160  1
  O2-  O275  1  0.91678559  0.54385808  0.73910209  1
  O2-  O276  1  0.28716095  0.16215885  0.07099995  1
  O2-  O277  1  0.28922268  0.16476826  0.40627551  1
  O2-  O278  1  0.29135118  0.15984892  0.73297783  1
  O2-  O279  1  0.29190143  0.66645212  0.06300793  1
  O2-  O280  1  0.29203107  0.66668458  0.39688511  1
  O2-  O281  1  0.29459783  0.66471923  0.73072761  1
  O2-  O282  1  0.79933867  0.16805335  0.05666073  1
  O2-  O283  1  0.78938831  0.16766232  0.40242139  1
  O2-  O284  1  0.79895779  0.16452982  0.73019188  1
  O2-  O285  1  0.80077179  0.66592365  0.06509215  1
  O2-  O286  1  0.79285164  0.66804607  0.39972784  1
  O2-  O287  1  0.79761574  0.67613234  0.73053772  1
