# generated using pymatgen
data_Ca2Al2SiO7
_symmetry_space_group_name_H-M   'P 1'
_cell_length_a   15.45360715
_cell_length_b   15.45324569
_cell_length_c   15.28027909
_cell_angle_alpha   90.00434865
_cell_angle_beta   90.00179251
_cell_angle_gamma   90.01128295
_symmetry_Int_Tables_number   1
_chemical_formula_structural   Ca2Al2SiO7
_chemical_formula_sum   'Ca48 Al48 Si24 O168'
_cell_volume   3649.05873493
_cell_formula_units_Z   24
loop_
 _symmetry_equiv_pos_site_id
 _symmetry_equiv_pos_as_xyz
  1  'x, y, z'
loop_
 _atom_type_symbol
 _atom_type_oxidation_number
  Ca2+  2.0
  Al0+  0.0
  Si0+  0.0
  O2-  -2.0
loop_
 _atom_site_type_symbol
 _atom_site_label
 _atom_site_symmetry_multiplicity
 _atom_site_fract_x
 _atom_site_fract_y
 _atom_site_fract_z
 _atom_site_occupancy
  Ca2+  Ca0  1  0.16753936  0.07748304  0.16770648  1
  Ca2+  Ca1  1  0.17057817  0.07860952  0.50538812  1
  Ca2+  Ca2  1  0.17345082  0.09196306  0.83733348  1
  Ca2+  Ca3  1  0.16612123  0.57537246  0.17829397  1
  Ca2+  Ca4  1  0.16508055  0.57950408  0.50078303  1
  Ca2+  Ca5  1  0.15904545  0.56824070  0.83661144  1
  Ca2+  Ca6  1  0.68157892  0.07815730  0.17642784  1
  Ca2+  Ca7  1  0.67111094  0.07100997  0.50128355  1
  Ca2+  Ca8  1  0.67456379  0.07312041  0.83765329  1
  Ca2+  Ca9  1  0.66945010  0.58453679  0.16646962  1
  Ca2+  Ca10  1  0.66994505  0.58286426  0.50642150  1
  Ca2+  Ca11  1  0.67499586  0.59451453  0.83466220  1
  Ca2+  Ca12  1  0.08775564  0.32925938  0.16093208  1
  Ca2+  Ca13  1  0.08438992  0.33377233  0.50169741  1
  Ca2+  Ca14  1  0.08476929  0.32639498  0.82528859  1
  Ca2+  Ca15  1  0.08244336  0.82825828  0.16501291  1
  Ca2+  Ca16  1  0.08025699  0.83084913  0.49061188  1
  Ca2+  Ca17  1  0.06707444  0.83572623  0.82836793  1
  Ca2+  Ca18  1  0.58286266  0.33685004  0.16550491  1
  Ca2+  Ca19  1  0.58544386  0.33321847  0.49222693  1
  Ca2+  Ca20  1  0.58036933  0.32855931  0.82838263  1
  Ca2+  Ca21  1  0.58058255  0.83274060  0.16523748  1
  Ca2+  Ca22  1  0.57665761  0.83610419  0.49929832  1
  Ca2+  Ca23  1  0.58404699  0.82490829  0.82310070  1
  Ca2+  Ca24  1  0.32147976  0.42441905  0.17340380  1
  Ca2+  Ca25  1  0.32306086  0.42432938  0.50249215  1
  Ca2+  Ca26  1  0.31928610  0.41335314  0.83764780  1
  Ca2+  Ca27  1  0.33027373  0.91886086  0.17436160  1
  Ca2+  Ca28  1  0.33063487  0.91341729  0.50519297  1
  Ca2+  Ca29  1  0.33763114  0.92642073  0.83328163  1
  Ca2+  Ca30  1  0.82856456  0.42391590  0.17123473  1
  Ca2+  Ca31  1  0.83255994  0.42179699  0.50642257  1
  Ca2+  Ca32  1  0.84264921  0.42974949  0.83401522  1
  Ca2+  Ca33  1  0.83524447  0.92475669  0.17013634  1
  Ca2+  Ca34  1  0.82422074  0.91268724  0.50543745  1
  Ca2+  Ca35  1  0.83087509  0.91158211  0.83859911  1
  Ca2+  Ca36  1  0.41618994  0.16681915  0.16122157  1
  Ca2+  Ca37  1  0.41546408  0.16419229  0.49960338  1
  Ca2+  Ca38  1  0.41185307  0.16280946  0.82774110  1
  Ca2+  Ca39  1  0.41831655  0.67001730  0.16475561  1
  Ca2+  Ca40  1  0.41508977  0.67660616  0.49208731  1
  Ca2+  Ca41  1  0.43132983  0.67111960  0.82402832  1
  Ca2+  Ca42  1  0.92017888  0.16347215  0.15817962  1
  Ca2+  Ca43  1  0.91769964  0.17036726  0.49796712  1
  Ca2+  Ca44  1  0.92930654  0.16923706  0.82567331  1
  Ca2+  Ca45  1  0.91869873  0.67138511  0.16107926  1
  Ca2+  Ca46  1  0.91927037  0.66930665  0.50039057  1
  Ca2+  Ca47  1  0.90764099  0.67435952  0.82779173  1
  Al0+  Al48  1  0.00089136  -0.00003427  -0.00571416  1
  Al0+  Al49  1  0.00205552  0.00228255  0.34024715  1
  Al0+  Al50  1  0.00029950  0.00028871  0.65663920  1
  Al0+  Al51  1  -0.00182008  0.49946129  0.01114563  1
  Al0+  Al52  1  -0.00097132  0.49856025  0.33147868  1
  Al0+  Al53  1  -0.00112698  0.49931732  0.67160195  1
  Al0+  Al54  1  0.49944659  0.00108266  0.00450717  1
  Al0+  Al55  1  0.50251909  0.00118355  0.32935535  1
  Al0+  Al56  1  0.50082957  -0.00079834  0.67231689  1
  Al0+  Al57  1  0.49865685  0.49978758  -0.00679207  1
  Al0+  Al58  1  0.49971506  0.50052907  0.33883234  1
  Al0+  Al59  1  0.50073373  0.49845321  0.66348689  1
  Al0+  Al60  1  0.25029717  0.24961741  0.00630723  1
  Al0+  Al61  1  0.24983871  0.25117420  0.33432768  1
  Al0+  Al62  1  0.25074382  0.24930667  0.66813193  1
  Al0+  Al63  1  0.25002386  0.74937918  -0.00480643  1
  Al0+  Al64  1  0.24997345  0.75094495  0.33019258  1
  Al0+  Al65  1  0.25031370  0.75002407  0.66894206  1
  Al0+  Al66  1  0.74917935  0.25002149  0.00108514  1
  Al0+  Al67  1  0.75131411  0.25112031  0.33868788  1
  Al0+  Al68  1  0.75017441  0.24954696  0.66369109  1
  Al0+  Al69  1  0.74858514  0.74908400  0.00021486  1
  Al0+  Al70  1  0.74909877  0.75128475  0.33458343  1
  Al0+  Al71  1  0.74938590  0.74905654  0.66409531  1
  Al0+  Al72  1  0.81844808  0.56898768  0.67947092  1
  Al0+  Al73  1  0.92880159  0.82047527  0.65138173  1
  Al0+  Al74  1  0.06923628  0.67881529  0.32011665  1
  Al0+  Al75  1  0.67951533  0.43081294  0.34585172  1
  Al0+  Al76  1  0.81869451  0.57210018  0.01517083  1
  Al0+  Al77  1  0.56868089  0.67985720  0.98641790  1
  Al0+  Al78  1  0.67851134  0.92832782  0.34842867  1
  Al0+  Al79  1  0.42917043  0.82210082  0.65222465  1
  Al0+  Al80  1  0.32038832  0.57265412  0.34746580  1
  Al0+  Al81  1  0.17933100  0.43010977  0.01551835  1
  Al0+  Al82  1  0.32064143  0.06951525  0.01570856  1
  Al0+  Al83  1  0.18087308  0.92915352  0.34544013  1
  Al0+  Al84  1  0.42954609  0.82212471  0.31779319  1
  Al0+  Al85  1  0.82378387  0.07166313  0.35038640  1
  Al0+  Al86  1  0.92922113  0.32228196  0.65173084  1
  Al0+  Al87  1  0.17680900  0.42773353  0.35037352  1
  Al0+  Al88  1  0.18108899  0.43145632  0.68120955  1
  Al0+  Al89  1  0.93112782  0.81922826  0.98842713  1
  Al0+  Al90  1  0.07074960  0.18092603  0.98761373  1
  Al0+  Al91  1  0.82253560  0.07089313  0.01015751  1
  Al0+  Al92  1  0.31862638  0.06806249  0.67907815  1
  Al0+  Al93  1  0.68155281  0.93010917  0.68165760  1
  Al0+  Al94  1  0.07392778  0.17982611  0.64859069  1
  Al0+  Al95  1  0.57150878  0.67808630  0.64810465  1
  Si0+  Si96  1  0.67492551  0.42704730  0.01449318  1
  Si0+  Si97  1  0.92722819  0.82361125  0.31698955  1
  Si0+  Si98  1  0.07202966  0.17902955  0.31699892  1
  Si0+  Si99  1  0.32460517  0.57377460  0.68490657  1
  Si0+  Si100  1  0.57120825  0.17837157  0.65215182  1
  Si0+  Si101  1  0.07260942  0.67442283  0.98402622  1
  Si0+  Si102  1  0.57247134  0.67622096  0.31585522  1
  Si0+  Si103  1  0.42951048  0.31860428  0.98552218  1
  Si0+  Si104  1  0.42907169  0.32180308  0.31838073  1
  Si0+  Si105  1  0.17441046  0.92550799  0.68379040  1
  Si0+  Si106  1  0.42882379  0.31975626  0.65100854  1
  Si0+  Si107  1  0.42630948  0.82506149  0.98232762  1
  Si0+  Si108  1  0.17714707  0.92616473  0.01426785  1
  Si0+  Si109  1  0.82376030  0.07343942  0.68351321  1
  Si0+  Si110  1  0.07203078  0.67691680  0.65304428  1
  Si0+  Si111  1  0.32353925  0.57203255  0.01377600  1
  Si0+  Si112  1  0.57226439  0.17777853  0.98555227  1
  Si0+  Si113  1  0.92765257  0.31982562  0.31622781  1
  Si0+  Si114  1  0.57221570  0.18084486  0.31745735  1
  Si0+  Si115  1  0.32303610  0.07241678  0.34838033  1
  Si0+  Si116  1  0.82203980  0.57293290  0.34966782  1
  Si0+  Si117  1  0.67876228  0.92786558  0.01735976  1
  Si0+  Si118  1  0.67577525  0.42463204  0.68452369  1
  Si0+  Si119  1  0.92542557  0.32345807  0.98530453  1
  O2-  O120  1  0.24954131  -0.00916077  0.05965549  1
  O2-  O121  1  0.25727233  0.00210517  0.39246834  1
  O2-  O122  1  0.24313667  -0.00519388  0.72741620  1
  O2-  O123  1  0.24911227  0.51082873  0.05941645  1
  O2-  O124  1  0.24685490  0.50247951  0.39812170  1
  O2-  O125  1  0.25437838  0.50696201  0.72992765  1
  O2-  O126  1  0.74735590  -0.00216906  0.05932853  1
  O2-  O127  1  0.75474471  -0.00410953  0.39829934  1
  O2-  O128  1  0.75948969  0.00145586  0.72909636  1
  O2-  O129  1  0.74440115  0.49477054  0.05836289  1
  O2-  O130  1  0.75065965  0.50717810  0.39351552  1
  O2-  O131  1  0.74372962  0.49367583  0.72784126  1
  O2-  O132  1  0.00000025  0.24948634  0.27463601  1
  O2-  O133  1  -0.00094258  0.24951459  0.59923649  1
  O2-  O134  1  -0.00534042  0.25506453  0.94210380  1
  O2-  O135  1  -0.00586425  0.75326658  0.27254359  1
  O2-  O136  1  0.00923059  0.75036659  0.60761649  1
  O2-  O137  1  0.00496851  0.74374066  0.93987268  1
  O2-  O138  1  0.50019335  0.25115844  0.27468468  1
  O2-  O139  1  0.50371941  0.25261391  0.60899791  1
  O2-  O140  1  0.50062587  0.24781590  0.94237444  1
  O2-  O141  1  0.50495319  0.74673818  0.27220568  1
  O2-  O142  1  0.49550881  0.74642222  0.59967389  1
  O2-  O143  1  0.49404260  0.75498902  0.94009063  1
  O2-  O144  1  0.07020011  0.18093301  0.10114948  1
  O2-  O145  1  0.07418685  0.18060391  0.42148858  1
  O2-  O146  1  0.07541601  0.18281815  0.76270464  1
  O2-  O147  1  0.07279059  0.67593918  0.08962750  1
  O2-  O148  1  0.06695790  0.67948593  0.43337664  1
  O2-  O149  1  0.06918098  0.67618201  0.75892511  1
  O2-  O150  1  0.57250536  0.17965379  0.09065213  1
  O2-  O151  1  0.57031687  0.18124457  0.42265354  1
  O2-  O152  1  0.57049571  0.18011000  0.75780109  1
  O2-  O153  1  0.56696815  0.67897175  0.09972326  1
  O2-  O154  1  0.57189968  0.67438322  0.42075432  1
  O2-  O155  1  0.57135315  0.68047366  0.76218908  1
  O2-  O156  1  0.18044998  0.42611743  0.23656695  1
  O2-  O157  1  0.18265661  0.43253757  0.56856985  1
  O2-  O158  1  0.18130403  0.42791756  0.90228295  1
  O2-  O159  1  0.18015819  0.93191333  0.23183770  1
  O2-  O160  1  0.17658192  0.92487734  0.57814116  1
  O2-  O161  1  0.17678560  0.92726946  0.90891088  1
  O2-  O162  1  0.68079323  0.42981652  0.23228770  1
  O2-  O163  1  0.67565274  0.42351458  0.57896408  1
  O2-  O164  1  0.67256450  0.42387006  0.90946592  1
  O2-  O165  1  0.67841946  0.93171035  0.23437121  1
  O2-  O166  1  0.67947984  0.93320189  0.56895954  1
  O2-  O167  1  0.67831705  0.92861038  0.91165220  1
  O2-  O168  1  0.43183892  0.31919458  0.09075684  1
  O2-  O169  1  0.42937917  0.31931809  0.42345701  1
  O2-  O170  1  0.42871513  0.31794756  0.75668790  1
  O2-  O171  1  0.42616683  0.82540401  0.08797445  1
  O2-  O172  1  0.42991511  0.82346657  0.43037901  1
  O2-  O173  1  0.43314824  0.82308517  0.76617033  1
  O2-  O174  1  0.92371502  0.32188119  0.09122546  1
  O2-  O175  1  0.92622300  0.32023111  0.42090458  1
  O2-  O176  1  0.93109193  0.32208509  0.76575740  1
  O2-  O177  1  0.93286824  0.81955317  0.10171726  1
  O2-  O178  1  0.92757074  0.82132190  0.42243999  1
  O2-  O179  1  0.92772905  0.81904536  0.76497598  1
  O2-  O180  1  0.32078595  0.07363970  0.24257593  1
  O2-  O181  1  0.31972163  0.06881985  0.56601026  1
  O2-  O182  1  0.32112446  0.07120593  0.90281945  1
  O2-  O183  1  0.32124558  0.56878288  0.23320391  1
  O2-  O184  1  0.32394651  0.57218619  0.57957689  1
  O2-  O185  1  0.32564174  0.56694316  0.90841800  1
  O2-  O186  1  0.82289508  0.07199267  0.23591544  1
  O2-  O187  1  0.81854049  0.07472430  0.57824299  1
  O2-  O188  1  0.81974977  0.07043041  0.89740537  1
  O2-  O189  1  0.82090030  0.57159675  0.24374790  1
  O2-  O190  1  0.81863317  0.56702587  0.56631324  1
  O2-  O191  1  0.81841984  0.57219021  0.90231180  1
  O2-  O192  1  0.04494067  0.08627810  0.27057459  1
  O2-  O193  1  0.04987599  0.08088945  0.59542580  1
  O2-  O194  1  0.04308912  0.08501370  0.93113327  1
  O2-  O195  1  0.03883444  0.58181857  0.26491854  1
  O2-  O196  1  0.04073136  0.58564726  0.60643982  1
  O2-  O197  1  0.04420836  0.57988524  0.94166760  1
  O2-  O198  1  0.54572140  0.09036508  0.26692761  1
  O2-  O199  1  0.53800019  0.08868841  0.60543248  1
  O2-  O200  1  0.54418332  0.08561983  0.93892616  1
  O2-  O201  1  0.54522067  0.58236814  0.26987811  1
  O2-  O202  1  0.54931889  0.57610890  0.59918834  1
  O2-  O203  1  0.53983854  0.58341501  0.92969873  1
  O2-  O204  1  0.16427175  0.20768129  0.26923843  1
  O2-  O205  1  0.17165932  0.21172703  0.59608927  1
  O2-  O206  1  0.16816832  0.21407038  0.93609010  1
  O2-  O207  1  0.16482953  0.70982935  0.26409005  1
  O2-  O208  1  0.16839845  0.69553021  0.60994269  1
  O2-  O209  1  0.16742412  0.69507869  0.93702403  1
  O2-  O210  1  0.66388677  0.21174488  0.27094587  1
  O2-  O211  1  0.66298332  0.20282264  0.60324972  1
  O2-  O212  1  0.66304546  0.20610306  0.93591917  1
  O2-  O213  1  0.66704760  0.70140665  0.27007539  1
  O2-  O214  1  0.66794372  0.70926537  0.59503246  1
  O2-  O215  1  0.66474347  0.71187038  0.93269644  1
  O2-  O216  1  0.08241792  0.45430182  0.07156113  1
  O2-  O217  1  0.07691214  0.45363279  0.39991518  1
  O2-  O218  1  0.08491078  0.46056255  0.73686724  1
  O2-  O219  1  0.08575971  0.95647575  0.06133614  1
  O2-  O220  1  0.08655192  0.96024774  0.40244281  1
  O2-  O221  1  0.07963211  0.95219957  0.72671942  1
  O2-  O222  1  0.58123597  0.45462140  0.06036721  1
  O2-  O223  1  0.58244040  0.45509777  0.40142958  1
  O2-  O224  1  0.58053059  0.44727536  0.72950286  1
  O2-  O225  1  0.58519869  0.95402905  0.06315968  1
  O2-  O226  1  0.58190299  0.96419165  0.40050418  1
  O2-  O227  1  0.58773456  0.96517644  0.73865053  1
  O2-  O228  1  0.21717318  0.33690290  0.07121601  1
  O2-  O229  1  0.20997622  0.33059555  0.40275541  1
  O2-  O230  1  0.21648990  0.33583968  0.73455349  1
  O2-  O231  1  0.19868561  0.83004356  0.05852084  1
  O2-  O232  1  0.20926275  0.83289180  0.39936410  1
  O2-  O233  1  0.19750930  0.83169629  0.73141171  1
  O2-  O234  1  0.69871159  0.33346237  0.06242810  1
  O2-  O235  1  0.71055181  0.33570636  0.40182414  1
  O2-  O236  1  0.70015511  0.32992960  0.72993345  1
  O2-  O237  1  0.70482621  0.83535531  0.06392839  1
  O2-  O238  1  0.70100412  0.82838880  0.40044516  1
  O2-  O239  1  0.71148554  0.83283507  0.73378776  1
  O2-  O240  1  0.45816667  0.41336757  0.27094409  1
  O2-  O241  1  0.45268194  0.41218329  0.60325089  1
  O2-  O242  1  0.45567827  0.40911192  0.93457556  1
  O2-  O243  1  0.46116233  0.91895049  0.26227023  1
  O2-  O244  1  0.46160804  0.92019326  0.60080061  1
  O2-  O245  1  0.45382765  0.91943033  0.93846166  1
  O2-  O246  1  0.95365474  0.41185512  0.26786743  1
  O2-  O247  1  0.95932372  0.42052324  0.59939844  1
  O2-  O248  1  0.95231588  0.41836256  0.94298972  1
  O2-  O249  1  0.95624680  0.91803221  0.27426363  1
  O2-  O250  1  0.95285642  0.91756161  0.59581801  1
  O2-  O251  1  0.96151343  0.91399359  0.93037072  1
  O2-  O252  1  0.33772882  0.29281208  0.26971799  1
  O2-  O253  1  0.34001052  0.28706428  0.60224778  1
  O2-  O254  1  0.33856063  0.28775356  0.93898549  1
  O2-  O255  1  0.33385366  0.79153816  0.26167654  1
  O2-  O256  1  0.32746788  0.79861254  0.60294754  1
  O2-  O257  1  0.33172971  0.80323301  0.93559414  1
  O2-  O258  1  0.83574177  0.29094137  0.26864248  1
  O2-  O259  1  0.82926574  0.29628200  0.59887116  1
  O2-  O260  1  0.83112060  0.30062267  0.93901738  1
  O2-  O261  1  0.83270932  0.79999008  0.27098962  1
  O2-  O262  1  0.83527187  0.78407230  0.59644001  1
  O2-  O263  1  0.83381899  0.78850800  0.93594553  1
  O2-  O264  1  0.41873050  0.04420861  0.07090946  1
  O2-  O265  1  0.41879335  0.05149857  0.39075003  1
  O2-  O266  1  0.41464437  0.03895480  0.73644386  1
  O2-  O267  1  0.41468275  0.53956406  0.06115813  1
  O2-  O268  1  0.41690603  0.54223442  0.40239552  1
  O2-  O269  1  0.41817658  0.54399834  0.72939197  1
  O2-  O270  1  0.91888472  0.03907208  0.06411126  1
  O2-  O271  1  0.92262769  0.05030461  0.40343990  1
  O2-  O272  1  0.92068721  0.05185363  0.72330799  1
  O2-  O273  1  0.91357291  0.54278162  0.07317272  1
  O2-  O274  1  0.91379615  0.54264037  0.39518717  1
  O2-  O275  1  0.91401545  0.53953298  0.73684417  1
  O2-  O276  1  0.28913620  0.16465910  0.07187977  1
  O2-  O277  1  0.29619028  0.16548579  0.39466183  1
  O2-  O278  1  0.28998882  0.16509002  0.73449187  1
  O2-  O279  1  0.30579301  0.66943033  0.05545311  1
  O2-  O280  1  0.29293622  0.67091279  0.39890984  1
  O2-  O281  1  0.30301583  0.66820622  0.73134560  1
  O2-  O282  1  0.79200197  0.16768419  0.06542360  1
  O2-  O283  1  0.78989920  0.16791496  0.40348618  1
  O2-  O284  1  0.79424768  0.16625504  0.72972410  1
  O2-  O285  1  0.78465635  0.66667036  0.07124561  1
  O2-  O286  1  0.80050987  0.66778925  0.39403478  1
  O2-  O287  1  0.78578373  0.66485686  0.73354370  1
