# generated using pymatgen
data_Ca2Al2SiO7
_symmetry_space_group_name_H-M   'P 1'
_cell_length_a   15.46495419
_cell_length_b   15.46753222
_cell_length_c   15.28938941
_cell_angle_alpha   89.99559564
_cell_angle_beta   89.99192957
_cell_angle_gamma   89.97224677
_symmetry_Int_Tables_number   1
_chemical_formula_structural   Ca2Al2SiO7
_chemical_formula_sum   'Ca48 Al48 Si24 O168'
_cell_volume   3657.29298204
_cell_formula_units_Z   24
loop_
 _symmetry_equiv_pos_site_id
 _symmetry_equiv_pos_as_xyz
  1  'x, y, z'
loop_
 _atom_type_symbol
 _atom_type_oxidation_number
  Ca2+  2.0
  Al0+  0.0
  Si0+  0.0
  O2-  -2.0
loop_
 _atom_site_type_symbol
 _atom_site_label
 _atom_site_symmetry_multiplicity
 _atom_site_fract_x
 _atom_site_fract_y
 _atom_site_fract_z
 _atom_site_occupancy
  Ca2+  Ca0  1  0.16365424  0.08468641  0.16834091  1
  Ca2+  Ca1  1  0.16437024  0.07778737  0.50971317  1
  Ca2+  Ca2  1  0.15378213  0.08211691  0.83488994  1
  Ca2+  Ca3  1  0.17046510  0.57593696  0.17543672  1
  Ca2+  Ca4  1  0.17225998  0.59199656  0.50286954  1
  Ca2+  Ca5  1  0.16668901  0.57557293  0.83804151  1
  Ca2+  Ca6  1  0.67943667  0.08761260  0.17249316  1
  Ca2+  Ca7  1  0.67249069  0.08281443  0.50036278  1
  Ca2+  Ca8  1  0.67493629  0.08005635  0.84140405  1
  Ca2+  Ca9  1  0.66805279  0.57623400  0.17361637  1
  Ca2+  Ca10  1  0.67281010  0.58484019  0.50217875  1
  Ca2+  Ca11  1  0.67079302  0.58262510  0.83679855  1
  Ca2+  Ca12  1  0.06857636  0.33255371  0.15756350  1
  Ca2+  Ca13  1  0.06753416  0.33593147  0.49833485  1
  Ca2+  Ca14  1  0.07479719  0.32763760  0.82942335  1
  Ca2+  Ca15  1  0.08473743  0.82386617  0.16829609  1
  Ca2+  Ca16  1  0.08206797  0.82529056  0.50181008  1
  Ca2+  Ca17  1  0.07756597  0.82821239  0.82240491  1
  Ca2+  Ca18  1  0.57423798  0.35056547  0.16419579  1
  Ca2+  Ca19  1  0.57438525  0.34126378  0.49419125  1
  Ca2+  Ca20  1  0.57293979  0.34444935  0.83369296  1
  Ca2+  Ca21  1  0.58468318  0.81955162  0.16501429  1
  Ca2+  Ca22  1  0.58057340  0.82043226  0.49215951  1
  Ca2+  Ca23  1  0.58757335  0.81978028  0.82824411  1
  Ca2+  Ca24  1  0.32854534  0.41506398  0.17204351  1
  Ca2+  Ca25  1  0.33881472  0.42073131  0.50132995  1
  Ca2+  Ca26  1  0.32740058  0.41007515  0.84035456  1
  Ca2+  Ca27  1  0.33473678  0.91633624  0.17534685  1
  Ca2+  Ca28  1  0.32827384  0.91229408  0.50678931  1
  Ca2+  Ca29  1  0.32483935  0.91880486  0.83506423  1
  Ca2+  Ca30  1  0.82254104  0.41340785  0.17644825  1
  Ca2+  Ca31  1  0.83314960  0.42293089  0.50148380  1
  Ca2+  Ca32  1  0.83355340  0.41881264  0.83889755  1
  Ca2+  Ca33  1  0.83728255  0.93177264  0.17110025  1
  Ca2+  Ca34  1  0.84236279  0.92219417  0.50438432  1
  Ca2+  Ca35  1  0.83947631  0.92192098  0.83726428  1
  Ca2+  Ca36  1  0.41953729  0.17940805  0.16295217  1
  Ca2+  Ca37  1  0.41563134  0.17975725  0.49567089  1
  Ca2+  Ca38  1  0.41590498  0.18010686  0.82971156  1
  Ca2+  Ca39  1  0.42658488  0.66058075  0.17010387  1
  Ca2+  Ca40  1  0.42793717  0.66589005  0.48893281  1
  Ca2+  Ca41  1  0.43151979  0.66061625  0.82946450  1
  Ca2+  Ca42  1  0.91306026  0.17548172  0.16025625  1
  Ca2+  Ca43  1  0.91776479  0.17495662  0.49580649  1
  Ca2+  Ca44  1  0.92027022  0.17650257  0.83079020  1
  Ca2+  Ca45  1  0.92033326  0.65754953  0.16890589  1
  Ca2+  Ca46  1  0.92512853  0.65851759  0.49679243  1
  Ca2+  Ca47  1  0.92092847  0.67072790  0.81805356  1
  Al0+  Al48  1  0.00053342  -0.00167968  0.00407098  1
  Al0+  Al49  1  0.00142143  -0.00126583  0.33844547  1
  Al0+  Al50  1  0.00127958  -0.00026192  0.66618650  1
  Al0+  Al51  1  0.00186632  0.49977019  0.00017171  1
  Al0+  Al52  1  -0.00074687  0.49729823  0.32681786  1
  Al0+  Al53  1  0.00159797  0.49990473  0.66450135  1
  Al0+  Al54  1  0.49831712  -0.00143510  0.00057275  1
  Al0+  Al55  1  0.49937314  0.00182592  0.33180460  1
  Al0+  Al56  1  0.50025059  0.00128634  0.67092498  1
  Al0+  Al57  1  0.50071185  0.50273598  -0.00594334  1
  Al0+  Al58  1  0.49764505  0.50043223  0.33271549  1
  Al0+  Al59  1  0.50096267  0.50109576  0.65963881  1
  Al0+  Al60  1  0.24918249  0.24809155  -0.00157051  1
  Al0+  Al61  1  0.24933519  0.24798637  0.33145894  1
  Al0+  Al62  1  0.25156996  0.25045317  0.65903044  1
  Al0+  Al63  1  0.25086516  0.75166270  0.00027766  1
  Al0+  Al64  1  0.24902565  0.74889706  0.32946051  1
  Al0+  Al65  1  0.25075597  0.75136203  0.67379839  1
  Al0+  Al66  1  0.74805338  0.25067725  0.00383803  1
  Al0+  Al67  1  0.74949920  0.24890222  0.34163557  1
  Al0+  Al68  1  0.74704723  0.25016502  0.66612621  1
  Al0+  Al69  1  0.75002277  0.75062329  -0.00288308  1
  Al0+  Al70  1  0.75170637  0.75158805  0.33091492  1
  Al0+  Al71  1  0.75078728  0.75095239  0.66283334  1
  Al0+  Al72  1  0.31775830  0.56969970  0.34643000  1
  Al0+  Al73  1  0.57369989  0.67881173  0.31672607  1
  Al0+  Al74  1  0.67895808  0.43171174  0.01177731  1
  Al0+  Al75  1  0.92761662  0.31878612  0.31878979  1
  Al0+  Al76  1  0.42801579  0.82188184  0.31992320  1
  Al0+  Al77  1  0.06968052  0.67867445  0.31871858  1
  Al0+  Al78  1  0.82307783  0.57198258  0.34770623  1
  Al0+  Al79  1  0.92891216  0.82143227  0.65206202  1
  Al0+  Al80  1  0.06946209  0.17741570  0.98636704  1
  Al0+  Al81  1  0.57050029  0.68098969  0.98452257  1
  Al0+  Al82  1  0.07006767  0.17935531  0.65108951  1
  Al0+  Al83  1  0.92515225  0.32265042  0.98524127  1
  Al0+  Al84  1  0.67723176  0.43005857  0.34997539  1
  Al0+  Al85  1  0.57143705  0.68027572  0.65098088  1
  Al0+  Al86  1  0.43057259  0.32051256  0.65185451  1
  Al0+  Al87  1  0.17978820  0.93040587  0.68227140  1
  Al0+  Al88  1  0.81997215  0.06950482  0.01287919  1
  Al0+  Al89  1  0.42903618  0.32093590  0.31793512  1
  Al0+  Al90  1  0.92572574  0.32233573  0.65107064  1
  Al0+  Al91  1  0.07338952  0.67780424  0.65342336  1
  Al0+  Al92  1  0.82166273  0.56997675  0.67978778  1
  Al0+  Al93  1  0.82160603  0.06999462  0.35012275  1
  Al0+  Al94  1  0.17917819  0.42720018  0.01321634  1
  Al0+  Al95  1  0.43006986  0.32011361  0.98715833  1
  Si0+  Si96  1  0.42891195  0.82334685  0.65382912  1
  Si0+  Si97  1  0.07090259  0.17555654  0.31717962  1
  Si0+  Si98  1  0.32134674  0.57251943  0.01549051  1
  Si0+  Si99  1  0.93133698  0.81960019  0.98744350  1
  Si0+  Si100  1  0.57188591  0.17803799  0.31711587  1
  Si0+  Si101  1  0.67786130  0.92884373  0.68177973  1
  Si0+  Si102  1  0.32288692  0.57073574  0.68207713  1
  Si0+  Si103  1  0.17753922  0.42530778  0.35053696  1
  Si0+  Si104  1  0.67620555  0.42872726  0.68404631  1
  Si0+  Si105  1  0.57195650  0.17456073  0.65038746  1
  Si0+  Si106  1  0.18099439  0.92836923  0.34930562  1
  Si0+  Si107  1  0.07317476  0.67870827  0.98548961  1
  Si0+  Si108  1  0.67678992  0.92886166  0.34966300  1
  Si0+  Si109  1  0.18071809  0.42792336  0.68001231  1
  Si0+  Si110  1  0.57199085  0.17467246  0.98440399  1
  Si0+  Si111  1  0.32212696  0.07068581  0.01636334  1
  Si0+  Si112  1  0.92941333  0.82515882  0.31526622  1
  Si0+  Si113  1  0.17974643  0.92852454  0.01809291  1
  Si0+  Si114  1  0.82052564  0.07138795  0.68293261  1
  Si0+  Si115  1  0.67660313  0.92593191  0.01679610  1
  Si0+  Si116  1  0.32270082  0.07433254  0.68473196  1
  Si0+  Si117  1  0.82347143  0.57450744  0.01445937  1
  Si0+  Si118  1  0.32156900  0.07219969  0.34892721  1
  Si0+  Si119  1  0.42613772  0.82464555  0.98062824  1
  O2-  O120  1  0.25158572  -0.00099163  0.05932548  1
  O2-  O121  1  0.25301338  -0.00112030  0.39069598  1
  O2-  O122  1  0.25238483  0.00753785  0.72977777  1
  O2-  O123  1  0.25261287  0.50382390  0.05926592  1
  O2-  O124  1  0.24483050  0.49467829  0.39612664  1
  O2-  O125  1  0.25130182  0.49988000  0.72325555  1
  O2-  O126  1  0.74210835  -0.00247294  0.06050151  1
  O2-  O127  1  0.74811094  -0.00652868  0.39635769  1
  O2-  O128  1  0.74924827  -0.00031574  0.72446227  1
  O2-  O129  1  0.75823557  0.50222347  0.05718181  1
  O2-  O130  1  0.74888313  0.50300813  0.39881406  1
  O2-  O131  1  0.74920602  0.49320471  0.72769706  1
  O2-  O132  1  0.00233801  0.24331326  0.27308150  1
  O2-  O133  1  -0.00279723  0.24943211  0.60086950  1
  O2-  O134  1  -0.00088856  0.25114319  0.93724078  1
  O2-  O135  1  -0.00827144  0.75047905  0.27111060  1
  O2-  O136  1  -0.00228997  0.74591074  0.60342500  1
  O2-  O137  1  -0.00269745  0.74461022  0.94440687  1
  O2-  O138  1  0.50705405  0.24958416  0.27175032  1
  O2-  O139  1  0.50546304  0.24529625  0.60689598  1
  O2-  O140  1  0.50532038  0.24544986  0.94030187  1
  O2-  O141  1  0.50123552  0.75233405  0.26862264  1
  O2-  O142  1  0.49627465  0.75588717  0.60763466  1
  O2-  O143  1  0.49582304  0.75672748  0.93771994  1
  O2-  O144  1  0.06786817  0.17609056  0.09995476  1
  O2-  O145  1  0.07096586  0.17456426  0.42254028  1
  O2-  O146  1  0.06777845  0.18074472  0.76465269  1
  O2-  O147  1  0.07545407  0.68126843  0.09052370  1
  O2-  O148  1  0.07322128  0.68290540  0.43117509  1
  O2-  O149  1  0.07343446  0.67959715  0.76778544  1
  O2-  O150  1  0.56880412  0.16953991  0.08951265  1
  O2-  O151  1  0.56715993  0.17431866  0.42275804  1
  O2-  O152  1  0.57116187  0.17094137  0.75598426  1
  O2-  O153  1  0.56999417  0.68159139  0.09689276  1
  O2-  O154  1  0.57155691  0.68084116  0.43026276  1
  O2-  O155  1  0.57006481  0.68030071  0.76449889  1
  O2-  O156  1  0.18010108  0.42574460  0.24462306  1
  O2-  O157  1  0.18243822  0.42784044  0.57517015  1
  O2-  O158  1  0.18041646  0.42906113  0.89949254  1
  O2-  O159  1  0.18012226  0.92996596  0.24373374  1
  O2-  O160  1  0.18386649  0.92889562  0.56913546  1
  O2-  O161  1  0.17954000  0.92715681  0.91330582  1
  O2-  O162  1  0.67768449  0.43125846  0.23597557  1
  O2-  O163  1  0.67307218  0.43047701  0.57900701  1
  O2-  O164  1  0.67660619  0.43513479  0.89850791  1
  O2-  O165  1  0.67679159  0.93275506  0.24398289  1
  O2-  O166  1  0.67392847  0.93219029  0.57715843  1
  O2-  O167  1  0.67863813  0.92563174  0.91086020  1
  O2-  O168  1  0.43033217  0.31936938  0.09991342  1
  O2-  O169  1  0.42787540  0.31766746  0.43094501  1
  O2-  O170  1  0.43020276  0.32033473  0.76529803  1
  O2-  O171  1  0.42450188  0.82672941  0.08570697  1
  O2-  O172  1  0.42844172  0.82135882  0.43382580  1
  O2-  O173  1  0.43092805  0.82295072  0.75957177  1
  O2-  O174  1  0.92464465  0.32029874  0.09872335  1
  O2-  O175  1  0.92941179  0.31838148  0.43172642  1
  O2-  O176  1  0.92617230  0.32121862  0.76473758  1
  O2-  O177  1  0.93387150  0.82106263  0.09241743  1
  O2-  O178  1  0.93448295  0.83062032  0.42008013  1
  O2-  O179  1  0.93094475  0.82151879  0.76663880  1
  O2-  O180  1  0.31970624  0.07309616  0.24363405  1
  O2-  O181  1  0.32476046  0.07150088  0.57916932  1
  O2-  O182  1  0.32441515  0.06895386  0.91157338  1
  O2-  O183  1  0.31618928  0.56835458  0.23311595  1
  O2-  O184  1  0.32294138  0.57183701  0.57716398  1
  O2-  O185  1  0.31945933  0.57321292  0.90936043  1
  O2-  O186  1  0.82174469  0.06866577  0.23678252  1
  O2-  O187  1  0.81905433  0.07033308  0.57791011  1
  O2-  O188  1  0.81990094  0.06530260  0.89949836  1
  O2-  O189  1  0.82297713  0.56873127  0.23362921  1
  O2-  O190  1  0.82082747  0.57021080  0.56741319  1
  O2-  O191  1  0.82208464  0.57814085  0.90874727  1
  O2-  O192  1  0.04698887  0.08075934  0.27249465  1
  O2-  O193  1  0.04354895  0.08044942  0.59949803  1
  O2-  O194  1  0.03977830  0.07804168  0.93505279  1
  O2-  O195  1  0.04238511  0.58217077  0.26260754  1
  O2-  O196  1  0.05105710  0.57925105  0.60002874  1
  O2-  O197  1  0.05155835  0.58536743  0.93936173  1
  O2-  O198  1  0.54373368  0.08647266  0.26816040  1
  O2-  O199  1  0.54443254  0.08187790  0.60293546  1
  O2-  O200  1  0.54535225  0.08130849  0.93669727  1
  O2-  O201  1  0.53932656  0.58224343  0.26464971  1
  O2-  O202  1  0.53898663  0.58587211  0.59606064  1
  O2-  O203  1  0.53751162  0.58726806  0.92664251  1
  O2-  O204  1  0.16501360  0.19948095  0.27134267  1
  O2-  O205  1  0.16941700  0.20343778  0.59861820  1
  O2-  O206  1  0.16909906  0.20072139  0.93412012  1
  O2-  O207  1  0.16328083  0.71424260  0.26170419  1
  O2-  O208  1  0.17181368  0.71164215  0.60353291  1
  O2-  O209  1  0.16356760  0.71119546  0.93799439  1
  O2-  O210  1  0.66759500  0.19949656  0.27554573  1
  O2-  O211  1  0.66578518  0.19743171  0.60445200  1
  O2-  O212  1  0.66587023  0.19856053  0.93941879  1
  O2-  O213  1  0.67199184  0.70755187  0.26288995  1
  O2-  O214  1  0.66627401  0.71292103  0.59727586  1
  O2-  O215  1  0.66710440  0.71307195  0.92961518  1
  O2-  O216  1  0.08289660  0.45838705  0.06838255  1
  O2-  O217  1  0.08313066  0.45100781  0.39285042  1
  O2-  O218  1  0.08923621  0.45470429  0.72837392  1
  O2-  O219  1  0.08917882  0.95624664  0.06770405  1
  O2-  O220  1  0.09044467  0.95658378  0.39830580  1
  O2-  O221  1  0.08272914  0.96022669  0.73711125  1
  O2-  O222  1  0.58290063  0.46778494  0.06450416  1
  O2-  O223  1  0.57791628  0.45767824  0.40082071  1
  O2-  O224  1  0.58370310  0.46098486  0.72989568  1
  O2-  O225  1  0.58091851  0.94666516  0.06036987  1
  O2-  O226  1  0.58416877  0.95821857  0.39668401  1
  O2-  O227  1  0.58695906  0.95639597  0.73286177  1
  O2-  O228  1  0.21028011  0.33070817  0.06686816  1
  O2-  O229  1  0.20363647  0.33131982  0.39544884  1
  O2-  O230  1  0.21195828  0.33646383  0.72661129  1
  O2-  O231  1  0.20842735  0.83669700  0.06602342  1
  O2-  O232  1  0.20904747  0.83686285  0.39581666  1
  O2-  O233  1  0.21254551  0.83578742  0.74103413  1
  O2-  O234  1  0.69998325  0.33290562  0.06586671  1
  O2-  O235  1  0.70249889  0.33117250  0.40350968  1
  O2-  O236  1  0.69392747  0.33199592  0.72790942  1
  O2-  O237  1  0.70646147  0.83398235  0.06366485  1
  O2-  O238  1  0.69881186  0.83383197  0.39317404  1
  O2-  O239  1  0.70627475  0.83757942  0.72962761  1
  O2-  O240  1  0.45542045  0.41805479  0.26425093  1
  O2-  O241  1  0.46124278  0.41598076  0.59685077  1
  O2-  O242  1  0.45911567  0.41638935  0.93163539  1
  O2-  O243  1  0.45278736  0.92214274  0.26763004  1
  O2-  O244  1  0.45192770  0.91830944  0.60945978  1
  O2-  O245  1  0.44948619  0.91874809  0.93414844  1
  O2-  O246  1  0.95850727  0.41331191  0.26188961  1
  O2-  O247  1  0.95906012  0.41863726  0.59800151  1
  O2-  O248  1  0.95476753  0.42182813  0.93381809  1
  O2-  O249  1  0.96423757  0.91565504  0.26690416  1
  O2-  O250  1  0.96175837  0.91777210  0.59895961  1
  O2-  O251  1  0.96446254  0.90909974  0.93921564  1
  O2-  O252  1  0.33303750  0.28525599  0.26491626  1
  O2-  O253  1  0.33601648  0.29011577  0.59472675  1
  O2-  O254  1  0.33486200  0.28606261  0.93257364  1
  O2-  O255  1  0.33091186  0.79345171  0.26466748  1
  O2-  O256  1  0.33456608  0.79829660  0.61074106  1
  O2-  O257  1  0.33224597  0.79803178  0.93467495  1
  O2-  O258  1  0.82971227  0.28586302  0.26926789  1
  O2-  O259  1  0.82597062  0.29544320  0.60076144  1
  O2-  O260  1  0.82663564  0.29310492  0.93330396  1
  O2-  O261  1  0.83339122  0.80912848  0.27127509  1
  O2-  O262  1  0.82926148  0.80214838  0.59974549  1
  O2-  O263  1  0.83765740  0.79946951  0.94034352  1
  O2-  O264  1  0.41370390  0.04318666  0.06533512  1
  O2-  O265  1  0.41447998  0.04857069  0.39601247  1
  O2-  O266  1  0.41535026  0.04757224  0.73351174  1
  O2-  O267  1  0.41529058  0.54647414  0.05882181  1
  O2-  O268  1  0.41394257  0.53997370  0.40095557  1
  O2-  O269  1  0.41469388  0.54028164  0.72836682  1
  O2-  O270  1  0.91421281  0.03327472  0.06874531  1
  O2-  O271  1  0.91824739  0.03824251  0.40405661  1
  O2-  O272  1  0.91186727  0.04184277  0.72939096  1
  O2-  O273  1  0.91924124  0.55432788  0.05797035  1
  O2-  O274  1  0.92202107  0.54015778  0.39811235  1
  O2-  O275  1  0.92044620  0.54313102  0.73317628  1
  O2-  O276  1  0.29336259  0.16145276  0.06461736  1
  O2-  O277  1  0.29073189  0.16236048  0.39819735  1
  O2-  O278  1  0.29848405  0.16933002  0.72830986  1
  O2-  O279  1  0.29653984  0.66692987  0.06065140  1
  O2-  O280  1  0.28629952  0.66680390  0.39971748  1
  O2-  O281  1  0.29753602  0.66199020  0.73210747  1
  O2-  O282  1  0.78982987  0.16544274  0.06798600  1
  O2-  O283  1  0.78843086  0.16340110  0.40763912  1
  O2-  O284  1  0.79096280  0.16288352  0.73033457  1
  O2-  O285  1  0.79557491  0.66749985  0.06112060  1
  O2-  O286  1  0.80199343  0.67446314  0.39608638  1
  O2-  O287  1  0.79016119  0.66833920  0.73205981  1
