# generated using pymatgen
data_Ca2Al2SiO7
_symmetry_space_group_name_H-M   'P 1'
_cell_length_a   15.46018531
_cell_length_b   15.46119523
_cell_length_c   15.28512844
_cell_angle_alpha   89.98354443
_cell_angle_beta   90.00761439
_cell_angle_gamma   89.96423925
_symmetry_Int_Tables_number   1
_chemical_formula_structural   Ca2Al2SiO7
_chemical_formula_sum   'Ca48 Al48 Si24 O168'
_cell_volume   3653.64834678
_cell_formula_units_Z   24
loop_
 _symmetry_equiv_pos_site_id
 _symmetry_equiv_pos_as_xyz
  1  'x, y, z'
loop_
 _atom_type_symbol
 _atom_type_oxidation_number
  Ca2+  2.0
  Al0+  0.0
  Si0+  0.0
  O2-  -2.0
loop_
 _atom_site_type_symbol
 _atom_site_label
 _atom_site_symmetry_multiplicity
 _atom_site_fract_x
 _atom_site_fract_y
 _atom_site_fract_z
 _atom_site_occupancy
  Ca2+  Ca0  1  0.16597888  0.07685946  0.17413433  1
  Ca2+  Ca1  1  0.17243102  0.09229585  0.50225447  1
  Ca2+  Ca2  1  0.16231690  0.07802372  0.84319269  1
  Ca2+  Ca3  1  0.16290221  0.58536534  0.17270529  1
  Ca2+  Ca4  1  0.16556243  0.58902314  0.50324708  1
  Ca2+  Ca5  1  0.16068313  0.58794236  0.83817271  1
  Ca2+  Ca6  1  0.66432304  0.08227989  0.16602382  1
  Ca2+  Ca7  1  0.66246936  0.08464186  0.50587769  1
  Ca2+  Ca8  1  0.67377943  0.08108856  0.84545208  1
  Ca2+  Ca9  1  0.67956371  0.59108080  0.17316771  1
  Ca2+  Ca10  1  0.66721654  0.58182880  0.50748792  1
  Ca2+  Ca11  1  0.67033849  0.57857848  0.83797869  1
  Ca2+  Ca12  1  0.08495085  0.31960842  0.16403191  1
  Ca2+  Ca13  1  0.07935358  0.32705918  0.49799909  1
  Ca2+  Ca14  1  0.07392031  0.32121987  0.82814819  1
  Ca2+  Ca15  1  0.08040841  0.82369341  0.15549042  1
  Ca2+  Ca16  1  0.07698724  0.82463603  0.49875014  1
  Ca2+  Ca17  1  0.07204778  0.83076819  0.83234012  1
  Ca2+  Ca18  1  0.58030782  0.32404378  0.16600511  1
  Ca2+  Ca19  1  0.58406343  0.32540264  0.49521444  1
  Ca2+  Ca20  1  0.59259020  0.32249677  0.82845172  1
  Ca2+  Ca21  1  0.57354760  0.83939938  0.16353160  1
  Ca2+  Ca22  1  0.58134427  0.82115655  0.49230365  1
  Ca2+  Ca23  1  0.58260489  0.83320671  0.83286851  1
  Ca2+  Ca24  1  0.33240555  0.41445020  0.17319430  1
  Ca2+  Ca25  1  0.33460017  0.41440349  0.50241153  1
  Ca2+  Ca26  1  0.33004266  0.42160760  0.83703511  1
  Ca2+  Ca27  1  0.33149899  0.91644197  0.17137314  1
  Ca2+  Ca28  1  0.33669505  0.92011152  0.49813695  1
  Ca2+  Ca29  1  0.32522020  0.91558158  0.84319129  1
  Ca2+  Ca30  1  0.83650920  0.43024954  0.17135207  1
  Ca2+  Ca31  1  0.82975148  0.42114459  0.50686682  1
  Ca2+  Ca32  1  0.83320353  0.41927993  0.83616963  1
  Ca2+  Ca33  1  0.83177445  0.91798226  0.16287640  1
  Ca2+  Ca34  1  0.83423626  0.91708625  0.50396988  1
  Ca2+  Ca35  1  0.83061229  0.91665973  0.84502121  1
  Ca2+  Ca36  1  0.42380081  0.16259872  0.16805766  1
  Ca2+  Ca37  1  0.42626264  0.16983522  0.48858011  1
  Ca2+  Ca38  1  0.43152065  0.16276189  0.83153128  1
  Ca2+  Ca39  1  0.42210165  0.67808047  0.16365985  1
  Ca2+  Ca40  1  0.42992887  0.66911227  0.49207606  1
  Ca2+  Ca41  1  0.42115670  0.67588662  0.83000450  1
  Ca2+  Ca42  1  0.92518876  0.16100901  0.15932237  1
  Ca2+  Ca43  1  0.92566688  0.17285883  0.49907181  1
  Ca2+  Ca44  1  0.92410529  0.16220236  0.82796604  1
  Ca2+  Ca45  1  0.92166016  0.66622104  0.15856066  1
  Ca2+  Ca46  1  0.92149647  0.66730132  0.49571072  1
  Ca2+  Ca47  1  0.91809746  0.67547271  0.83091421  1
  Al0+  Al48  1  0.00057271  -0.00295458  0.00211115  1
  Al0+  Al49  1  -0.00092816  -0.00124459  0.33412262  1
  Al0+  Al50  1  0.00173618  -0.00085467  0.65790622  1
  Al0+  Al51  1  0.00148145  0.49713645  0.00154313  1
  Al0+  Al52  1  -0.00053578  0.50013740  0.33655921  1
  Al0+  Al53  1  0.00066918  0.49993293  0.66292088  1
  Al0+  Al54  1  0.49918165  0.00073056  -0.00572039  1
  Al0+  Al55  1  0.49914354  -0.00016089  0.33320883  1
  Al0+  Al56  1  0.49933704  0.00088962  0.66528305  1
  Al0+  Al57  1  0.49855612  0.49967782  0.00171499  1
  Al0+  Al58  1  0.50056773  0.49924025  0.32584143  1
  Al0+  Al59  1  0.49987931  0.50059202  0.67146017  1
  Al0+  Al60  1  0.25068694  0.25150819  -0.00453952  1
  Al0+  Al61  1  0.24946292  0.24912660  0.33174745  1
  Al0+  Al62  1  0.25211905  0.25130253  0.66988889  1
  Al0+  Al63  1  0.25209905  0.74964005  -0.00280210  1
  Al0+  Al64  1  0.24862638  0.74924214  0.33010814  1
  Al0+  Al65  1  0.24913689  0.75269999  0.66533989  1
  Al0+  Al66  1  0.74981575  0.25104373  0.00282543  1
  Al0+  Al67  1  0.75106847  0.25131397  0.33021340  1
  Al0+  Al68  1  0.75087945  0.25020378  0.66305813  1
  Al0+  Al69  1  0.74881088  0.74925436  0.00570313  1
  Al0+  Al70  1  0.75193966  0.75119061  0.33715504  1
  Al0+  Al71  1  0.74906738  0.75093133  0.66076660  1
  Al0+  Al72  1  0.56924267  0.67865332  0.65560484  1
  Al0+  Al73  1  0.57430150  0.67786255  0.31740984  1
  Al0+  Al74  1  0.82218828  0.07198004  0.01445746  1
  Al0+  Al75  1  0.82094383  0.57163837  0.35024484  1
  Al0+  Al76  1  0.42766303  0.32107448  0.31899754  1
  Al0+  Al77  1  0.06983853  0.17909093  0.31969567  1
  Al0+  Al78  1  0.67914961  0.42858939  0.68029883  1
  Al0+  Al79  1  0.07137829  0.67628176  0.98541592  1
  Al0+  Al80  1  0.92685819  0.81947717  0.98695968  1
  Al0+  Al81  1  0.17979304  0.92822266  0.01318403  1
  Al0+  Al82  1  0.92694821  0.82152620  0.65066066  1
  Al0+  Al83  1  0.82055106  0.56882448  0.01214729  1
  Al0+  Al84  1  0.07168163  0.67932962  0.65155966  1
  Al0+  Al85  1  0.92814279  0.32134730  0.65224699  1
  Al0+  Al86  1  0.57067996  0.18128668  0.98568813  1
  Al0+  Al87  1  0.06838980  0.67904612  0.31907787  1
  Al0+  Al88  1  0.07370153  0.17809571  0.65169333  1
  Al0+  Al89  1  0.43000190  0.82125850  0.98481475  1
  Al0+  Al90  1  0.07052177  0.17726971  0.98786156  1
  Al0+  Al91  1  0.42953373  0.82044234  0.31905854  1
  Al0+  Al92  1  0.57341125  0.17807010  0.31749523  1
  Al0+  Al93  1  0.57074840  0.17926006  0.65359910  1
  Al0+  Al94  1  0.67634285  0.92894494  0.01521793  1
  Al0+  Al95  1  0.31929930  0.06970085  0.34711809  1
  Si0+  Si96  1  0.32226510  0.07247404  0.68340856  1
  Si0+  Si97  1  0.42760293  0.32462841  0.98041880  1
  Si0+  Si98  1  0.92851907  0.32179078  0.98568047  1
  Si0+  Si99  1  0.92878761  0.32231644  0.31570390  1
  Si0+  Si100  1  0.82271532  0.07300040  0.35034116  1
  Si0+  Si101  1  0.18013499  0.42886871  0.34938353  1
  Si0+  Si102  1  0.92721011  0.82329285  0.31473311  1
  Si0+  Si103  1  0.18050708  0.42833111  0.01566818  1
  Si0+  Si104  1  0.32123939  0.07329808  0.01530146  1
  Si0+  Si105  1  0.67548135  0.42713645  0.01915586  1
  Si0+  Si106  1  0.82232220  0.57319607  0.68357029  1
  Si0+  Si107  1  0.82123855  0.06941154  0.67841994  1
  Si0+  Si108  1  0.67793564  0.92838764  0.68027097  1
  Si0+  Si109  1  0.32157938  0.57168107  0.34775853  1
  Si0+  Si110  1  0.32157128  0.57120067  0.01625498  1
  Si0+  Si111  1  0.17960335  0.93028564  0.68166690  1
  Si0+  Si112  1  0.42713653  0.82278186  0.64964920  1
  Si0+  Si113  1  0.42857037  0.32304461  0.65283450  1
  Si0+  Si114  1  0.17826672  0.42846063  0.68301288  1
  Si0+  Si115  1  0.67747276  0.42797895  0.34963832  1
  Si0+  Si116  1  0.57221798  0.67655716  0.98373480  1
  Si0+  Si117  1  0.67892928  0.93162495  0.35023642  1
  Si0+  Si118  1  0.17640850  0.92581472  0.35253922  1
  Si0+  Si119  1  0.31996776  0.57250663  0.68163000  1
  O2-  O120  1  0.25094172  0.00669382  0.05957699  1
  O2-  O121  1  0.24418807  -0.00394030  0.39670639  1
  O2-  O122  1  0.24884904  0.00350044  0.72446593  1
  O2-  O123  1  0.24996223  0.50066263  0.05843170  1
  O2-  O124  1  0.25166450  0.49997579  0.39163455  1
  O2-  O125  1  0.24646998  0.50344950  0.72410366  1
  O2-  O126  1  0.74835663  0.00158339  0.06494529  1
  O2-  O127  1  0.74917334  0.00413798  0.39259739  1
  O2-  O128  1  0.75034301  -0.00152521  0.72136326  1
  O2-  O129  1  0.74384535  0.49670639  0.06154274  1
  O2-  O130  1  0.74262450  0.49940945  0.39508564  1
  O2-  O131  1  0.75405075  0.50350843  0.72726173  1
  O2-  O132  1  -0.00713615  0.24993046  0.27109108  1
  O2-  O133  1  0.00273729  0.25151859  0.60281899  1
  O2-  O134  1  -0.00917397  0.24702447  0.94187492  1
  O2-  O135  1  -0.00481941  0.75370977  0.27191346  1
  O2-  O136  1  -0.00395598  0.74644670  0.60111849  1
  O2-  O137  1  -0.00161219  0.74719043  0.93659590  1
  O2-  O138  1  0.50007321  0.24981856  0.26939021  1
  O2-  O139  1  0.49617902  0.25435718  0.60820527  1
  O2-  O140  1  0.49793443  0.25774873  0.93734020  1
  O2-  O141  1  0.50242840  0.74999294  0.26811400  1
  O2-  O142  1  0.49614441  0.75407849  0.60745201  1
  O2-  O143  1  0.50610644  0.74743163  0.93888422  1
  O2-  O144  1  0.07294485  0.18067526  0.10088531  1
  O2-  O145  1  0.07019821  0.18356382  0.43262759  1
  O2-  O146  1  0.07183134  0.17721526  0.76541806  1
  O2-  O147  1  0.07049247  0.67594229  0.09901568  1
  O2-  O148  1  0.06878770  0.67998949  0.43207648  1
  O2-  O149  1  0.07306724  0.68207885  0.76456946  1
  O2-  O150  1  0.56770988  0.18175649  0.09823254  1
  O2-  O151  1  0.57246304  0.17966741  0.43147885  1
  O2-  O152  1  0.57048313  0.17799452  0.76647320  1
  O2-  O153  1  0.56896934  0.67442478  0.08888832  1
  O2-  O154  1  0.57114544  0.67795104  0.43161786  1
  O2-  O155  1  0.56728939  0.67976632  0.76869560  1
  O2-  O156  1  0.18023659  0.42919303  0.24409028  1
  O2-  O157  1  0.18179489  0.42510682  0.57798801  1
  O2-  O158  1  0.18229413  0.42762758  0.91048571  1
  O2-  O159  1  0.17640160  0.92611889  0.24706942  1
  O2-  O160  1  0.18258488  0.92814145  0.57674329  1
  O2-  O161  1  0.18109768  0.92943009  0.89935295  1
  O2-  O162  1  0.68083741  0.42642053  0.24421091  1
  O2-  O163  1  0.67769256  0.43056876  0.56729992  1
  O2-  O164  1  0.67512014  0.42743689  0.91327119  1
  O2-  O165  1  0.67870474  0.93166531  0.24556311  1
  O2-  O166  1  0.67602129  0.93010160  0.57498841  1
  O2-  O167  1  0.67693660  0.93047378  0.90078580  1
  O2-  O168  1  0.42565565  0.32591439  0.08556758  1
  O2-  O169  1  0.42777158  0.32066327  0.43303672  1
  O2-  O170  1  0.42710690  0.32225198  0.75834207  1
  O2-  O171  1  0.42895534  0.81926495  0.09743448  1
  O2-  O172  1  0.43172751  0.81823796  0.43323623  1
  O2-  O173  1  0.42608574  0.82227619  0.75527564  1
  O2-  O174  1  0.93368493  0.32495004  0.09118451  1
  O2-  O175  1  0.93016986  0.32182483  0.42129137  1
  O2-  O176  1  0.92946794  0.31933807  0.76608408  1
  O2-  O177  1  0.92878582  0.81782200  0.10040538  1
  O2-  O178  1  0.92856769  0.82397195  0.42057650  1
  O2-  O179  1  0.92636330  0.82323014  0.76380397  1
  O2-  O180  1  0.31754813  0.06869614  0.23415118  1
  O2-  O181  1  0.32369632  0.07236626  0.57842394  1
  O2-  O182  1  0.32033244  0.07217166  0.90904917  1
  O2-  O183  1  0.31881773  0.57157601  0.24270202  1
  O2-  O184  1  0.32143442  0.57079069  0.57651339  1
  O2-  O185  1  0.32343523  0.56888472  0.91080092  1
  O2-  O186  1  0.82536044  0.07149924  0.24575323  1
  O2-  O187  1  0.81893027  0.06848367  0.57296647  1
  O2-  O188  1  0.82113074  0.07225688  0.90007625  1
  O2-  O189  1  0.82330489  0.56863696  0.23702359  1
  O2-  O190  1  0.82062079  0.57219577  0.57797294  1
  O2-  O191  1  0.81953313  0.56644574  0.89883187  1
  O2-  O192  1  0.04182997  0.08050364  0.26929885  1
  O2-  O193  1  0.04674367  0.08179849  0.59554970  1
  O2-  O194  1  0.04345835  0.08000405  0.93499186  1
  O2-  O195  1  0.03973826  0.58069790  0.26780868  1
  O2-  O196  1  0.05131840  0.57878865  0.60045445  1
  O2-  O197  1  0.04553153  0.57628863  0.93436198  1
  O2-  O198  1  0.54288421  0.08041478  0.26645687  1
  O2-  O199  1  0.53868796  0.08314799  0.59920617  1
  O2-  O200  1  0.53846903  0.08638353  0.92951049  1
  O2-  O201  1  0.54798379  0.58025704  0.26373191  1
  O2-  O202  1  0.53587062  0.58272611  0.60203322  1
  O2-  O203  1  0.54305467  0.58330503  0.93770981  1
  O2-  O204  1  0.16447399  0.21260356  0.26529977  1
  O2-  O205  1  0.17330026  0.20866653  0.60246845  1
  O2-  O206  1  0.16556233  0.21227564  0.93252349  1
  O2-  O207  1  0.16598516  0.70621368  0.26613764  1
  O2-  O208  1  0.16939756  0.71136090  0.59799857  1
  O2-  O209  1  0.17027796  0.70363784  0.93410161  1
  O2-  O210  1  0.67171805  0.20626655  0.26453253  1
  O2-  O211  1  0.66647422  0.20844546  0.59886672  1
  O2-  O212  1  0.66872224  0.21121943  0.93310589  1
  O2-  O213  1  0.67351180  0.70766755  0.26890299  1
  O2-  O214  1  0.66448112  0.70748678  0.59931716  1
  O2-  O215  1  0.66631571  0.69985288  0.93932724  1
  O2-  O216  1  0.08904879  0.45269537  0.06483120  1
  O2-  O217  1  0.08907161  0.45709195  0.39788089  1
  O2-  O218  1  0.08544717  0.45320461  0.72972631  1
  O2-  O219  1  0.08362283  0.95470959  0.06898694  1
  O2-  O220  1  0.08203051  0.95040707  0.39799343  1
  O2-  O221  1  0.08630516  0.95742351  0.72643609  1
  O2-  O222  1  0.58070759  0.45125166  0.06392203  1
  O2-  O223  1  0.58125499  0.44947094  0.39258440  1
  O2-  O224  1  0.58285075  0.45834401  0.73697246  1
  O2-  O225  1  0.57771416  0.96086869  0.06624387  1
  O2-  O226  1  0.58720928  0.95767949  0.39893300  1
  O2-  O227  1  0.58541900  0.95593726  0.72723137  1
  O2-  O228  1  0.21169271  0.33724170  0.06376795  1
  O2-  O229  1  0.20888081  0.33789989  0.39789121  1
  O2-  O230  1  0.20996151  0.33889544  0.73410256  1
  O2-  O231  1  0.21443616  0.83217602  0.06629290  1
  O2-  O232  1  0.20509781  0.83253747  0.39856934  1
  O2-  O233  1  0.20953338  0.83949968  0.73059516  1
  O2-  O234  1  0.70089828  0.33434099  0.06609743  1
  O2-  O235  1  0.70620203  0.33464559  0.39631438  1
  O2-  O236  1  0.71209024  0.33172170  0.73393584  1
  O2-  O237  1  0.70098330  0.83047390  0.06940230  1
  O2-  O238  1  0.70862634  0.84050471  0.39908418  1
  O2-  O239  1  0.70392884  0.83573848  0.72689066  1
  O2-  O240  1  0.45251803  0.41880289  0.26305832  1
  O2-  O241  1  0.45229293  0.41719785  0.60795283  1
  O2-  O242  1  0.45109049  0.41944202  0.93493638  1
  O2-  O243  1  0.45716393  0.91843260  0.26667722  1
  O2-  O244  1  0.45271687  0.91635045  0.60424473  1
  O2-  O245  1  0.45715143  0.91723977  0.92826390  1
  O2-  O246  1  0.96058911  0.41395550  0.27018706  1
  O2-  O247  1  0.95508706  0.41940575  0.59853377  1
  O2-  O248  1  0.96210763  0.41097016  0.93584250  1
  O2-  O249  1  0.95206779  0.91710034  0.26987793  1
  O2-  O250  1  0.95935417  0.91679550  0.59355902  1
  O2-  O251  1  0.95644500  0.91719023  0.93382382  1
  O2-  O252  1  0.33003506  0.29265303  0.26505219  1
  O2-  O253  1  0.33470072  0.29897667  0.60697675  1
  O2-  O254  1  0.33466569  0.29890783  0.93258615  1
  O2-  O255  1  0.33137263  0.79183990  0.26689419  1
  O2-  O256  1  0.33422892  0.79756902  0.60326463  1
  O2-  O257  1  0.33616935  0.78577148  0.92821508  1
  O2-  O258  1  0.83423850  0.30241014  0.27017506  1
  O2-  O259  1  0.83249795  0.29105857  0.59564304  1
  O2-  O260  1  0.83199866  0.30527759  0.94313443  1
  O2-  O261  1  0.83273549  0.79953154  0.27174231  1
  O2-  O262  1  0.82850242  0.79740618  0.59577963  1
  O2-  O263  1  0.82725816  0.79222127  0.93538110  1
  O2-  O264  1  0.41416624  0.04498356  0.05967204  1
  O2-  O265  1  0.41614474  0.03889629  0.40268778  1
  O2-  O266  1  0.41321965  0.04104095  0.73167182  1
  O2-  O267  1  0.41278170  0.54269822  0.06511920  1
  O2-  O268  1  0.41467450  0.54384620  0.39347356  1
  O2-  O269  1  0.40921108  0.54251572  0.73317832  1
  O2-  O270  1  0.91899560  0.04089379  0.06906893  1
  O2-  O271  1  0.91317370  0.04220494  0.40003316  1
  O2-  O272  1  0.91507249  0.04256985  0.72247172  1
  O2-  O273  1  0.91659557  0.53458985  0.06697884  1
  O2-  O274  1  0.91630827  0.53635908  0.40509071  1
  O2-  O275  1  0.91712236  0.54810034  0.72751642  1
  O2-  O276  1  0.29919538  0.16910067  0.05830002  1
  O2-  O277  1  0.28809385  0.16676852  0.40171723  1
  O2-  O278  1  0.29946357  0.16543878  0.73139549  1
  O2-  O279  1  0.29489890  0.66275967  0.06325017  1
  O2-  O280  1  0.29238761  0.66264704  0.39656241  1
  O2-  O281  1  0.29374139  0.66546108  0.72830578  1
  O2-  O282  1  0.79712491  0.17157653  0.06765739  1
  O2-  O283  1  0.79778650  0.16691321  0.39553471  1
  O2-  O284  1  0.79446108  0.16133935  0.72527538  1
  O2-  O285  1  0.79192289  0.66444247  0.06875828  1
  O2-  O286  1  0.79498676  0.66984046  0.40412871  1
  O2-  O287  1  0.79411738  0.66730412  0.72730403  1
