# generated using pymatgen
data_Ca2Al2SiO7
_symmetry_space_group_name_H-M   'P 1'
_cell_length_a   15.45859275
_cell_length_b   15.45844031
_cell_length_c   15.28433821
_cell_angle_alpha   90.00119182
_cell_angle_beta   89.99627466
_cell_angle_gamma   89.99353816
_symmetry_Int_Tables_number   1
_chemical_formula_structural   Ca2Al2SiO7
_chemical_formula_sum   'Ca48 Al48 Si24 O168'
_cell_volume   3652.43305575
_cell_formula_units_Z   24
loop_
 _symmetry_equiv_pos_site_id
 _symmetry_equiv_pos_as_xyz
  1  'x, y, z'
loop_
 _atom_type_symbol
 _atom_type_oxidation_number
  Ca2+  2.0
  Al0+  0.0
  Si0+  0.0
  O2-  -2.0
loop_
 _atom_site_type_symbol
 _atom_site_label
 _atom_site_symmetry_multiplicity
 _atom_site_fract_x
 _atom_site_fract_y
 _atom_site_fract_z
 _atom_site_occupancy
  Ca2+  Ca0  1  0.17315055  0.08510206  0.17659329  1
  Ca2+  Ca1  1  0.17790666  0.08176967  0.50641680  1
  Ca2+  Ca2  1  0.17111711  0.07764587  0.82881337  1
  Ca2+  Ca3  1  0.17478822  0.58336964  0.16701232  1
  Ca2+  Ca4  1  0.16432223  0.57599168  0.51047663  1
  Ca2+  Ca5  1  0.17273333  0.57766885  0.83712110  1
  Ca2+  Ca6  1  0.66925983  0.07721412  0.17012566  1
  Ca2+  Ca7  1  0.67582084  0.07668188  0.51182363  1
  Ca2+  Ca8  1  0.66135582  0.07266709  0.83452290  1
  Ca2+  Ca9  1  0.65245577  0.57865747  0.16518810  1
  Ca2+  Ca10  1  0.66791419  0.58800007  0.50571275  1
  Ca2+  Ca11  1  0.66766631  0.58660392  0.83874288  1
  Ca2+  Ca12  1  0.08265030  0.32506004  0.16605717  1
  Ca2+  Ca13  1  0.07805878  0.33023032  0.49923464  1
  Ca2+  Ca14  1  0.07831105  0.33430960  0.82318315  1
  Ca2+  Ca15  1  0.06904133  0.84069776  0.16364643  1
  Ca2+  Ca16  1  0.07123413  0.84960882  0.50133813  1
  Ca2+  Ca17  1  0.07277695  0.83717908  0.82632198  1
  Ca2+  Ca18  1  0.58005374  0.32581411  0.15277607  1
  Ca2+  Ca19  1  0.58510485  0.32407746  0.50161991  1
  Ca2+  Ca20  1  0.58576769  0.32430057  0.83259506  1
  Ca2+  Ca21  1  0.58265685  0.82575796  0.16242955  1
  Ca2+  Ca22  1  0.58022031  0.82893365  0.50041750  1
  Ca2+  Ca23  1  0.58577897  0.82731121  0.82372375  1
  Ca2+  Ca24  1  0.34627212  0.42435292  0.16469041  1
  Ca2+  Ca25  1  0.32399169  0.41804256  0.50767874  1
  Ca2+  Ca26  1  0.33398058  0.41965149  0.83896831  1
  Ca2+  Ca27  1  0.33470394  0.92361624  0.17672197  1
  Ca2+  Ca28  1  0.33494938  0.92098571  0.50966360  1
  Ca2+  Ca29  1  0.33556217  0.91575911  0.83039616  1
  Ca2+  Ca30  1  0.82327193  0.41754424  0.16838205  1
  Ca2+  Ca31  1  0.83578749  0.42624458  0.51199075  1
  Ca2+  Ca32  1  0.82932467  0.42284060  0.83430960  1
  Ca2+  Ca33  1  0.82902844  0.91424447  0.16941955  1
  Ca2+  Ca34  1  0.83320077  0.92339539  0.50977899  1
  Ca2+  Ca35  1  0.82264513  0.91205637  0.83443319  1
  Ca2+  Ca36  1  0.42128558  0.17156461  0.15774161  1
  Ca2+  Ca37  1  0.42208445  0.15426232  0.50120355  1
  Ca2+  Ca38  1  0.42835268  0.16475526  0.82829154  1
  Ca2+  Ca39  1  0.42304215  0.67132374  0.16017645  1
  Ca2+  Ca40  1  0.42520541  0.67944817  0.49477633  1
  Ca2+  Ca41  1  0.42793253  0.66773758  0.82614781  1
  Ca2+  Ca42  1  0.92332764  0.15619934  0.16722484  1
  Ca2+  Ca43  1  0.91815913  0.16437603  0.49657010  1
  Ca2+  Ca44  1  0.91250442  0.17390514  0.82319496  1
  Ca2+  Ca45  1  0.91545027  0.68000095  0.16315380  1
  Ca2+  Ca46  1  0.91137747  0.68001558  0.50100499  1
  Ca2+  Ca47  1  0.91051468  0.67699383  0.82600422  1
  Al0+  Al48  1  0.00017868  0.00016506  -0.00563971  1
  Al0+  Al49  1  -0.00001634  0.00206592  0.32749031  1
  Al0+  Al50  1  0.00280820  0.00327846  0.67067912  1
  Al0+  Al51  1  0.00143157  0.50012483  0.00452528  1
  Al0+  Al52  1  -0.00151010  0.50009961  0.33079889  1
  Al0+  Al53  1  -0.00144226  0.50009580  0.67250513  1
  Al0+  Al54  1  0.49994882  -0.00073117  0.00378280  1
  Al0+  Al55  1  0.50128321  -0.00079132  0.33287935  1
  Al0+  Al56  1  0.50161371  0.00013255  0.66650259  1
  Al0+  Al57  1  0.49971632  0.50044840  -0.00035410  1
  Al0+  Al58  1  0.49904308  0.49888373  0.33539376  1
  Al0+  Al59  1  0.50004582  0.49714695  0.66070516  1
  Al0+  Al60  1  0.24820292  0.24988913  -0.00336209  1
  Al0+  Al61  1  0.24925236  0.25009680  0.33343003  1
  Al0+  Al62  1  0.24977069  0.25047117  0.67604099  1
  Al0+  Al63  1  0.24734008  0.74940421  0.00663485  1
  Al0+  Al64  1  0.24905524  0.74991352  0.33144161  1
  Al0+  Al65  1  0.24983509  0.74893800  0.66774625  1
  Al0+  Al66  1  0.75254963  0.25010417  0.00222351  1
  Al0+  Al67  1  0.74960013  0.25121757  0.33683613  1
  Al0+  Al68  1  0.75040814  0.25248551  0.65938160  1
  Al0+  Al69  1  0.75017218  0.75216034  -0.00140593  1
  Al0+  Al70  1  0.74942099  0.74676773  0.32427063  1
  Al0+  Al71  1  0.75198017  0.74974229  0.66491747  1
  Al0+  Al72  1  0.32207753  0.07154334  0.34597213  1
  Al0+  Al73  1  0.82254092  0.07451129  0.68120164  1
  Al0+  Al74  1  0.67813642  0.92844868  0.01555835  1
  Al0+  Al75  1  0.57322940  0.17678962  0.98580360  1
  Al0+  Al76  1  0.57085098  0.17906511  0.65190591  1
  Al0+  Al77  1  0.68088502  0.42951427  0.01239699  1
  Al0+  Al78  1  0.93011545  0.82025117  0.98333980  1
  Al0+  Al79  1  0.81876275  0.57111631  0.67970670  1
  Al0+  Al80  1  0.17914231  0.92681829  0.68193937  1
  Al0+  Al81  1  0.57274274  0.67680583  0.65132220  1
  Al0+  Al82  1  0.42748192  0.82079549  0.65305129  1
  Al0+  Al83  1  0.56946896  0.67752369  0.31542866  1
  Al0+  Al84  1  0.68127857  0.92917529  0.68001939  1
  Al0+  Al85  1  0.92930598  0.32237720  0.65360244  1
  Al0+  Al86  1  0.42762183  0.82306779  0.31685600  1
  Al0+  Al87  1  0.32054228  0.56984551  0.01359349  1
  Al0+  Al88  1  0.56834557  0.68091694  0.98546747  1
  Al0+  Al89  1  0.32349728  0.07055574  0.68414733  1
  Al0+  Al90  1  0.93078030  0.82103918  0.31988516  1
  Al0+  Al91  1  0.06983298  0.18199685  0.32099593  1
  Al0+  Al92  1  0.42886877  0.32133708  0.98456424  1
  Al0+  Al93  1  0.17867262  0.42996450  0.68048537  1
  Al0+  Al94  1  0.93120393  0.82269599  0.65378312  1
  Al0+  Al95  1  0.82116492  0.06994137  0.34672624  1
  Si0+  Si96  1  0.17649145  0.42604335  0.02012498  1
  Si0+  Si97  1  0.07162920  0.67749540  0.65264764  1
  Si0+  Si98  1  0.17821205  0.42997409  0.34734068  1
  Si0+  Si99  1  0.67597650  0.42750115  0.68200872  1
  Si0+  Si100  1  0.82136787  0.57003799  0.34734182  1
  Si0+  Si101  1  0.93012788  0.32242752  0.98650227  1
  Si0+  Si102  1  0.07352126  0.17985591  0.65022095  1
  Si0+  Si103  1  0.92634502  0.32461419  0.31506404  1
  Si0+  Si104  1  0.07285434  0.67673611  0.98367437  1
  Si0+  Si105  1  0.67960649  0.92520479  0.34948398  1
  Si0+  Si106  1  0.57312743  0.17950364  0.31891490  1
  Si0+  Si107  1  0.42559296  0.32057082  0.64892881  1
  Si0+  Si108  1  0.31932384  0.07078109  0.01585437  1
  Si0+  Si109  1  0.67734333  0.42907248  0.35010249  1
  Si0+  Si110  1  0.82309072  0.57324476  0.01870867  1
  Si0+  Si111  1  0.32363820  0.57107198  0.68155036  1
  Si0+  Si112  1  0.32083972  0.57121331  0.34969660  1
  Si0+  Si113  1  0.42882076  0.31925465  0.32013689  1
  Si0+  Si114  1  0.82328487  0.07204545  0.01642323  1
  Si0+  Si115  1  0.17670721  0.93028243  0.01674485  1
  Si0+  Si116  1  0.17770031  0.92817049  0.34772004  1
  Si0+  Si117  1  0.07224413  0.67329168  0.31604359  1
  Si0+  Si118  1  0.07103606  0.17908073  0.98259718  1
  Si0+  Si119  1  0.42404086  0.82287402  0.98489918  1
  O2-  O120  1  0.25027584  -0.00169652  0.05950713  1
  O2-  O121  1  0.25209379  -0.00884053  0.39040352  1
  O2-  O122  1  0.25407675  -0.00481870  0.73325364  1
  O2-  O123  1  0.24773223  0.49277257  0.06307582  1
  O2-  O124  1  0.24509427  0.50430265  0.39069816  1
  O2-  O125  1  0.25507271  0.50264151  0.72645472  1
  O2-  O126  1  0.75240738  0.00543810  0.06017064  1
  O2-  O127  1  0.74832567  -0.00589054  0.39320189  1
  O2-  O128  1  0.75233440  0.00184128  0.73190229  1
  O2-  O129  1  0.75335446  0.50527993  0.06290398  1
  O2-  O130  1  0.74968375  0.49971297  0.38997306  1
  O2-  O131  1  0.74000579  0.50043820  0.72577335  1
  O2-  O132  1  -0.00776815  0.25299526  0.27128131  1
  O2-  O133  1  0.00158075  0.24560264  0.60654303  1
  O2-  O134  1  0.00108909  0.25215276  0.94338908  1
  O2-  O135  1  0.00720210  0.74651435  0.27381116  1
  O2-  O136  1  0.00918457  0.75083223  0.60658891  1
  O2-  O137  1  0.00305027  0.74273604  0.93877908  1
  O2-  O138  1  0.49942741  0.24819103  0.27762050  1
  O2-  O139  1  0.49286863  0.25102123  0.60405322  1
  O2-  O140  1  0.50029838  0.24845607  0.93615632  1
  O2-  O141  1  0.49841347  0.75064208  0.26582353  1
  O2-  O142  1  0.49959428  0.74861984  0.60333372  1
  O2-  O143  1  0.49362634  0.75588846  0.94041529  1
  O2-  O144  1  0.07181454  0.17857101  0.08816790  1
  O2-  O145  1  0.07150108  0.18582398  0.43327705  1
  O2-  O146  1  0.07393672  0.18249429  0.75620068  1
  O2-  O147  1  0.07266067  0.67745027  0.08965154  1
  O2-  O148  1  0.07012570  0.66464742  0.42088576  1
  O2-  O149  1  0.06940682  0.67561823  0.75816229  1
  O2-  O150  1  0.57108638  0.17836998  0.10049176  1
  O2-  O151  1  0.57396524  0.18170179  0.42377682  1
  O2-  O152  1  0.57136595  0.18144688  0.76468726  1
  O2-  O153  1  0.56516066  0.68077926  0.09856367  1
  O2-  O154  1  0.56897975  0.67610064  0.42851954  1
  O2-  O155  1  0.57093098  0.67542601  0.76495505  1
  O2-  O156  1  0.17884448  0.42975134  0.24234287  1
  O2-  O157  1  0.17894714  0.43112609  0.56645355  1
  O2-  O158  1  0.17228941  0.42783950  0.91504898  1
  O2-  O159  1  0.17640727  0.93198772  0.24149517  1
  O2-  O160  1  0.17691590  0.93184670  0.56813701  1
  O2-  O161  1  0.17557824  0.93130741  0.91223332  1
  O2-  O162  1  0.67696886  0.42739604  0.24487864  1
  O2-  O163  1  0.67832150  0.42723376  0.57580104  1
  O2-  O164  1  0.68463166  0.42867691  0.89988548  1
  O2-  O165  1  0.68047015  0.92762922  0.24346699  1
  O2-  O166  1  0.68301085  0.92923185  0.56600397  1
  O2-  O167  1  0.67860426  0.92665323  0.90312630  1
  O2-  O168  1  0.42998963  0.31853011  0.09935801  1
  O2-  O169  1  0.42854508  0.32135454  0.42498342  1
  O2-  O170  1  0.42700698  0.32285500  0.75406003  1
  O2-  O171  1  0.42325998  0.82188837  0.09066912  1
  O2-  O172  1  0.42684939  0.82140366  0.42983044  1
  O2-  O173  1  0.42739606  0.81690594  0.76698413  1
  O2-  O174  1  0.93153128  0.32230781  0.09190442  1
  O2-  O175  1  0.92924335  0.32950488  0.42006908  1
  O2-  O176  1  0.93180068  0.32327372  0.76720690  1
  O2-  O177  1  0.93294237  0.82102879  0.09712326  1
  O2-  O178  1  0.93136390  0.82106486  0.43271643  1
  O2-  O179  1  0.93087881  0.81895670  0.76656113  1
  O2-  O180  1  0.31831706  0.07488693  0.23224936  1
  O2-  O181  1  0.32003067  0.07181645  0.57017184  1
  O2-  O182  1  0.31815574  0.07068926  0.91137625  1
  O2-  O183  1  0.32176418  0.56784043  0.24456999  1
  O2-  O184  1  0.32087002  0.56859063  0.57550648  1
  O2-  O185  1  0.31665251  0.56890871  0.90086053  1
  O2-  O186  1  0.81957697  0.06991834  0.23325088  1
  O2-  O187  1  0.82154044  0.07176567  0.56712615  1
  O2-  O188  1  0.82578766  0.07347625  0.91156015  1
  O2-  O189  1  0.82450867  0.56708484  0.24234909  1
  O2-  O190  1  0.82077229  0.56985366  0.56596082  1
  O2-  O191  1  0.82515721  0.57074368  0.91338520  1
  O2-  O192  1  0.04127919  0.08683683  0.26210891  1
  O2-  O193  1  0.05176156  0.08579193  0.60456774  1
  O2-  O194  1  0.04261096  0.08858765  0.93430854  1
  O2-  O195  1  0.04269672  0.58255448  0.26474157  1
  O2-  O196  1  0.03996274  0.58592835  0.60563615  1
  O2-  O197  1  0.05051787  0.58086534  0.94061873  1
  O2-  O198  1  0.54895066  0.08662268  0.27268551  1
  O2-  O199  1  0.54186154  0.08295076  0.59650606  1
  O2-  O200  1  0.54210835  0.07844158  0.93503978  1
  O2-  O201  1  0.53702829  0.57793430  0.26539302  1
  O2-  O202  1  0.54624409  0.57758201  0.59749397  1
  O2-  O203  1  0.53878965  0.58406969  0.93266260  1
  O2-  O204  1  0.16457374  0.21707314  0.26383389  1
  O2-  O205  1  0.16647579  0.21041976  0.60566187  1
  O2-  O206  1  0.16211909  0.20594775  0.93422236  1
  O2-  O207  1  0.16724534  0.69530054  0.27130370  1
  O2-  O208  1  0.16730089  0.69436632  0.60748775  1
  O2-  O209  1  0.16630443  0.70357562  0.93868890  1
  O2-  O210  1  0.66365571  0.21112699  0.27087114  1
  O2-  O211  1  0.66448626  0.21417166  0.59414482  1
  O2-  O212  1  0.67250233  0.20615174  0.93622625  1
  O2-  O213  1  0.66840755  0.70036926  0.26080614  1
  O2-  O214  1  0.67030251  0.70673644  0.59792635  1
  O2-  O215  1  0.66670575  0.70904378  0.93505514  1
  O2-  O216  1  0.08449815  0.45405735  0.06987909  1
  O2-  O217  1  0.08440831  0.45479547  0.39289814  1
  O2-  O218  1  0.08471491  0.46298311  0.73766547  1
  O2-  O219  1  0.08614093  0.96387384  0.06413160  1
  O2-  O220  1  0.08645898  0.96168302  0.39299048  1
  O2-  O221  1  0.08412897  0.96150306  0.73852894  1
  O2-  O222  1  0.58393278  0.45885973  0.06726276  1
  O2-  O223  1  0.58600588  0.45652050  0.39866992  1
  O2-  O224  1  0.57980617  0.44579181  0.72517532  1
  O2-  O225  1  0.58136111  0.95732754  0.07175536  1
  O2-  O226  1  0.58581872  0.95119273  0.39401290  1
  O2-  O227  1  0.58317418  0.95658315  0.73286889  1
  O2-  O228  1  0.19974758  0.33065326  0.06403458  1
  O2-  O229  1  0.21007318  0.34035913  0.39587398  1
  O2-  O230  1  0.20640442  0.33503637  0.73807438  1
  O2-  O231  1  0.19774244  0.83707193  0.06472944  1
  O2-  O232  1  0.19299011  0.83109741  0.39052533  1
  O2-  O233  1  0.20101765  0.82639885  0.73474339  1
  O2-  O234  1  0.71425790  0.33425231  0.07016260  1
  O2-  O235  1  0.70443423  0.33762576  0.39851404  1
  O2-  O236  1  0.70766198  0.33618487  0.72757514  1
  O2-  O237  1  0.71360488  0.83339215  0.07067363  1
  O2-  O238  1  0.70483442  0.82969101  0.39066374  1
  O2-  O239  1  0.71155673  0.83150959  0.73276576  1
  O2-  O240  1  0.45847572  0.41070231  0.27281164  1
  O2-  O241  1  0.45109262  0.41279136  0.59896213  1
  O2-  O242  1  0.45665762  0.41919054  0.93253582  1
  O2-  O243  1  0.45646642  0.92183720  0.26352734  1
  O2-  O244  1  0.45544751  0.91924527  0.60116373  1
  O2-  O245  1  0.44765217  0.91768314  0.94206110  1
  O2-  O246  1  0.95530926  0.41594872  0.26541726  1
  O2-  O247  1  0.96492708  0.41799588  0.59957926  1
  O2-  O248  1  0.95783043  0.41524445  0.94092860  1
  O2-  O249  1  0.96222292  0.91595892  0.26252271  1
  O2-  O250  1  0.96217637  0.92074868  0.60188581  1
  O2-  O251  1  0.96372745  0.91578670  0.92993448  1
  O2-  O252  1  0.33736271  0.29331294  0.27146925  1
  O2-  O253  1  0.33021140  0.29639796  0.60563707  1
  O2-  O254  1  0.32833281  0.29671343  0.93437673  1
  O2-  O255  1  0.32706535  0.79687857  0.26511366  1
  O2-  O256  1  0.32818640  0.79363322  0.59971191  1
  O2-  O257  1  0.32895772  0.79719449  0.94218305  1
  O2-  O258  1  0.83096817  0.30092860  0.27176659  1
  O2-  O259  1  0.83367439  0.29788629  0.59544796  1
  O2-  O260  1  0.83897337  0.29514698  0.93899593  1
  O2-  O261  1  0.83645415  0.78729967  0.26306773  1
  O2-  O262  1  0.83742677  0.78802606  0.59769496  1
  O2-  O263  1  0.83374787  0.78966040  0.93092616  1
  O2-  O264  1  0.41137015  0.04613518  0.06446890  1
  O2-  O265  1  0.42061101  0.04518799  0.39798689  1
  O2-  O266  1  0.42215114  0.04446783  0.73613195  1
  O2-  O267  1  0.41573301  0.53810889  0.07014877  1
  O2-  O268  1  0.40981353  0.53727630  0.39844838  1
  O2-  O269  1  0.41712256  0.54257332  0.72601671  1
  O2-  O270  1  0.91680543  0.04155608  0.06205691  1
  O2-  O271  1  0.91993800  0.04200876  0.39749358  1
  O2-  O272  1  0.92264107  0.05334772  0.73247420  1
  O2-  O273  1  0.91647575  0.54613338  0.06620911  1
  O2-  O274  1  0.91296533  0.54139250  0.39535657  1
  O2-  O275  1  0.91229003  0.53668215  0.73716727  1
  O2-  O276  1  0.28826131  0.16291045  0.06205373  1
  O2-  O277  1  0.28674839  0.16671129  0.40017511  1
  O2-  O278  1  0.29190968  0.16706357  0.73916894  1
  O2-  O279  1  0.28702660  0.66472645  0.07178399  1
  O2-  O280  1  0.29662070  0.66473981  0.39493459  1
  O2-  O281  1  0.29944655  0.66384621  0.72850303  1
  O2-  O282  1  0.80285913  0.16627837  0.06423132  1
  O2-  O283  1  0.79302102  0.16847446  0.39900485  1
  O2-  O284  1  0.79420719  0.17497491  0.72944040  1
  O2-  O285  1  0.79806406  0.66716755  0.06302616  1
  O2-  O286  1  0.79351445  0.66278024  0.39232458  1
  O2-  O287  1  0.79124150  0.66723759  0.73462478  1
