# generated using pymatgen
data_Ca2Al2SiO7
_symmetry_space_group_name_H-M   'P 1'
_cell_length_a   15.45845803
_cell_length_b   15.45971449
_cell_length_c   15.28364554
_cell_angle_alpha   90.00061522
_cell_angle_beta   90.01309015
_cell_angle_gamma   89.99686955
_symmetry_Int_Tables_number   1
_chemical_formula_structural   Ca2Al2SiO7
_chemical_formula_sum   'Ca48 Al48 Si24 O168'
_cell_volume   3652.53667455
_cell_formula_units_Z   24
loop_
 _symmetry_equiv_pos_site_id
 _symmetry_equiv_pos_as_xyz
  1  'x, y, z'
loop_
 _atom_type_symbol
 _atom_type_oxidation_number
  Ca2+  2.0
  Al0+  0.0
  Si0+  0.0
  O2-  -2.0
loop_
 _atom_site_type_symbol
 _atom_site_label
 _atom_site_symmetry_multiplicity
 _atom_site_fract_x
 _atom_site_fract_y
 _atom_site_fract_z
 _atom_site_occupancy
  Ca2+  Ca0  1  0.16728364  0.06752929  0.17298194  1
  Ca2+  Ca1  1  0.16321973  0.07025878  0.50844153  1
  Ca2+  Ca2  1  0.16243657  0.07167932  0.83509010  1
  Ca2+  Ca3  1  0.16892228  0.58508723  0.17771155  1
  Ca2+  Ca4  1  0.17647196  0.58571013  0.50296526  1
  Ca2+  Ca5  1  0.17051989  0.59296397  0.83274638  1
  Ca2+  Ca6  1  0.67000968  0.07924140  0.17403370  1
  Ca2+  Ca7  1  0.67265840  0.09240456  0.50272721  1
  Ca2+  Ca8  1  0.66988710  0.08245820  0.83654803  1
  Ca2+  Ca9  1  0.66391803  0.57125645  0.17155352  1
  Ca2+  Ca10  1  0.66544158  0.57917858  0.50902975  1
  Ca2+  Ca11  1  0.66908116  0.58385536  0.83558381  1
  Ca2+  Ca12  1  0.08507040  0.33384465  0.16503218  1
  Ca2+  Ca13  1  0.08507735  0.32896495  0.49545258  1
  Ca2+  Ca14  1  0.08105594  0.32362039  0.82373481  1
  Ca2+  Ca15  1  0.08580612  0.82517922  0.16043383  1
  Ca2+  Ca16  1  0.09103635  0.82470554  0.49616011  1
  Ca2+  Ca17  1  0.08347282  0.82894351  0.83184365  1
  Ca2+  Ca18  1  0.58608224  0.33321840  0.16831917  1
  Ca2+  Ca19  1  0.57597176  0.32925568  0.49387975  1
  Ca2+  Ca20  1  0.58037040  0.33084189  0.82422898  1
  Ca2+  Ca21  1  0.57074986  0.83929349  0.16035255  1
  Ca2+  Ca22  1  0.57793677  0.82397446  0.49359849  1
  Ca2+  Ca23  1  0.57855292  0.83453278  0.82893629  1
  Ca2+  Ca24  1  0.32723959  0.42552083  0.18049294  1
  Ca2+  Ca25  1  0.33829486  0.42298389  0.50254899  1
  Ca2+  Ca26  1  0.34021071  0.42351903  0.83179058  1
  Ca2+  Ca27  1  0.32604922  0.90656663  0.17187869  1
  Ca2+  Ca28  1  0.32336556  0.90890305  0.50145935  1
  Ca2+  Ca29  1  0.32257043  0.91032117  0.83786110  1
  Ca2+  Ca30  1  0.82225218  0.41572776  0.17227600  1
  Ca2+  Ca31  1  0.82605823  0.42224032  0.50354526  1
  Ca2+  Ca32  1  0.82866974  0.42506055  0.83611630  1
  Ca2+  Ca33  1  0.83150251  0.91762602  0.16853016  1
  Ca2+  Ca34  1  0.83382930  0.92856622  0.50578215  1
  Ca2+  Ca35  1  0.82954831  0.91925702  0.83844531  1
  Ca2+  Ca36  1  0.41877486  0.17245272  0.16759698  1
  Ca2+  Ca37  1  0.42596908  0.17669058  0.49257696  1
  Ca2+  Ca38  1  0.42450675  0.17529104  0.82032437  1
  Ca2+  Ca39  1  0.41003341  0.67566301  0.16743899  1
  Ca2+  Ca40  1  0.41377017  0.66586952  0.49723162  1
  Ca2+  Ca41  1  0.42147517  0.67100859  0.82753219  1
  Ca2+  Ca42  1  0.91390828  0.16449717  0.16889701  1
  Ca2+  Ca43  1  0.91817771  0.15896174  0.49827121  1
  Ca2+  Ca44  1  0.91950915  0.16538084  0.82496544  1
  Ca2+  Ca45  1  0.93117053  0.67062077  0.15833168  1
  Ca2+  Ca46  1  0.92845107  0.65994186  0.49708235  1
  Ca2+  Ca47  1  0.92553268  0.67012813  0.82533946  1
  Al0+  Al48  1  0.00151768  -0.00084511  0.00224322  1
  Al0+  Al49  1  -0.00100610  -0.00105750  0.33992059  1
  Al0+  Al50  1  -0.00214021  -0.00008450  0.67285942  1
  Al0+  Al51  1  0.00146568  0.49811951  -0.00542106  1
  Al0+  Al52  1  0.00021864  0.49773303  0.33075568  1
  Al0+  Al53  1  -0.00030008  0.50010044  0.66727512  1
  Al0+  Al54  1  0.50055635  0.00264737  -0.00217290  1
  Al0+  Al55  1  0.50010106  -0.00050776  0.32582831  1
  Al0+  Al56  1  0.49800230  0.00116643  0.66062053  1
  Al0+  Al57  1  0.49958274  0.50014202  0.00540922  1
  Al0+  Al58  1  0.49978388  0.49926548  0.33698835  1
  Al0+  Al59  1  0.49832432  0.50203834  0.66571927  1
  Al0+  Al60  1  0.25181791  0.25116996  -0.00144026  1
  Al0+  Al61  1  0.25001461  0.24811038  0.33029360  1
  Al0+  Al62  1  0.24830213  0.24917353  0.65836025  1
  Al0+  Al63  1  0.25200227  0.75037926  -0.00404575  1
  Al0+  Al64  1  0.24978625  0.74846422  0.33362121  1
  Al0+  Al65  1  0.24822100  0.74859798  0.67296306  1
  Al0+  Al66  1  0.75078055  0.25153277  0.00272798  1
  Al0+  Al67  1  0.75111698  0.25021145  0.33756641  1
  Al0+  Al68  1  0.75029968  0.25065008  0.66934347  1
  Al0+  Al69  1  0.75133297  0.75075643  0.00384703  1
  Al0+  Al70  1  0.75118015  0.75050982  0.33223400  1
  Al0+  Al71  1  0.74961064  0.75072524  0.66605166  1
  Al0+  Al72  1  0.67986015  0.43056897  0.34921030  1
  Al0+  Al73  1  0.07159081  0.67790976  0.98257574  1
  Al0+  Al74  1  0.81853913  0.06858969  0.34733745  1
  Al0+  Al75  1  0.06899071  0.67946049  0.32069370  1
  Al0+  Al76  1  0.43095923  0.82228833  0.98483217  1
  Al0+  Al77  1  0.17619790  0.42561308  0.34791675  1
  Al0+  Al78  1  0.18015086  0.92930000  0.68271160  1
  Al0+  Al79  1  0.92740876  0.82267093  0.98468273  1
  Al0+  Al80  1  0.43022844  0.81860925  0.32078578  1
  Al0+  Al81  1  0.67737999  0.92848587  0.01307886  1
  Al0+  Al82  1  0.82259477  0.57272576  0.68009313  1
  Al0+  Al83  1  0.32032993  0.56926541  0.68339098  1
  Al0+  Al84  1  0.18147925  0.92962748  0.01528603  1
  Al0+  Al85  1  0.31923107  0.57045442  0.34881389  1
  Al0+  Al86  1  0.57192475  0.68139490  0.65517742  1
  Al0+  Al87  1  0.81835531  0.07133520  0.68229346  1
  Al0+  Al88  1  0.06827753  0.17698706  0.65290873  1
  Al0+  Al89  1  0.42811715  0.32250127  0.31528600  1
  Al0+  Al90  1  0.18075587  0.92941392  0.34734931  1
  Al0+  Al91  1  0.07035734  0.67986234  0.65102855  1
  Al0+  Al92  1  0.42822793  0.32273089  0.65106292  1
  Al0+  Al93  1  0.57362029  0.18074893  0.31542056  1
  Al0+  Al94  1  0.67997395  0.43047056  0.01373121  1
  Al0+  Al95  1  0.57295953  0.17787163  0.65157627  1
  Si0+  Si96  1  0.92757671  0.82474198  0.31777046  1
  Si0+  Si97  1  0.31948550  0.56964482  0.01503578  1
  Si0+  Si98  1  0.57262202  0.18121998  0.98460583  1
  Si0+  Si99  1  0.32399854  0.07207054  0.34918783  1
  Si0+  Si100  1  0.42610770  0.82158083  0.65090275  1
  Si0+  Si101  1  0.32228531  0.07376113  0.68126971  1
  Si0+  Si102  1  0.82551091  0.57172846  0.01691434  1
  Si0+  Si103  1  0.82193908  0.07199706  0.01729919  1
  Si0+  Si104  1  0.17735316  0.42558316  0.68351749  1
  Si0+  Si105  1  0.07083553  0.17530316  0.31789973  1
  Si0+  Si106  1  0.92768825  0.31966205  0.98456862  1
  Si0+  Si107  1  0.42931683  0.32243761  0.98494518  1
  Si0+  Si108  1  0.92685613  0.82245081  0.64949001  1
  Si0+  Si109  1  0.32263939  0.07548925  0.01611226  1
  Si0+  Si110  1  0.92807646  0.32268665  0.64973868  1
  Si0+  Si111  1  0.57560050  0.67677213  0.31642078  1
  Si0+  Si112  1  0.17881674  0.42605049  0.01263799  1
  Si0+  Si113  1  0.82290837  0.57307206  0.34778884  1
  Si0+  Si114  1  0.67827275  0.43070124  0.68355269  1
  Si0+  Si115  1  0.07189371  0.17977325  0.98710782  1
  Si0+  Si116  1  0.57150618  0.67593177  0.98658045  1
  Si0+  Si117  1  0.93015408  0.31954550  0.31815680  1
  Si0+  Si118  1  0.67499092  0.92761733  0.68085837  1
  Si0+  Si119  1  0.67469568  0.92632511  0.34981488  1
  O2-  O120  1  0.25718181  0.00408469  0.06118785  1
  O2-  O121  1  0.25499171  0.00439327  0.39436018  1
  O2-  O122  1  0.25548801  0.00475160  0.72839384  1
  O2-  O123  1  0.24475876  0.50129903  0.05460008  1
  O2-  O124  1  0.25011025  0.49484048  0.39808129  1
  O2-  O125  1  0.24625865  0.49305824  0.73006126  1
  O2-  O126  1  0.75458187  0.00136868  0.05977269  1
  O2-  O127  1  0.74315665  -0.00521010  0.39424556  1
  O2-  O128  1  0.74057219  -0.00103068  0.72656679  1
  O2-  O129  1  0.75390558  0.50594763  0.06119194  1
  O2-  O130  1  0.74912217  0.51119478  0.39372799  1
  O2-  O131  1  0.74640485  0.49990033  0.72803630  1
  O2-  O132  1  0.00368072  0.25041614  0.27533564  1
  O2-  O133  1  -0.00495886  0.25263730  0.60509272  1
  O2-  O134  1  -0.00037726  0.24909743  0.94379511  1
  O2-  O135  1  -0.00693952  0.75286940  0.27415259  1
  O2-  O136  1  -0.00590650  0.75291054  0.60436840  1
  O2-  O137  1  -0.00291966  0.74863076  0.93417065  1
  O2-  O138  1  0.50086581  0.25154997  0.26364639  1
  O2-  O139  1  0.49983704  0.24924096  0.60347773  1
  O2-  O140  1  0.50087807  0.25192059  0.94299279  1
  O2-  O141  1  0.50839970  0.74725954  0.27291850  1
  O2-  O142  1  0.49846778  0.75657560  0.60774233  1
  O2-  O143  1  0.50962018  0.75016851  0.94096418  1
  O2-  O144  1  0.07194360  0.18188678  0.09233199  1
  O2-  O145  1  0.06750020  0.17309433  0.42261835  1
  O2-  O146  1  0.06651468  0.17876843  0.76699720  1
  O2-  O147  1  0.07195258  0.67686949  0.09645077  1
  O2-  O148  1  0.06896144  0.68026978  0.43363771  1
  O2-  O149  1  0.06985379  0.68188766  0.76398699  1
  O2-  O150  1  0.57407105  0.18216443  0.08924126  1
  O2-  O151  1  0.57369087  0.18339675  0.42852403  1
  O2-  O152  1  0.57231820  0.17968491  0.76631547  1
  O2-  O153  1  0.56617263  0.67202107  0.09190959  1
  O2-  O154  1  0.57822400  0.67903923  0.42204907  1
  O2-  O155  1  0.57131786  0.68242263  0.76883297  1
  O2-  O156  1  0.17516261  0.42898332  0.23321865  1
  O2-  O157  1  0.17616999  0.42674031  0.57848979  1
  O2-  O158  1  0.18143083  0.41968853  0.90798103  1
  O2-  O159  1  0.18034335  0.92998976  0.23398592  1
  O2-  O160  1  0.18175693  0.92859945  0.56956686  1
  O2-  O161  1  0.18097732  0.93219516  0.90228564  1
  O2-  O162  1  0.68353900  0.43003706  0.23549699  1
  O2-  O163  1  0.68005963  0.43106853  0.57819012  1
  O2-  O164  1  0.68102532  0.42982337  0.90072622  1
  O2-  O165  1  0.67640471  0.92688959  0.24401091  1
  O2-  O166  1  0.67741785  0.92553289  0.57553910  1
  O2-  O167  1  0.67561585  0.93378960  0.89991909  1
  O2-  O168  1  0.42701629  0.32184550  0.08931321  1
  O2-  O169  1  0.42962865  0.32099773  0.42830511  1
  O2-  O170  1  0.43154760  0.32201475  0.76614305  1
  O2-  O171  1  0.42883900  0.81879129  0.09784077  1
  O2-  O172  1  0.43088996  0.81666789  0.43389892  1
  O2-  O173  1  0.42772799  0.82080363  0.75688602  1
  O2-  O174  1  0.92696869  0.31956507  0.08976553  1
  O2-  O175  1  0.92975884  0.31951954  0.42289615  1
  O2-  O176  1  0.92943376  0.32173191  0.75608265  1
  O2-  O177  1  0.93020603  0.82223383  0.09858108  1
  O2-  O178  1  0.92774862  0.82634666  0.42317181  1
  O2-  O179  1  0.92677264  0.82160065  0.75517096  1
  O2-  O180  1  0.32081938  0.07184934  0.24303816  1
  O2-  O181  1  0.32082228  0.07197021  0.57599803  1
  O2-  O182  1  0.31904951  0.07999945  0.91066399  1
  O2-  O183  1  0.31566742  0.57248107  0.23433054  1
  O2-  O184  1  0.31959266  0.57111872  0.57115302  1
  O2-  O185  1  0.32299058  0.56713179  0.90992122  1
  O2-  O186  1  0.82004639  0.06712817  0.23381680  1
  O2-  O187  1  0.81967188  0.06947800  0.56946651  1
  O2-  O188  1  0.82035587  0.07563534  0.91187651  1
  O2-  O189  1  0.82361686  0.56937514  0.24197547  1
  O2-  O190  1  0.82208902  0.56866684  0.56702905  1
  O2-  O191  1  0.82555921  0.56856426  0.91131047  1
  O2-  O192  1  0.03624585  0.08559235  0.26967027  1
  O2-  O193  1  0.03423586  0.08088797  0.60033660  1
  O2-  O194  1  0.04495066  0.08783452  0.94051889  1
  O2-  O195  1  0.03934821  0.58232848  0.26575627  1
  O2-  O196  1  0.04042990  0.58179464  0.59985445  1
  O2-  O197  1  0.04718817  0.57758893  0.93010127  1
  O2-  O198  1  0.54689322  0.08141207  0.26277367  1
  O2-  O199  1  0.54745412  0.07945001  0.59709126  1
  O2-  O200  1  0.54564742  0.09019660  0.93596285  1
  O2-  O201  1  0.54841389  0.58321484  0.27227825  1
  O2-  O202  1  0.54067489  0.58570319  0.60135556  1
  O2-  O203  1  0.53940810  0.58469450  0.93822498  1
  O2-  O204  1  0.16324493  0.19735032  0.26917740  1
  O2-  O205  1  0.16435417  0.20346771  0.59698897  1
  O2-  O206  1  0.16268136  0.20962882  0.93860119  1
  O2-  O207  1  0.16427428  0.71248818  0.26625642  1
  O2-  O208  1  0.16754101  0.71309723  0.60034750  1
  O2-  O209  1  0.16930451  0.70909530  0.93070077  1
  O2-  O210  1  0.67261705  0.21164242  0.26391741  1
  O2-  O211  1  0.67181816  0.20782238  0.60127726  1
  O2-  O212  1  0.66473833  0.21048274  0.93796928  1
  O2-  O213  1  0.67018363  0.69871715  0.26954085  1
  O2-  O214  1  0.66810108  0.70901922  0.59838628  1
  O2-  O215  1  0.66876532  0.69378846  0.94603281  1
  O2-  O216  1  0.08410795  0.44774942  0.05740501  1
  O2-  O217  1  0.07686311  0.45190001  0.39955354  1
  O2-  O218  1  0.08357556  0.45055429  0.73009315  1
  O2-  O219  1  0.08527396  0.96198283  0.06977662  1
  O2-  O220  1  0.08508069  0.96031713  0.40220897  1
  O2-  O221  1  0.08427782  0.96195511  0.73686229  1
  O2-  O222  1  0.58365229  0.46009260  0.06955125  1
  O2-  O223  1  0.58269732  0.45636904  0.40257126  1
  O2-  O224  1  0.58497314  0.45676616  0.72937838  1
  O2-  O225  1  0.58169308  0.96321855  0.06735376  1
  O2-  O226  1  0.58034790  0.95046922  0.39397029  1
  O2-  O227  1  0.57922579  0.95023559  0.72467617  1
  O2-  O228  1  0.20964436  0.33631057  0.06318748  1
  O2-  O229  1  0.19852466  0.32378643  0.39602988  1
  O2-  O230  1  0.20125382  0.33018520  0.72791372  1
  O2-  O231  1  0.21427804  0.83218550  0.06641218  1
  O2-  O232  1  0.21384958  0.83410173  0.40088570  1
  O2-  O233  1  0.21213684  0.83449655  0.73885773  1
  O2-  O234  1  0.71400463  0.33512874  0.06907460  1
  O2-  O235  1  0.71780995  0.33723852  0.40327833  1
  O2-  O236  1  0.70531298  0.33778033  0.73061565  1
  O2-  O237  1  0.70252747  0.83092067  0.06877098  1
  O2-  O238  1  0.69995453  0.83182605  0.39481808  1
  O2-  O239  1  0.70277801  0.83571788  0.72933763  1
  O2-  O240  1  0.45622296  0.42230052  0.26449496  1
  O2-  O241  1  0.45792081  0.42039462  0.59940867  1
  O2-  O242  1  0.45852749  0.41457989  0.93881921  1
  O2-  O243  1  0.45574362  0.91528614  0.26358786  1
  O2-  O244  1  0.44434563  0.91640124  0.60502760  1
  O2-  O245  1  0.45738107  0.92067436  0.93149567  1
  O2-  O246  1  0.95505194  0.41044274  0.26688130  1
  O2-  O247  1  0.95441230  0.41516567  0.60287719  1
  O2-  O248  1  0.95467387  0.41050862  0.93506809  1
  O2-  O249  1  0.95644022  0.91713963  0.27091696  1
  O2-  O250  1  0.95461389  0.91616319  0.60583460  1
  O2-  O251  1  0.95694351  0.92188937  0.93303580  1
  O2-  O252  1  0.32908870  0.29271167  0.26160644  1
  O2-  O253  1  0.32962698  0.29771128  0.59829706  1
  O2-  O254  1  0.33794747  0.29480404  0.93584266  1
  O2-  O255  1  0.33533073  0.78372000  0.26549711  1
  O2-  O256  1  0.33409065  0.78954280  0.60675985  1
  O2-  O257  1  0.33708702  0.78716711  0.92920264  1
  O2-  O258  1  0.84037077  0.28714258  0.26936323  1
  O2-  O259  1  0.83358648  0.29891065  0.60590379  1
  O2-  O260  1  0.83679519  0.29077732  0.93578930  1
  O2-  O261  1  0.83239091  0.80351588  0.27189852  1
  O2-  O262  1  0.83276677  0.80035587  0.60346082  1
  O2-  O263  1  0.82624329  0.79936373  0.93403465  1
  O2-  O264  1  0.41786233  0.05411709  0.05955720  1
  O2-  O265  1  0.41845064  0.04644102  0.39246500  1
  O2-  O266  1  0.41727840  0.05069832  0.72691206  1
  O2-  O267  1  0.40913375  0.53941166  0.06479425  1
  O2-  O268  1  0.41927057  0.54752269  0.40012299  1
  O2-  O269  1  0.41735225  0.53925471  0.73876824  1
  O2-  O270  1  0.91625747  0.04887242  0.06306390  1
  O2-  O271  1  0.91390820  0.03758319  0.40384957  1
  O2-  O272  1  0.91297046  0.03877517  0.73919214  1
  O2-  O273  1  0.91824832  0.54015422  0.06216589  1
  O2-  O274  1  0.91358609  0.53951603  0.39440460  1
  O2-  O275  1  0.91738456  0.53865004  0.73648138  1
  O2-  O276  1  0.29389882  0.16794249  0.06434579  1
  O2-  O277  1  0.29926370  0.16590762  0.39375181  1
  O2-  O278  1  0.29603232  0.16789819  0.72657507  1
  O2-  O279  1  0.29340129  0.66246519  0.06033388  1
  O2-  O280  1  0.28686227  0.66653835  0.40320150  1
  O2-  O281  1  0.28802728  0.66437802  0.73962039  1
  O2-  O282  1  0.79461664  0.16502308  0.06423522  1
  O2-  O283  1  0.79154935  0.16547233  0.40179519  1
  O2-  O284  1  0.79256252  0.16942606  0.73750680  1
  O2-  O285  1  0.80566975  0.66640801  0.06224198  1
  O2-  O286  1  0.80619499  0.66951019  0.39141384  1
  O2-  O287  1  0.79271976  0.66971621  0.73390209  1
