# generated using pymatgen
data_Ca2Al2SiO7
_symmetry_space_group_name_H-M   'P 1'
_cell_length_a   15.45896957
_cell_length_b   15.45932215
_cell_length_c   15.28465554
_cell_angle_alpha   90.00957462
_cell_angle_beta   89.98934541
_cell_angle_gamma   89.99125518
_symmetry_Int_Tables_number   1
_chemical_formula_structural   Ca2Al2SiO7
_chemical_formula_sum   'Ca48 Al48 Si24 O168'
_cell_volume   3652.80616488
_cell_formula_units_Z   24
loop_
 _symmetry_equiv_pos_site_id
 _symmetry_equiv_pos_as_xyz
  1  'x, y, z'
loop_
 _atom_type_symbol
 _atom_type_oxidation_number
  Ca2+  2.0
  Al0+  0.0
  Si0+  0.0
  O2-  -2.0
loop_
 _atom_site_type_symbol
 _atom_site_label
 _atom_site_symmetry_multiplicity
 _atom_site_fract_x
 _atom_site_fract_y
 _atom_site_fract_z
 _atom_site_occupancy
  Ca2+  Ca0  1  0.16303426  0.07310271  0.17327788  1
  Ca2+  Ca1  1  0.16099402  0.07242653  0.50009399  1
  Ca2+  Ca2  1  0.16849847  0.06995282  0.83755139  1
  Ca2+  Ca3  1  0.17919394  0.57891099  0.16806780  1
  Ca2+  Ca4  1  0.17676664  0.59123676  0.50452282  1
  Ca2+  Ca5  1  0.17425339  0.58648234  0.83790816  1
  Ca2+  Ca6  1  0.67019730  0.08460845  0.17099795  1
  Ca2+  Ca7  1  0.67439019  0.08257836  0.50124669  1
  Ca2+  Ca8  1  0.66716836  0.08346763  0.84006259  1
  Ca2+  Ca9  1  0.66011030  0.57966734  0.17026767  1
  Ca2+  Ca10  1  0.67081759  0.58162147  0.50696763  1
  Ca2+  Ca11  1  0.67060048  0.57640583  0.83516184  1
  Ca2+  Ca12  1  0.08298100  0.33098405  0.16337721  1
  Ca2+  Ca13  1  0.07689999  0.32500533  0.48730006  1
  Ca2+  Ca14  1  0.08837609  0.33535952  0.83121103  1
  Ca2+  Ca15  1  0.07711649  0.84206235  0.16345093  1
  Ca2+  Ca16  1  0.08050134  0.83218171  0.49957068  1
  Ca2+  Ca17  1  0.07966662  0.83106586  0.82575031  1
  Ca2+  Ca18  1  0.57351284  0.33181951  0.15923905  1
  Ca2+  Ca19  1  0.58076400  0.33748148  0.49513242  1
  Ca2+  Ca20  1  0.58640179  0.33681728  0.83678784  1
  Ca2+  Ca21  1  0.57184331  0.82671625  0.16209825  1
  Ca2+  Ca22  1  0.57068317  0.82368510  0.49087822  1
  Ca2+  Ca23  1  0.56743827  0.83178956  0.82850378  1
  Ca2+  Ca24  1  0.34101459  0.42319378  0.17091450  1
  Ca2+  Ca25  1  0.33891550  0.42852535  0.50284747  1
  Ca2+  Ca26  1  0.33033294  0.43050003  0.84486017  1
  Ca2+  Ca27  1  0.32405363  0.90806220  0.17218543  1
  Ca2+  Ca28  1  0.32260908  0.90461440  0.50319010  1
  Ca2+  Ca29  1  0.32244039  0.90534584  0.83880712  1
  Ca2+  Ca30  1  0.82605608  0.41200419  0.17157281  1
  Ca2+  Ca31  1  0.82900942  0.42258590  0.50893941  1
  Ca2+  Ca32  1  0.82597153  0.42433115  0.83668060  1
  Ca2+  Ca33  1  0.83747601  0.92008917  0.17622420  1
  Ca2+  Ca34  1  0.84269985  0.91846163  0.50048600  1
  Ca2+  Ca35  1  0.83670392  0.91328012  0.83764394  1
  Ca2+  Ca36  1  0.41876885  0.17820873  0.15774312  1
  Ca2+  Ca37  1  0.41807518  0.17629400  0.49233437  1
  Ca2+  Ca38  1  0.41942848  0.17360639  0.83481895  1
  Ca2+  Ca39  1  0.41140054  0.66976065  0.16853161  1
  Ca2+  Ca40  1  0.41499518  0.67047569  0.49387149  1
  Ca2+  Ca41  1  0.40481047  0.67225056  0.83062093  1
  Ca2+  Ca42  1  0.92035540  0.16563208  0.17205897  1
  Ca2+  Ca43  1  0.92053972  0.17119053  0.48812692  1
  Ca2+  Ca44  1  0.91906781  0.17008315  0.83117181  1
  Ca2+  Ca45  1  0.91781678  0.68076939  0.16003467  1
  Ca2+  Ca46  1  0.92065613  0.67168321  0.49633546  1
  Ca2+  Ca47  1  0.92367060  0.67450835  0.82252406  1
  Al0+  Al48  1  -0.00042628  0.00187887  -0.00138754  1
  Al0+  Al49  1  -0.00028869  0.00078821  0.33580553  1
  Al0+  Al50  1  0.00078218  0.00132731  0.66919504  1
  Al0+  Al51  1  0.00072245  0.50155340  0.00369279  1
  Al0+  Al52  1  -0.00113065  0.49952991  0.32854986  1
  Al0+  Al53  1  0.00006366  0.50027265  0.66544939  1
  Al0+  Al54  1  0.50072992  -0.00030057  -0.00744072  1
  Al0+  Al55  1  0.49905450  -0.00105536  0.33202365  1
  Al0+  Al56  1  0.50041235  0.00278200  0.66105185  1
  Al0+  Al57  1  0.50235085  0.50059479  0.00371777  1
  Al0+  Al58  1  0.50044116  0.49949708  0.33208791  1
  Al0+  Al59  1  0.49952688  0.49982275  0.67633275  1
  Al0+  Al60  1  0.24966468  0.24895413  -0.00373391  1
  Al0+  Al61  1  0.24953186  0.24835344  0.32562661  1
  Al0+  Al62  1  0.25221123  0.24818456  0.66477601  1
  Al0+  Al63  1  0.24758617  0.74884597  0.00682744  1
  Al0+  Al64  1  0.24897720  0.74810978  0.33838169  1
  Al0+  Al65  1  0.24712801  0.75038109  0.66727720  1
  Al0+  Al66  1  0.75201005  0.25064166  0.00067733  1
  Al0+  Al67  1  0.75050020  0.24886847  0.33619679  1
  Al0+  Al68  1  0.74982788  0.24827827  0.67035873  1
  Al0+  Al69  1  0.74877659  0.75226043  -0.00462993  1
  Al0+  Al70  1  0.74934898  0.74843614  0.32618405  1
  Al0+  Al71  1  0.74891151  0.75242954  0.66779237  1
  Al0+  Al72  1  0.17757539  0.42608801  0.01535712  1
  Al0+  Al73  1  0.42823841  0.32338918  0.98238831  1
  Al0+  Al74  1  0.81825118  0.06870308  0.34783910  1
  Al0+  Al75  1  0.93145128  0.81950015  0.32014185  1
  Al0+  Al76  1  0.17985523  0.93021080  0.34894896  1
  Al0+  Al77  1  0.92710610  0.32254642  0.31840165  1
  Al0+  Al78  1  0.92725325  0.82296089  0.65068669  1
  Al0+  Al79  1  0.17919340  0.93077182  0.01438621  1
  Al0+  Al80  1  0.32159270  0.57076756  0.01786742  1
  Al0+  Al81  1  0.07064589  0.67766620  0.65103928  1
  Al0+  Al82  1  0.31837024  0.57041913  0.68036802  1
  Al0+  Al83  1  0.42604609  0.82093970  0.31824373  1
  Al0+  Al84  1  0.82347188  0.57437103  0.68090304  1
  Al0+  Al85  1  0.57291169  0.18001961  0.98479903  1
  Al0+  Al86  1  0.68268054  0.42972843  0.01700195  1
  Al0+  Al87  1  0.67962375  0.42795859  0.68283707  1
  Al0+  Al88  1  0.57127247  0.67799933  0.31896880  1
  Al0+  Al89  1  0.32027425  0.56700909  0.34981123  1
  Al0+  Al90  1  0.42717471  0.81805834  0.98642297  1
  Al0+  Al91  1  0.42789519  0.82089853  0.65285918  1
  Al0+  Al92  1  0.07044335  0.17845028  0.31757963  1
  Al0+  Al93  1  0.43019411  0.32031492  0.32148548  1
  Al0+  Al94  1  0.18091198  0.93184490  0.68130443  1
  Al0+  Al95  1  0.92929995  0.82310263  0.98532515  1
  Si0+  Si96  1  0.67580358  0.93035063  0.68127811  1
  Si0+  Si97  1  0.17807011  0.42343590  0.67909676  1
  Si0+  Si98  1  0.07001173  0.67814348  0.98434841  1
  Si0+  Si99  1  0.07058443  0.17851407  0.98266196  1
  Si0+  Si100  1  0.67599149  0.92493176  0.34945833  1
  Si0+  Si101  1  0.67729803  0.92915296  0.01391249  1
  Si0+  Si102  1  0.57361720  0.17956754  0.64915887  1
  Si0+  Si103  1  0.68080873  0.43004853  0.34805456  1
  Si0+  Si104  1  0.43048532  0.32148856  0.65256040  1
  Si0+  Si105  1  0.07337995  0.67611914  0.31458855  1
  Si0+  Si106  1  0.82077430  0.07063865  0.01537455  1
  Si0+  Si107  1  0.57288761  0.17685592  0.31907575  1
  Si0+  Si108  1  0.32504978  0.07523682  0.68365321  1
  Si0+  Si109  1  0.07160775  0.18008114  0.65273847  1
  Si0+  Si110  1  0.82031838  0.06953818  0.68353237  1
  Si0+  Si111  1  0.57333814  0.67773152  0.98053360  1
  Si0+  Si112  1  0.82171361  0.57503445  0.01781729  1
  Si0+  Si113  1  0.82263144  0.57322121  0.34638916  1
  Si0+  Si114  1  0.57109431  0.67684750  0.65265028  1
  Si0+  Si115  1  0.17610366  0.42553991  0.34923897  1
  Si0+  Si116  1  0.32399839  0.07112425  0.01509540  1
  Si0+  Si117  1  0.32410703  0.07435169  0.34890234  1
  Si0+  Si118  1  0.93009468  0.32234228  0.98419797  1
  Si0+  Si119  1  0.92799266  0.31956987  0.65409944  1
  O2-  O120  1  0.25690655  0.00234899  0.06107221  1
  O2-  O121  1  0.25863503  0.00293971  0.39402886  1
  O2-  O122  1  0.26006197  0.00288818  0.72709210  1
  O2-  O123  1  0.25451283  0.49216323  0.06564428  1
  O2-  O124  1  0.24413908  0.49274769  0.39636141  1
  O2-  O125  1  0.24310975  0.49457127  0.72384920  1
  O2-  O126  1  0.74982186  -0.00106730  0.05605922  1
  O2-  O127  1  0.74441652  -0.00652546  0.39563456  1
  O2-  O128  1  0.75103354  -0.00299903  0.72514502  1
  O2-  O129  1  0.75466739  0.50635313  0.06486155  1
  O2-  O130  1  0.75336561  0.50004562  0.38883738  1
  O2-  O131  1  0.75170886  0.50144861  0.73051164  1
  O2-  O132  1  0.00218882  0.25433227  0.26756884  1
  O2-  O133  1  0.00397546  0.25452817  0.61159374  1
  O2-  O134  1  0.00519572  0.25568902  0.94088446  1
  O2-  O135  1  0.00482534  0.74535583  0.27073102  1
  O2-  O136  1  -0.00456447  0.74724037  0.60156756  1
  O2-  O137  1  0.00108714  0.74633122  0.93957577  1
  O2-  O138  1  0.50005562  0.24056019  0.27585054  1
  O2-  O139  1  0.50283093  0.25169044  0.60921132  1
  O2-  O140  1  0.50179845  0.25183922  0.93269207  1
  O2-  O141  1  0.50034014  0.75112205  0.26919133  1
  O2-  O142  1  0.50238658  0.74502211  0.60783022  1
  O2-  O143  1  0.49995224  0.74216167  0.93761007  1
  O2-  O144  1  0.06628804  0.17428128  0.08704774  1
  O2-  O145  1  0.06720001  0.17933732  0.43201828  1
  O2-  O146  1  0.06986606  0.18007895  0.75812491  1
  O2-  O147  1  0.06759950  0.67815049  0.08991911  1
  O2-  O148  1  0.07139987  0.67520503  0.42020388  1
  O2-  O149  1  0.07156965  0.67999360  0.76483025  1
  O2-  O150  1  0.57318669  0.18027424  0.09845273  1
  O2-  O151  1  0.57449324  0.17966999  0.42520525  1
  O2-  O152  1  0.57566381  0.17735068  0.75366958  1
  O2-  O153  1  0.57835100  0.68197827  0.08574910  1
  O2-  O154  1  0.57212514  0.67742836  0.43305435  1
  O2-  O155  1  0.57135978  0.67879156  0.75814733  1
  O2-  O156  1  0.17671603  0.42761048  0.24402737  1
  O2-  O157  1  0.18134845  0.41731964  0.57388329  1
  O2-  O158  1  0.17599468  0.42980305  0.90115970  1
  O2-  O159  1  0.17858726  0.93263348  0.23577623  1
  O2-  O160  1  0.17886438  0.93488132  0.56842164  1
  O2-  O161  1  0.17811658  0.93256421  0.90112728  1
  O2-  O162  1  0.68165303  0.42895475  0.24318119  1
  O2-  O163  1  0.68100773  0.42625335  0.56865723  1
  O2-  O164  1  0.68729988  0.42924143  0.90410211  1
  O2-  O165  1  0.67667382  0.92758373  0.24374033  1
  O2-  O166  1  0.67339212  0.93473184  0.57653090  1
  O2-  O167  1  0.67816225  0.93074428  0.90847196  1
  O2-  O168  1  0.43032673  0.32019097  0.09605145  1
  O2-  O169  1  0.43439451  0.32124018  0.43545150  1
  O2-  O170  1  0.42864982  0.31860240  0.75691259  1
  O2-  O171  1  0.42960036  0.81945579  0.09899309  1
  O2-  O172  1  0.42739775  0.81841341  0.43212755  1
  O2-  O173  1  0.42874249  0.82027076  0.76617877  1
  O2-  O174  1  0.92768309  0.31906185  0.08878269  1
  O2-  O175  1  0.92628033  0.32068255  0.43277664  1
  O2-  O176  1  0.92721666  0.31572044  0.75949776  1
  O2-  O177  1  0.93024625  0.82491878  0.09852646  1
  O2-  O178  1  0.93155930  0.81815573  0.43285311  1
  O2-  O179  1  0.93119322  0.82498205  0.76439037  1
  O2-  O180  1  0.32399640  0.07579426  0.24354882  1
  O2-  O181  1  0.32305529  0.08198357  0.57846167  1
  O2-  O182  1  0.32134529  0.07091407  0.90913971  1
  O2-  O183  1  0.32082244  0.56570371  0.23739773  1
  O2-  O184  1  0.32119965  0.56767743  0.56722976  1
  O2-  O185  1  0.31639466  0.57320057  0.90400793  1
  O2-  O186  1  0.81664249  0.06877174  0.23452644  1
  O2-  O187  1  0.81934322  0.07293298  0.57874452  1
  O2-  O188  1  0.82151984  0.07137047  0.90974292  1
  O2-  O189  1  0.82154917  0.57384585  0.24145843  1
  O2-  O190  1  0.82159738  0.57099029  0.56670992  1
  O2-  O191  1  0.82087462  0.57298049  0.91226693  1
  O2-  O192  1  0.03410775  0.08315653  0.26419603  1
  O2-  O193  1  0.03837995  0.09056457  0.60538073  1
  O2-  O194  1  0.03421014  0.09104576  0.93165160  1
  O2-  O195  1  0.04845602  0.58284499  0.26800037  1
  O2-  O196  1  0.04807342  0.57716594  0.59779151  1
  O2-  O197  1  0.04559171  0.58417690  0.93764965  1
  O2-  O198  1  0.55460047  0.08134689  0.27464727  1
  O2-  O199  1  0.54611941  0.08942757  0.59843100  1
  O2-  O200  1  0.54587302  0.08217570  0.92880891  1
  O2-  O201  1  0.54155279  0.58084662  0.26527576  1
  O2-  O202  1  0.54664578  0.58159648  0.60935181  1
  O2-  O203  1  0.55369801  0.58181188  0.93839807  1
  O2-  O204  1  0.16907015  0.19979746  0.26295333  1
  O2-  O205  1  0.16464208  0.20281546  0.60512702  1
  O2-  O206  1  0.16353942  0.19888367  0.93418145  1
  O2-  O207  1  0.16686547  0.70245986  0.27077274  1
  O2-  O208  1  0.16631539  0.71178491  0.59652888  1
  O2-  O209  1  0.16326822  0.70585237  0.93994835  1
  O2-  O210  1  0.66466871  0.20655020  0.27262463  1
  O2-  O211  1  0.66586574  0.20761428  0.60171501  1
  O2-  O212  1  0.67231941  0.20854887  0.93185672  1
  O2-  O213  1  0.66847281  0.70346622  0.26192562  1
  O2-  O214  1  0.66453351  0.70295102  0.60640854  1
  O2-  O215  1  0.66438712  0.70830971  0.93134567  1
  O2-  O216  1  0.07968483  0.45616705  0.06973496  1
  O2-  O217  1  0.08059690  0.44977274  0.39339581  1
  O2-  O218  1  0.08226849  0.44350967  0.72282036  1
  O2-  O219  1  0.08331774  0.96781426  0.06665688  1
  O2-  O220  1  0.08508277  0.96563192  0.40363207  1
  O2-  O221  1  0.08590488  0.96800589  0.73634014  1
  O2-  O222  1  0.58522284  0.45704403  0.07000713  1
  O2-  O223  1  0.59025923  0.45948022  0.39657507  1
  O2-  O224  1  0.58242439  0.45467892  0.73819723  1
  O2-  O225  1  0.58619513  0.95883970  0.06140031  1
  O2-  O226  1  0.58225620  0.95038322  0.39639438  1
  O2-  O227  1  0.58588814  0.96411794  0.72978353  1
  O2-  O228  1  0.19725523  0.32330323  0.06283918  1
  O2-  O229  1  0.19956667  0.32971172  0.39197653  1
  O2-  O230  1  0.20571428  0.33093697  0.72796854  1
  O2-  O231  1  0.20456885  0.83404816  0.06919960  1
  O2-  O232  1  0.20752516  0.83281163  0.40300797  1
  O2-  O233  1  0.20877885  0.83486636  0.73489896  1
  O2-  O234  1  0.71692114  0.33345171  0.07014718  1
  O2-  O235  1  0.70681850  0.33795964  0.39640826  1
  O2-  O236  1  0.71026291  0.32978726  0.73594092  1
  O2-  O237  1  0.70349210  0.83670300  0.06036084  1
  O2-  O238  1  0.70222574  0.83073746  0.39332759  1
  O2-  O239  1  0.69788761  0.83771686  0.72917451  1
  O2-  O240  1  0.46721577  0.41297954  0.26616782  1
  O2-  O241  1  0.45899989  0.41404535  0.60730660  1
  O2-  O242  1  0.45814191  0.42267757  0.93271636  1
  O2-  O243  1  0.45042943  0.92130354  0.26715008  1
  O2-  O244  1  0.45757641  0.91859797  0.59980414  1
  O2-  O245  1  0.45927543  0.91380328  0.93092696  1
  O2-  O246  1  0.94908329  0.42151676  0.26407279  1
  O2-  O247  1  0.94806735  0.41317569  0.60783446  1
  O2-  O248  1  0.95373882  0.41622741  0.93866676  1
  O2-  O249  1  0.96170931  0.91671898  0.26801864  1
  O2-  O250  1  0.95958666  0.92208954  0.60043766  1
  O2-  O251  1  0.95994160  0.91990310  0.93152296  1
  O2-  O252  1  0.33331717  0.29552061  0.26645947  1
  O2-  O253  1  0.33963380  0.29178821  0.60339064  1
  O2-  O254  1  0.32982946  0.29341598  0.92897818  1
  O2-  O255  1  0.32807708  0.78877029  0.26765298  1
  O2-  O256  1  0.33169071  0.78931393  0.60075004  1
  O2-  O257  1  0.32884801  0.78725389  0.93552013  1
  O2-  O258  1  0.83028097  0.28756611  0.26602736  1
  O2-  O259  1  0.83827873  0.28526679  0.60645422  1
  O2-  O260  1  0.84140102  0.28801916  0.93484993  1
  O2-  O261  1  0.83448485  0.79185709  0.26503258  1
  O2-  O262  1  0.82535466  0.80264815  0.60110309  1
  O2-  O263  1  0.83117848  0.79616548  0.93214354  1
  O2-  O264  1  0.41928317  0.04834385  0.05832951  1
  O2-  O265  1  0.41968615  0.05422318  0.39484876  1
  O2-  O266  1  0.42112190  0.05459337  0.72634310  1
  O2-  O267  1  0.42257589  0.54921227  0.06771084  1
  O2-  O268  1  0.41727367  0.53400669  0.40298327  1
  O2-  O269  1  0.41369535  0.54116860  0.73703976  1
  O2-  O270  1  0.91198001  0.04234585  0.06278090  1
  O2-  O271  1  0.91415059  0.03893314  0.40327891  1
  O2-  O272  1  0.91244424  0.04508469  0.73210820  1
  O2-  O273  1  0.91579449  0.55148724  0.06297947  1
  O2-  O274  1  0.91521241  0.54683959  0.39346011  1
  O2-  O275  1  0.92159241  0.54434044  0.73456697  1
  O2-  O276  1  0.29756539  0.16511972  0.05936079  1
  O2-  O277  1  0.29598936  0.16776060  0.39573983  1
  O2-  O278  1  0.29463345  0.16652552  0.73303935  1
  O2-  O279  1  0.28618718  0.66561822  0.07351821  1
  O2-  O280  1  0.28920316  0.66346643  0.40388038  1
  O2-  O281  1  0.28503952  0.66580831  0.73439713  1
  O2-  O282  1  0.79343583  0.16195581  0.06319498  1
  O2-  O283  1  0.78663777  0.16477802  0.40464791  1
  O2-  O284  1  0.79009663  0.15978395  0.73334601  1
  O2-  O285  1  0.79453788  0.66972088  0.06127964  1
  O2-  O286  1  0.79258294  0.66412431  0.39424792  1
  O2-  O287  1  0.79547793  0.67304769  0.73394267  1
