# generated using pymatgen
data_Ca2Al2SiO7
_symmetry_space_group_name_H-M   'P 1'
_cell_length_a   15.45656335
_cell_length_b   15.45644326
_cell_length_c   15.28276358
_cell_angle_alpha   89.99643644
_cell_angle_beta   90.00531298
_cell_angle_gamma   90.01276103
_symmetry_Int_Tables_number   1
_chemical_formula_structural   Ca2Al2SiO7
_chemical_formula_sum   'Ca48 Al48 Si24 O168'
_cell_volume   3651.10551108
_cell_formula_units_Z   24
loop_
 _symmetry_equiv_pos_site_id
 _symmetry_equiv_pos_as_xyz
  1  'x, y, z'
loop_
 _atom_type_symbol
 _atom_type_oxidation_number
  Ca2+  2.0
  Al0+  0.0
  Si0+  0.0
  O2-  -2.0
loop_
 _atom_site_type_symbol
 _atom_site_label
 _atom_site_symmetry_multiplicity
 _atom_site_fract_x
 _atom_site_fract_y
 _atom_site_fract_z
 _atom_site_occupancy
  Ca2+  Ca0  1  0.17799726  0.08224772  0.17746204  1
  Ca2+  Ca1  1  0.17203574  0.08257628  0.50689632  1
  Ca2+  Ca2  1  0.17528369  0.08023747  0.83120780  1
  Ca2+  Ca3  1  0.16712679  0.57978709  0.17357181  1
  Ca2+  Ca4  1  0.16937042  0.56871432  0.50818420  1
  Ca2+  Ca5  1  0.16997815  0.58175136  0.83388118  1
  Ca2+  Ca6  1  0.66582649  0.07239783  0.17721418  1
  Ca2+  Ca7  1  0.67565622  0.08717370  0.49986386  1
  Ca2+  Ca8  1  0.67183161  0.07888746  0.83850957  1
  Ca2+  Ca9  1  0.66093508  0.57731309  0.17046783  1
  Ca2+  Ca10  1  0.66749418  0.58727202  0.50662474  1
  Ca2+  Ca11  1  0.66741325  0.58437145  0.83386053  1
  Ca2+  Ca12  1  0.08228451  0.32954940  0.17049131  1
  Ca2+  Ca13  1  0.08393002  0.32472053  0.49293606  1
  Ca2+  Ca14  1  0.08540893  0.32563014  0.82419873  1
  Ca2+  Ca15  1  0.08685394  0.83086992  0.16312308  1
  Ca2+  Ca16  1  0.08803420  0.83901470  0.49697165  1
  Ca2+  Ca17  1  0.08754219  0.82891606  0.82730013  1
  Ca2+  Ca18  1  0.57874441  0.32502286  0.16013740  1
  Ca2+  Ca19  1  0.57969116  0.32499831  0.49169116  1
  Ca2+  Ca20  1  0.57809920  0.33776571  0.83355768  1
  Ca2+  Ca21  1  0.58312595  0.83514561  0.16216185  1
  Ca2+  Ca22  1  0.58058208  0.82590545  0.49504733  1
  Ca2+  Ca23  1  0.57336619  0.83550158  0.82628797  1
  Ca2+  Ca24  1  0.32958118  0.41594991  0.17154849  1
  Ca2+  Ca25  1  0.32147448  0.41774984  0.50708218  1
  Ca2+  Ca26  1  0.33231116  0.42002077  0.83418594  1
  Ca2+  Ca27  1  0.33323349  0.92525112  0.17239806  1
  Ca2+  Ca28  1  0.32527882  0.92533622  0.50536238  1
  Ca2+  Ca29  1  0.34075743  0.92389451  0.83595363  1
  Ca2+  Ca30  1  0.83055343  0.41444321  0.17058831  1
  Ca2+  Ca31  1  0.83495449  0.41997497  0.50419236  1
  Ca2+  Ca32  1  0.82619540  0.42299540  0.83621137  1
  Ca2+  Ca33  1  0.82112090  0.92026376  0.17489931  1
  Ca2+  Ca34  1  0.82995916  0.92846530  0.50138429  1
  Ca2+  Ca35  1  0.82707166  0.92188977  0.83543804  1
  Ca2+  Ca36  1  0.41662329  0.16415636  0.16263155  1
  Ca2+  Ca37  1  0.41694412  0.16094780  0.49496565  1
  Ca2+  Ca38  1  0.40926384  0.16880403  0.83136847  1
  Ca2+  Ca39  1  0.42108907  0.67711328  0.16089738  1
  Ca2+  Ca40  1  0.42092284  0.66845299  0.49985504  1
  Ca2+  Ca41  1  0.41920423  0.67947581  0.82085875  1
  Ca2+  Ca42  1  0.91959488  0.16443391  0.17128699  1
  Ca2+  Ca43  1  0.92597632  0.16446818  0.49133511  1
  Ca2+  Ca44  1  0.92342001  0.16460262  0.82166994  1
  Ca2+  Ca45  1  0.92643470  0.66935015  0.16151512  1
  Ca2+  Ca46  1  0.91406841  0.66806130  0.49682614  1
  Ca2+  Ca47  1  0.92002997  0.66516694  0.82931449  1
  Al0+  Al48  1  0.00090913  -0.00043120  -0.00117407  1
  Al0+  Al49  1  -0.00111727  -0.00082426  0.33140889  1
  Al0+  Al50  1  0.00008456  -0.00025169  0.67085360  1
  Al0+  Al51  1  0.00053167  0.49909034  -0.00457497  1
  Al0+  Al52  1  -0.00047212  0.49973421  0.33286169  1
  Al0+  Al53  1  -0.00271642  0.49958734  0.67511267  1
  Al0+  Al54  1  0.50195262  0.00087639  0.00338307  1
  Al0+  Al55  1  0.49935453  -0.00180317  0.33767134  1
  Al0+  Al56  1  0.49917507  0.00031444  0.66427561  1
  Al0+  Al57  1  0.49975270  0.49911931  0.00099639  1
  Al0+  Al58  1  0.50122246  0.50137076  0.32959666  1
  Al0+  Al59  1  0.49876217  0.49920722  0.66500916  1
  Al0+  Al60  1  0.25034968  0.25057064  -0.00011552  1
  Al0+  Al61  1  0.24859344  0.25179904  0.33669632  1
  Al0+  Al62  1  0.24898596  0.24842373  0.66940929  1
  Al0+  Al63  1  0.25105440  0.74921668  -0.00830926  1
  Al0+  Al64  1  0.25217171  0.75028973  0.33553097  1
  Al0+  Al65  1  0.24918311  0.74857878  0.66554511  1
  Al0+  Al66  1  0.75115889  0.25190136  0.00293177  1
  Al0+  Al67  1  0.74821744  0.25110548  0.32819950  1
  Al0+  Al68  1  0.74993309  0.25084191  0.67155038  1
  Al0+  Al69  1  0.75316291  0.74996700  0.00370870  1
  Al0+  Al70  1  0.74981061  0.74852643  0.33013853  1
  Al0+  Al71  1  0.75075751  0.74929694  0.66841451  1
  Al0+  Al72  1  0.81932261  0.07301992  0.34724246  1
  Al0+  Al73  1  0.17809253  0.92699941  0.34605841  1
  Al0+  Al74  1  0.32214648  0.57003564  0.68178078  1
  Al0+  Al75  1  0.07091982  0.67860819  0.98513364  1
  Al0+  Al76  1  0.42621851  0.82355893  0.64768175  1
  Al0+  Al77  1  0.57239333  0.67908228  0.31693098  1
  Al0+  Al78  1  0.57133740  0.67903437  0.65225040  1
  Al0+  Al79  1  0.07203521  0.17718179  0.31746441  1
  Al0+  Al80  1  0.82075158  0.07202354  0.67997562  1
  Al0+  Al81  1  0.92869856  0.32295481  0.31822856  1
  Al0+  Al82  1  0.67814398  0.43061468  0.01533072  1
  Al0+  Al83  1  0.81950971  0.57249228  0.68026402  1
  Al0+  Al84  1  0.32311545  0.06995827  0.68346148  1
  Al0+  Al85  1  0.31909814  0.07120814  0.01463055  1
  Al0+  Al86  1  0.32055942  0.07246672  0.34857668  1
  Al0+  Al87  1  0.43194251  0.82246823  0.98660352  1
  Al0+  Al88  1  0.42854415  0.32083339  0.98597587  1
  Al0+  Al89  1  0.56939994  0.17773090  0.32020621  1
  Al0+  Al90  1  0.67797374  0.92556121  0.35055047  1
  Al0+  Al91  1  0.68062572  0.93004712  0.01268509  1
  Al0+  Al92  1  0.17819052  0.43120352  0.34597087  1
  Al0+  Al93  1  0.06988613  0.17895428  0.65318075  1
  Al0+  Al94  1  0.17798211  0.92784902  0.68267173  1
  Al0+  Al95  1  0.17833702  0.42787783  0.68385591  1
  Si0+  Si96  1  0.67921528  0.92849591  0.68198932  1
  Si0+  Si97  1  0.92633820  0.32247277  0.65192140  1
  Si0+  Si98  1  0.82090657  0.56982539  0.34617960  1
  Si0+  Si99  1  0.06963986  0.67656508  0.65045337  1
  Si0+  Si100  1  0.32410256  0.57216194  0.34876436  1
  Si0+  Si101  1  0.32037927  0.57231381  0.01487714  1
  Si0+  Si102  1  0.42887841  0.31996795  0.65161596  1
  Si0+  Si103  1  0.17859691  0.42957343  0.01592496  1
  Si0+  Si104  1  0.42766563  0.32258349  0.31802064  1
  Si0+  Si105  1  0.82496278  0.07332813  0.01728195  1
  Si0+  Si106  1  0.42800867  0.82056807  0.31573547  1
  Si0+  Si107  1  0.67780236  0.42957515  0.34762753  1
  Si0+  Si108  1  0.82396250  0.57058604  0.01885233  1
  Si0+  Si109  1  0.67667735  0.42705683  0.68223915  1
  Si0+  Si110  1  0.92784119  0.82227273  0.98230990  1
  Si0+  Si111  1  0.57306845  0.17898835  0.98310479  1
  Si0+  Si112  1  0.57331780  0.17949437  0.65332544  1
  Si0+  Si113  1  0.92829248  0.82099565  0.31828022  1
  Si0+  Si114  1  0.17809218  0.92589687  0.01555458  1
  Si0+  Si115  1  0.92801413  0.32073688  0.98257232  1
  Si0+  Si116  1  0.07095803  0.17944887  0.98462480  1
  Si0+  Si117  1  0.07122489  0.67921805  0.32167856  1
  Si0+  Si118  1  0.57360245  0.67745603  0.98389359  1
  Si0+  Si119  1  0.92942064  0.82023499  0.65167776  1
  O2-  O120  1  0.24515735  -0.00482391  0.06027474  1
  O2-  O121  1  0.24462914  0.00331241  0.39623404  1
  O2-  O122  1  0.25432700  -0.00538534  0.73337960  1
  O2-  O123  1  0.24906753  0.50153610  0.05813980  1
  O2-  O124  1  0.25519614  0.50349821  0.39179606  1
  O2-  O125  1  0.24953595  0.50014713  0.73480209  1
  O2-  O126  1  0.75572522  0.00463292  0.05938426  1
  O2-  O127  1  0.74732058  0.00136847  0.39837212  1
  O2-  O128  1  0.74454655  -0.00009580  0.72740720  1
  O2-  O129  1  0.75210871  0.50585904  0.06362853  1
  O2-  O130  1  0.74941168  0.49993589  0.38930980  1
  O2-  O131  1  0.74295767  0.49898122  0.72511117  1
  O2-  O132  1  -0.00119558  0.24906705  0.26735741  1
  O2-  O133  1  -0.00522721  0.25447856  0.60798188  1
  O2-  O134  1  -0.00410911  0.24645908  0.94173016  1
  O2-  O135  1  0.00483776  0.75399885  0.27812542  1
  O2-  O136  1  0.00130094  0.75014628  0.60810557  1
  O2-  O137  1  -0.00219157  0.75501267  0.93808226  1
  O2-  O138  1  0.49204499  0.25008148  0.27359695  1
  O2-  O139  1  0.49998900  0.24839245  0.61107385  1
  O2-  O140  1  0.50426075  0.24727985  0.93799648  1
  O2-  O141  1  0.49924183  0.75462804  0.27035146  1
  O2-  O142  1  0.49920412  0.74987623  0.60087935  1
  O2-  O143  1  0.50806757  0.74845061  0.94003474  1
  O2-  O144  1  0.07117002  0.18091345  0.08933773  1
  O2-  O145  1  0.07118874  0.17920371  0.43082400  1
  O2-  O146  1  0.06781790  0.18061718  0.76725429  1
  O2-  O147  1  0.06956862  0.67809035  0.09915570  1
  O2-  O148  1  0.06727847  0.67646417  0.42640068  1
  O2-  O149  1  0.06655501  0.67621054  0.75570138  1
  O2-  O150  1  0.57227392  0.18018527  0.08857378  1
  O2-  O151  1  0.57183241  0.18355976  0.43371553  1
  O2-  O152  1  0.57636870  0.18196635  0.75846532  1
  O2-  O153  1  0.57058963  0.67704929  0.08967337  1
  O2-  O154  1  0.57228767  0.67678738  0.42947990  1
  O2-  O155  1  0.57266270  0.68143985  0.76622809  1
  O2-  O156  1  0.17848570  0.43485188  0.23207550  1
  O2-  O157  1  0.17834517  0.42922288  0.57020196  1
  O2-  O158  1  0.17858065  0.42956924  0.91128103  1
  O2-  O159  1  0.18266248  0.92262888  0.23202285  1
  O2-  O160  1  0.17558862  0.93240136  0.56944813  1
  O2-  O161  1  0.17650137  0.92705163  0.91045941  1
  O2-  O162  1  0.67686481  0.43166253  0.24261214  1
  O2-  O163  1  0.67838992  0.42330001  0.57662802  1
  O2-  O164  1  0.68050787  0.43168162  0.90203607  1
  O2-  O165  1  0.68150637  0.92537259  0.23646862  1
  O2-  O166  1  0.68292794  0.92727999  0.57691568  1
  O2-  O167  1  0.68258882  0.93231561  0.89930318  1
  O2-  O168  1  0.42813420  0.32040212  0.09905503  1
  O2-  O169  1  0.43173845  0.32642031  0.42372203  1
  O2-  O170  1  0.43073920  0.32143607  0.75689277  1
  O2-  O171  1  0.43065082  0.81976898  0.09978225  1
  O2-  O172  1  0.42561676  0.81643115  0.42060147  1
  O2-  O173  1  0.43154185  0.82444102  0.76191416  1
  O2-  O174  1  0.92898662  0.32358253  0.08723765  1
  O2-  O175  1  0.93069594  0.32796014  0.43152284  1
  O2-  O176  1  0.92505812  0.32053917  0.75804222  1
  O2-  O177  1  0.92793133  0.82110504  0.08806711  1
  O2-  O178  1  0.92462439  0.81795622  0.42328578  1
  O2-  O179  1  0.92832925  0.81798015  0.75698312  1
  O2-  O180  1  0.32096139  0.07063635  0.23443533  1
  O2-  O181  1  0.32172734  0.07275684  0.57053848  1
  O2-  O182  1  0.31716156  0.07245986  0.90204605  1
  O2-  O183  1  0.32204171  0.57291099  0.24242737  1
  O2-  O184  1  0.32084988  0.56521416  0.56785591  1
  O2-  O185  1  0.31979627  0.57103093  0.91042940  1
  O2-  O186  1  0.81841860  0.06898795  0.23328028  1
  O2-  O187  1  0.81971477  0.07256091  0.56748693  1
  O2-  O188  1  0.82508269  0.07296863  0.91130158  1
  O2-  O189  1  0.82257302  0.56889983  0.24112607  1
  O2-  O190  1  0.82099110  0.57099771  0.56681235  1
  O2-  O191  1  0.82419839  0.56918084  0.91333427  1
  O2-  O192  1  0.04416058  0.07868342  0.26281811  1
  O2-  O193  1  0.03695510  0.08228694  0.60159852  1
  O2-  O194  1  0.04702468  0.08575359  0.93825030  1
  O2-  O195  1  0.03845996  0.59061186  0.27055588  1
  O2-  O196  1  0.03663424  0.58488254  0.60531002  1
  O2-  O197  1  0.03768126  0.58309394  0.92979633  1
  O2-  O198  1  0.54224399  0.07910836  0.26824122  1
  O2-  O199  1  0.54930589  0.08744153  0.60578862  1
  O2-  O200  1  0.54868801  0.08535519  0.93770593  1
  O2-  O201  1  0.54025868  0.58279792  0.26150944  1
  O2-  O202  1  0.54573735  0.57878985  0.59995181  1
  O2-  O203  1  0.54662513  0.58416802  0.93884830  1
  O2-  O204  1  0.16974327  0.21074075  0.26472573  1
  O2-  O205  1  0.16671100  0.21041441  0.60064930  1
  O2-  O206  1  0.16052330  0.21264292  0.93679241  1
  O2-  O207  1  0.16475393  0.70240479  0.27461270  1
  O2-  O208  1  0.16220142  0.69874518  0.60300669  1
  O2-  O209  1  0.16670444  0.70620273  0.92880003  1
  O2-  O210  1  0.66328020  0.21141155  0.26289853  1
  O2-  O211  1  0.66399441  0.21158416  0.60515683  1
  O2-  O212  1  0.66760242  0.20581330  0.93827437  1
  O2-  O213  1  0.66979274  0.70576354  0.26154427  1
  O2-  O214  1  0.67110011  0.70694045  0.60047700  1
  O2-  O215  1  0.67065894  0.69849573  0.94288362  1
  O2-  O216  1  0.08597244  0.45793789  0.06150359  1
  O2-  O217  1  0.08338977  0.46588571  0.40064859  1
  O2-  O218  1  0.07999722  0.45519646  0.73753517  1
  O2-  O219  1  0.08273227  0.94915488  0.06040379  1
  O2-  O220  1  0.07600078  0.94569700  0.39393653  1
  O2-  O221  1  0.08110300  0.95804271  0.73854128  1
  O2-  O222  1  0.58139199  0.45965525  0.07036749  1
  O2-  O223  1  0.58637044  0.45833284  0.39545647  1
  O2-  O224  1  0.58287852  0.45087660  0.72784282  1
  O2-  O225  1  0.58587296  0.96091726  0.06935099  1
  O2-  O226  1  0.57870705  0.94838956  0.40141370  1
  O2-  O227  1  0.58509020  0.95360114  0.72611311  1
  O2-  O228  1  0.20800631  0.33867165  0.06353739  1
  O2-  O229  1  0.20635389  0.33552334  0.40122441  1
  O2-  O230  1  0.20904202  0.33091218  0.73713005  1
  O2-  O231  1  0.20359732  0.83082947  0.05876267  1
  O2-  O232  1  0.20776753  0.82934298  0.40102642  1
  O2-  O233  1  0.19795095  0.82572636  0.73057911  1
  O2-  O234  1  0.70989619  0.33394943  0.06912471  1
  O2-  O235  1  0.70462832  0.33801901  0.39482546  1
  O2-  O236  1  0.70513195  0.33666409  0.73355063  1
  O2-  O237  1  0.71088340  0.83288820  0.06714737  1
  O2-  O238  1  0.71175202  0.82761856  0.40101787  1
  O2-  O239  1  0.70884398  0.83708849  0.73007032  1
  O2-  O240  1  0.45684824  0.41445785  0.26950442  1
  O2-  O241  1  0.45650586  0.41066761  0.60209526  1
  O2-  O242  1  0.46039477  0.41759406  0.93187409  1
  O2-  O243  1  0.45165541  0.91511342  0.27158744  1
  O2-  O244  1  0.45531374  0.92209952  0.59555061  1
  O2-  O245  1  0.46411754  0.91914228  0.93338213  1
  O2-  O246  1  0.96016296  0.42046432  0.26213633  1
  O2-  O247  1  0.95038692  0.41774730  0.60880659  1
  O2-  O248  1  0.95806755  0.41131581  0.93379934  1
  O2-  O249  1  0.95061599  0.91239955  0.26808563  1
  O2-  O250  1  0.95653043  0.91230974  0.60525652  1
  O2-  O251  1  0.95062083  0.91704573  0.93660177  1
  O2-  O252  1  0.33226621  0.30267625  0.27406934  1
  O2-  O253  1  0.33697331  0.29198630  0.60532561  1
  O2-  O254  1  0.33202197  0.29052348  0.93120799  1
  O2-  O255  1  0.33571559  0.79091085  0.26717901  1
  O2-  O256  1  0.32737881  0.79362998  0.59660276  1
  O2-  O257  1  0.33640970  0.79147516  0.93124394  1
  O2-  O258  1  0.82989405  0.29757573  0.26408737  1
  O2-  O259  1  0.83170522  0.29864212  0.60684705  1
  O2-  O260  1  0.83464437  0.29664521  0.93584917  1
  O2-  O261  1  0.84047969  0.78598779  0.26703536  1
  O2-  O262  1  0.83887214  0.78985567  0.60359353  1
  O2-  O263  1  0.83513288  0.79403423  0.93514752  1
  O2-  O264  1  0.41720535  0.04315740  0.06641190  1
  O2-  O265  1  0.41777536  0.04284889  0.40189658  1
  O2-  O266  1  0.42375437  0.04640015  0.73558715  1
  O2-  O267  1  0.41187121  0.54432030  0.06280538  1
  O2-  O268  1  0.41771246  0.54563469  0.39367549  1
  O2-  O269  1  0.42024642  0.54054081  0.73515333  1
  O2-  O270  1  0.91887881  0.04686397  0.06258471  1
  O2-  O271  1  0.91786664  0.04281440  0.39807863  1
  O2-  O272  1  0.91417117  0.03752753  0.73688198  1
  O2-  O273  1  0.91678147  0.53971455  0.06409474  1
  O2-  O274  1  0.91179310  0.54248265  0.39546613  1
  O2-  O275  1  0.91289681  0.54037619  0.73951884  1
  O2-  O276  1  0.28687885  0.16787530  0.06822256  1
  O2-  O277  1  0.29745534  0.17242009  0.40009663  1
  O2-  O278  1  0.29093116  0.16722020  0.73671010  1
  O2-  O279  1  0.29109113  0.66409098  0.06201129  1
  O2-  O280  1  0.29893611  0.66484193  0.39517587  1
  O2-  O281  1  0.29425176  0.66871182  0.73302238  1
  O2-  O282  1  0.80181673  0.16784376  0.06154674  1
  O2-  O283  1  0.79104421  0.17245938  0.39818847  1
  O2-  O284  1  0.79171282  0.16832051  0.73657910  1
  O2-  O285  1  0.80499827  0.66606768  0.06363514  1
  O2-  O286  1  0.79378604  0.66149383  0.39329018  1
  O2-  O287  1  0.79122860  0.66820147  0.73784048  1
