# generated using pymatgen
data_Ca2Al2SiO7
_symmetry_space_group_name_H-M   'P 1'
_cell_length_a   15.46127376
_cell_length_b   15.46202888
_cell_length_c   15.28547100
_cell_angle_alpha   90.02704312
_cell_angle_beta   90.01044632
_cell_angle_gamma   89.99547222
_symmetry_Int_Tables_number   1
_chemical_formula_structural   Ca2Al2SiO7
_chemical_formula_sum   'Ca48 Al48 Si24 O168'
_cell_volume   3654.18489909
_cell_formula_units_Z   24
loop_
 _symmetry_equiv_pos_site_id
 _symmetry_equiv_pos_as_xyz
  1  'x, y, z'
loop_
 _atom_type_symbol
 _atom_type_oxidation_number
  Ca2+  2.0
  Al0+  0.0
  Si0+  0.0
  O2-  -2.0
loop_
 _atom_site_type_symbol
 _atom_site_label
 _atom_site_symmetry_multiplicity
 _atom_site_fract_x
 _atom_site_fract_y
 _atom_site_fract_z
 _atom_site_occupancy
  Ca2+  Ca0  1  0.15830329  0.08164060  0.16392737  1
  Ca2+  Ca1  1  0.15925572  0.08109018  0.50527488  1
  Ca2+  Ca2  1  0.15920272  0.07572886  0.83558875  1
  Ca2+  Ca3  1  0.16934381  0.57214338  0.17565898  1
  Ca2+  Ca4  1  0.16319306  0.57452994  0.50640908  1
  Ca2+  Ca5  1  0.15623785  0.57229936  0.83474148  1
  Ca2+  Ca6  1  0.66957068  0.06899483  0.17196967  1
  Ca2+  Ca7  1  0.67222617  0.07336666  0.50753573  1
  Ca2+  Ca8  1  0.67061588  0.07156607  0.83673086  1
  Ca2+  Ca9  1  0.67172138  0.58861367  0.17202645  1
  Ca2+  Ca10  1  0.67822078  0.57921209  0.50473287  1
  Ca2+  Ca11  1  0.66454404  0.58224306  0.83429646  1
  Ca2+  Ca12  1  0.08996369  0.32813048  0.16420565  1
  Ca2+  Ca13  1  0.08481901  0.32719782  0.49429628  1
  Ca2+  Ca14  1  0.08654257  0.32445900  0.82375877  1
  Ca2+  Ca15  1  0.07003635  0.83631474  0.15803583  1
  Ca2+  Ca16  1  0.07497724  0.83173650  0.49837449  1
  Ca2+  Ca17  1  0.07719842  0.83469378  0.82167713  1
  Ca2+  Ca18  1  0.58069214  0.33186291  0.16210164  1
  Ca2+  Ca19  1  0.57825693  0.34283105  0.50153191  1
  Ca2+  Ca20  1  0.57685088  0.33452070  0.82077343  1
  Ca2+  Ca21  1  0.57977326  0.83007704  0.15519136  1
  Ca2+  Ca22  1  0.57955317  0.84215837  0.49795060  1
  Ca2+  Ca23  1  0.57665779  0.83588526  0.83104145  1
  Ca2+  Ca24  1  0.32318691  0.42348658  0.17378464  1
  Ca2+  Ca25  1  0.32394478  0.42090800  0.50529232  1
  Ca2+  Ca26  1  0.32240335  0.41350528  0.83522894  1
  Ca2+  Ca27  1  0.32647001  0.91183885  0.16541749  1
  Ca2+  Ca28  1  0.32676353  0.91924381  0.51085039  1
  Ca2+  Ca29  1  0.32268087  0.90781246  0.83493171  1
  Ca2+  Ca30  1  0.83501542  0.42487717  0.17731644  1
  Ca2+  Ca31  1  0.83858412  0.41667351  0.50696757  1
  Ca2+  Ca32  1  0.83293205  0.41390505  0.83255742  1
  Ca2+  Ca33  1  0.82439680  0.90524516  0.17184456  1
  Ca2+  Ca34  1  0.82653645  0.90760613  0.50557870  1
  Ca2+  Ca35  1  0.82733865  0.90620262  0.83765287  1
  Ca2+  Ca36  1  0.41748130  0.16742078  0.16397582  1
  Ca2+  Ca37  1  0.41488371  0.17403767  0.50125049  1
  Ca2+  Ca38  1  0.41763571  0.17247741  0.82684152  1
  Ca2+  Ca39  1  0.42330313  0.66771751  0.15872991  1
  Ca2+  Ca40  1  0.41502328  0.66964469  0.49856254  1
  Ca2+  Ca41  1  0.42018355  0.67632136  0.82998568  1
  Ca2+  Ca42  1  0.92751490  0.17307029  0.16506248  1
  Ca2+  Ca43  1  0.92678535  0.17694922  0.49649836  1
  Ca2+  Ca44  1  0.92889411  0.17043102  0.82568223  1
  Ca2+  Ca45  1  0.91088807  0.67433262  0.16609980  1
  Ca2+  Ca46  1  0.91859952  0.67149122  0.50010394  1
  Ca2+  Ca47  1  0.92362037  0.67816920  0.82842473  1
  Al0+  Al48  1  -0.00118965  0.00311759  -0.00350669  1
  Al0+  Al49  1  -0.00287844  0.00147628  0.32468736  1
  Al0+  Al50  1  -0.00145348  0.00108284  0.66207637  1
  Al0+  Al51  1  -0.00272662  0.49973591  0.00669439  1
  Al0+  Al52  1  -0.00058636  0.50081618  0.33883495  1
  Al0+  Al53  1  0.00025340  0.50184394  0.66796925  1
  Al0+  Al54  1  0.49986642  0.00078580  0.00033184  1
  Al0+  Al55  1  0.49849448  -0.00012625  0.33581281  1
  Al0+  Al56  1  0.50130161  0.00042353  0.66764345  1
  Al0+  Al57  1  0.50000900  0.49957316  -0.00340767  1
  Al0+  Al58  1  0.49932536  0.50151088  0.33453166  1
  Al0+  Al59  1  0.50102399  0.50113501  0.66580004  1
  Al0+  Al60  1  0.24989917  0.24914210  0.00121838  1
  Al0+  Al61  1  0.25223762  0.24870879  0.33131702  1
  Al0+  Al62  1  0.25323273  0.25093984  0.66197386  1
  Al0+  Al63  1  0.24975697  0.74839755  0.00248564  1
  Al0+  Al64  1  0.25015042  0.75126198  0.33546277  1
  Al0+  Al65  1  0.25245103  0.75035658  0.66205400  1
  Al0+  Al66  1  0.74987387  0.24913621  0.00204750  1
  Al0+  Al67  1  0.74938615  0.24730730  0.32855983  1
  Al0+  Al68  1  0.75061552  0.24853890  0.66908475  1
  Al0+  Al69  1  0.74933727  0.74753981  -0.00462318  1
  Al0+  Al70  1  0.74771433  0.74717818  0.33996643  1
  Al0+  Al71  1  0.74908510  0.74793000  0.66978546  1
  Al0+  Al72  1  0.92808069  0.32383208  0.31764054  1
  Al0+  Al73  1  0.17899534  0.42861653  0.01400206  1
  Al0+  Al74  1  0.32279984  0.57358967  0.34935352  1
  Al0+  Al75  1  0.17872639  0.92998647  0.67715655  1
  Al0+  Al76  1  0.07324846  0.18001371  0.31464329  1
  Al0+  Al77  1  0.93008377  0.82054424  0.98689527  1
  Al0+  Al78  1  0.68017953  0.42896734  0.67989056  1
  Al0+  Al79  1  0.67940815  0.92895534  0.34736608  1
  Al0+  Al80  1  0.92808475  0.32140281  0.65424213  1
  Al0+  Al81  1  0.07300555  0.17942684  0.65098210  1
  Al0+  Al82  1  0.92785822  0.81816703  0.31952341  1
  Al0+  Al83  1  0.07104179  0.18198331  0.98381111  1
  Al0+  Al84  1  0.18031464  0.42835555  0.35016941  1
  Al0+  Al85  1  0.17972745  0.42959175  0.68095141  1
  Al0+  Al86  1  0.07334686  0.67899091  0.65242677  1
  Al0+  Al87  1  0.43120475  0.82191770  0.65140659  1
  Al0+  Al88  1  0.82052443  0.56985524  0.34827416  1
  Al0+  Al89  1  0.17718933  0.92788543  0.01234592  1
  Al0+  Al90  1  0.68083794  0.92900902  0.01389264  1
  Al0+  Al91  1  0.42659198  0.82264827  0.98501323  1
  Al0+  Al92  1  0.57130912  0.67792153  0.98385587  1
  Al0+  Al93  1  0.43037680  0.32257086  0.65227667  1
  Al0+  Al94  1  0.92734545  0.82114407  0.65157990  1
  Al0+  Al95  1  0.67936236  0.92804299  0.68291657  1
  Si0+  Si96  1  0.57261243  0.17861605  0.98526398  1
  Si0+  Si97  1  0.32185579  0.07236741  0.01650731  1
  Si0+  Si98  1  0.82290151  0.57191120  0.68766481  1
  Si0+  Si99  1  0.17619946  0.93099566  0.34600025  1
  Si0+  Si100  1  0.43052360  0.31951113  0.98604634  1
  Si0+  Si101  1  0.67659379  0.42698599  0.01492799  1
  Si0+  Si102  1  0.82183954  0.07239620  0.35018023  1
  Si0+  Si103  1  0.32294424  0.07250182  0.68267424  1
  Si0+  Si104  1  0.57006535  0.17603478  0.31765205  1
  Si0+  Si105  1  0.32400549  0.57075372  0.01563787  1
  Si0+  Si106  1  0.57247982  0.17815193  0.65014088  1
  Si0+  Si107  1  0.57174655  0.67768470  0.64719045  1
  Si0+  Si108  1  0.81826082  0.56920762  0.01571418  1
  Si0+  Si109  1  0.82208916  0.07183816  0.68416857  1
  Si0+  Si110  1  0.67773773  0.42487073  0.34755976  1
  Si0+  Si111  1  0.42778394  0.82375720  0.31776160  1
  Si0+  Si112  1  0.92635022  0.32420751  0.98416744  1
  Si0+  Si113  1  0.56861841  0.68013134  0.32013418  1
  Si0+  Si114  1  0.07413794  0.67890721  0.31642793  1
  Si0+  Si115  1  0.07178457  0.67582454  0.98747373  1
  Si0+  Si116  1  0.32230005  0.06968180  0.34825322  1
  Si0+  Si117  1  0.32325083  0.57289176  0.68501023  1
  Si0+  Si118  1  0.82209232  0.07426726  0.01912364  1
  Si0+  Si119  1  0.43153986  0.32148369  0.31693998  1
  O2-  O120  1  0.25497246  0.00081313  0.05924685  1
  O2-  O121  1  0.24710548  0.00256086  0.38814496  1
  O2-  O122  1  0.25272016  0.00533388  0.72553432  1
  O2-  O123  1  0.25169207  0.50598277  0.05975049  1
  O2-  O124  1  0.24891167  0.50424504  0.39941191  1
  O2-  O125  1  0.25263130  0.50611340  0.72936465  1
  O2-  O126  1  0.75691897  0.00131257  0.06279968  1
  O2-  O127  1  0.75579034  0.00129145  0.39477760  1
  O2-  O128  1  0.75762531  -0.00096891  0.72914379  1
  O2-  O129  1  0.74745520  0.49693404  0.05777392  1
  O2-  O130  1  0.75197367  0.48701829  0.39111732  1
  O2-  O131  1  0.75563783  0.50026227  0.73034947  1
  O2-  O132  1  0.00383248  0.25627570  0.26652475  1
  O2-  O133  1  0.00397973  0.25506743  0.60284345  1
  O2-  O134  1  -0.00337561  0.25813529  0.93990209  1
  O2-  O135  1  0.00505116  0.74664350  0.27095842  1
  O2-  O136  1  0.00198291  0.75173985  0.60231119  1
  O2-  O137  1  0.01155093  0.75176235  0.94304713  1
  O2-  O138  1  0.50382345  0.25151412  0.27425896  1
  O2-  O139  1  0.50699822  0.24949759  0.60495226  1
  O2-  O140  1  0.50336404  0.25091683  0.94285610  1
  O2-  O141  1  0.49661633  0.74992443  0.27738979  1
  O2-  O142  1  0.50685602  0.74945421  0.60224983  1
  O2-  O143  1  0.49994931  0.75139150  0.93580927  1
  O2-  O144  1  0.07130216  0.18362679  0.09667767  1
  O2-  O145  1  0.07322979  0.17841419  0.42763915  1
  O2-  O146  1  0.07234458  0.17960469  0.76477391  1
  O2-  O147  1  0.06783911  0.67370749  0.09309948  1
  O2-  O148  1  0.07582029  0.68242920  0.42159330  1
  O2-  O149  1  0.07079015  0.67902401  0.76679300  1
  O2-  O150  1  0.57114337  0.17998318  0.09080604  1
  O2-  O151  1  0.56727016  0.17392646  0.42232140  1
  O2-  O152  1  0.56974389  0.17877400  0.75613904  1
  O2-  O153  1  0.57072585  0.67704030  0.09827703  1
  O2-  O154  1  0.56810221  0.67943501  0.42482077  1
  O2-  O155  1  0.56893523  0.67603529  0.75266536  1
  O2-  O156  1  0.18470361  0.42860124  0.23586588  1
  O2-  O157  1  0.18232833  0.42860201  0.56844305  1
  O2-  O158  1  0.18056234  0.42809554  0.90103184  1
  O2-  O159  1  0.17858354  0.93040868  0.24066304  1
  O2-  O160  1  0.18078878  0.93180949  0.56347042  1
  O2-  O161  1  0.17706374  0.92921050  0.89953836  1
  O2-  O162  1  0.67386659  0.42798695  0.24151422  1
  O2-  O163  1  0.67932405  0.43257005  0.56673982  1
  O2-  O164  1  0.67586646  0.42532033  0.91022047  1
  O2-  O165  1  0.67768031  0.92929613  0.23397258  1
  O2-  O166  1  0.67819897  0.93202127  0.56958069  1
  O2-  O167  1  0.68071429  0.93204479  0.90117991  1
  O2-  O168  1  0.43348347  0.31871164  0.09155876  1
  O2-  O169  1  0.43285137  0.32104075  0.42167349  1
  O2-  O170  1  0.43103379  0.31966626  0.76596579  1
  O2-  O171  1  0.42874238  0.82127598  0.09947390  1
  O2-  O172  1  0.42955329  0.82729134  0.42262785  1
  O2-  O173  1  0.43110755  0.82100428  0.76415051  1
  O2-  O174  1  0.92408204  0.32381107  0.08946858  1
  O2-  O175  1  0.92489964  0.31894746  0.43049961  1
  O2-  O176  1  0.92735405  0.31714227  0.76831557  1
  O2-  O177  1  0.92685836  0.81595944  0.10031080  1
  O2-  O178  1  0.92845465  0.81728323  0.43196463  1
  O2-  O179  1  0.92792516  0.81885255  0.76547909  1
  O2-  O180  1  0.32868863  0.06753960  0.24333542  1
  O2-  O181  1  0.32564085  0.07076359  0.57667330  1
  O2-  O182  1  0.32279045  0.07788199  0.91150736  1
  O2-  O183  1  0.32552404  0.57001194  0.23527890  1
  O2-  O184  1  0.32466135  0.56994044  0.57947831  1
  O2-  O185  1  0.32784553  0.56761744  0.91054714  1
  O2-  O186  1  0.81781201  0.07328063  0.24449995  1
  O2-  O187  1  0.81792213  0.07449809  0.57868645  1
  O2-  O188  1  0.81760598  0.07922263  0.91394665  1
  O2-  O189  1  0.81372689  0.57322780  0.23458867  1
  O2-  O190  1  0.82019039  0.57376778  0.58210681  1
  O2-  O191  1  0.81963422  0.56700141  0.91102713  1
  O2-  O192  1  0.03986315  0.08361541  0.25932749  1
  O2-  O193  1  0.04089440  0.08322395  0.59644224  1
  O2-  O194  1  0.03897247  0.08619092  0.92966322  1
  O2-  O195  1  0.04910694  0.58402162  0.27363311  1
  O2-  O196  1  0.04223403  0.58171226  0.59937733  1
  O2-  O197  1  0.03700414  0.58492778  0.94040839  1
  O2-  O198  1  0.53509514  0.08706048  0.26814873  1
  O2-  O199  1  0.54309260  0.08666096  0.60246546  1
  O2-  O200  1  0.54347616  0.08826790  0.93695138  1
  O2-  O201  1  0.54294518  0.58780342  0.27094589  1
  O2-  O202  1  0.54345382  0.58574808  0.59949351  1
  O2-  O203  1  0.54300361  0.57912557  0.93042786  1
  O2-  O204  1  0.17435883  0.20350157  0.26292821  1
  O2-  O205  1  0.17267837  0.20304418  0.59918074  1
  O2-  O206  1  0.16913388  0.21093595  0.93195675  1
  O2-  O207  1  0.16822001  0.70415600  0.26975735  1
  O2-  O208  1  0.17166027  0.70341709  0.59848118  1
  O2-  O209  1  0.16864764  0.69016824  0.94528922  1
  O2-  O210  1  0.66200554  0.19856480  0.26812147  1
  O2-  O211  1  0.66666617  0.20036423  0.60534865  1
  O2-  O212  1  0.66474275  0.20517527  0.93844547  1
  O2-  O213  1  0.65962248  0.70923524  0.27248793  1
  O2-  O214  1  0.66707776  0.69958027  0.60449529  1
  O2-  O215  1  0.66868100  0.70364080  0.92921849  1
  O2-  O216  1  0.08167780  0.45673815  0.06847908  1
  O2-  O217  1  0.08050745  0.45183312  0.40070164  1
  O2-  O218  1  0.08261914  0.45875258  0.73555753  1
  O2-  O219  1  0.08120113  0.96281703  0.06620049  1
  O2-  O220  1  0.08354243  0.95908516  0.39059570  1
  O2-  O221  1  0.08100080  0.95930619  0.72970789  1
  O2-  O222  1  0.58435741  0.45427458  0.06262557  1
  O2-  O223  1  0.58637533  0.45689048  0.39448927  1
  O2-  O224  1  0.58364139  0.46176390  0.73422253  1
  O2-  O225  1  0.58393753  0.96232065  0.06722693  1
  O2-  O226  1  0.58328858  0.96386862  0.40042934  1
  O2-  O227  1  0.58414750  0.96445967  0.73661613  1
  O2-  O228  1  0.21558602  0.33400412  0.06835643  1
  O2-  O229  1  0.21508858  0.33015062  0.39951249  1
  O2-  O230  1  0.21618671  0.33308305  0.73281450  1
  O2-  O231  1  0.20478149  0.83056885  0.06842337  1
  O2-  O232  1  0.20413474  0.83954328  0.39325874  1
  O2-  O233  1  0.21192437  0.83336295  0.72987765  1
  O2-  O234  1  0.70168467  0.33448669  0.06336545  1
  O2-  O235  1  0.69373426  0.32782505  0.38970143  1
  O2-  O236  1  0.70502950  0.33066849  0.73438023  1
  O2-  O237  1  0.70976229  0.83007601  0.06471597  1
  O2-  O238  1  0.70632465  0.83271231  0.40245159  1
  O2-  O239  1  0.70483166  0.82952258  0.73518083  1
  O2-  O240  1  0.45962743  0.41322222  0.26883648  1
  O2-  O241  1  0.46256130  0.41819800  0.59757584  1
  O2-  O242  1  0.45620820  0.41089959  0.93796284  1
  O2-  O243  1  0.45824530  0.91438268  0.26949149  1
  O2-  O244  1  0.46170886  0.91942148  0.59817489  1
  O2-  O245  1  0.45358525  0.92225676  0.93432794  1
  O2-  O246  1  0.95027133  0.42571124  0.26853525  1
  O2-  O247  1  0.94840303  0.42281999  0.60665581  1
  O2-  O248  1  0.94864380  0.41940993  0.94047186  1
  O2-  O249  1  0.95353952  0.91550974  0.26428139  1
  O2-  O250  1  0.95042417  0.92019960  0.59891448  1
  O2-  O251  1  0.95198400  0.91969092  0.93540297  1
  O2-  O252  1  0.34199380  0.29013972  0.26787609  1
  O2-  O253  1  0.33765454  0.28881529  0.59413675  1
  O2-  O254  1  0.34004374  0.28864544  0.93916052  1
  O2-  O255  1  0.33458109  0.79896379  0.27146983  1
  O2-  O256  1  0.33611363  0.79151350  0.59504580  1
  O2-  O257  1  0.32775952  0.79268686  0.93322031  1
  O2-  O258  1  0.82898611  0.29351257  0.26344808  1
  O2-  O259  1  0.82987146  0.29094879  0.60134440  1
  O2-  O260  1  0.83180739  0.29728427  0.93948218  1
  O2-  O261  1  0.83042507  0.78226791  0.26867026  1
  O2-  O262  1  0.82880918  0.78853194  0.60094892  1
  O2-  O263  1  0.83661845  0.78309540  0.93201661  1
  O2-  O264  1  0.41624225  0.04986848  0.06374518  1
  O2-  O265  1  0.41111048  0.03887339  0.39986308  1
  O2-  O266  1  0.41617038  0.04716539  0.72984146  1
  O2-  O267  1  0.41622094  0.53984454  0.06378288  1
  O2-  O268  1  0.42051603  0.54247389  0.40279950  1
  O2-  O269  1  0.41632969  0.54472331  0.73074404  1
  O2-  O270  1  0.91707353  0.05287043  0.06248521  1
  O2-  O271  1  0.91692636  0.04920777  0.39277497  1
  O2-  O272  1  0.91687971  0.04989251  0.72837094  1
  O2-  O273  1  0.90869379  0.54335897  0.06722808  1
  O2-  O274  1  0.91831304  0.54889160  0.40301012  1
  O2-  O275  1  0.91636190  0.54925442  0.73460288  1
  O2-  O276  1  0.29396455  0.16400144  0.06665156  1
  O2-  O277  1  0.30007874  0.16344021  0.39393092  1
  O2-  O278  1  0.30071514  0.16725526  0.72738971  1
  O2-  O279  1  0.30409273  0.66536946  0.06181393  1
  O2-  O280  1  0.30010905  0.67437726  0.40011219  1
  O2-  O281  1  0.30077942  0.66785399  0.72866292  1
  O2-  O282  1  0.79135471  0.16592354  0.06840262  1
  O2-  O283  1  0.79145129  0.16475969  0.39666033  1
  O2-  O284  1  0.79202118  0.16259963  0.73429169  1
  O2-  O285  1  0.78729504  0.65991684  0.06333201  1
  O2-  O286  1  0.78068744  0.66081161  0.40640368  1
  O2-  O287  1  0.79200562  0.66307972  0.73574516  1
