# generated using pymatgen
data_Ca2Al2SiO7
_symmetry_space_group_name_H-M   'P 1'
_cell_length_a   15.46056043
_cell_length_b   15.46269248
_cell_length_c   15.28584038
_cell_angle_alpha   90.01501316
_cell_angle_beta   90.00130021
_cell_angle_gamma   89.99007219
_symmetry_Int_Tables_number   1
_chemical_formula_structural   Ca2Al2SiO7
_chemical_formula_sum   'Ca48 Al48 Si24 O168'
_cell_volume   3654.26173244
_cell_formula_units_Z   24
loop_
 _symmetry_equiv_pos_site_id
 _symmetry_equiv_pos_as_xyz
  1  'x, y, z'
loop_
 _atom_type_symbol
 _atom_type_oxidation_number
  Ca2+  2.0
  Al0+  0.0
  Si0+  0.0
  O2-  -2.0
loop_
 _atom_site_type_symbol
 _atom_site_label
 _atom_site_symmetry_multiplicity
 _atom_site_fract_x
 _atom_site_fract_y
 _atom_site_fract_z
 _atom_site_occupancy
  Ca2+  Ca0  1  0.16973750  0.07801368  0.17537527  1
  Ca2+  Ca1  1  0.16985452  0.09653914  0.50052456  1
  Ca2+  Ca2  1  0.16466954  0.08084028  0.83590016  1
  Ca2+  Ca3  1  0.17330195  0.57617888  0.17148098  1
  Ca2+  Ca4  1  0.17682789  0.57553822  0.50342849  1
  Ca2+  Ca5  1  0.16273094  0.56872790  0.83604966  1
  Ca2+  Ca6  1  0.66822991  0.08185717  0.17609781  1
  Ca2+  Ca7  1  0.67220563  0.09091162  0.49706160  1
  Ca2+  Ca8  1  0.66951840  0.07682079  0.84137008  1
  Ca2+  Ca9  1  0.66164976  0.57179992  0.17287494  1
  Ca2+  Ca10  1  0.66376148  0.57505410  0.50648608  1
  Ca2+  Ca11  1  0.66836526  0.57557710  0.83014961  1
  Ca2+  Ca12  1  0.07377605  0.33147435  0.16110558  1
  Ca2+  Ca13  1  0.07500793  0.33044885  0.49642169  1
  Ca2+  Ca14  1  0.07641613  0.33552750  0.82353079  1
  Ca2+  Ca15  1  0.08759060  0.83255258  0.16200866  1
  Ca2+  Ca16  1  0.07678565  0.83228028  0.49863620  1
  Ca2+  Ca17  1  0.07929248  0.83231401  0.82785981  1
  Ca2+  Ca18  1  0.58409437  0.33368486  0.16925530  1
  Ca2+  Ca19  1  0.57756971  0.33808923  0.49083551  1
  Ca2+  Ca20  1  0.57847459  0.34339943  0.82866402  1
  Ca2+  Ca21  1  0.57235900  0.83355532  0.16200881  1
  Ca2+  Ca22  1  0.58081415  0.81712714  0.49121424  1
  Ca2+  Ca23  1  0.58256915  0.82948644  0.82839782  1
  Ca2+  Ca24  1  0.32887071  0.41747700  0.17628869  1
  Ca2+  Ca25  1  0.33677578  0.41540129  0.50531549  1
  Ca2+  Ca26  1  0.32147494  0.41040846  0.83405160  1
  Ca2+  Ca27  1  0.33369748  0.91667134  0.17382786  1
  Ca2+  Ca28  1  0.33941603  0.92264251  0.49678934  1
  Ca2+  Ca29  1  0.32864208  0.91835433  0.84380204  1
  Ca2+  Ca30  1  0.82543121  0.40711014  0.17213125  1
  Ca2+  Ca31  1  0.82352490  0.41403351  0.50666596  1
  Ca2+  Ca32  1  0.82761261  0.41383068  0.83759658  1
  Ca2+  Ca33  1  0.82483816  0.92421643  0.17385458  1
  Ca2+  Ca34  1  0.83817326  0.92442494  0.50423872  1
  Ca2+  Ca35  1  0.82919133  0.91686179  0.83831180  1
  Ca2+  Ca36  1  0.41815906  0.16595583  0.17225805  1
  Ca2+  Ca37  1  0.42136604  0.17837745  0.49108425  1
  Ca2+  Ca38  1  0.42055874  0.17287057  0.82670916  1
  Ca2+  Ca39  1  0.41744478  0.67095010  0.16817700  1
  Ca2+  Ca40  1  0.42746736  0.66421432  0.48951588  1
  Ca2+  Ca41  1  0.42304779  0.67231731  0.82878986  1
  Ca2+  Ca42  1  0.91327549  0.17525847  0.16995256  1
  Ca2+  Ca43  1  0.92420370  0.17616702  0.49177414  1
  Ca2+  Ca44  1  0.92372189  0.18015655  0.82645090  1
  Ca2+  Ca45  1  0.91915370  0.66676822  0.16386642  1
  Ca2+  Ca46  1  0.90769317  0.67067201  0.50193887  1
  Ca2+  Ca47  1  0.91136911  0.67226369  0.82448757  1
  Al0+  Al48  1  0.00152610  0.00067435  0.00445009  1
  Al0+  Al49  1  -0.00179806  -0.00068627  0.33367310  1
  Al0+  Al50  1  0.00153311  -0.00054152  0.66131599  1
  Al0+  Al51  1  0.00041089  0.50033431  0.00024310  1
  Al0+  Al52  1  -0.00170143  0.50190365  0.33016086  1
  Al0+  Al53  1  0.00099543  0.50248236  0.66851706  1
  Al0+  Al54  1  0.50027556  -0.00039315  -0.00179777  1
  Al0+  Al55  1  0.49773747  -0.00126453  0.33350860  1
  Al0+  Al56  1  0.49940081  0.00107566  0.66820383  1
  Al0+  Al57  1  0.50179453  0.50098552  0.00167836  1
  Al0+  Al58  1  0.49883512  0.50045071  0.33160663  1
  Al0+  Al59  1  0.50040564  0.50262020  0.66554487  1
  Al0+  Al60  1  0.25052284  0.24943971  0.00441593  1
  Al0+  Al61  1  0.24787311  0.24688799  0.32984780  1
  Al0+  Al62  1  0.25286357  0.25015043  0.66593522  1
  Al0+  Al63  1  0.25044317  0.75068960  -0.00266245  1
  Al0+  Al64  1  0.24866595  0.74786476  0.33671566  1
  Al0+  Al65  1  0.24971129  0.75254451  0.66689566  1
  Al0+  Al66  1  0.75079866  0.25026367  -0.00189929  1
  Al0+  Al67  1  0.74979367  0.24860035  0.33610259  1
  Al0+  Al68  1  0.75013883  0.24802410  0.67144198  1
  Al0+  Al69  1  0.74959563  0.74983372  0.00480747  1
  Al0+  Al70  1  0.74939204  0.74810727  0.32698841  1
  Al0+  Al71  1  0.74916388  0.75049216  0.66174903  1
  Al0+  Al72  1  0.67840748  0.42723333  0.68230425  1
  Al0+  Al73  1  0.67831576  0.92812657  0.01373335  1
  Al0+  Al74  1  0.31955404  0.56921035  0.34657596  1
  Al0+  Al75  1  0.07153150  0.17981883  0.65248949  1
  Al0+  Al76  1  0.57141185  0.17921116  0.31970268  1
  Al0+  Al77  1  0.81993013  0.06919924  0.34859205  1
  Al0+  Al78  1  0.57231929  0.67699694  0.31489494  1
  Al0+  Al79  1  0.43239100  0.32023599  0.65596498  1
  Al0+  Al80  1  0.42789942  0.32187479  0.31755545  1
  Al0+  Al81  1  0.07069116  0.17711170  0.31585327  1
  Al0+  Al82  1  0.67960758  0.42911738  0.01562651  1
  Al0+  Al83  1  0.18146346  0.42912588  0.67794579  1
  Al0+  Al84  1  0.92963194  0.81980154  0.65402300  1
  Al0+  Al85  1  0.56912345  0.68175807  0.65361569  1
  Al0+  Al86  1  0.17830420  0.42797962  0.01466873  1
  Al0+  Al87  1  0.17942025  0.92900964  0.01270016  1
  Al0+  Al88  1  0.42960189  0.82099659  0.98449819  1
  Al0+  Al89  1  0.92678962  0.32430696  0.65169956  1
  Al0+  Al90  1  0.92889708  0.32237710  0.31846329  1
  Al0+  Al91  1  0.92955201  0.32079705  0.98444403  1
  Al0+  Al92  1  0.42789283  0.81963570  0.31918670  1
  Al0+  Al93  1  0.68079121  0.43011295  0.34653939  1
  Al0+  Al94  1  0.82064730  0.57276276  0.68053901  1
  Al0+  Al95  1  0.32030731  0.07057820  0.34860760  1
  Si0+  Si96  1  0.57348629  0.67732915  0.98097782  1
  Si0+  Si97  1  0.82144831  0.07132137  0.01646141  1
  Si0+  Si98  1  0.92877038  0.82152917  0.98725113  1
  Si0+  Si99  1  0.67983353  0.93014565  0.67963934  1
  Si0+  Si100  1  0.32298690  0.57505917  0.68426773  1
  Si0+  Si101  1  0.17807073  0.92860000  0.68174700  1
  Si0+  Si102  1  0.07386859  0.17754254  0.98360681  1
  Si0+  Si103  1  0.92836239  0.82139919  0.31635825  1
  Si0+  Si104  1  0.57281765  0.17407512  0.65238375  1
  Si0+  Si105  1  0.07509994  0.67764346  0.64942096  1
  Si0+  Si106  1  0.07112170  0.67986173  0.98445039  1
  Si0+  Si107  1  0.07076954  0.68002971  0.31818649  1
  Si0+  Si108  1  0.42850829  0.32223806  0.98539536  1
  Si0+  Si109  1  0.82420959  0.57432619  0.34955052  1
  Si0+  Si110  1  0.82396502  0.06990185  0.68300509  1
  Si0+  Si111  1  0.32325215  0.07188999  0.01699088  1
  Si0+  Si112  1  0.57086001  0.17925686  0.98508471  1
  Si0+  Si113  1  0.32138928  0.57154114  0.01473596  1
  Si0+  Si114  1  0.82286265  0.57265035  0.01744279  1
  Si0+  Si115  1  0.17564432  0.42709697  0.34884799  1
  Si0+  Si116  1  0.32111365  0.07024234  0.68259949  1
  Si0+  Si117  1  0.17694114  0.92662557  0.35258287  1
  Si0+  Si118  1  0.42575517  0.82477865  0.64991614  1
  Si0+  Si119  1  0.67714779  0.92593101  0.35070055  1
  O2-  O120  1  0.25394045  0.00280123  0.05922823  1
  O2-  O121  1  0.24374423  -0.00285776  0.39640283  1
  O2-  O122  1  0.25031250  -0.00163972  0.72410012  1
  O2-  O123  1  0.25615617  0.49995329  0.05971136  1
  O2-  O124  1  0.24946773  0.49010579  0.39326936  1
  O2-  O125  1  0.25389002  0.50615448  0.72738104  1
  O2-  O126  1  0.75279374  0.00242796  0.06034223  1
  O2-  O127  1  0.74520661  -0.00567060  0.39660122  1
  O2-  O128  1  0.74930126  0.00174996  0.72457509  1
  O2-  O129  1  0.75549187  0.50315455  0.06115961  1
  O2-  O130  1  0.75581440  0.50529738  0.39173942  1
  O2-  O131  1  0.75546805  0.49515925  0.73203418  1
  O2-  O132  1  0.00206819  0.25223889  0.26654404  1
  O2-  O133  1  -0.00068647  0.25181572  0.60360513  1
  O2-  O134  1  0.00822278  0.24878400  0.93933685  1
  O2-  O135  1  -0.00051531  0.75047730  0.27455991  1
  O2-  O136  1  0.00275047  0.74361802  0.60658891  1
  O2-  O137  1  -0.00138570  0.75039639  0.94332530  1
  O2-  O138  1  0.50014256  0.25023799  0.26681207  1
  O2-  O139  1  0.51203654  0.25037514  0.61109597  1
  O2-  O140  1  0.50067751  0.25162981  0.94338442  1
  O2-  O141  1  0.50151150  0.75117123  0.26664495  1
  O2-  O142  1  0.49116954  0.75342224  0.60736948  1
  O2-  O143  1  0.50580997  0.74802569  0.93746397  1
  O2-  O144  1  0.07304602  0.17564335  0.08849889  1
  O2-  O145  1  0.06855003  0.17832055  0.42931092  1
  O2-  O146  1  0.06973177  0.17720366  0.76673050  1
  O2-  O147  1  0.07105730  0.68107153  0.08981106  1
  O2-  O148  1  0.07096902  0.68126978  0.42303163  1
  O2-  O149  1  0.07863985  0.68184211  0.75523307  1
  O2-  O150  1  0.57083590  0.17737062  0.08948206  1
  O2-  O151  1  0.57077376  0.18105805  0.43353476  1
  O2-  O152  1  0.56764975  0.16576503  0.75822196  1
  O2-  O153  1  0.57217036  0.67648509  0.08596435  1
  O2-  O154  1  0.57249831  0.67886843  0.42866561  1
  O2-  O155  1  0.56852792  0.68533681  0.76723109  1
  O2-  O156  1  0.17476279  0.43260288  0.24289611  1
  O2-  O157  1  0.18430825  0.43020517  0.56516988  1
  O2-  O158  1  0.17902627  0.42874031  0.90124138  1
  O2-  O159  1  0.17754709  0.92516304  0.24667526  1
  O2-  O160  1  0.17752360  0.92531133  0.57734539  1
  O2-  O161  1  0.17836948  0.93057257  0.89912856  1
  O2-  O162  1  0.68275560  0.43054254  0.23301377  1
  O2-  O163  1  0.67540201  0.42926488  0.56931205  1
  O2-  O164  1  0.67781471  0.43101101  0.90276150  1
  O2-  O165  1  0.68041972  0.92716449  0.24480817  1
  O2-  O166  1  0.68001895  0.93161105  0.57507775  1
  O2-  O167  1  0.68115886  0.92946623  0.89972878  1
  O2-  O168  1  0.42725081  0.32219718  0.08977088  1
  O2-  O169  1  0.42958717  0.32119887  0.43131138  1
  O2-  O170  1  0.43008185  0.31616014  0.77005725  1
  O2-  O171  1  0.42820876  0.81999551  0.09681353  1
  O2-  O172  1  0.42920338  0.81777487  0.43309473  1
  O2-  O173  1  0.42645612  0.82624007  0.75586529  1
  O2-  O174  1  0.92833780  0.31810599  0.09703138  1
  O2-  O175  1  0.92996782  0.32311230  0.43176178  1
  O2-  O176  1  0.92853677  0.32094743  0.76590973  1
  O2-  O177  1  0.93015491  0.82002114  0.09229274  1
  O2-  O178  1  0.92850415  0.82103014  0.42148686  1
  O2-  O179  1  0.93135645  0.82116335  0.76780829  1
  O2-  O180  1  0.31966401  0.06682920  0.23536759  1
  O2-  O181  1  0.32324373  0.06920206  0.57818200  1
  O2-  O182  1  0.32316782  0.07214849  0.91072985  1
  O2-  O183  1  0.31421277  0.57178820  0.23319132  1
  O2-  O184  1  0.32167672  0.57642212  0.57889758  1
  O2-  O185  1  0.31958707  0.57134398  0.90890918  1
  O2-  O186  1  0.81917939  0.06571559  0.23514046  1
  O2-  O187  1  0.82449836  0.06822647  0.57825258  1
  O2-  O188  1  0.82125721  0.06861242  0.91032118  1
  O2-  O189  1  0.82685070  0.57598143  0.24384681  1
  O2-  O190  1  0.81516791  0.57642694  0.56747267  1
  O2-  O191  1  0.82263705  0.57610586  0.91210665  1
  O2-  O192  1  0.03981667  0.07806403  0.26464216  1
  O2-  O193  1  0.04584253  0.08127146  0.59922114  1
  O2-  O194  1  0.04513294  0.08370074  0.93774244  1
  O2-  O195  1  0.04331128  0.58957692  0.26780771  1
  O2-  O196  1  0.05447187  0.58371935  0.60381637  1
  O2-  O197  1  0.04366377  0.58833615  0.93673117  1
  O2-  O198  1  0.54299666  0.08002492  0.26807221  1
  O2-  O199  1  0.54048231  0.08419411  0.60261559  1
  O2-  O200  1  0.54179076  0.08851130  0.93508654  1
  O2-  O201  1  0.53888065  0.58133178  0.26136857  1
  O2-  O202  1  0.53986903  0.58570081  0.59918090  1
  O2-  O203  1  0.54507604  0.58446184  0.93417696  1
  O2-  O204  1  0.17000527  0.19877172  0.26299761  1
  O2-  O205  1  0.17042197  0.20783989  0.60177479  1
  O2-  O206  1  0.16965911  0.19912181  0.93939233  1
  O2-  O207  1  0.16095962  0.70968849  0.26904694  1
  O2-  O208  1  0.16674047  0.70875932  0.60146702  1
  O2-  O209  1  0.16122578  0.70883734  0.93502543  1
  O2-  O210  1  0.66970233  0.20545428  0.26623604  1
  O2-  O211  1  0.67014953  0.19029108  0.61251978  1
  O2-  O212  1  0.66303546  0.20408675  0.93674384  1
  O2-  O213  1  0.67141141  0.70188425  0.26105699  1
  O2-  O214  1  0.66266688  0.71591350  0.59731933  1
  O2-  O215  1  0.66819670  0.70405231  0.93742160  1
  O2-  O216  1  0.08336812  0.46333758  0.06863865  1
  O2-  O217  1  0.08423173  0.46077839  0.39466328  1
  O2-  O218  1  0.08528796  0.45996736  0.73384980  1
  O2-  O219  1  0.08305111  0.95679857  0.06941737  1
  O2-  O220  1  0.08177456  0.94944380  0.39621405  1
  O2-  O221  1  0.08659291  0.95763508  0.72988283  1
  O2-  O222  1  0.58254961  0.45989004  0.06908361  1
  O2-  O223  1  0.58333275  0.46096315  0.39778888  1
  O2-  O224  1  0.58138372  0.46360721  0.73585797  1
  O2-  O225  1  0.58173546  0.95967535  0.06602099  1
  O2-  O226  1  0.58306707  0.94858414  0.39556248  1
  O2-  O227  1  0.58729791  0.95670522  0.72820388  1
  O2-  O228  1  0.20617577  0.33093100  0.06842916  1
  O2-  O229  1  0.19437640  0.33078742  0.38973505  1
  O2-  O230  1  0.21557836  0.33400396  0.73441862  1
  O2-  O231  1  0.20855069  0.83144458  0.06570162  1
  O2-  O232  1  0.20322886  0.83387404  0.39995800  1
  O2-  O233  1  0.20401689  0.83668521  0.73131793  1
  O2-  O234  1  0.70961394  0.33085868  0.06626914  1
  O2-  O235  1  0.70936662  0.33363123  0.40080485  1
  O2-  O236  1  0.69882145  0.32615146  0.73560381  1
  O2-  O237  1  0.70839039  0.83254969  0.06936713  1
  O2-  O238  1  0.70582523  0.83151460  0.39346722  1
  O2-  O239  1  0.70985360  0.83968221  0.72770906  1
  O2-  O240  1  0.45448319  0.41971765  0.26396371  1
  O2-  O241  1  0.45530733  0.41891770  0.60401083  1
  O2-  O242  1  0.45639050  0.41443851  0.93832453  1
  O2-  O243  1  0.45351075  0.91838854  0.26644669  1
  O2-  O244  1  0.45446138  0.91786504  0.60491153  1
  O2-  O245  1  0.45875721  0.91839223  0.92979111  1
  O2-  O246  1  0.95355749  0.42206521  0.26487444  1
  O2-  O247  1  0.95347381  0.42411064  0.60209532  1
  O2-  O248  1  0.95795431  0.41950559  0.93335393  1
  O2-  O249  1  0.95634925  0.91209996  0.26805963  1
  O2-  O250  1  0.96373237  0.91353925  0.59693334  1
  O2-  O251  1  0.95674533  0.91395734  0.94073885  1
  O2-  O252  1  0.32936405  0.29297842  0.26551233  1
  O2-  O253  1  0.33879031  0.28509028  0.60063809  1
  O2-  O254  1  0.33649183  0.29227925  0.93828767  1
  O2-  O255  1  0.32850970  0.78949979  0.26848727  1
  O2-  O256  1  0.33041246  0.80452931  0.60582001  1
  O2-  O257  1  0.33303319  0.78961203  0.92912854  1
  O2-  O258  1  0.83217214  0.28733179  0.26675381  1
  O2-  O259  1  0.82722118  0.29337500  0.60306678  1
  O2-  O260  1  0.83393514  0.28655237  0.92965358  1
  O2-  O261  1  0.83749552  0.79411816  0.26700198  1
  O2-  O262  1  0.83414090  0.79210486  0.59726413  1
  O2-  O263  1  0.83616178  0.79449165  0.94035087  1
  O2-  O264  1  0.41648005  0.04522491  0.06185303  1
  O2-  O265  1  0.41624386  0.03853078  0.40434110  1
  O2-  O266  1  0.41242992  0.04211517  0.73271260  1
  O2-  O267  1  0.41618250  0.55031281  0.05930395  1
  O2-  O268  1  0.41670914  0.54242352  0.40010375  1
  O2-  O269  1  0.41596240  0.55009656  0.73087164  1
  O2-  O270  1  0.91452784  0.04576566  0.06290807  1
  O2-  O271  1  0.91545262  0.03488321  0.40314608  1
  O2-  O272  1  0.91427430  0.03627249  0.73005349  1
  O2-  O273  1  0.91743788  0.54977035  0.06264644  1
  O2-  O274  1  0.91870750  0.55227075  0.39586107  1
  O2-  O275  1  0.92322391  0.55732821  0.73074777  1
  O2-  O276  1  0.29930017  0.16495940  0.06392229  1
  O2-  O277  1  0.28992750  0.16790408  0.40242370  1
  O2-  O278  1  0.29310837  0.16082445  0.73211231  1
  O2-  O279  1  0.29076865  0.66368435  0.06041978  1
  O2-  O280  1  0.28382341  0.66309821  0.40362670  1
  O2-  O281  1  0.29713283  0.66965958  0.72990602  1
  O2-  O282  1  0.79347321  0.16401627  0.06139485  1
  O2-  O283  1  0.78910716  0.16424368  0.40455732  1
  O2-  O284  1  0.79890406  0.16097942  0.73315713  1
  O2-  O285  1  0.79840009  0.66603109  0.06534986  1
  O2-  O286  1  0.79869596  0.66915618  0.39367160  1
  O2-  O287  1  0.78670420  0.67078979  0.73435335  1
