# generated using pymatgen
data_Ca2Al2SiO7
_symmetry_space_group_name_H-M   'P 1'
_cell_length_a   15.45966528
_cell_length_b   15.45924056
_cell_length_c   15.28381852
_cell_angle_alpha   90.01657928
_cell_angle_beta   90.01365361
_cell_angle_gamma   90.00298145
_symmetry_Int_Tables_number   1
_chemical_formula_structural   Ca2Al2SiO7
_chemical_formula_sum   'Ca48 Al48 Si24 O168'
_cell_volume   3652.75112461
_cell_formula_units_Z   24
loop_
 _symmetry_equiv_pos_site_id
 _symmetry_equiv_pos_as_xyz
  1  'x, y, z'
loop_
 _atom_type_symbol
 _atom_type_oxidation_number
  Ca2+  2.0
  Al0+  0.0
  Si0+  0.0
  O2-  -2.0
loop_
 _atom_site_type_symbol
 _atom_site_label
 _atom_site_symmetry_multiplicity
 _atom_site_fract_x
 _atom_site_fract_y
 _atom_site_fract_z
 _atom_site_occupancy
  Ca2+  Ca0  1  0.16705001  0.07590388  0.17648586  1
  Ca2+  Ca1  1  0.16528682  0.07974030  0.49859792  1
  Ca2+  Ca2  1  0.16647806  0.07468972  0.83742457  1
  Ca2+  Ca3  1  0.16400739  0.57554470  0.16725584  1
  Ca2+  Ca4  1  0.17095423  0.58309841  0.50349577  1
  Ca2+  Ca5  1  0.17001961  0.57721722  0.83951622  1
  Ca2+  Ca6  1  0.67213708  0.07544303  0.17220206  1
  Ca2+  Ca7  1  0.65751201  0.08058404  0.50123871  1
  Ca2+  Ca8  1  0.67298136  0.08074267  0.84229252  1
  Ca2+  Ca9  1  0.66978651  0.57520748  0.17199454  1
  Ca2+  Ca10  1  0.66872265  0.57315443  0.50202851  1
  Ca2+  Ca11  1  0.65943905  0.57338024  0.83668905  1
  Ca2+  Ca12  1  0.07941387  0.32612065  0.15856310  1
  Ca2+  Ca13  1  0.07626519  0.32836912  0.49177254  1
  Ca2+  Ca14  1  0.06960629  0.33909276  0.83080973  1
  Ca2+  Ca15  1  0.07412192  0.84084702  0.16263223  1
  Ca2+  Ca16  1  0.07435244  0.84322851  0.49529519  1
  Ca2+  Ca17  1  0.07451362  0.84386692  0.83046336  1
  Ca2+  Ca18  1  0.58528522  0.33377863  0.16627800  1
  Ca2+  Ca19  1  0.58057868  0.32570498  0.49451838  1
  Ca2+  Ca20  1  0.58481527  0.32875724  0.82145374  1
  Ca2+  Ca21  1  0.59154480  0.82981090  0.15872182  1
  Ca2+  Ca22  1  0.59041921  0.82678535  0.49327593  1
  Ca2+  Ca23  1  0.59558616  0.81976725  0.83129105  1
  Ca2+  Ca24  1  0.33036917  0.41274547  0.17042419  1
  Ca2+  Ca25  1  0.33847183  0.40945221  0.50207044  1
  Ca2+  Ca26  1  0.33010803  0.41387761  0.83762992  1
  Ca2+  Ca27  1  0.32112726  0.92187353  0.17756795  1
  Ca2+  Ca28  1  0.32271859  0.92378328  0.50414869  1
  Ca2+  Ca29  1  0.32062891  0.91339033  0.83886079  1
  Ca2+  Ca30  1  0.82376666  0.41891162  0.17269858  1
  Ca2+  Ca31  1  0.82378456  0.41523588  0.50559014  1
  Ca2+  Ca32  1  0.82370835  0.41125648  0.84035691  1
  Ca2+  Ca33  1  0.82872177  0.91454381  0.16931580  1
  Ca2+  Ca34  1  0.83381405  0.91487337  0.49947735  1
  Ca2+  Ca35  1  0.83448606  0.92305472  0.84242014  1
  Ca2+  Ca36  1  0.42022160  0.16415037  0.17141616  1
  Ca2+  Ca37  1  0.42287145  0.17394361  0.49094694  1
  Ca2+  Ca38  1  0.42654061  0.17300993  0.82464066  1
  Ca2+  Ca39  1  0.42573679  0.66963086  0.15984685  1
  Ca2+  Ca40  1  0.42428682  0.66624477  0.49926032  1
  Ca2+  Ca41  1  0.42906979  0.66641491  0.83073992  1
  Ca2+  Ca42  1  0.91965126  0.16610841  0.16181390  1
  Ca2+  Ca43  1  0.92122402  0.17142718  0.49715918  1
  Ca2+  Ca44  1  0.90868519  0.17727891  0.83303125  1
  Ca2+  Ca45  1  0.90746599  0.67677651  0.16496389  1
  Ca2+  Ca46  1  0.91098332  0.67729143  0.49382090  1
  Ca2+  Ca47  1  0.91440208  0.68155458  0.82933169  1
  Al0+  Al48  1  0.00189199  0.00168920  0.00253786  1
  Al0+  Al49  1  -0.00231927  0.00024384  0.32845093  1
  Al0+  Al50  1  -0.00121217  0.00075147  0.66770339  1
  Al0+  Al51  1  0.00079044  0.50051152  0.00001687  1
  Al0+  Al52  1  0.00059663  0.50339447  0.33763945  1
  Al0+  Al53  1  -0.00070487  0.50301436  0.66272375  1
  Al0+  Al54  1  0.49886143  -0.00028649  0.00012061  1
  Al0+  Al55  1  0.49853399  0.00048839  0.33773988  1
  Al0+  Al56  1  0.49854157  -0.00215424  0.66757491  1
  Al0+  Al57  1  0.49976147  0.50051212  -0.00002237  1
  Al0+  Al58  1  0.49957928  0.49984963  0.33237724  1
  Al0+  Al59  1  0.50015624  0.50116064  0.66343406  1
  Al0+  Al60  1  0.25056722  0.24967859  0.00184427  1
  Al0+  Al61  1  0.24971197  0.24961389  0.32903171  1
  Al0+  Al62  1  0.24993004  0.24880481  0.66700192  1
  Al0+  Al63  1  0.25098786  0.74929277  0.00401549  1
  Al0+  Al64  1  0.24829733  0.74803887  0.33707605  1
  Al0+  Al65  1  0.24963041  0.74892499  0.67332405  1
  Al0+  Al66  1  0.75047642  0.24950815  0.00568697  1
  Al0+  Al67  1  0.74880751  0.24889699  0.33345140  1
  Al0+  Al68  1  0.75045332  0.24921781  0.66148298  1
  Al0+  Al69  1  0.75091683  0.74861971  -0.00819708  1
  Al0+  Al70  1  0.75098102  0.74986540  0.33605695  1
  Al0+  Al71  1  0.75170951  0.74901129  0.65801361  1
  Al0+  Al72  1  0.93158909  0.82131702  0.98567049  1
  Al0+  Al73  1  0.67976814  0.92669081  0.01167922  1
  Al0+  Al74  1  0.92871029  0.32137870  0.98847791  1
  Al0+  Al75  1  0.57057375  0.68030365  0.65016486  1
  Al0+  Al76  1  0.17816578  0.42888689  0.01274465  1
  Al0+  Al77  1  0.67821788  0.42767565  0.35022816  1
  Al0+  Al78  1  0.57232434  0.17617711  0.65277932  1
  Al0+  Al79  1  0.82165754  0.57147394  0.34889539  1
  Al0+  Al80  1  0.18014312  0.92913111  0.01552233  1
  Al0+  Al81  1  0.92875323  0.32317268  0.65268343  1
  Al0+  Al82  1  0.42779301  0.32064605  0.65337515  1
  Al0+  Al83  1  0.92986570  0.81891264  0.31767791  1
  Al0+  Al84  1  0.06876743  0.18085267  0.31934585  1
  Al0+  Al85  1  0.57234058  0.17619224  0.31499161  1
  Al0+  Al86  1  0.17622720  0.92859417  0.34956719  1
  Al0+  Al87  1  0.68085876  0.42997668  0.68045992  1
  Al0+  Al88  1  0.57108797  0.67916500  0.98651955  1
  Al0+  Al89  1  0.67789032  0.42877721  0.01284429  1
  Al0+  Al90  1  0.67935961  0.92975845  0.34720400  1
  Al0+  Al91  1  0.43036208  0.32191036  0.31486580  1
  Al0+  Al92  1  0.17857175  0.93063017  0.68206218  1
  Al0+  Al93  1  0.82129734  0.07183914  0.01559973  1
  Al0+  Al94  1  0.93146280  0.82208139  0.65154023  1
  Al0+  Al95  1  0.32024049  0.07254468  0.35015846  1
  Si0+  Si96  1  0.81994075  0.06998994  0.68051730  1
  Si0+  Si97  1  0.42461486  0.82033721  0.65075745  1
  Si0+  Si98  1  0.92780714  0.32533387  0.31725904  1
  Si0+  Si99  1  0.32297606  0.07265346  0.68573836  1
  Si0+  Si100  1  0.32124074  0.57040344  0.68291553  1
  Si0+  Si101  1  0.07384838  0.17911654  0.98187747  1
  Si0+  Si102  1  0.17708027  0.42811311  0.67992728  1
  Si0+  Si103  1  0.17956633  0.42890514  0.34824507  1
  Si0+  Si104  1  0.42624095  0.82045506  0.32078532  1
  Si0+  Si105  1  0.56966443  0.68121133  0.31776780  1
  Si0+  Si106  1  0.42657483  0.82277789  0.98416738  1
  Si0+  Si107  1  0.57107028  0.17838974  0.98604720  1
  Si0+  Si108  1  0.07489920  0.67753915  0.98303572  1
  Si0+  Si109  1  0.07424625  0.67832609  0.65024140  1
  Si0+  Si110  1  0.32148238  0.57097418  0.34878050  1
  Si0+  Si111  1  0.07509677  0.67627824  0.31537644  1
  Si0+  Si112  1  0.67828907  0.92611878  0.68037544  1
  Si0+  Si113  1  0.42878119  0.32082427  0.98486546  1
  Si0+  Si114  1  0.07107898  0.17896099  0.65206141  1
  Si0+  Si115  1  0.82247631  0.57227798  0.01324924  1
  Si0+  Si116  1  0.32325597  0.07308459  0.01712505  1
  Si0+  Si117  1  0.32245195  0.57041732  0.01742871  1
  Si0+  Si118  1  0.82235181  0.07220027  0.35124339  1
  Si0+  Si119  1  0.82288927  0.57358195  0.68498142  1
  O2-  O120  1  0.25578532  0.00300421  0.06054734  1
  O2-  O121  1  0.24826978  0.00011667  0.39992023  1
  O2-  O122  1  0.25533011  0.00282864  0.73010561  1
  O2-  O123  1  0.25256531  0.50301106  0.06130704  1
  O2-  O124  1  0.25139346  0.49892071  0.39115089  1
  O2-  O125  1  0.25048740  0.49722999  0.72232683  1
  O2-  O126  1  0.75096691  -0.00260618  0.06410620  1
  O2-  O127  1  0.74987620  0.00757355  0.39582615  1
  O2-  O128  1  0.74551659  0.00109629  0.72138347  1
  O2-  O129  1  0.75513865  0.50211246  0.05688898  1
  O2-  O130  1  0.75463427  0.49548709  0.39962988  1
  O2-  O131  1  0.75677622  0.50289674  0.72982050  1
  O2-  O132  1  -0.00499745  0.25618740  0.27201245  1
  O2-  O133  1  0.00769613  0.25233056  0.60758139  1
  O2-  O134  1  0.00444214  0.24800571  0.93905852  1
  O2-  O135  1  0.00637902  0.74489058  0.27225536  1
  O2-  O136  1  0.00725911  0.74782579  0.60603695  1
  O2-  O137  1  0.00877575  0.74832346  0.93854429  1
  O2-  O138  1  0.50334648  0.25134726  0.26429458  1
  O2-  O139  1  0.49886083  0.24775549  0.60458332  1
  O2-  O140  1  0.50115987  0.25104052  0.94365071  1
  O2-  O141  1  0.50015404  0.75385131  0.27580574  1
  O2-  O142  1  0.49815556  0.75822421  0.60449028  1
  O2-  O143  1  0.49930543  0.75801890  0.94025054  1
  O2-  O144  1  0.07529836  0.18089348  0.08736521  1
  O2-  O145  1  0.06718354  0.18348458  0.43309086  1
  O2-  O146  1  0.07005180  0.17886928  0.75769525  1
  O2-  O147  1  0.07549162  0.67601927  0.08832894  1
  O2-  O148  1  0.07852910  0.67461722  0.42087359  1
  O2-  O149  1  0.07447368  0.67564665  0.75578825  1
  O2-  O150  1  0.56917753  0.17653759  0.09047135  1
  O2-  O151  1  0.56913654  0.17618863  0.42845042  1
  O2-  O152  1  0.57271726  0.17759073  0.76742455  1
  O2-  O153  1  0.56847153  0.67844447  0.09983274  1
  O2-  O154  1  0.56707015  0.68126290  0.42300186  1
  O2-  O155  1  0.56893416  0.67986781  0.76349651  1
  O2-  O156  1  0.17907119  0.43141933  0.24316142  1
  O2-  O157  1  0.17684233  0.42987524  0.57476202  1
  O2-  O158  1  0.18034818  0.43083293  0.89905495  1
  O2-  O159  1  0.17885174  0.92858537  0.23600323  1
  O2-  O160  1  0.17871838  0.93247137  0.56956334  1
  O2-  O161  1  0.18090017  0.93070525  0.90187715  1
  O2-  O162  1  0.67758289  0.43216744  0.23620893  1
  O2-  O163  1  0.68119495  0.43114714  0.56810893  1
  O2-  O164  1  0.67624430  0.42834354  0.89938544  1
  O2-  O165  1  0.68187960  0.92607260  0.23432537  1
  O2-  O166  1  0.67966865  0.92563519  0.57531734  1
  O2-  O167  1  0.68145008  0.92858907  0.89744361  1
  O2-  O168  1  0.42735910  0.32126101  0.08939143  1
  O2-  O169  1  0.43028187  0.32243148  0.42831092  1
  O2-  O170  1  0.42704078  0.31950173  0.76775508  1
  O2-  O171  1  0.42400766  0.81984077  0.08979032  1
  O2-  O172  1  0.42538328  0.81496712  0.42589532  1
  O2-  O173  1  0.42229806  0.81633008  0.75641718  1
  O2-  O174  1  0.93132721  0.32136323  0.10123224  1
  O2-  O175  1  0.93184401  0.32438584  0.42325810  1
  O2-  O176  1  0.92830526  0.32177369  0.76604885  1
  O2-  O177  1  0.93005868  0.81809031  0.09832916  1
  O2-  O178  1  0.93109520  0.81860595  0.43093851  1
  O2-  O179  1  0.93182120  0.82299532  0.76476495  1
  O2-  O180  1  0.31858809  0.06883095  0.23617125  1
  O2-  O181  1  0.32186160  0.07312537  0.58082651  1
  O2-  O182  1  0.32249419  0.07371442  0.91125047  1
  O2-  O183  1  0.32075931  0.57292800  0.24383146  1
  O2-  O184  1  0.31930519  0.57387805  0.57775754  1
  O2-  O185  1  0.32294595  0.56918580  0.91157737  1
  O2-  O186  1  0.82374524  0.06972858  0.24586341  1
  O2-  O187  1  0.82409001  0.06842072  0.57568987  1
  O2-  O188  1  0.81827227  0.07364238  0.90112304  1
  O2-  O189  1  0.81803536  0.57225047  0.23475038  1
  O2-  O190  1  0.82156092  0.57356770  0.57969868  1
  O2-  O191  1  0.82225457  0.57229369  0.90757488  1
  O2-  O192  1  0.03736552  0.08551834  0.26389988  1
  O2-  O193  1  0.03868185  0.08840505  0.60459205  1
  O2-  O194  1  0.04833793  0.08558324  0.93638974  1
  O2-  O195  1  0.04950448  0.58218616  0.26935467  1
  O2-  O196  1  0.04985079  0.58564229  0.60131789  1
  O2-  O197  1  0.04856552  0.58452907  0.93559060  1
  O2-  O198  1  0.54008396  0.07728088  0.26383496  1
  O2-  O199  1  0.54554127  0.07580366  0.60261998  1
  O2-  O200  1  0.54270655  0.08689497  0.93682477  1
  O2-  O201  1  0.53868394  0.59061350  0.27038740  1
  O2-  O202  1  0.53453058  0.58642425  0.59531498  1
  O2-  O203  1  0.53372001  0.58458485  0.93103605  1
  O2-  O204  1  0.16431441  0.21106369  0.26393240  1
  O2-  O205  1  0.16615864  0.19898213  0.60718606  1
  O2-  O206  1  0.16770922  0.20481665  0.93546995  1
  O2-  O207  1  0.16925966  0.69968250  0.26866226  1
  O2-  O208  1  0.16923276  0.70209129  0.60600418  1
  O2-  O209  1  0.17043936  0.69970984  0.93827089  1
  O2-  O210  1  0.67304025  0.20074259  0.26437669  1
  O2-  O211  1  0.66943368  0.20289431  0.59810967  1
  O2-  O212  1  0.66338205  0.20609031  0.94025113  1
  O2-  O213  1  0.66168398  0.70887720  0.27225228  1
  O2-  O214  1  0.66644943  0.70900711  0.59480066  1
  O2-  O215  1  0.66632234  0.70586647  0.92774845  1
  O2-  O216  1  0.08294283  0.46054166  0.06873968  1
  O2-  O217  1  0.08890665  0.45767215  0.39772515  1
  O2-  O218  1  0.08607849  0.45964071  0.72759569  1
  O2-  O219  1  0.08476091  0.96122632  0.06904082  1
  O2-  O220  1  0.07783379  0.96093614  0.39954429  1
  O2-  O221  1  0.08298360  0.96556587  0.73610706  1
  O2-  O222  1  0.58214153  0.46193952  0.06667523  1
  O2-  O223  1  0.58068520  0.46247052  0.40112877  1
  O2-  O224  1  0.58317304  0.46299631  0.73234765  1
  O2-  O225  1  0.57902808  0.95098215  0.06179510  1
  O2-  O226  1  0.58127180  0.95367538  0.40159686  1
  O2-  O227  1  0.58373613  0.94555532  0.72659727  1
  O2-  O228  1  0.20928987  0.33273055  0.06678821  1
  O2-  O229  1  0.20639136  0.33727774  0.39506772  1
  O2-  O230  1  0.20162853  0.33570391  0.72774084  1
  O2-  O231  1  0.20844778  0.83129399  0.06813079  1
  O2-  O232  1  0.20384584  0.82900030  0.40124726  1
  O2-  O233  1  0.20766518  0.83301392  0.73637633  1
  O2-  O234  1  0.70751528  0.33368178  0.06846143  1
  O2-  O235  1  0.70225039  0.32713880  0.40054629  1
  O2-  O236  1  0.71140572  0.33131920  0.73161295  1
  O2-  O237  1  0.70775861  0.82687078  0.06164763  1
  O2-  O238  1  0.71370736  0.83488704  0.40244134  1
  O2-  O239  1  0.71137168  0.83484452  0.72574841  1
  O2-  O240  1  0.45540261  0.42232664  0.26257378  1
  O2-  O241  1  0.45245910  0.41978465  0.60156363  1
  O2-  O242  1  0.45328076  0.41385276  0.93849695  1
  O2-  O243  1  0.44860573  0.91384187  0.27594937  1
  O2-  O244  1  0.44297626  0.91655641  0.60852788  1
  O2-  O245  1  0.44512379  0.91799916  0.93835023  1
  O2-  O246  1  0.95479003  0.41968116  0.27396350  1
  O2-  O247  1  0.95676445  0.42049595  0.59881255  1
  O2-  O248  1  0.95978841  0.41791378  0.93313019  1
  O2-  O249  1  0.95816860  0.91540429  0.26335557  1
  O2-  O250  1  0.96262588  0.91868095  0.59805744  1
  O2-  O251  1  0.96237352  0.91925367  0.93326018  1
  O2-  O252  1  0.33122612  0.29368519  0.26300115  1
  O2-  O253  1  0.32798601  0.29466393  0.60093707  1
  O2-  O254  1  0.33689264  0.29216949  0.93689415  1
  O2-  O255  1  0.33580568  0.78797272  0.27244515  1
  O2-  O256  1  0.33309097  0.78800983  0.60420477  1
  O2-  O257  1  0.33493005  0.79075537  0.93626397  1
  O2-  O258  1  0.83297816  0.30184450  0.27432250  1
  O2-  O259  1  0.83599825  0.28730132  0.59620378  1
  O2-  O260  1  0.83208837  0.28809007  0.93446315  1
  O2-  O261  1  0.83332631  0.78461508  0.26486357  1
  O2-  O262  1  0.83645765  0.79050576  0.59562811  1
  O2-  O263  1  0.83690772  0.78903445  0.92827644  1
  O2-  O264  1  0.41699884  0.04885749  0.06296591  1
  O2-  O265  1  0.41733612  0.04376162  0.40446893  1
  O2-  O266  1  0.41683947  0.04745352  0.73276709  1
  O2-  O267  1  0.41428648  0.54284617  0.06531367  1
  O2-  O268  1  0.41293280  0.54430944  0.39700721  1
  O2-  O269  1  0.41266318  0.54319464  0.73076233  1
  O2-  O270  1  0.92090960  0.04734549  0.06625259  1
  O2-  O271  1  0.91387377  0.04145772  0.39835498  1
  O2-  O272  1  0.90975227  0.04003685  0.73078119  1
  O2-  O273  1  0.91671621  0.55098445  0.05951444  1
  O2-  O274  1  0.92285377  0.55253181  0.40158965  1
  O2-  O275  1  0.91901792  0.55278713  0.72849622  1
  O2-  O276  1  0.29746387  0.16614311  0.06352099  1
  O2-  O277  1  0.28990019  0.17141348  0.40097478  1
  O2-  O278  1  0.29563489  0.16577468  0.73330946  1
  O2-  O279  1  0.29921535  0.66405348  0.06434455  1
  O2-  O280  1  0.29219148  0.66066952  0.40002633  1
  O2-  O281  1  0.29209228  0.65980488  0.73480330  1
  O2-  O282  1  0.79215425  0.16784579  0.07173002  1
  O2-  O283  1  0.80298328  0.16781805  0.39561404  1
  O2-  O284  1  0.79356861  0.16243175  0.72749864  1
  O2-  O285  1  0.79298116  0.66462121  0.05903034  1
  O2-  O286  1  0.78766032  0.66695079  0.40391401  1
  O2-  O287  1  0.79418899  0.66768847  0.72888730  1
