# generated using pymatgen
data_Ca2Al2SiO7
_symmetry_space_group_name_H-M   'P 1'
_cell_length_a   15.45961493
_cell_length_b   15.45907266
_cell_length_c   15.28495766
_cell_angle_alpha   90.00320618
_cell_angle_beta   90.00009889
_cell_angle_gamma   89.99661205
_symmetry_Int_Tables_number   1
_chemical_formula_structural   Ca2Al2SiO7
_chemical_formula_sum   'Ca48 Al48 Si24 O168'
_cell_volume   3652.97204883
_cell_formula_units_Z   24
loop_
 _symmetry_equiv_pos_site_id
 _symmetry_equiv_pos_as_xyz
  1  'x, y, z'
loop_
 _atom_type_symbol
 _atom_type_oxidation_number
  Ca2+  2.0
  Al0+  0.0
  Si0+  0.0
  O2-  -2.0
loop_
 _atom_site_type_symbol
 _atom_site_label
 _atom_site_symmetry_multiplicity
 _atom_site_fract_x
 _atom_site_fract_y
 _atom_site_fract_z
 _atom_site_occupancy
  Ca2+  Ca0  1  0.16885585  0.08015516  0.17759875  1
  Ca2+  Ca1  1  0.15507999  0.07135267  0.50104063  1
  Ca2+  Ca2  1  0.16478215  0.07635056  0.83344191  1
  Ca2+  Ca3  1  0.16548348  0.57942841  0.17712003  1
  Ca2+  Ca4  1  0.16485024  0.57467906  0.50488963  1
  Ca2+  Ca5  1  0.17162679  0.57633214  0.83098259  1
  Ca2+  Ca6  1  0.67418258  0.08524625  0.17616445  1
  Ca2+  Ca7  1  0.67399983  0.08448845  0.49970521  1
  Ca2+  Ca8  1  0.67373299  0.09052573  0.83533303  1
  Ca2+  Ca9  1  0.67296998  0.57575239  0.17226240  1
  Ca2+  Ca10  1  0.67183326  0.57647864  0.50336201  1
  Ca2+  Ca11  1  0.67839030  0.58614515  0.83686720  1
  Ca2+  Ca12  1  0.08011884  0.33186892  0.17157109  1
  Ca2+  Ca13  1  0.07945598  0.33281428  0.48911491  1
  Ca2+  Ca14  1  0.08390605  0.33113774  0.82761776  1
  Ca2+  Ca15  1  0.07229177  0.83523306  0.17039910  1
  Ca2+  Ca16  1  0.07674781  0.83166906  0.49094617  1
  Ca2+  Ca17  1  0.07080657  0.83523730  0.82613297  1
  Ca2+  Ca18  1  0.58796321  0.32303811  0.16319383  1
  Ca2+  Ca19  1  0.58621092  0.32387763  0.49392477  1
  Ca2+  Ca20  1  0.57724462  0.32450570  0.82553546  1
  Ca2+  Ca21  1  0.57894688  0.84291528  0.16944015  1
  Ca2+  Ca22  1  0.57730568  0.83538213  0.49035614  1
  Ca2+  Ca23  1  0.58242691  0.83120252  0.82872356  1
  Ca2+  Ca24  1  0.33071420  0.41486991  0.17307122  1
  Ca2+  Ca25  1  0.32160145  0.41676890  0.50912888  1
  Ca2+  Ca26  1  0.33554472  0.40979811  0.83117184  1
  Ca2+  Ca27  1  0.32783020  0.91713683  0.17962127  1
  Ca2+  Ca28  1  0.32123372  0.91232616  0.50173466  1
  Ca2+  Ca29  1  0.32361631  0.91481652  0.83424126  1
  Ca2+  Ca30  1  0.83264749  0.42008196  0.17616999  1
  Ca2+  Ca31  1  0.83173846  0.41751854  0.50113766  1
  Ca2+  Ca32  1  0.83661200  0.43212313  0.83754584  1
  Ca2+  Ca33  1  0.83329016  0.92499350  0.17485351  1
  Ca2+  Ca34  1  0.84128069  0.92683264  0.50243276  1
  Ca2+  Ca35  1  0.83803325  0.92586878  0.83821299  1
  Ca2+  Ca36  1  0.43271677  0.16964494  0.15987293  1
  Ca2+  Ca37  1  0.42811349  0.16802714  0.49608842  1
  Ca2+  Ca38  1  0.42891556  0.17513994  0.82542953  1
  Ca2+  Ca39  1  0.41653627  0.67356337  0.16906023  1
  Ca2+  Ca40  1  0.41160973  0.66991744  0.49588940  1
  Ca2+  Ca41  1  0.41766217  0.66308241  0.82714278  1
  Ca2+  Ca42  1  0.91484525  0.16532507  0.17012663  1
  Ca2+  Ca43  1  0.91790465  0.16855820  0.48963330  1
  Ca2+  Ca44  1  0.91229544  0.16385772  0.82899318  1
  Ca2+  Ca45  1  0.91756724  0.67578277  0.16359753  1
  Ca2+  Ca46  1  0.91894942  0.67692038  0.49240319  1
  Ca2+  Ca47  1  0.90815677  0.67753679  0.82678164  1
  Al0+  Al48  1  -0.00092365  -0.00138305  0.00072920  1
  Al0+  Al49  1  0.00173508  0.00054902  0.33256189  1
  Al0+  Al50  1  -0.00188100  -0.00025813  0.67227261  1
  Al0+  Al51  1  0.00247867  0.50074434  0.00374753  1
  Al0+  Al52  1  0.00146927  0.50073750  0.33007241  1
  Al0+  Al53  1  0.00075429  0.50084198  0.67628403  1
  Al0+  Al54  1  0.49860959  0.00029294  -0.00756471  1
  Al0+  Al55  1  0.50093457  0.00101893  0.32814847  1
  Al0+  Al56  1  0.50006504  -0.00085347  0.66341501  1
  Al0+  Al57  1  0.49817742  0.50107239  -0.00210629  1
  Al0+  Al58  1  0.50150321  0.50105160  0.33760525  1
  Al0+  Al59  1  0.49857450  0.49919188  0.66570599  1
  Al0+  Al60  1  0.24932206  0.24846822  -0.00310298  1
  Al0+  Al61  1  0.25095633  0.25113391  0.33450761  1
  Al0+  Al62  1  0.25052284  0.24691907  0.66692095  1
  Al0+  Al63  1  0.24815282  0.74679701  0.00045360  1
  Al0+  Al64  1  0.25093134  0.75108764  0.32829521  1
  Al0+  Al65  1  0.24804374  0.74794197  0.67678200  1
  Al0+  Al66  1  0.75231441  0.25054143  -0.00148406  1
  Al0+  Al67  1  0.75053123  0.25176713  0.33319675  1
  Al0+  Al68  1  0.75088336  0.24959542  0.66744005  1
  Al0+  Al69  1  0.74931036  0.75123483  0.00150464  1
  Al0+  Al70  1  0.74810635  0.75055021  0.33188715  1
  Al0+  Al71  1  0.74816079  0.75188857  0.66390151  1
  Al0+  Al72  1  0.32165280  0.56958686  0.68214761  1
  Al0+  Al73  1  0.92841186  0.82164252  0.65207232  1
  Al0+  Al74  1  0.43043331  0.82005891  0.32122361  1
  Al0+  Al75  1  0.57374775  0.17872614  0.64751171  1
  Al0+  Al76  1  0.67943788  0.42914998  0.34659983  1
  Al0+  Al77  1  0.17855662  0.42518762  0.68326157  1
  Al0+  Al78  1  0.67691154  0.92814171  0.34792793  1
  Al0+  Al79  1  0.17932111  0.42905159  0.34601242  1
  Al0+  Al80  1  0.92972761  0.81949801  0.98485455  1
  Al0+  Al81  1  0.81955018  0.57278978  0.67858026  1
  Al0+  Al82  1  0.81920434  0.07042321  0.68088762  1
  Al0+  Al83  1  0.18047732  0.92968184  0.34585950  1
  Al0+  Al84  1  0.42760809  0.32127839  0.98484491  1
  Al0+  Al85  1  0.82114146  0.06987993  0.34854417  1
  Al0+  Al86  1  0.57099834  0.18061112  0.31867193  1
  Al0+  Al87  1  0.57437663  0.17855405  0.98273956  1
  Al0+  Al88  1  0.92668276  0.82247517  0.31827253  1
  Al0+  Al89  1  0.07300769  0.17852557  0.31962810  1
  Al0+  Al90  1  0.82185493  0.57315332  0.01571748  1
  Al0+  Al91  1  0.82048174  0.07135184  0.01555376  1
  Al0+  Al92  1  0.07145309  0.67902754  0.31962132  1
  Al0+  Al93  1  0.42773369  0.32144116  0.64766887  1
  Al0+  Al94  1  0.92871866  0.32147028  0.31932286  1
  Al0+  Al95  1  0.17828117  0.92900173  0.68149799  1
  Si0+  Si96  1  0.32008930  0.06970738  0.01340631  1
  Si0+  Si97  1  0.57116408  0.67895269  0.65148189  1
  Si0+  Si98  1  0.56922361  0.67988922  0.98551924  1
  Si0+  Si99  1  0.06976743  0.17797261  0.65434164  1
  Si0+  Si100  1  0.42641019  0.81901037  0.65363688  1
  Si0+  Si101  1  0.67503719  0.92782190  0.68322572  1
  Si0+  Si102  1  0.07018930  0.17848309  0.98419015  1
  Si0+  Si103  1  0.07158750  0.67806693  0.65256249  1
  Si0+  Si104  1  0.67489302  0.92827806  0.01524044  1
  Si0+  Si105  1  0.67869811  0.42791405  0.68375755  1
  Si0+  Si106  1  0.07290237  0.67554347  0.97999151  1
  Si0+  Si107  1  0.93127998  0.32384752  0.65504287  1
  Si0+  Si108  1  0.32188701  0.57143861  0.01811823  1
  Si0+  Si109  1  0.82303676  0.57289878  0.34909630  1
  Si0+  Si110  1  0.32223380  0.57251115  0.34858715  1
  Si0+  Si111  1  0.42850748  0.32425710  0.31815992  1
  Si0+  Si112  1  0.93071772  0.32325609  0.98437638  1
  Si0+  Si113  1  0.17983637  0.92796610  0.01642457  1
  Si0+  Si114  1  0.18047030  0.42692371  0.01707322  1
  Si0+  Si115  1  0.32449069  0.06968602  0.68387660  1
  Si0+  Si116  1  0.67835453  0.43050299  0.01436313  1
  Si0+  Si117  1  0.32364028  0.07315770  0.34900136  1
  Si0+  Si118  1  0.42572762  0.82054283  0.98354213  1
  Si0+  Si119  1  0.57264883  0.67520889  0.31630424  1
  O2-  O120  1  0.25321826  -0.00365086  0.05824704  1
  O2-  O121  1  0.25233002  0.00700314  0.39340423  1
  O2-  O122  1  0.25438066  0.00229470  0.72911314  1
  O2-  O123  1  0.25242290  0.49816131  0.05796340  1
  O2-  O124  1  0.25461286  0.50308174  0.39200683  1
  O2-  O125  1  0.25422073  0.49377175  0.73367025  1
  O2-  O126  1  0.74118898  -0.00047340  0.05817732  1
  O2-  O127  1  0.75192244  -0.00461054  0.39948964  1
  O2-  O128  1  0.74257324  -0.00268353  0.72751951  1
  O2-  O129  1  0.74909689  0.49602689  0.06057551  1
  O2-  O130  1  0.75422106  0.50417252  0.39296062  1
  O2-  O131  1  0.74597682  0.49794813  0.72837233  1
  O2-  O132  1  0.00022944  0.24903207  0.26818146  1
  O2-  O133  1  0.00407841  0.25433975  0.61398696  1
  O2-  O134  1  -0.00109539  0.24934612  0.94172224  1
  O2-  O135  1  -0.00257419  0.74852118  0.26877875  1
  O2-  O136  1  0.00206782  0.74504292  0.60781625  1
  O2-  O137  1  0.00230934  0.74264816  0.93658183  1
  O2-  O138  1  0.49687941  0.25651326  0.27246989  1
  O2-  O139  1  0.50182700  0.25156814  0.59843814  1
  O2-  O140  1  0.50211054  0.25184054  0.93525093  1
  O2-  O141  1  0.50695377  0.74757663  0.27272081  1
  O2-  O142  1  0.49705572  0.74790865  0.61147429  1
  O2-  O143  1  0.49847107  0.75117854  0.94182508  1
  O2-  O144  1  0.07353916  0.17917447  0.08855784  1
  O2-  O145  1  0.07170010  0.17929026  0.43355408  1
  O2-  O146  1  0.06725980  0.17704127  0.76026590  1
  O2-  O147  1  0.07593499  0.67610698  0.08511489  1
  O2-  O148  1  0.07158614  0.67916371  0.43347337  1
  O2-  O149  1  0.07099125  0.67981202  0.75854299  1
  O2-  O150  1  0.57255489  0.17833448  0.09631092  1
  O2-  O151  1  0.56999063  0.18050481  0.43128126  1
  O2-  O152  1  0.57313126  0.18030303  0.76133153  1
  O2-  O153  1  0.56660425  0.67867696  0.09018526  1
  O2-  O154  1  0.56995968  0.67255429  0.42187819  1
  O2-  O155  1  0.57272552  0.68162324  0.75728786  1
  O2-  O156  1  0.18278685  0.42956574  0.23226577  1
  O2-  O157  1  0.17520857  0.42809937  0.57019613  1
  O2-  O158  1  0.17958269  0.42709929  0.91210120  1
  O2-  O159  1  0.18377778  0.93008006  0.23219155  1
  O2-  O160  1  0.17949745  0.92854433  0.56880933  1
  O2-  O161  1  0.18078030  0.92950818  0.91092644  1
  O2-  O162  1  0.67856218  0.43181148  0.23305299  1
  O2-  O163  1  0.68135240  0.42887513  0.57823140  1
  O2-  O164  1  0.67928501  0.43446617  0.90863262  1
  O2-  O165  1  0.67515767  0.93246656  0.23399545  1
  O2-  O166  1  0.67272061  0.92600857  0.57843126  1
  O2-  O167  1  0.67502953  0.92501287  0.90936076  1
  O2-  O168  1  0.42632880  0.31928783  0.09847832  1
  O2-  O169  1  0.42920013  0.32330105  0.42326578  1
  O2-  O170  1  0.43077184  0.31876112  0.76157161  1
  O2-  O171  1  0.42443725  0.82070561  0.08825639  1
  O2-  O172  1  0.42778344  0.81655890  0.43447875  1
  O2-  O173  1  0.42847176  0.81834477  0.75946122  1
  O2-  O174  1  0.93220029  0.32526681  0.08880802  1
  O2-  O175  1  0.93022946  0.32295001  0.43343877  1
  O2-  O176  1  0.93184478  0.32350157  0.76083889  1
  O2-  O177  1  0.93222610  0.82014745  0.09718112  1
  O2-  O178  1  0.92981111  0.82151663  0.43198348  1
  O2-  O179  1  0.92944670  0.82132242  0.76578756  1
  O2-  O180  1  0.32309319  0.07038119  0.24260725  1
  O2-  O181  1  0.32614035  0.06703328  0.57875387  1
  O2-  O182  1  0.31689754  0.06710674  0.90826792  1
  O2-  O183  1  0.32320570  0.57139559  0.24233913  1
  O2-  O184  1  0.31725020  0.57461989  0.56904605  1
  O2-  O185  1  0.32160824  0.57574258  0.91356705  1
  O2-  O186  1  0.81924674  0.06985152  0.23470894  1
  O2-  O187  1  0.82303268  0.07086186  0.56887373  1
  O2-  O188  1  0.82224294  0.06909878  0.90221114  1
  O2-  O189  1  0.82074978  0.57162358  0.24312807  1
  O2-  O190  1  0.81827059  0.57155040  0.56591670  1
  O2-  O191  1  0.81902954  0.57316240  0.90217268  1
  O2-  O192  1  0.04754384  0.08052139  0.26493173  1
  O2-  O193  1  0.03621113  0.08820495  0.60743705  1
  O2-  O194  1  0.04232770  0.08645135  0.93690633  1
  O2-  O195  1  0.04544941  0.58148840  0.26381204  1
  O2-  O196  1  0.04717151  0.58275246  0.61000727  1
  O2-  O197  1  0.05022788  0.58040458  0.93576252  1
  O2-  O198  1  0.53870426  0.08591467  0.26204670  1
  O2-  O199  1  0.54404898  0.07904467  0.59784505  1
  O2-  O200  1  0.54416067  0.08053860  0.92857827  1
  O2-  O201  1  0.54234669  0.58385928  0.26724113  1
  O2-  O202  1  0.54667896  0.58624365  0.60514667  1
  O2-  O203  1  0.54066353  0.58953136  0.93559172  1
  O2-  O204  1  0.17181976  0.20737392  0.26584873  1
  O2-  O205  1  0.16412527  0.19596642  0.60931073  1
  O2-  O206  1  0.16096660  0.20657962  0.93424624  1
  O2-  O207  1  0.16849000  0.70829918  0.26361636  1
  O2-  O208  1  0.16574440  0.70466033  0.60918841  1
  O2-  O209  1  0.16655634  0.70313987  0.93379675  1
  O2-  O210  1  0.66636992  0.21384766  0.26489406  1
  O2-  O211  1  0.67280836  0.20885659  0.59685256  1
  O2-  O212  1  0.67302771  0.20773679  0.93038014  1
  O2-  O213  1  0.66664565  0.69616974  0.26976598  1
  O2-  O214  1  0.66028734  0.70904041  0.60109001  1
  O2-  O215  1  0.66055279  0.70851631  0.93726449  1
  O2-  O216  1  0.08939250  0.45576290  0.06482788  1
  O2-  O217  1  0.08257490  0.45997378  0.39937430  1
  O2-  O218  1  0.08308924  0.45742833  0.74145270  1
  O2-  O219  1  0.08902560  0.95887390  0.06225831  1
  O2-  O220  1  0.08442365  0.95854240  0.40066760  1
  O2-  O221  1  0.08491558  0.96491807  0.73884880  1
  O2-  O222  1  0.58508881  0.45881813  0.05992960  1
  O2-  O223  1  0.58428212  0.46111758  0.40335570  1
  O2-  O224  1  0.58436008  0.45280002  0.72772071  1
  O2-  O225  1  0.57839029  0.95044063  0.05768283  1
  O2-  O226  1  0.57817623  0.95843066  0.39970346  1
  O2-  O227  1  0.58056971  0.95043385  0.73037249  1
  O2-  O228  1  0.20743785  0.33405600  0.06273655  1
  O2-  O229  1  0.20815802  0.33251875  0.40102696  1
  O2-  O230  1  0.20387975  0.32495916  0.73547477  1
  O2-  O231  1  0.20642827  0.83464106  0.06086047  1
  O2-  O232  1  0.21573287  0.83394323  0.39863851  1
  O2-  O233  1  0.20888590  0.83450086  0.73985789  1
  O2-  O234  1  0.70294751  0.33593762  0.05798965  1
  O2-  O235  1  0.71137188  0.33477876  0.40253155  1
  O2-  O236  1  0.70599739  0.33548391  0.73056715  1
  O2-  O237  1  0.70001281  0.83527748  0.06225445  1
  O2-  O238  1  0.69480033  0.82552912  0.39705804  1
  O2-  O239  1  0.70112407  0.83434914  0.72994036  1
  O2-  O240  1  0.45303157  0.41904836  0.27350055  1
  O2-  O241  1  0.45036238  0.42276585  0.59844566  1
  O2-  O242  1  0.45163419  0.42201164  0.93350268  1
  O2-  O243  1  0.45874043  0.91571948  0.26338495  1
  O2-  O244  1  0.45209358  0.91061528  0.60608486  1
  O2-  O245  1  0.45009925  0.91201457  0.93376685  1
  O2-  O246  1  0.95847970  0.41860083  0.26422090  1
  O2-  O247  1  0.95776813  0.41639437  0.60902261  1
  O2-  O248  1  0.96237849  0.41441241  0.93673551  1
  O2-  O249  1  0.96006924  0.91877810  0.26482816  1
  O2-  O250  1  0.96375303  0.91794991  0.60150403  1
  O2-  O251  1  0.96488915  0.91547972  0.93084760  1
  O2-  O252  1  0.33497910  0.29942882  0.27210066  1
  O2-  O253  1  0.32831888  0.29083329  0.59787577  1
  O2-  O254  1  0.33002338  0.28958431  0.93081648  1
  O2-  O255  1  0.33726014  0.78707383  0.26147383  1
  O2-  O256  1  0.33370318  0.78977177  0.60935181  1
  O2-  O257  1  0.33450729  0.78915149  0.93633982  1
  O2-  O258  1  0.83116831  0.29498581  0.26436309  1
  O2-  O259  1  0.83938355  0.29618003  0.60901006  1
  O2-  O260  1  0.83839622  0.29926938  0.93641896  1
  O2-  O261  1  0.82720682  0.79672934  0.26574357  1
  O2-  O262  1  0.83094416  0.79346775  0.59945791  1
  O2-  O263  1  0.83099759  0.79102519  0.93290024  1
  O2-  O264  1  0.41389678  0.04434207  0.05792881  1
  O2-  O265  1  0.41560000  0.04330947  0.39436339  1
  O2-  O266  1  0.41676848  0.04117496  0.73181880  1
  O2-  O267  1  0.41459022  0.54654418  0.06536134  1
  O2-  O268  1  0.41608387  0.55083921  0.39528186  1
  O2-  O269  1  0.42217160  0.54646515  0.73509227  1
  O2-  O270  1  0.91710615  0.03775056  0.06792680  1
  O2-  O271  1  0.92103187  0.04453077  0.39973813  1
  O2-  O272  1  0.91375612  0.03776482  0.73853704  1
  O2-  O273  1  0.91984658  0.54409152  0.06716757  1
  O2-  O274  1  0.91647057  0.54717089  0.39391335  1
  O2-  O275  1  0.91450002  0.54351290  0.73688012  1
  O2-  O276  1  0.28931572  0.16049737  0.06056094  1
  O2-  O277  1  0.30257608  0.16748664  0.39421897  1
  O2-  O278  1  0.29826951  0.16266013  0.73057520  1
  O2-  O279  1  0.29179044  0.66285176  0.06640802  1
  O2-  O280  1  0.29602648  0.66628803  0.39270530  1
  O2-  O281  1  0.29098758  0.66528495  0.74120040  1
  O2-  O282  1  0.79619557  0.17109483  0.06643749  1
  O2-  O283  1  0.79203229  0.16875111  0.39927315  1
  O2-  O284  1  0.79143699  0.16817823  0.73587802  1
  O2-  O285  1  0.78693659  0.66814026  0.06947617  1
  O2-  O286  1  0.79650763  0.66626740  0.39437915  1
  O2-  O287  1  0.78428054  0.66849630  0.73304106  1
