# generated using pymatgen
data_Ca2Al2SiO7
_symmetry_space_group_name_H-M   'P 1'
_cell_length_a   15.45796996
_cell_length_b   15.45780823
_cell_length_c   15.28407187
_cell_angle_alpha   89.98883823
_cell_angle_beta   89.98859606
_cell_angle_gamma   89.99540322
_symmetry_Int_Tables_number   1
_chemical_formula_structural   Ca2Al2SiO7
_chemical_formula_sum   'Ca48 Al48 Si24 O168'
_cell_volume   3652.07280800
_cell_formula_units_Z   24
loop_
 _symmetry_equiv_pos_site_id
 _symmetry_equiv_pos_as_xyz
  1  'x, y, z'
loop_
 _atom_type_symbol
 _atom_type_oxidation_number
  Ca2+  2.0
  Al0+  0.0
  Si0+  0.0
  O2-  -2.0
loop_
 _atom_site_type_symbol
 _atom_site_label
 _atom_site_symmetry_multiplicity
 _atom_site_fract_x
 _atom_site_fract_y
 _atom_site_fract_z
 _atom_site_occupancy
  Ca2+  Ca0  1  0.17600447  0.08849086  0.16810321  1
  Ca2+  Ca1  1  0.17757656  0.08837718  0.50507345  1
  Ca2+  Ca2  1  0.17342317  0.09525292  0.83814008  1
  Ca2+  Ca3  1  0.17171170  0.57585961  0.17277009  1
  Ca2+  Ca4  1  0.17287392  0.58190276  0.50760318  1
  Ca2+  Ca5  1  0.16177166  0.57029262  0.83332361  1
  Ca2+  Ca6  1  0.67213191  0.08850772  0.16558150  1
  Ca2+  Ca7  1  0.67342779  0.08558750  0.49968019  1
  Ca2+  Ca8  1  0.67168982  0.08169213  0.84698517  1
  Ca2+  Ca9  1  0.66506684  0.58230085  0.17233399  1
  Ca2+  Ca10  1  0.67047839  0.58291007  0.50525238  1
  Ca2+  Ca11  1  0.67492948  0.58085295  0.83564786  1
  Ca2+  Ca12  1  0.07504694  0.32850473  0.15752343  1
  Ca2+  Ca13  1  0.07734475  0.33696709  0.50208267  1
  Ca2+  Ca14  1  0.08224712  0.32782215  0.83110766  1
  Ca2+  Ca15  1  0.09095132  0.82424787  0.16644814  1
  Ca2+  Ca16  1  0.08857758  0.81955451  0.49623521  1
  Ca2+  Ca17  1  0.08285804  0.82657390  0.82722316  1
  Ca2+  Ca18  1  0.56785069  0.32765748  0.16102781  1
  Ca2+  Ca19  1  0.57434134  0.33311450  0.49212981  1
  Ca2+  Ca20  1  0.57795206  0.32754506  0.83717613  1
  Ca2+  Ca21  1  0.57527943  0.83428392  0.16283621  1
  Ca2+  Ca22  1  0.57557053  0.82299103  0.49051152  1
  Ca2+  Ca23  1  0.57814493  0.84115768  0.83532097  1
  Ca2+  Ca24  1  0.32813217  0.41164230  0.17260551  1
  Ca2+  Ca25  1  0.33105438  0.42790933  0.50755880  1
  Ca2+  Ca26  1  0.31986920  0.41541674  0.83949850  1
  Ca2+  Ca27  1  0.34325925  0.92569413  0.16928493  1
  Ca2+  Ca28  1  0.33806680  0.92512713  0.50122342  1
  Ca2+  Ca29  1  0.33233051  0.92658775  0.84033091  1
  Ca2+  Ca30  1  0.83369838  0.40891165  0.16982868  1
  Ca2+  Ca31  1  0.83713658  0.41714624  0.50518978  1
  Ca2+  Ca32  1  0.84700157  0.41902240  0.83435515  1
  Ca2+  Ca33  1  0.82907982  0.93062575  0.16933867  1
  Ca2+  Ca34  1  0.83408424  0.92183775  0.50102386  1
  Ca2+  Ca35  1  0.82540867  0.92410556  0.84716365  1
  Ca2+  Ca36  1  0.41313630  0.17171662  0.15711228  1
  Ca2+  Ca37  1  0.41174955  0.17063856  0.49424104  1
  Ca2+  Ca38  1  0.41413198  0.16512696  0.83486778  1
  Ca2+  Ca39  1  0.41543301  0.67509008  0.16605902  1
  Ca2+  Ca40  1  0.41597971  0.66733110  0.48581546  1
  Ca2+  Ca41  1  0.41042609  0.67382548  0.82995771  1
  Ca2+  Ca42  1  0.91731347  0.17221383  0.15677362  1
  Ca2+  Ca43  1  0.92224591  0.17553109  0.49276619  1
  Ca2+  Ca44  1  0.92722827  0.17137161  0.82649817  1
  Ca2+  Ca45  1  0.92430174  0.66606917  0.16557005  1
  Ca2+  Ca46  1  0.92926261  0.65775061  0.49850239  1
  Ca2+  Ca47  1  0.92107215  0.66645264  0.82368853  1
  Al0+  Al48  1  0.00125226  -0.00246794  0.00080739  1
  Al0+  Al49  1  0.00043947  -0.00103390  0.33955949  1
  Al0+  Al50  1  0.00078506  0.00064910  0.66186620  1
  Al0+  Al51  1  0.00231269  0.49971334  0.00322039  1
  Al0+  Al52  1  -0.00067981  0.49906853  0.32465191  1
  Al0+  Al53  1  -0.00025473  0.50120731  0.66653773  1
  Al0+  Al54  1  0.49993329  -0.00170616  -0.00014845  1
  Al0+  Al55  1  0.50252615  -0.00084735  0.33672275  1
  Al0+  Al56  1  0.50066602  0.00034853  0.66785708  1
  Al0+  Al57  1  0.50174542  0.50237313  -0.00466001  1
  Al0+  Al58  1  0.49998447  0.49828678  0.32892364  1
  Al0+  Al59  1  0.50178825  0.50128085  0.67241948  1
  Al0+  Al60  1  0.24695602  0.25194430  0.00281877  1
  Al0+  Al61  1  0.24669955  0.24951319  0.33632848  1
  Al0+  Al62  1  0.25089293  0.25122181  0.66934780  1
  Al0+  Al63  1  0.25175663  0.74891517  -0.00574664  1
  Al0+  Al64  1  0.25038787  0.74922096  0.32745518  1
  Al0+  Al65  1  0.25032532  0.75380859  0.66531542  1
  Al0+  Al66  1  0.74835554  0.25431530  -0.00395428  1
  Al0+  Al67  1  0.74978429  0.25081424  0.33623819  1
  Al0+  Al68  1  0.74800204  0.24930620  0.66360413  1
  Al0+  Al69  1  0.75049875  0.74984248  0.00506932  1
  Al0+  Al70  1  0.75142740  0.74954183  0.33120517  1
  Al0+  Al71  1  0.74771678  0.75002907  0.67042097  1
  Al0+  Al72  1  0.07024009  0.68084374  0.65377538  1
  Al0+  Al73  1  0.92788111  0.32210439  0.98439416  1
  Al0+  Al74  1  0.42955508  0.82217072  0.31804921  1
  Al0+  Al75  1  0.06982529  0.17611425  0.98653079  1
  Al0+  Al76  1  0.92889793  0.31904417  0.31832744  1
  Al0+  Al77  1  0.43032975  0.81988313  0.98383997  1
  Al0+  Al78  1  0.82117701  0.07237165  0.34876157  1
  Al0+  Al79  1  0.42586144  0.32287473  0.98432660  1
  Al0+  Al80  1  0.81926680  0.56908367  0.67869256  1
  Al0+  Al81  1  0.92862820  0.32026286  0.65018501  1
  Al0+  Al82  1  0.57295170  0.67689740  0.31859070  1
  Al0+  Al83  1  0.07420255  0.17799806  0.64859909  1
  Al0+  Al84  1  0.32380559  0.57524459  0.68187604  1
  Al0+  Al85  1  0.32158254  0.07106417  0.34703350  1
  Al0+  Al86  1  0.56912862  0.17889405  0.98638200  1
  Al0+  Al87  1  0.32052337  0.56901983  0.34383052  1
  Al0+  Al88  1  0.42641259  0.31933790  0.32260493  1
  Al0+  Al89  1  0.82246525  0.07385802  0.01292153  1
  Al0+  Al90  1  0.17944577  0.43103181  0.68156808  1
  Al0+  Al91  1  0.31802900  0.06957458  0.01330334  1
  Al0+  Al92  1  0.32081706  0.07027865  0.68124198  1
  Al0+  Al93  1  0.17981623  0.42990980  0.01677000  1
  Al0+  Al94  1  0.07095613  0.67895132  0.31828512  1
  Al0+  Al95  1  0.67814043  0.92850317  0.01728487  1
  Si0+  Si96  1  0.92828286  0.81946576  0.98655711  1
  Si0+  Si97  1  0.32323259  0.57299514  0.01648178  1
  Si0+  Si98  1  0.57183636  0.17853721  0.31919734  1
  Si0+  Si99  1  0.43030244  0.32221156  0.65286197  1
  Si0+  Si100  1  0.68053357  0.93002848  0.68138956  1
  Si0+  Si101  1  0.17541886  0.42861648  0.35066571  1
  Si0+  Si102  1  0.43069163  0.82182740  0.65109154  1
  Si0+  Si103  1  0.56981956  0.17739757  0.65021257  1
  Si0+  Si104  1  0.82179643  0.57035463  0.01686878  1
  Si0+  Si105  1  0.92428214  0.82216144  0.65074214  1
  Si0+  Si106  1  0.17820158  0.92625693  0.35051407  1
  Si0+  Si107  1  0.57557746  0.67858313  0.98035184  1
  Si0+  Si108  1  0.82208375  0.57145104  0.34706778  1
  Si0+  Si109  1  0.07116949  0.17536228  0.31689743  1
  Si0+  Si110  1  0.17781009  0.92297811  0.01621869  1
  Si0+  Si111  1  0.67662851  0.42507419  0.68519729  1
  Si0+  Si112  1  0.67686435  0.43048668  0.01639504  1
  Si0+  Si113  1  0.92814561  0.82364603  0.31624521  1
  Si0+  Si114  1  0.07065818  0.67942909  0.98408045  1
  Si0+  Si115  1  0.67915123  0.43004244  0.34757398  1
  Si0+  Si116  1  0.67972902  0.92627739  0.35263633  1
  Si0+  Si117  1  0.82139498  0.07177616  0.68069369  1
  Si0+  Si118  1  0.57167099  0.67911794  0.65299021  1
  Si0+  Si119  1  0.17668393  0.92847311  0.68273499  1
  O2-  O120  1  0.24303031  -0.00530082  0.05999957  1
  O2-  O121  1  0.24727158  -0.00472116  0.39394314  1
  O2-  O122  1  0.24109947  0.00053018  0.72713093  1
  O2-  O123  1  0.25974027  0.50039528  0.06153418  1
  O2-  O124  1  0.24700091  0.49499748  0.39356580  1
  O2-  O125  1  0.25233879  0.50311733  0.73177272  1
  O2-  O126  1  0.74843349  0.00381842  0.06422083  1
  O2-  O127  1  0.74794529  -0.00418326  0.39692523  1
  O2-  O128  1  0.75390842  -0.00191015  0.72330209  1
  O2-  O129  1  0.75037114  0.49970929  0.05840587  1
  O2-  O130  1  0.74901551  0.50272830  0.38935941  1
  O2-  O131  1  0.74892283  0.49135947  0.72773683  1
  O2-  O132  1  0.00075685  0.24198301  0.27298749  1
  O2-  O133  1  -0.00023484  0.24806120  0.59910948  1
  O2-  O134  1  -0.00553909  0.24469371  0.93636263  1
  O2-  O135  1  -0.00252726  0.75566986  0.27178975  1
  O2-  O136  1  -0.00544634  0.75524417  0.60645637  1
  O2-  O137  1  -0.00009372  0.75070140  0.94213729  1
  O2-  O138  1  0.49573046  0.23912133  0.27665713  1
  O2-  O139  1  0.50046660  0.25045685  0.60919849  1
  O2-  O140  1  0.49512555  0.24783530  0.93403520  1
  O2-  O141  1  0.50182683  0.74949807  0.26912816  1
  O2-  O142  1  0.49474196  0.74345685  0.61035928  1
  O2-  O143  1  0.50581322  0.74587966  0.93593125  1
  O2-  O144  1  0.06981176  0.17742899  0.10039514  1
  O2-  O145  1  0.07142242  0.17690036  0.42247975  1
  O2-  O146  1  0.07145631  0.17616299  0.76170714  1
  O2-  O147  1  0.06951646  0.68064025  0.08927612  1
  O2-  O148  1  0.06905454  0.67841535  0.43146226  1
  O2-  O149  1  0.06669922  0.68303910  0.76717436  1
  O2-  O150  1  0.56953128  0.18237465  0.10017464  1
  O2-  O151  1  0.57396901  0.18235006  0.42557110  1
  O2-  O152  1  0.57115933  0.17491104  0.75470336  1
  O2-  O153  1  0.57686532  0.67778518  0.08563124  1
  O2-  O154  1  0.57406735  0.67780117  0.43296260  1
  O2-  O155  1  0.57648280  0.68278887  0.75759332  1
  O2-  O156  1  0.17551095  0.42996474  0.24508780  1
  O2-  O157  1  0.18099132  0.43323624  0.56751132  1
  O2-  O158  1  0.17640862  0.43350656  0.90397431  1
  O2-  O159  1  0.17564418  0.92691314  0.24505837  1
  O2-  O160  1  0.18001184  0.92413168  0.57731566  1
  O2-  O161  1  0.17930966  0.91822829  0.91070854  1
  O2-  O162  1  0.68026896  0.42932868  0.24266496  1
  O2-  O163  1  0.67245741  0.42751050  0.57934388  1
  O2-  O164  1  0.67436825  0.43350732  0.91135811  1
  O2-  O165  1  0.68039395  0.92537412  0.24778829  1
  O2-  O166  1  0.68030215  0.92980604  0.57622703  1
  O2-  O167  1  0.68239962  0.92672404  0.90275421  1
  O2-  O168  1  0.42841095  0.32200727  0.09823985  1
  O2-  O169  1  0.43102235  0.32133094  0.43633879  1
  O2-  O170  1  0.43247206  0.32128215  0.75750505  1
  O2-  O171  1  0.42976575  0.81763469  0.09642183  1
  O2-  O172  1  0.43170129  0.82104246  0.43248036  1
  O2-  O173  1  0.43407670  0.82392589  0.75598185  1
  O2-  O174  1  0.93003275  0.32244685  0.09813889  1
  O2-  O175  1  0.92898946  0.32125340  0.43119133  1
  O2-  O176  1  0.92809149  0.31789513  0.76310036  1
  O2-  O177  1  0.92808578  0.81689515  0.09146911  1
  O2-  O178  1  0.92710545  0.82211840  0.42209400  1
  O2-  O179  1  0.92301305  0.82055913  0.75657266  1
  O2-  O180  1  0.32044670  0.07147671  0.23432506  1
  O2-  O181  1  0.32405095  0.06674154  0.56788310  1
  O2-  O182  1  0.31714111  0.06710447  0.90008553  1
  O2-  O183  1  0.31867760  0.56827777  0.23097392  1
  O2-  O184  1  0.32541652  0.57344057  0.56784557  1
  O2-  O185  1  0.31885743  0.57522346  0.91095235  1
  O2-  O186  1  0.81883985  0.07277736  0.23617876  1
  O2-  O187  1  0.81777859  0.07083269  0.57536859  1
  O2-  O188  1  0.82187992  0.06840814  0.89870092  1
  O2-  O189  1  0.82206276  0.57093470  0.24187817  1
  O2-  O190  1  0.81612455  0.57091824  0.56543410  1
  O2-  O191  1  0.82146226  0.57244020  0.91157189  1
  O2-  O192  1  0.04897694  0.07967236  0.27447181  1
  O2-  O193  1  0.04886722  0.07790536  0.59576641  1
  O2-  O194  1  0.04954300  0.07481674  0.93430971  1
  O2-  O195  1  0.03628388  0.58564409  0.26081464  1
  O2-  O196  1  0.03797014  0.58592058  0.59856670  1
  O2-  O197  1  0.03907887  0.58872444  0.93828814  1
  O2-  O198  1  0.55683606  0.08158558  0.27817867  1
  O2-  O199  1  0.54060957  0.08639677  0.60119106  1
  O2-  O200  1  0.54557121  0.07948338  0.93357623  1
  O2-  O201  1  0.54571426  0.57937411  0.26419427  1
  O2-  O202  1  0.55216901  0.58399718  0.60831085  1
  O2-  O203  1  0.55283867  0.58505548  0.93314866  1
  O2-  O204  1  0.16399760  0.20330268  0.27125019  1
  O2-  O205  1  0.17316892  0.20875083  0.59753342  1
  O2-  O206  1  0.16587934  0.21127092  0.93399001  1
  O2-  O207  1  0.16557344  0.70972522  0.26123064  1
  O2-  O208  1  0.16664400  0.71343450  0.59937069  1
  O2-  O209  1  0.16163063  0.70632959  0.93562836  1
  O2-  O210  1  0.66200950  0.21258675  0.27246316  1
  O2-  O211  1  0.66129184  0.20423714  0.60099733  1
  O2-  O212  1  0.66550495  0.21146949  0.93059903  1
  O2-  O213  1  0.67256210  0.70303974  0.26627972  1
  O2-  O214  1  0.66096037  0.71286872  0.60311578  1
  O2-  O215  1  0.66978914  0.70589775  0.93528684  1
  O2-  O216  1  0.08553122  0.46662821  0.07271987  1
  O2-  O217  1  0.08229371  0.45988884  0.39451787  1
  O2-  O218  1  0.08178946  0.46171314  0.73449221  1
  O2-  O219  1  0.08265330  0.94197790  0.06170505  1
  O2-  O220  1  0.08466723  0.94816198  0.39918287  1
  O2-  O221  1  0.07996988  0.94717400  0.72610589  1
  O2-  O222  1  0.58607432  0.46156400  0.06496348  1
  O2-  O223  1  0.58764380  0.45721748  0.39622867  1
  O2-  O224  1  0.58633159  0.45509120  0.73517511  1
  O2-  O225  1  0.57942119  0.95395912  0.06881268  1
  O2-  O226  1  0.58699966  0.95146733  0.40124508  1
  O2-  O227  1  0.59014625  0.96143875  0.72910181  1
  O2-  O228  1  0.20628059  0.33360991  0.07259865  1
  O2-  O229  1  0.19613888  0.33399889  0.39603193  1
  O2-  O230  1  0.20853784  0.33328646  0.73476965  1
  O2-  O231  1  0.20786597  0.83035731  0.06283909  1
  O2-  O232  1  0.20542868  0.83240285  0.39549565  1
  O2-  O233  1  0.20596434  0.83719323  0.73182627  1
  O2-  O234  1  0.70221607  0.33871728  0.06423917  1
  O2-  O235  1  0.70753128  0.34001861  0.39848987  1
  O2-  O236  1  0.69836640  0.32970892  0.72889397  1
  O2-  O237  1  0.70975529  0.83104336  0.07085779  1
  O2-  O238  1  0.70799214  0.83270183  0.39924715  1
  O2-  O239  1  0.70455812  0.83817203  0.73055044  1
  O2-  O240  1  0.46220824  0.41200597  0.26546555  1
  O2-  O241  1  0.46061726  0.41475356  0.60702663  1
  O2-  O242  1  0.45813175  0.42059858  0.93140964  1
  O2-  O243  1  0.46119647  0.92071178  0.26686237  1
  O2-  O244  1  0.46701917  0.91070250  0.60270203  1
  O2-  O245  1  0.46156085  0.91548478  0.92859606  1
  O2-  O246  1  0.95792106  0.41469656  0.26231437  1
  O2-  O247  1  0.95653548  0.41982986  0.59904577  1
  O2-  O248  1  0.96273736  0.42035188  0.93392491  1
  O2-  O249  1  0.95325333  0.91794705  0.27193014  1
  O2-  O250  1  0.94747715  0.91605618  0.60434721  1
  O2-  O251  1  0.95367702  0.91092105  0.93769793  1
  O2-  O252  1  0.32793103  0.29323363  0.27092119  1
  O2-  O253  1  0.33878853  0.29570306  0.60559418  1
  O2-  O254  1  0.32695152  0.29611828  0.93393772  1
  O2-  O255  1  0.33178479  0.79597496  0.26423284  1
  O2-  O256  1  0.33650104  0.80344433  0.60523965  1
  O2-  O257  1  0.33445878  0.78820354  0.92734325  1
  O2-  O258  1  0.83019918  0.29042258  0.26730774  1
  O2-  O259  1  0.82795472  0.29403625  0.59850879  1
  O2-  O260  1  0.82651903  0.30690445  0.93351229  1
  O2-  O261  1  0.83579275  0.79641365  0.26919647  1
  O2-  O262  1  0.83084185  0.79504123  0.60469791  1
  O2-  O263  1  0.83710553  0.78932051  0.93861928  1
  O2-  O264  1  0.41496289  0.03838018  0.06538740  1
  O2-  O265  1  0.41961471  0.04296379  0.40154983  1
  O2-  O266  1  0.41670278  0.03493314  0.73441382  1
  O2-  O267  1  0.42062972  0.55513482  0.05718138  1
  O2-  O268  1  0.41842393  0.53951061  0.39718540  1
  O2-  O269  1  0.42339968  0.55111076  0.73490706  1
  O2-  O270  1  0.91953112  0.04058463  0.06660633  1
  O2-  O271  1  0.91728162  0.04141421  0.40456847  1
  O2-  O272  1  0.91537532  0.04723240  0.72449431  1
  O2-  O273  1  0.91318749  0.54298841  0.06488974  1
  O2-  O274  1  0.91339005  0.53951671  0.39306401  1
  O2-  O275  1  0.91594502  0.54319878  0.73402942  1
  O2-  O276  1  0.28789920  0.16607617  0.06721394  1
  O2-  O277  1  0.28861060  0.16690737  0.40304229  1
  O2-  O278  1  0.29593525  0.16841714  0.73355370  1
  O2-  O279  1  0.29143258  0.66517219  0.06216726  1
  O2-  O280  1  0.29056253  0.66713430  0.39585028  1
  O2-  O281  1  0.29636651  0.67534839  0.73156282  1
  O2-  O282  1  0.79401697  0.17387238  0.06251211  1
  O2-  O283  1  0.78612875  0.16713555  0.40493290  1
  O2-  O284  1  0.78983033  0.16254667  0.72683313  1
  O2-  O285  1  0.79462499  0.66162186  0.06569611  1
  O2-  O286  1  0.79849177  0.66432657  0.39462594  1
  O2-  O287  1  0.78569850  0.66487260  0.73486963  1
