# generated using pymatgen
data_Ca2Al2SiO7
_symmetry_space_group_name_H-M   'P 1'
_cell_length_a   15.45368230
_cell_length_b   15.45363573
_cell_length_c   15.28058091
_cell_angle_alpha   90.00261209
_cell_angle_beta   89.99861022
_cell_angle_gamma   89.99727779
_symmetry_Int_Tables_number   1
_chemical_formula_structural   Ca2Al2SiO7
_chemical_formula_sum   'Ca48 Al48 Si24 O168'
_cell_volume   3649.24073731
_cell_formula_units_Z   24
loop_
 _symmetry_equiv_pos_site_id
 _symmetry_equiv_pos_as_xyz
  1  'x, y, z'
loop_
 _atom_type_symbol
 _atom_type_oxidation_number
  Ca2+  2.0
  Al0+  0.0
  Si0+  0.0
  O2-  -2.0
loop_
 _atom_site_type_symbol
 _atom_site_label
 _atom_site_symmetry_multiplicity
 _atom_site_fract_x
 _atom_site_fract_y
 _atom_site_fract_z
 _atom_site_occupancy
  Ca2+  Ca0  1  0.16699698  0.08157033  0.16941322  1
  Ca2+  Ca1  1  0.17498977  0.07932999  0.50929863  1
  Ca2+  Ca2  1  0.15845964  0.07738268  0.83461258  1
  Ca2+  Ca3  1  0.17599714  0.58515521  0.17385011  1
  Ca2+  Ca4  1  0.17345030  0.59244014  0.50398651  1
  Ca2+  Ca5  1  0.17862317  0.59039537  0.83607744  1
  Ca2+  Ca6  1  0.67158356  0.07825033  0.17235030  1
  Ca2+  Ca7  1  0.67631484  0.07601962  0.50524074  1
  Ca2+  Ca8  1  0.66623890  0.07077662  0.83639502  1
  Ca2+  Ca9  1  0.66449018  0.57727300  0.16938519  1
  Ca2+  Ca10  1  0.66585828  0.58127656  0.50552345  1
  Ca2+  Ca11  1  0.66875279  0.57183867  0.83709219  1
  Ca2+  Ca12  1  0.07156370  0.32637853  0.15753525  1
  Ca2+  Ca13  1  0.08086005  0.32615447  0.49536604  1
  Ca2+  Ca14  1  0.08585219  0.31972334  0.82844439  1
  Ca2+  Ca15  1  0.08452756  0.83317916  0.16671610  1
  Ca2+  Ca16  1  0.08203495  0.82826600  0.49864323  1
  Ca2+  Ca17  1  0.08166659  0.83432413  0.82282440  1
  Ca2+  Ca18  1  0.57878957  0.33166564  0.15776438  1
  Ca2+  Ca19  1  0.57884713  0.33662738  0.50191916  1
  Ca2+  Ca20  1  0.57618593  0.34110749  0.82972423  1
  Ca2+  Ca21  1  0.57864849  0.83045382  0.16527833  1
  Ca2+  Ca22  1  0.57813087  0.82923892  0.49096847  1
  Ca2+  Ca23  1  0.58480917  0.83526539  0.82732545  1
  Ca2+  Ca24  1  0.33716002  0.42591428  0.16921411  1
  Ca2+  Ca25  1  0.33630032  0.42981233  0.50717855  1
  Ca2+  Ca26  1  0.34065867  0.42529149  0.83719248  1
  Ca2+  Ca27  1  0.32748437  0.92085463  0.17477810  1
  Ca2+  Ca28  1  0.33196379  0.92462683  0.50694860  1
  Ca2+  Ca29  1  0.31782832  0.92185501  0.83591492  1
  Ca2+  Ca30  1  0.83041219  0.40679908  0.17121270  1
  Ca2+  Ca31  1  0.82838585  0.41567877  0.50454672  1
  Ca2+  Ca32  1  0.82395690  0.41037962  0.83894695  1
  Ca2+  Ca33  1  0.83131429  0.92081466  0.17327071  1
  Ca2+  Ca34  1  0.83519505  0.91332751  0.50381599  1
  Ca2+  Ca35  1  0.82449305  0.90961102  0.83616468  1
  Ca2+  Ca36  1  0.41446535  0.17168755  0.16057414  1
  Ca2+  Ca37  1  0.41115497  0.16806237  0.49817410  1
  Ca2+  Ca38  1  0.41131557  0.17976995  0.82532800  1
  Ca2+  Ca39  1  0.41492170  0.66676799  0.16892675  1
  Ca2+  Ca40  1  0.41792387  0.67116848  0.49101259  1
  Ca2+  Ca41  1  0.41492203  0.66353590  0.82899880  1
  Ca2+  Ca42  1  0.91569825  0.17294291  0.16120921  1
  Ca2+  Ca43  1  0.92158512  0.16620071  0.49451347  1
  Ca2+  Ca44  1  0.92639889  0.16751362  0.83241861  1
  Ca2+  Ca45  1  0.92345064  0.67041056  0.16712198  1
  Ca2+  Ca46  1  0.92748587  0.67776871  0.49358557  1
  Ca2+  Ca47  1  0.92624073  0.67375668  0.82164036  1
  Al0+  Al48  1  -0.00096136  -0.00152483  0.00142986  1
  Al0+  Al49  1  0.00005806  0.00004939  0.33454970  1
  Al0+  Al50  1  -0.00051934  0.00200833  0.66108845  1
  Al0+  Al51  1  0.00039932  0.50175920  -0.00633873  1
  Al0+  Al52  1  -0.00209578  0.49853616  0.32585807  1
  Al0+  Al53  1  0.00148776  0.50011088  0.66282060  1
  Al0+  Al54  1  0.49888608  -0.00166374  0.00363288  1
  Al0+  Al55  1  0.49982751  0.00045728  0.33293755  1
  Al0+  Al56  1  0.50155691  0.00281085  0.67465761  1
  Al0+  Al57  1  0.50266107  0.50108349  0.00547670  1
  Al0+  Al58  1  0.49889123  0.49930287  0.33427339  1
  Al0+  Al59  1  0.50054657  0.49991267  0.66971880  1
  Al0+  Al60  1  0.24993936  0.25169413  -0.00838701  1
  Al0+  Al61  1  0.24921943  0.25060928  0.33570120  1
  Al0+  Al62  1  0.25076534  0.25409967  0.65821381  1
  Al0+  Al63  1  0.25150105  0.75218303  0.00889647  1
  Al0+  Al64  1  0.25112829  0.75025435  0.33039853  1
  Al0+  Al65  1  0.25200411  0.75194232  0.67153398  1
  Al0+  Al66  1  0.74845924  0.24824396  -0.00105909  1
  Al0+  Al67  1  0.74849982  0.24704791  0.33634727  1
  Al0+  Al68  1  0.74739671  0.24859236  0.67208940  1
  Al0+  Al69  1  0.74883969  0.74811436  0.00471421  1
  Al0+  Al70  1  0.74977051  0.74638731  0.32490068  1
  Al0+  Al71  1  0.75051911  0.74858677  0.66712169  1
  Al0+  Al72  1  0.32190712  0.07261267  0.34664495  1
  Al0+  Al73  1  0.57066599  0.67599738  0.31745910  1
  Al0+  Al74  1  0.92612980  0.32272640  0.98290304  1
  Al0+  Al75  1  0.92692598  0.82091949  0.65226298  1
  Al0+  Al76  1  0.07054311  0.17986789  0.64962958  1
  Al0+  Al77  1  0.07509199  0.67888178  0.65275926  1
  Al0+  Al78  1  0.92705366  0.31834943  0.32122622  1
  Al0+  Al79  1  0.32051669  0.56957036  0.01619586  1
  Al0+  Al80  1  0.31952960  0.57087393  0.68008717  1
  Al0+  Al81  1  0.07032586  0.17774603  0.98501471  1
  Al0+  Al82  1  0.92911793  0.82307645  0.31575667  1
  Al0+  Al83  1  0.32185925  0.07541755  0.68286267  1
  Al0+  Al84  1  0.42950719  0.82351302  0.31865610  1
  Al0+  Al85  1  0.07228037  0.67890363  0.31624925  1
  Al0+  Al86  1  0.68213448  0.42881991  0.01534716  1
  Al0+  Al87  1  0.17762156  0.93055737  0.01581196  1
  Al0+  Al88  1  0.17890416  0.93138736  0.68029203  1
  Al0+  Al89  1  0.43104367  0.32240760  0.65089457  1
  Al0+  Al90  1  0.43176122  0.32201589  0.98702320  1
  Al0+  Al91  1  0.68060844  0.92736415  0.67823489  1
  Al0+  Al92  1  0.31965444  0.56968987  0.34863410  1
  Al0+  Al93  1  0.82087081  0.07017860  0.34709751  1
  Al0+  Al94  1  0.67677602  0.92647615  0.01663342  1
  Al0+  Al95  1  0.68047138  0.42972401  0.68006182  1
  Si0+  Si96  1  0.17504227  0.42850458  0.34893043  1
  Si0+  Si97  1  0.82039250  0.06909468  0.01619285  1
  Si0+  Si98  1  0.82397932  0.57142966  0.68163234  1
  Si0+  Si99  1  0.57220275  0.17627391  0.64937105  1
  Si0+  Si100  1  0.32049189  0.07456496  0.01526451  1
  Si0+  Si101  1  0.82196000  0.57080798  0.34762935  1
  Si0+  Si102  1  0.43079149  0.82338088  0.65586652  1
  Si0+  Si103  1  0.17651455  0.42666845  0.01475367  1
  Si0+  Si104  1  0.17572214  0.42806861  0.68218071  1
  Si0+  Si105  1  0.82438657  0.57196822  0.01719699  1
  Si0+  Si106  1  0.92455203  0.32101345  0.65049687  1
  Si0+  Si107  1  0.82256234  0.07251315  0.68476665  1
  Si0+  Si108  1  0.92806028  0.81895625  0.98560083  1
  Si0+  Si109  1  0.17861046  0.92832633  0.35111478  1
  Si0+  Si110  1  0.57061262  0.68024289  0.98344442  1
  Si0+  Si111  1  0.07427028  0.68109066  0.98494283  1
  Si0+  Si112  1  0.42874166  0.32045722  0.31901490  1
  Si0+  Si113  1  0.67909256  0.42817387  0.34895150  1
  Si0+  Si114  1  0.67922919  0.92567285  0.34841595  1
  Si0+  Si115  1  0.07349375  0.17886654  0.31672288  1
  Si0+  Si116  1  0.57120543  0.17472332  0.98303515  1
  Si0+  Si117  1  0.56981358  0.67915433  0.65464932  1
  Si0+  Si118  1  0.42834524  0.82116005  0.98360289  1
  Si0+  Si119  1  0.57063940  0.17945952  0.31970730  1
  O2-  O120  1  0.25061798  0.00808567  0.06053480  1
  O2-  O121  1  0.24823620  -0.00273604  0.39325476  1
  O2-  O122  1  0.24715035  0.00631295  0.73263863  1
  O2-  O123  1  0.24470496  0.49470558  0.06115598  1
  O2-  O124  1  0.24173312  0.49835552  0.39482876  1
  O2-  O125  1  0.24186403  0.49919789  0.72682993  1
  O2-  O126  1  0.75030837  0.00234186  0.06156727  1
  O2-  O127  1  0.75157179  -0.01020980  0.39329979  1
  O2-  O128  1  0.75707435  -0.00052236  0.72701268  1
  O2-  O129  1  0.76239114  0.49717382  0.06234311  1
  O2-  O130  1  0.74951723  0.50049392  0.38994329  1
  O2-  O131  1  0.76016290  0.49881555  0.72695833  1
  O2-  O132  1  0.00226671  0.24505808  0.27332090  1
  O2-  O133  1  -0.00585551  0.25464981  0.60485101  1
  O2-  O134  1  0.00094954  0.25289739  0.93467427  1
  O2-  O135  1  0.00234337  0.75268385  0.26491577  1
  O2-  O136  1  0.00160117  0.75037132  0.60443484  1
  O2-  O137  1  0.00041253  0.74950265  0.94325585  1
  O2-  O138  1  0.49664296  0.24685523  0.27667338  1
  O2-  O139  1  0.50267712  0.24404182  0.60447312  1
  O2-  O140  1  0.50336214  0.24432964  0.93944010  1
  O2-  O141  1  0.50037818  0.75005780  0.26785331  1
  O2-  O142  1  0.50251731  0.75335390  0.61315228  1
  O2-  O143  1  0.50069808  0.75170090  0.94004359  1
  O2-  O144  1  0.06890703  0.17841627  0.09894028  1
  O2-  O145  1  0.07402147  0.18193674  0.42223650  1
  O2-  O146  1  0.06837185  0.17975603  0.76266466  1
  O2-  O147  1  0.07326810  0.68123581  0.08980212  1
  O2-  O148  1  0.07124023  0.67965951  0.42961977  1
  O2-  O149  1  0.07379338  0.68082153  0.76714072  1
  O2-  O150  1  0.57065148  0.17550415  0.08928849  1
  O2-  O151  1  0.57294464  0.18133395  0.42453632  1
  O2-  O152  1  0.57338665  0.17601951  0.75482044  1
  O2-  O153  1  0.57008987  0.68002200  0.08823248  1
  O2-  O154  1  0.57020216  0.67545790  0.43178442  1
  O2-  O155  1  0.56927428  0.67853170  0.76014420  1
  O2-  O156  1  0.17819832  0.42662102  0.24325183  1
  O2-  O157  1  0.17645037  0.42814918  0.57645355  1
  O2-  O158  1  0.17788321  0.42841948  0.90925325  1
  O2-  O159  1  0.17885513  0.93110188  0.24503944  1
  O2-  O160  1  0.18299586  0.92953290  0.56690186  1
  O2-  O161  1  0.17765104  0.92786912  0.90300257  1
  O2-  O162  1  0.67936726  0.42649625  0.24382897  1
  O2-  O163  1  0.68016351  0.43272004  0.56644208  1
  O2-  O164  1  0.67987682  0.43356786  0.90238752  1
  O2-  O165  1  0.67841329  0.93030457  0.24273403  1
  O2-  O166  1  0.67902764  0.92813682  0.56528541  1
  O2-  O167  1  0.67923806  0.92577318  0.90328949  1
  O2-  O168  1  0.43356280  0.32022118  0.10087085  1
  O2-  O169  1  0.43196404  0.32225642  0.42388938  1
  O2-  O170  1  0.43546258  0.32536008  0.76399600  1
  O2-  O171  1  0.42951051  0.82068185  0.08848554  1
  O2-  O172  1  0.43279220  0.82401338  0.43298974  1
  O2-  O173  1  0.43161771  0.82098728  0.76134070  1
  O2-  O174  1  0.92599878  0.31852500  0.09678854  1
  O2-  O175  1  0.92619634  0.31742642  0.43440292  1
  O2-  O176  1  0.92408832  0.31881483  0.75579091  1
  O2-  O177  1  0.92793030  0.81819931  0.09039596  1
  O2-  O178  1  0.92845196  0.82002878  0.42895150  1
  O2-  O179  1  0.92397966  0.81691820  0.76658488  1
  O2-  O180  1  0.31951808  0.07545476  0.23324031  1
  O2-  O181  1  0.32250290  0.07002912  0.56901782  1
  O2-  O182  1  0.32213602  0.07236591  0.91013809  1
  O2-  O183  1  0.32150010  0.56493635  0.23550831  1
  O2-  O184  1  0.32280229  0.57081239  0.56722862  1
  O2-  O185  1  0.32095427  0.57080324  0.90291998  1
  O2-  O186  1  0.81531137  0.07355297  0.23405334  1
  O2-  O187  1  0.81885441  0.07602309  0.57913492  1
  O2-  O188  1  0.82064240  0.06629548  0.91061392  1
  O2-  O189  1  0.82212984  0.56888998  0.24253530  1
  O2-  O190  1  0.82039693  0.57224427  0.57598035  1
  O2-  O191  1  0.81969138  0.57621503  0.91165121  1
  O2-  O192  1  0.05085521  0.08390446  0.27361505  1
  O2-  O193  1  0.04073293  0.08449022  0.59344863  1
  O2-  O194  1  0.03708080  0.07990356  0.93246468  1
  O2-  O195  1  0.04136593  0.58135990  0.26200810  1
  O2-  O196  1  0.04986809  0.57954881  0.59942976  1
  O2-  O197  1  0.05115585  0.58858693  0.93641434  1
  O2-  O198  1  0.54668189  0.08728614  0.27132747  1
  O2-  O199  1  0.54802753  0.08218228  0.60326597  1
  O2-  O200  1  0.54572256  0.08039815  0.93802204  1
  O2-  O201  1  0.53913399  0.57808618  0.26404056  1
  O2-  O202  1  0.53926535  0.58927700  0.60607082  1
  O2-  O203  1  0.54126779  0.58852740  0.93710237  1
  O2-  O204  1  0.16597547  0.20733498  0.26918651  1
  O2-  O205  1  0.16576717  0.21257955  0.59409983  1
  O2-  O206  1  0.16850675  0.20354245  0.92988751  1
  O2-  O207  1  0.17079043  0.70578007  0.26339221  1
  O2-  O208  1  0.17343093  0.71011048  0.60115341  1
  O2-  O209  1  0.16602604  0.71294891  0.94029667  1
  O2-  O210  1  0.65988934  0.21140679  0.26978450  1
  O2-  O211  1  0.66569347  0.20441685  0.60337561  1
  O2-  O212  1  0.66511412  0.19799942  0.93728495  1
  O2-  O213  1  0.66889004  0.69871223  0.26185120  1
  O2-  O214  1  0.66252555  0.70286472  0.60728165  1
  O2-  O215  1  0.66354930  0.70692008  0.93691708  1
  O2-  O216  1  0.08152118  0.45203766  0.05889390  1
  O2-  O217  1  0.07960401  0.45079186  0.39263118  1
  O2-  O218  1  0.08034291  0.44779431  0.72796527  1
  O2-  O219  1  0.08035995  0.95830915  0.07018625  1
  O2-  O220  1  0.08494324  0.95320669  0.39664737  1
  O2-  O221  1  0.07814450  0.95734643  0.73038119  1
  O2-  O222  1  0.58873240  0.46530910  0.07199139  1
  O2-  O223  1  0.58740835  0.45630668  0.39619395  1
  O2-  O224  1  0.58750235  0.46743735  0.73604914  1
  O2-  O225  1  0.57990868  0.95644891  0.07072532  1
  O2-  O226  1  0.58698526  0.95563138  0.39444188  1
  O2-  O227  1  0.58664314  0.96003628  0.73700796  1
  O2-  O228  1  0.20151977  0.33230616  0.05979606  1
  O2-  O229  1  0.20235983  0.33569973  0.39622914  1
  O2-  O230  1  0.20533844  0.33563381  0.72730290  1
  O2-  O231  1  0.21301707  0.83729184  0.07304807  1
  O2-  O232  1  0.20443120  0.83431957  0.39470034  1
  O2-  O233  1  0.21113797  0.83548586  0.73675465  1
  O2-  O234  1  0.70484918  0.32877771  0.06733099  1
  O2-  O235  1  0.70762866  0.33738795  0.39766897  1
  O2-  O236  1  0.70388619  0.33174130  0.73506221  1
  O2-  O237  1  0.70785780  0.83020577  0.07048407  1
  O2-  O238  1  0.69967589  0.82879240  0.38957310  1
  O2-  O239  1  0.70836580  0.83014065  0.73427870  1
  O2-  O240  1  0.46035532  0.41022893  0.27061816  1
  O2-  O241  1  0.46913806  0.41738810  0.59678637  1
  O2-  O242  1  0.46803905  0.41818631  0.93507501  1
  O2-  O243  1  0.45827660  0.92142818  0.26338056  1
  O2-  O244  1  0.45878272  0.91590778  0.61032288  1
  O2-  O245  1  0.45486565  0.91393611  0.93742115  1
  O2-  O246  1  0.95320971  0.41431016  0.26425441  1
  O2-  O247  1  0.94644623  0.41633350  0.60589739  1
  O2-  O248  1  0.94827088  0.42351524  0.93142867  1
  O2-  O249  1  0.95550166  0.92299720  0.26409699  1
  O2-  O250  1  0.95001402  0.92030832  0.60044375  1
  O2-  O251  1  0.95334974  0.91127323  0.93909728  1
  O2-  O252  1  0.33560426  0.29553494  0.27279192  1
  O2-  O253  1  0.33439289  0.29910184  0.59421941  1
  O2-  O254  1  0.33457058  0.29761064  0.93142279  1
  O2-  O255  1  0.33183745  0.79615716  0.26488591  1
  O2-  O256  1  0.34010249  0.79476111  0.60830186  1
  O2-  O257  1  0.33649618  0.79052782  0.93815460  1
  O2-  O258  1  0.83047711  0.28487997  0.26781645  1
  O2-  O259  1  0.83013868  0.29424792  0.60594150  1
  O2-  O260  1  0.82790234  0.29093522  0.93086423  1
  O2-  O261  1  0.83135076  0.79304001  0.26220206  1
  O2-  O262  1  0.82961794  0.78891573  0.59783782  1
  O2-  O263  1  0.83573820  0.78863239  0.93973535  1
  O2-  O264  1  0.41354291  0.04734194  0.06235933  1
  O2-  O265  1  0.41989052  0.04461671  0.40009654  1
  O2-  O266  1  0.41967386  0.04831815  0.73723350  1
  O2-  O267  1  0.41655595  0.53767545  0.07023752  1
  O2-  O268  1  0.41575824  0.53533540  0.40258416  1
  O2-  O269  1  0.41483830  0.53651557  0.73515914  1
  O2-  O270  1  0.91234383  0.04187120  0.06412618  1
  O2-  O271  1  0.91925342  0.04569663  0.40042618  1
  O2-  O272  1  0.91742340  0.05068677  0.72801199  1
  O2-  O273  1  0.92140928  0.55442591  0.05933816  1
  O2-  O274  1  0.91315880  0.54115827  0.39492041  1
  O2-  O275  1  0.91965092  0.55135613  0.72609804  1
  O2-  O276  1  0.29722896  0.16996519  0.05924884  1
  O2-  O277  1  0.29161371  0.16940323  0.40148206  1
  O2-  O278  1  0.29683009  0.17748488  0.72831357  1
  O2-  O279  1  0.29022606  0.66560183  0.07088188  1
  O2-  O280  1  0.29411007  0.66924223  0.39899064  1
  O2-  O281  1  0.29305375  0.66736701  0.73689811  1
  O2-  O282  1  0.79491317  0.16325797  0.06127759  1
  O2-  O283  1  0.78323506  0.16317242  0.40466079  1
  O2-  O284  1  0.79237452  0.16326931  0.73428671  1
  O2-  O285  1  0.79137271  0.66168645  0.06694116  1
  O2-  O286  1  0.79353516  0.66285572  0.39428591  1
  O2-  O287  1  0.79327436  0.66208116  0.73081311  1
