# generated using pymatgen
data_Ca2Al2SiO7
_symmetry_space_group_name_H-M   'P 1'
_cell_length_a   15.46135964
_cell_length_b   15.46005287
_cell_length_c   15.28607654
_cell_angle_alpha   90.00190206
_cell_angle_beta   90.00468565
_cell_angle_gamma   90.00936771
_symmetry_Int_Tables_number   1
_chemical_formula_structural   Ca2Al2SiO7
_chemical_formula_sum   'Ca48 Al48 Si24 O168'
_cell_volume   3653.88335833
_cell_formula_units_Z   24
loop_
 _symmetry_equiv_pos_site_id
 _symmetry_equiv_pos_as_xyz
  1  'x, y, z'
loop_
 _atom_type_symbol
 _atom_type_oxidation_number
  Ca2+  2.0
  Al0+  0.0
  Si0+  0.0
  O2-  -2.0
loop_
 _atom_site_type_symbol
 _atom_site_label
 _atom_site_symmetry_multiplicity
 _atom_site_fract_x
 _atom_site_fract_y
 _atom_site_fract_z
 _atom_site_occupancy
  Ca2+  Ca0  1  0.17437917  0.07657566  0.17129643  1
  Ca2+  Ca1  1  0.16932671  0.07094590  0.51065775  1
  Ca2+  Ca2  1  0.17815105  0.08321002  0.82952302  1
  Ca2+  Ca3  1  0.16597920  0.58607797  0.16650433  1
  Ca2+  Ca4  1  0.17360780  0.58021783  0.50982099  1
  Ca2+  Ca5  1  0.17946004  0.57904482  0.84132745  1
  Ca2+  Ca6  1  0.67133729  0.08643283  0.17230185  1
  Ca2+  Ca7  1  0.67952495  0.07730901  0.50847722  1
  Ca2+  Ca8  1  0.66137400  0.07707508  0.83482543  1
  Ca2+  Ca9  1  0.66191484  0.57992098  0.17066588  1
  Ca2+  Ca10  1  0.65898558  0.57539032  0.50704587  1
  Ca2+  Ca11  1  0.65540713  0.57983117  0.83406047  1
  Ca2+  Ca12  1  0.08151415  0.33564029  0.15907374  1
  Ca2+  Ca13  1  0.09098660  0.32446396  0.50118654  1
  Ca2+  Ca14  1  0.09120009  0.33095978  0.82403413  1
  Ca2+  Ca15  1  0.08501682  0.82613305  0.17038986  1
  Ca2+  Ca16  1  0.08479959  0.83327161  0.48946549  1
  Ca2+  Ca17  1  0.08941405  0.83010902  0.82885179  1
  Ca2+  Ca18  1  0.57928573  0.33029553  0.16502375  1
  Ca2+  Ca19  1  0.57289085  0.34090596  0.49709824  1
  Ca2+  Ca20  1  0.57670165  0.32736949  0.82416605  1
  Ca2+  Ca21  1  0.57644009  0.83028117  0.15994282  1
  Ca2+  Ca22  1  0.57243024  0.83816066  0.50069829  1
  Ca2+  Ca23  1  0.57693058  0.82264547  0.82164244  1
  Ca2+  Ca24  1  0.33363987  0.42329531  0.16683874  1
  Ca2+  Ca25  1  0.33539877  0.42213380  0.51158737  1
  Ca2+  Ca26  1  0.32898915  0.42347863  0.83273593  1
  Ca2+  Ca27  1  0.33366520  0.92084475  0.17319513  1
  Ca2+  Ca28  1  0.32709582  0.91477491  0.50853150  1
  Ca2+  Ca29  1  0.33686257  0.92292466  0.83181036  1
  Ca2+  Ca30  1  0.82431640  0.41987782  0.17486047  1
  Ca2+  Ca31  1  0.81846276  0.41738665  0.50527928  1
  Ca2+  Ca32  1  0.82562490  0.41529003  0.83209885  1
  Ca2+  Ca33  1  0.83373355  0.92117424  0.17612998  1
  Ca2+  Ca34  1  0.83399912  0.92246229  0.50715542  1
  Ca2+  Ca35  1  0.82798753  0.91898527  0.82879653  1
  Ca2+  Ca36  1  0.41842512  0.17225570  0.15896448  1
  Ca2+  Ca37  1  0.40798651  0.17950682  0.49889375  1
  Ca2+  Ca38  1  0.41195666  0.16948234  0.82552995  1
  Ca2+  Ca39  1  0.41724792  0.67257597  0.16238478  1
  Ca2+  Ca40  1  0.41487670  0.67645573  0.50237753  1
  Ca2+  Ca41  1  0.42063130  0.66348871  0.82485071  1
  Ca2+  Ca42  1  0.91604631  0.16599809  0.16557047  1
  Ca2+  Ca43  1  0.92038424  0.15652639  0.50003738  1
  Ca2+  Ca44  1  0.92528442  0.16622550  0.82324653  1
  Ca2+  Ca45  1  0.92793036  0.66980827  0.16304293  1
  Ca2+  Ca46  1  0.92663607  0.67529196  0.49083751  1
  Ca2+  Ca47  1  0.92550851  0.66543280  0.83063803  1
  Al0+  Al48  1  -0.00191613  0.00160042  -0.00019812  1
  Al0+  Al49  1  0.00196049  -0.00052605  0.33412193  1
  Al0+  Al50  1  0.00109343  -0.00020022  0.67198779  1
  Al0+  Al51  1  -0.00301003  0.50157951  -0.00133749  1
  Al0+  Al52  1  -0.00013498  0.49793505  0.33102989  1
  Al0+  Al53  1  -0.00293213  0.49787702  0.66630265  1
  Al0+  Al54  1  0.50090193  0.00067530  0.00239701  1
  Al0+  Al55  1  0.50169324  0.00256812  0.33012654  1
  Al0+  Al56  1  0.50198843  -0.00047032  0.66813075  1
  Al0+  Al57  1  0.49747269  0.49903670  0.00212433  1
  Al0+  Al58  1  0.49777434  0.49898517  0.33167855  1
  Al0+  Al59  1  0.50070859  0.49820257  0.66780804  1
  Al0+  Al60  1  0.24836495  0.24912607  0.00842259  1
  Al0+  Al61  1  0.25047697  0.25178004  0.32526031  1
  Al0+  Al62  1  0.24881461  0.24841016  0.66261526  1
  Al0+  Al63  1  0.24807722  0.75070871  -0.00003437  1
  Al0+  Al64  1  0.25234224  0.74957541  0.32795537  1
  Al0+  Al65  1  0.25187979  0.74889745  0.67122807  1
  Al0+  Al66  1  0.74950303  0.24932910  -0.00384798  1
  Al0+  Al67  1  0.75064963  0.25027428  0.34234331  1
  Al0+  Al68  1  0.75190221  0.25154017  0.67388005  1
  Al0+  Al69  1  0.74866362  0.75043152  -0.00297626  1
  Al0+  Al70  1  0.75078480  0.74991684  0.33047877  1
  Al0+  Al71  1  0.75247850  0.74887596  0.66560980  1
  Al0+  Al72  1  0.17743927  0.42795008  0.67787023  1
  Al0+  Al73  1  0.17693290  0.43012560  0.01605273  1
  Al0+  Al74  1  0.18396102  0.92948607  0.34518023  1
  Al0+  Al75  1  0.06974699  0.17942577  0.65271752  1
  Al0+  Al76  1  0.43019321  0.31775819  0.65449788  1
  Al0+  Al77  1  0.67887083  0.92703974  0.68147393  1
  Al0+  Al78  1  0.43064588  0.82297988  0.31901954  1
  Al0+  Al79  1  0.07221949  0.67654642  0.31904808  1
  Al0+  Al80  1  0.56957831  0.67857833  0.98691080  1
  Al0+  Al81  1  0.57139155  0.17955700  0.98621390  1
  Al0+  Al82  1  0.57243778  0.67767508  0.65068064  1
  Al0+  Al83  1  0.32178389  0.06959800  0.01534270  1
  Al0+  Al84  1  0.42840484  0.82252772  0.65256034  1
  Al0+  Al85  1  0.32171945  0.57238441  0.01816805  1
  Al0+  Al86  1  0.82195714  0.07074155  0.68430328  1
  Al0+  Al87  1  0.06996889  0.68012431  0.98355289  1
  Al0+  Al88  1  0.92860261  0.82309678  0.31892182  1
  Al0+  Al89  1  0.42809449  0.32213527  0.31668521  1
  Al0+  Al90  1  0.82124113  0.06938232  0.34668647  1
  Al0+  Al91  1  0.32230481  0.07164856  0.67769275  1
  Al0+  Al92  1  0.32126839  0.57062323  0.68057117  1
  Al0+  Al93  1  0.17912909  0.92656109  0.68188402  1
  Al0+  Al94  1  0.67845700  0.43069825  0.68218592  1
  Al0+  Al95  1  0.67853742  0.43186608  0.34666361  1
  Si0+  Si96  1  0.68031858  0.92852399  0.01613726  1
  Si0+  Si97  1  0.32398456  0.07467462  0.34894315  1
  Si0+  Si98  1  0.67960937  0.42781478  0.01504977  1
  Si0+  Si99  1  0.42629707  0.31992076  0.98272043  1
  Si0+  Si100  1  0.82397264  0.57279275  0.34906639  1
  Si0+  Si101  1  0.82303088  0.57262130  0.68368807  1
  Si0+  Si102  1  0.81951654  0.57239883  0.01551065  1
  Si0+  Si103  1  0.17652552  0.42723579  0.34799340  1
  Si0+  Si104  1  0.42753560  0.82309864  0.98382509  1
  Si0+  Si105  1  0.92563175  0.32291736  0.64763604  1
  Si0+  Si106  1  0.92763363  0.31910805  0.31905124  1
  Si0+  Si107  1  0.57410156  0.18091995  0.31901205  1
  Si0+  Si108  1  0.92693424  0.82392770  0.98128417  1
  Si0+  Si109  1  0.17506219  0.92886967  0.01827187  1
  Si0+  Si110  1  0.07159997  0.67729870  0.65367908  1
  Si0+  Si111  1  0.31939603  0.56968802  0.34817862  1
  Si0+  Si112  1  0.57577376  0.17699007  0.64960962  1
  Si0+  Si113  1  0.92778939  0.32144036  0.98526286  1
  Si0+  Si114  1  0.67619357  0.92590773  0.34831651  1
  Si0+  Si115  1  0.07040943  0.17978665  0.98587639  1
  Si0+  Si116  1  0.93138386  0.82040865  0.65263404  1
  Si0+  Si117  1  0.57111369  0.67736797  0.31779373  1
  Si0+  Si118  1  0.07093781  0.17875943  0.31641727  1
  Si0+  Si119  1  0.82040200  0.07165997  0.01600058  1
  O2-  O120  1  0.24790851  -0.00633264  0.06188934  1
  O2-  O121  1  0.25894358  0.00316962  0.39252445  1
  O2-  O122  1  0.25439730  -0.00348844  0.72926559  1
  O2-  O123  1  0.24739253  0.50216236  0.06863629  1
  O2-  O124  1  0.24627052  0.49948413  0.38873464  1
  O2-  O125  1  0.24551715  0.50172072  0.72914686  1
  O2-  O126  1  0.75057698  0.00036731  0.05903721  1
  O2-  O127  1  0.74916308  -0.00888863  0.39065287  1
  O2-  O128  1  0.74612488  0.00287436  0.73416373  1
  O2-  O129  1  0.74707489  0.50231838  0.05781174  1
  O2-  O130  1  0.75084006  0.50934751  0.39320399  1
  O2-  O131  1  0.75137812  0.50739780  0.72882857  1
  O2-  O132  1  -0.00006741  0.25062694  0.27454925  1
  O2-  O133  1  -0.00533865  0.25396817  0.60447274  1
  O2-  O134  1  0.00355748  0.25522387  0.94438847  1
  O2-  O135  1  -0.00227358  0.74770921  0.27000970  1
  O2-  O136  1  0.00404350  0.75104481  0.61072364  1
  O2-  O137  1  -0.00211058  0.75784864  0.93690992  1
  O2-  O138  1  0.50201516  0.24504555  0.27286526  1
  O2-  O139  1  0.50454087  0.24287396  0.60541902  1
  O2-  O140  1  0.49435983  0.25062546  0.93885719  1
  O2-  O141  1  0.50924369  0.75164384  0.27291587  1
  O2-  O142  1  0.50244760  0.75210560  0.60195377  1
  O2-  O143  1  0.49171105  0.74970845  0.94112739  1
  O2-  O144  1  0.06621183  0.17804094  0.09140298  1
  O2-  O145  1  0.07191852  0.17906718  0.42116135  1
  O2-  O146  1  0.06949519  0.18142199  0.76629553  1
  O2-  O147  1  0.06606236  0.67977037  0.09650875  1
  O2-  O148  1  0.07154747  0.67591263  0.43296445  1
  O2-  O149  1  0.06771700  0.67691294  0.75874319  1
  O2-  O150  1  0.57542976  0.18410275  0.09963207  1
  O2-  O151  1  0.57565810  0.18214621  0.42399717  1
  O2-  O152  1  0.57534557  0.18024958  0.75554285  1
  O2-  O153  1  0.57277423  0.68248959  0.10045045  1
  O2-  O154  1  0.56841716  0.67477254  0.42269964  1
  O2-  O155  1  0.56957290  0.67803157  0.76454082  1
  O2-  O156  1  0.17522282  0.42674083  0.24307655  1
  O2-  O157  1  0.17888461  0.43029118  0.56358694  1
  O2-  O158  1  0.17762234  0.42905811  0.90306913  1
  O2-  O159  1  0.18404233  0.93269351  0.23178548  1
  O2-  O160  1  0.17685361  0.92711097  0.56806293  1
  O2-  O161  1  0.17205815  0.93180312  0.91316276  1
  O2-  O162  1  0.68149710  0.43142299  0.23270518  1
  O2-  O163  1  0.67957192  0.43125024  0.56887515  1
  O2-  O164  1  0.68251427  0.42682830  0.91038965  1
  O2-  O165  1  0.67541257  0.92828525  0.24221104  1
  O2-  O166  1  0.68284270  0.92752741  0.56755887  1
  O2-  O167  1  0.68167587  0.92820611  0.91162074  1
  O2-  O168  1  0.42967318  0.31961881  0.08879743  1
  O2-  O169  1  0.42699438  0.32334909  0.42949155  1
  O2-  O170  1  0.43086099  0.31728754  0.76765008  1
  O2-  O171  1  0.43191639  0.82457079  0.08999665  1
  O2-  O172  1  0.42901344  0.82230144  0.43135500  1
  O2-  O173  1  0.42899983  0.82139748  0.76613924  1
  O2-  O174  1  0.92427904  0.31841028  0.09086616  1
  O2-  O175  1  0.92770031  0.31938640  0.42347420  1
  O2-  O176  1  0.92551563  0.32368669  0.75355093  1
  O2-  O177  1  0.92541962  0.82400234  0.08672884  1
  O2-  O178  1  0.93098926  0.82264436  0.43261262  1
  O2-  O179  1  0.93035363  0.81822647  0.75798913  1
  O2-  O180  1  0.32177017  0.07423358  0.24293316  1
  O2-  O181  1  0.31723130  0.07370424  0.56405701  1
  O2-  O182  1  0.32047726  0.07108004  0.90279412  1
  O2-  O183  1  0.32059676  0.56886230  0.24314920  1
  O2-  O184  1  0.31937696  0.57104538  0.56624662  1
  O2-  O185  1  0.32317510  0.56949592  0.90526413  1
  O2-  O186  1  0.81827544  0.07209327  0.23270843  1
  O2-  O187  1  0.82288802  0.06659954  0.57052512  1
  O2-  O188  1  0.82174090  0.07193297  0.91170523  1
  O2-  O189  1  0.82484681  0.56904205  0.24308060  1
  O2-  O190  1  0.82631989  0.56997101  0.57820332  1
  O2-  O191  1  0.82120750  0.57081703  0.91069811  1
  O2-  O192  1  0.04126787  0.08836393  0.26769106  1
  O2-  O193  1  0.03680824  0.08220334  0.60022711  1
  O2-  O194  1  0.03758223  0.08989465  0.93800378  1
  O2-  O195  1  0.04316511  0.57790636  0.26493048  1
  O2-  O196  1  0.04037601  0.58651413  0.60565601  1
  O2-  O197  1  0.03362490  0.58464713  0.93036336  1
  O2-  O198  1  0.55433409  0.08635976  0.27164788  1
  O2-  O199  1  0.55674625  0.08154945  0.60583077  1
  O2-  O200  1  0.54533831  0.08052168  0.93566975  1
  O2-  O201  1  0.53914916  0.58669715  0.26895532  1
  O2-  O202  1  0.54158001  0.57972725  0.59911663  1
  O2-  O203  1  0.54279204  0.57926680  0.93646406  1
  O2-  O204  1  0.16153708  0.20682686  0.26648336  1
  O2-  O205  1  0.16383451  0.21015406  0.59424633  1
  O2-  O206  1  0.16401298  0.20433725  0.94162200  1
  O2-  O207  1  0.16834372  0.70765310  0.26364787  1
  O2-  O208  1  0.16489110  0.70092937  0.60881218  1
  O2-  O209  1  0.16780077  0.70816391  0.93096235  1
  O2-  O210  1  0.66675440  0.21175667  0.27228797  1
  O2-  O211  1  0.66984296  0.20609695  0.60646117  1
  O2-  O212  1  0.66681467  0.21143423  0.93033296  1
  O2-  O213  1  0.66794634  0.69391501  0.27382492  1
  O2-  O214  1  0.67378441  0.70041242  0.60034754  1
  O2-  O215  1  0.66608490  0.70939165  0.93255202  1
  O2-  O216  1  0.07579498  0.45693692  0.06662774  1
  O2-  O217  1  0.08312880  0.45014452  0.39462183  1
  O2-  O218  1  0.07624747  0.44906499  0.72820827  1
  O2-  O219  1  0.08246786  0.96004884  0.06475567  1
  O2-  O220  1  0.08726618  0.96087925  0.39799742  1
  O2-  O221  1  0.08310543  0.95733113  0.73745165  1
  O2-  O222  1  0.58673555  0.45170648  0.06165067  1
  O2-  O223  1  0.58110334  0.46139922  0.39907180  1
  O2-  O224  1  0.58323975  0.45937561  0.73833676  1
  O2-  O225  1  0.58908749  0.95601095  0.06466129  1
  O2-  O226  1  0.58443240  0.95651291  0.39530412  1
  O2-  O227  1  0.58043982  0.95143593  0.73560018  1
  O2-  O228  1  0.20251596  0.33143551  0.07089560  1
  O2-  O229  1  0.20583422  0.33430161  0.39220170  1
  O2-  O230  1  0.20772679  0.33048081  0.72970201  1
  O2-  O231  1  0.19592887  0.83356310  0.06185632  1
  O2-  O232  1  0.21215286  0.83127091  0.39665806  1
  O2-  O233  1  0.20501730  0.82887104  0.73627307  1
  O2-  O234  1  0.71344592  0.33756721  0.06266640  1
  O2-  O235  1  0.71265852  0.33798159  0.40264711  1
  O2-  O236  1  0.71196232  0.33619778  0.73857292  1
  O2-  O237  1  0.70944994  0.83702622  0.06404047  1
  O2-  O238  1  0.69615028  0.83012848  0.39165562  1
  O2-  O239  1  0.71302341  0.82999874  0.73472092  1
  O2-  O240  1  0.46263061  0.41682771  0.26093743  1
  O2-  O241  1  0.46336335  0.41332818  0.60002060  1
  O2-  O242  1  0.45316085  0.41359128  0.93896451  1
  O2-  O243  1  0.45858462  0.92094551  0.26419547  1
  O2-  O244  1  0.45542997  0.92170075  0.59908625  1
  O2-  O245  1  0.45883373  0.91500736  0.93867596  1
  O2-  O246  1  0.95273083  0.41106563  0.26962134  1
  O2-  O247  1  0.94843383  0.41677329  0.60017415  1
  O2-  O248  1  0.94811268  0.41490520  0.93876105  1
  O2-  O249  1  0.96024277  0.92006956  0.26375914  1
  O2-  O250  1  0.95804171  0.91289362  0.60719436  1
  O2-  O251  1  0.95013978  0.91906297  0.93674405  1
  O2-  O252  1  0.33222750  0.29331219  0.25933292  1
  O2-  O253  1  0.33452244  0.28834472  0.59756479  1
  O2-  O254  1  0.33130429  0.29330888  0.94135387  1
  O2-  O255  1  0.33726872  0.78830182  0.26165881  1
  O2-  O256  1  0.33011980  0.79059632  0.59968272  1
  O2-  O257  1  0.33103279  0.80538647  0.94227453  1
  O2-  O258  1  0.83634249  0.28873946  0.27103713  1
  O2-  O259  1  0.83169449  0.29654548  0.60255727  1
  O2-  O260  1  0.83893051  0.28862048  0.93520743  1
  O2-  O261  1  0.82862620  0.79918145  0.26509932  1
  O2-  O262  1  0.84088496  0.79199697  0.60325321  1
  O2-  O263  1  0.83466035  0.79478944  0.93467769  1
  O2-  O264  1  0.41915116  0.04117881  0.07065506  1
  O2-  O265  1  0.42030903  0.05574825  0.39092969  1
  O2-  O266  1  0.42223965  0.05087587  0.73020016  1
  O2-  O267  1  0.41935847  0.54080109  0.07320438  1
  O2-  O268  1  0.41001656  0.53883545  0.39509754  1
  O2-  O269  1  0.41726179  0.53742645  0.73374195  1
  O2-  O270  1  0.91235354  0.04485424  0.06464392  1
  O2-  O271  1  0.91866845  0.04115414  0.39931439  1
  O2-  O272  1  0.91757927  0.03769355  0.73961046  1
  O2-  O273  1  0.90940769  0.54200538  0.06495275  1
  O2-  O274  1  0.91576218  0.54192896  0.39599478  1
  O2-  O275  1  0.91405701  0.54173067  0.73297174  1
  O2-  O276  1  0.28917539  0.16442441  0.07243074  1
  O2-  O277  1  0.29373941  0.16868668  0.39111985  1
  O2-  O278  1  0.28699432  0.16694256  0.73263500  1
  O2-  O279  1  0.29444834  0.67280822  0.06849256  1
  O2-  O280  1  0.29286616  0.66210032  0.39391898  1
  O2-  O281  1  0.29601669  0.66774242  0.73598371  1
  O2-  O282  1  0.79142252  0.16393676  0.06298206  1
  O2-  O283  1  0.79076782  0.16416165  0.40355520  1
  O2-  O284  1  0.80168875  0.17128297  0.73536762  1
  O2-  O285  1  0.79249225  0.66481463  0.06243090  1
  O2-  O286  1  0.80501539  0.66899017  0.39228454  1
  O2-  O287  1  0.80354910  0.66702183  0.72976338  1
