# generated using pymatgen
data_Ca2Al2SiO7
_symmetry_space_group_name_H-M   'P 1'
_cell_length_a   15.45813433
_cell_length_b   15.45788948
_cell_length_c   15.28313189
_cell_angle_alpha   89.99933982
_cell_angle_beta   90.01276996
_cell_angle_gamma   90.00865830
_symmetry_Int_Tables_number   1
_chemical_formula_structural   Ca2Al2SiO7
_chemical_formula_sum   'Ca48 Al48 Si24 O168'
_cell_volume   3651.90624887
_cell_formula_units_Z   24
loop_
 _symmetry_equiv_pos_site_id
 _symmetry_equiv_pos_as_xyz
  1  'x, y, z'
loop_
 _atom_type_symbol
 _atom_type_oxidation_number
  Ca2+  2.0
  Al0+  0.0
  Si0+  0.0
  O2-  -2.0
loop_
 _atom_site_type_symbol
 _atom_site_label
 _atom_site_symmetry_multiplicity
 _atom_site_fract_x
 _atom_site_fract_y
 _atom_site_fract_z
 _atom_site_occupancy
  Ca2+  Ca0  1  0.16300198  0.06931968  0.16993278  1
  Ca2+  Ca1  1  0.17163292  0.07589578  0.50798837  1
  Ca2+  Ca2  1  0.17555545  0.07951329  0.83854962  1
  Ca2+  Ca3  1  0.15953669  0.58243604  0.16154725  1
  Ca2+  Ca4  1  0.17264945  0.57962565  0.51347835  1
  Ca2+  Ca5  1  0.16675134  0.58134213  0.83582963  1
  Ca2+  Ca6  1  0.66425238  0.08028718  0.17273234  1
  Ca2+  Ca7  1  0.66406804  0.08044154  0.50522759  1
  Ca2+  Ca8  1  0.66844202  0.09074701  0.83510529  1
  Ca2+  Ca9  1  0.66849768  0.57616703  0.16831339  1
  Ca2+  Ca10  1  0.67009450  0.57349224  0.51245960  1
  Ca2+  Ca11  1  0.66803083  0.57650380  0.84037328  1
  Ca2+  Ca12  1  0.07622849  0.33429932  0.15528415  1
  Ca2+  Ca13  1  0.08392504  0.33411460  0.49974358  1
  Ca2+  Ca14  1  0.07752502  0.34840645  0.83100400  1
  Ca2+  Ca15  1  0.07482176  0.83360764  0.15664243  1
  Ca2+  Ca16  1  0.07862147  0.82885273  0.49391402  1
  Ca2+  Ca17  1  0.08190100  0.82388521  0.83259658  1
  Ca2+  Ca18  1  0.59497328  0.32504290  0.16162440  1
  Ca2+  Ca19  1  0.58540206  0.32859582  0.49924608  1
  Ca2+  Ca20  1  0.58523279  0.32866048  0.82419647  1
  Ca2+  Ca21  1  0.58481439  0.82917602  0.15908489  1
  Ca2+  Ca22  1  0.58690329  0.82814239  0.49837217  1
  Ca2+  Ca23  1  0.58753566  0.81753273  0.82954941  1
  Ca2+  Ca24  1  0.32782623  0.41683766  0.16517155  1
  Ca2+  Ca25  1  0.32824360  0.41828355  0.51319868  1
  Ca2+  Ca26  1  0.32618564  0.41537419  0.83194904  1
  Ca2+  Ca27  1  0.31927262  0.91106826  0.17001772  1
  Ca2+  Ca28  1  0.32907169  0.92215120  0.50592743  1
  Ca2+  Ca29  1  0.33144546  0.92149274  0.83683898  1
  Ca2+  Ca30  1  0.82691898  0.42002529  0.16372362  1
  Ca2+  Ca31  1  0.82083047  0.41981965  0.50859655  1
  Ca2+  Ca32  1  0.82547229  0.42712385  0.83939705  1
  Ca2+  Ca33  1  0.83170428  0.91312056  0.17235624  1
  Ca2+  Ca34  1  0.83057461  0.91985310  0.50173891  1
  Ca2+  Ca35  1  0.83844469  0.92301694  0.83503365  1
  Ca2+  Ca36  1  0.43065416  0.16674050  0.16158993  1
  Ca2+  Ca37  1  0.42295130  0.16937330  0.50072313  1
  Ca2+  Ca38  1  0.42578444  0.17169181  0.82298954  1
  Ca2+  Ca39  1  0.42490200  0.66850165  0.16060749  1
  Ca2+  Ca40  1  0.42316935  0.65637241  0.50441523  1
  Ca2+  Ca41  1  0.42588977  0.65984256  0.82710975  1
  Ca2+  Ca42  1  0.91610116  0.17536620  0.15946488  1
  Ca2+  Ca43  1  0.91270416  0.16520780  0.50103898  1
  Ca2+  Ca44  1  0.91445582  0.17457272  0.82966953  1
  Ca2+  Ca45  1  0.91687852  0.67855622  0.15424691  1
  Ca2+  Ca46  1  0.91991605  0.66619157  0.49978537  1
  Ca2+  Ca47  1  0.92290881  0.65930311  0.82954960  1
  Al0+  Al48  1  0.00109187  0.00141603  0.00033271  1
  Al0+  Al49  1  0.00039033  -0.00057796  0.33464560  1
  Al0+  Al50  1  -0.00257011  0.00016011  0.66995411  1
  Al0+  Al51  1  -0.00053113  0.50152076  0.00230953  1
  Al0+  Al52  1  0.00099349  0.49988630  0.33251050  1
  Al0+  Al53  1  -0.00202036  0.50088030  0.66349940  1
  Al0+  Al54  1  0.50132765  0.00209537  -0.00405599  1
  Al0+  Al55  1  0.50001564  -0.00026312  0.33247432  1
  Al0+  Al56  1  0.49911803  -0.00168280  0.66769760  1
  Al0+  Al57  1  0.49875505  0.49798536  0.00270989  1
  Al0+  Al58  1  0.49890068  0.49806670  0.33511297  1
  Al0+  Al59  1  0.49778359  0.49819062  0.66501122  1
  Al0+  Al60  1  0.25283414  0.24993478  0.00762578  1
  Al0+  Al61  1  0.25106353  0.25008656  0.33056866  1
  Al0+  Al62  1  0.24927200  0.24729007  0.67089530  1
  Al0+  Al63  1  0.24933980  0.75203266  0.00189820  1
  Al0+  Al64  1  0.25082348  0.74859346  0.33784703  1
  Al0+  Al65  1  0.24867636  0.74865594  0.66566628  1
  Al0+  Al66  1  0.75255163  0.25018291  -0.00439674  1
  Al0+  Al67  1  0.75046168  0.25108700  0.33318244  1
  Al0+  Al68  1  0.75096251  0.24790988  0.66822723  1
  Al0+  Al69  1  0.74974788  0.75271981  -0.00538208  1
  Al0+  Al70  1  0.75184075  0.75041461  0.33393493  1
  Al0+  Al71  1  0.75087192  0.75131458  0.66390926  1
  Al0+  Al72  1  0.67793297  0.92778743  0.34570851  1
  Al0+  Al73  1  0.57286612  0.17809002  0.64968619  1
  Al0+  Al74  1  0.17896296  0.43011644  0.01472195  1
  Al0+  Al75  1  0.57128819  0.18040492  0.98497615  1
  Al0+  Al76  1  0.07060267  0.67999228  0.98442131  1
  Al0+  Al77  1  0.93022286  0.82037172  0.31974702  1
  Al0+  Al78  1  0.82034959  0.57313061  0.68061524  1
  Al0+  Al79  1  0.17783193  0.92839240  0.34885037  1
  Al0+  Al80  1  0.67991914  0.42877476  0.34839174  1
  Al0+  Al81  1  0.92728435  0.82475261  0.98226185  1
  Al0+  Al82  1  0.67776012  0.42856529  0.68145240  1
  Al0+  Al83  1  0.42685816  0.31979653  0.65163684  1
  Al0+  Al84  1  0.17761754  0.42786839  0.68033405  1
  Al0+  Al85  1  0.07005255  0.67862570  0.65109230  1
  Al0+  Al86  1  0.57042274  0.17990274  0.31901569  1
  Al0+  Al87  1  0.57133780  0.67848013  0.65251980  1
  Al0+  Al88  1  0.67812612  0.42768733  0.01540051  1
  Al0+  Al89  1  0.57008355  0.67806180  0.98839624  1
  Al0+  Al90  1  0.32153318  0.06956668  0.68022455  1
  Al0+  Al91  1  0.18037166  0.93035109  0.01330912  1
  Al0+  Al92  1  0.82040606  0.57418613  0.01563718  1
  Al0+  Al93  1  0.93141694  0.32104996  0.98568297  1
  Al0+  Al94  1  0.82003284  0.06970943  0.68080225  1
  Al0+  Al95  1  0.32111291  0.57197573  0.68234333  1
  Si0+  Si96  1  0.07033780  0.17642124  0.65291840  1
  Si0+  Si97  1  0.92990894  0.32047107  0.65048796  1
  Si0+  Si98  1  0.42552061  0.32176171  0.98353351  1
  Si0+  Si99  1  0.42712371  0.82172503  0.64963347  1
  Si0+  Si100  1  0.67685507  0.92753570  0.68430164  1
  Si0+  Si101  1  0.42647250  0.32334201  0.31372429  1
  Si0+  Si102  1  0.17849959  0.42805585  0.34746729  1
  Si0+  Si103  1  0.07412685  0.67763002  0.31609188  1
  Si0+  Si104  1  0.93015840  0.32109842  0.31887659  1
  Si0+  Si105  1  0.07432235  0.17876625  0.98483455  1
  Si0+  Si106  1  0.17676266  0.92752163  0.68361123  1
  Si0+  Si107  1  0.82280630  0.57243676  0.34990826  1
  Si0+  Si108  1  0.07292780  0.17920461  0.31897867  1
  Si0+  Si109  1  0.32114733  0.57001051  0.34868576  1
  Si0+  Si110  1  0.42846649  0.82100623  0.31933734  1
  Si0+  Si111  1  0.32257052  0.57357794  0.01845979  1
  Si0+  Si112  1  0.82127334  0.07132141  0.01558520  1
  Si0+  Si113  1  0.67852918  0.93060116  0.01302743  1
  Si0+  Si114  1  0.42774715  0.82229658  0.98460148  1
  Si0+  Si115  1  0.92912962  0.82507417  0.64751052  1
  Si0+  Si116  1  0.32142668  0.07181086  0.34942584  1
  Si0+  Si117  1  0.32516889  0.07185859  0.01955467  1
  Si0+  Si118  1  0.57060191  0.67800753  0.31966481  1
  Si0+  Si119  1  0.82132679  0.07271736  0.34822371  1
  O2-  O120  1  0.25514585  0.00415205  0.06323470  1
  O2-  O121  1  0.25185020  0.00425399  0.39432962  1
  O2-  O122  1  0.24781910  -0.00603085  0.72702959  1
  O2-  O123  1  0.25258865  0.50569234  0.06295675  1
  O2-  O124  1  0.24862931  0.49935158  0.38876410  1
  O2-  O125  1  0.24852128  0.50026794  0.73088054  1
  O2-  O126  1  0.75077686  -0.00028888  0.05723422  1
  O2-  O127  1  0.75198988  0.00398237  0.39089645  1
  O2-  O128  1  0.74313165  -0.00161455  0.72852438  1
  O2-  O129  1  0.74686751  0.50319877  0.06591964  1
  O2-  O130  1  0.75315081  0.50505975  0.39405904  1
  O2-  O131  1  0.74480605  0.50537028  0.73035727  1
  O2-  O132  1  0.00261947  0.25087276  0.27680267  1
  O2-  O133  1  0.00226254  0.24963641  0.60869509  1
  O2-  O134  1  0.01119068  0.25107946  0.93903124  1
  O2-  O135  1  0.00532005  0.74623461  0.27287087  1
  O2-  O136  1  -0.00374850  0.75433220  0.60407905  1
  O2-  O137  1  -0.00416680  0.74889992  0.93385586  1
  O2-  O138  1  0.49736580  0.25609511  0.27102695  1
  O2-  O139  1  0.50146132  0.25092488  0.59996299  1
  O2-  O140  1  0.49774961  0.25660095  0.94080228  1
  O2-  O141  1  0.50177872  0.75180424  0.27740255  1
  O2-  O142  1  0.49509806  0.75228920  0.60477504  1
  O2-  O143  1  0.49399242  0.75156294  0.94130101  1
  O2-  O144  1  0.06970170  0.17806204  0.09125443  1
  O2-  O145  1  0.07473644  0.18046902  0.42414642  1
  O2-  O146  1  0.06792467  0.17282503  0.75750354  1
  O2-  O147  1  0.07107975  0.68373388  0.09881559  1
  O2-  O148  1  0.07400872  0.67651962  0.42159661  1
  O2-  O149  1  0.07098289  0.67959657  0.76349985  1
  O2-  O150  1  0.57055302  0.17753750  0.09879359  1
  O2-  O151  1  0.56892720  0.17892755  0.43127098  1
  O2-  O152  1  0.57131101  0.17934263  0.76316415  1
  O2-  O153  1  0.56843767  0.68166304  0.10262009  1
  O2-  O154  1  0.56832140  0.67768392  0.42451132  1
  O2-  O155  1  0.57096279  0.68066658  0.76548944  1
  O2-  O156  1  0.17770370  0.42773128  0.24251340  1
  O2-  O157  1  0.17816085  0.42836547  0.56552371  1
  O2-  O158  1  0.18156547  0.42885366  0.90272537  1
  O2-  O159  1  0.17869073  0.92917866  0.23575131  1
  O2-  O160  1  0.17651718  0.93053416  0.57742218  1
  O2-  O161  1  0.18338578  0.93274833  0.90048014  1
  O2-  O162  1  0.68227471  0.42852327  0.23549646  1
  O2-  O163  1  0.68189064  0.42794651  0.56708262  1
  O2-  O164  1  0.67879483  0.42697214  0.90263457  1
  O2-  O165  1  0.67828213  0.92811142  0.23226318  1
  O2-  O166  1  0.67841474  0.92742261  0.57817346  1
  O2-  O167  1  0.67623596  0.93294907  0.90843939  1
  O2-  O168  1  0.42261209  0.31879210  0.08964870  1
  O2-  O169  1  0.42143617  0.32278471  0.41854496  1
  O2-  O170  1  0.42433395  0.31629206  0.76498669  1
  O2-  O171  1  0.42911681  0.82236813  0.09104465  1
  O2-  O172  1  0.42695573  0.82098818  0.42398635  1
  O2-  O173  1  0.42840198  0.82303259  0.75518269  1
  O2-  O174  1  0.93109985  0.31681308  0.09986722  1
  O2-  O175  1  0.93163335  0.32069366  0.42401321  1
  O2-  O176  1  0.93077573  0.31979833  0.75520744  1
  O2-  O177  1  0.92931652  0.82626095  0.09652078  1
  O2-  O178  1  0.93176744  0.82066188  0.43263276  1
  O2-  O179  1  0.93209134  0.82981555  0.75240417  1
  O2-  O180  1  0.31986604  0.07053048  0.24384006  1
  O2-  O181  1  0.31826823  0.06767010  0.56650214  1
  O2-  O182  1  0.32471688  0.07078549  0.91411633  1
  O2-  O183  1  0.32310223  0.57107149  0.24358655  1
  O2-  O184  1  0.31828915  0.57106400  0.56776162  1
  O2-  O185  1  0.32418601  0.57435982  0.91377504  1
  O2-  O186  1  0.82207785  0.07441590  0.24247502  1
  O2-  O187  1  0.82322175  0.06686821  0.56739188  1
  O2-  O188  1  0.82139530  0.07156590  0.91074239  1
  O2-  O189  1  0.82265921  0.57206466  0.24458932  1
  O2-  O190  1  0.82043345  0.56916498  0.56609515  1
  O2-  O191  1  0.81967198  0.57137231  0.90266799  1
  O2-  O192  1  0.04345814  0.08778707  0.27179367  1
  O2-  O193  1  0.03858759  0.08636454  0.60286560  1
  O2-  O194  1  0.04522325  0.08748906  0.93742817  1
  O2-  O195  1  0.04943871  0.58278495  0.27096875  1
  O2-  O196  1  0.03780505  0.58314005  0.59395254  1
  O2-  O197  1  0.04679109  0.57989825  0.93478789  1
  O2-  O198  1  0.53864112  0.08279517  0.26455335  1
  O2-  O199  1  0.54268940  0.07806526  0.59996871  1
  O2-  O200  1  0.54030836  0.08429360  0.92999528  1
  O2-  O201  1  0.53852468  0.58730247  0.27202261  1
  O2-  O202  1  0.53975756  0.58269546  0.59711659  1
  O2-  O203  1  0.53972042  0.58068407  0.93683544  1
  O2-  O204  1  0.16434483  0.20522098  0.26948296  1
  O2-  O205  1  0.16231257  0.20144920  0.60487570  1
  O2-  O206  1  0.17157700  0.19804745  0.94515950  1
  O2-  O207  1  0.16894216  0.70205864  0.27193385  1
  O2-  O208  1  0.16718386  0.70868054  0.59634543  1
  O2-  O209  1  0.16950286  0.71116969  0.93381791  1
  O2-  O210  1  0.66861194  0.20937774  0.26612163  1
  O2-  O211  1  0.67297797  0.20350711  0.59797329  1
  O2-  O212  1  0.66854747  0.20795536  0.93245364  1
  O2-  O213  1  0.66340748  0.70387879  0.27406796  1
  O2-  O214  1  0.66696760  0.71176701  0.59652625  1
  O2-  O215  1  0.66372568  0.71189704  0.93225505  1
  O2-  O216  1  0.08318987  0.45986954  0.07136609  1
  O2-  O217  1  0.08590967  0.45349742  0.39487555  1
  O2-  O218  1  0.07888947  0.45765296  0.72940997  1
  O2-  O219  1  0.08460179  0.96438954  0.06867792  1
  O2-  O220  1  0.08239325  0.96109490  0.40361284  1
  O2-  O221  1  0.08484625  0.95670949  0.72936582  1
  O2-  O222  1  0.57792414  0.45064426  0.06880932  1
  O2-  O223  1  0.58119082  0.45643144  0.39933554  1
  O2-  O224  1  0.57736123  0.45070382  0.73030933  1
  O2-  O225  1  0.58676053  0.95950367  0.06143282  1
  O2-  O226  1  0.58075338  0.95634569  0.39976448  1
  O2-  O227  1  0.58229794  0.94787567  0.72940407  1
  O2-  O228  1  0.20979251  0.33349226  0.07178846  1
  O2-  O229  1  0.20568662  0.33512509  0.39336948  1
  O2-  O230  1  0.20152174  0.32890780  0.73317885  1
  O2-  O231  1  0.21125605  0.83502429  0.07076422  1
  O2-  O232  1  0.20997257  0.83209593  0.40243568  1
  O2-  O233  1  0.20117610  0.83360808  0.72759695  1
  O2-  O234  1  0.71513670  0.33034865  0.06742661  1
  O2-  O235  1  0.71396817  0.33306666  0.40211200  1
  O2-  O236  1  0.71062600  0.33125233  0.73213379  1
  O2-  O237  1  0.70344682  0.83843771  0.06082619  1
  O2-  O238  1  0.70970886  0.83205705  0.40123060  1
  O2-  O239  1  0.70635070  0.83523374  0.72995603  1
  O2-  O240  1  0.45010704  0.41791271  0.26821794  1
  O2-  O241  1  0.45031087  0.41888668  0.59762749  1
  O2-  O242  1  0.44488735  0.41753322  0.94111240  1
  O2-  O243  1  0.45284110  0.91274572  0.27027318  1
  O2-  O244  1  0.45414803  0.91421542  0.60139233  1
  O2-  O245  1  0.45488128  0.91503618  0.93808998  1
  O2-  O246  1  0.95803075  0.41280715  0.27090917  1
  O2-  O247  1  0.95687177  0.41062780  0.59951342  1
  O2-  O248  1  0.95972411  0.41824257  0.93382962  1
  O2-  O249  1  0.95903807  0.91872937  0.26693333  1
  O2-  O250  1  0.95779108  0.91778399  0.59977412  1
  O2-  O251  1  0.96078442  0.92256061  0.93078883  1
  O2-  O252  1  0.33343886  0.29555663  0.26541120  1
  O2-  O253  1  0.32828406  0.28689483  0.59857488  1
  O2-  O254  1  0.33294453  0.29204227  0.93778110  1
  O2-  O255  1  0.33756538  0.78870914  0.27123201  1
  O2-  O256  1  0.33273673  0.79894471  0.60350015  1
  O2-  O257  1  0.33360821  0.80027137  0.93953998  1
  O2-  O258  1  0.83988627  0.29121831  0.27030017  1
  O2-  O259  1  0.84000874  0.28790913  0.60208483  1
  O2-  O260  1  0.83867594  0.28461217  0.92962146  1
  O2-  O261  1  0.83284124  0.79087371  0.26521909  1
  O2-  O262  1  0.83460983  0.80215893  0.60205528  1
  O2-  O263  1  0.82712001  0.80507423  0.93075472  1
  O2-  O264  1  0.41852838  0.04327959  0.06511224  1
  O2-  O265  1  0.41406651  0.04414117  0.39525549  1
  O2-  O266  1  0.41715206  0.03833765  0.73558786  1
  O2-  O267  1  0.41423062  0.54527887  0.06823321  1
  O2-  O268  1  0.41194072  0.54101896  0.39723321  1
  O2-  O269  1  0.41908272  0.54379223  0.73396601  1
  O2-  O270  1  0.91358295  0.04588780  0.06366878  1
  O2-  O271  1  0.91479468  0.04727857  0.39498449  1
  O2-  O272  1  0.91550915  0.03858730  0.73757418  1
  O2-  O273  1  0.91803254  0.54489163  0.07004232  1
  O2-  O274  1  0.91721252  0.54504738  0.39460086  1
  O2-  O275  1  0.91715437  0.53978573  0.73170647  1
  O2-  O276  1  0.30221411  0.16493127  0.06772823  1
  O2-  O277  1  0.29580742  0.16638708  0.39379953  1
  O2-  O278  1  0.28800887  0.16284956  0.73735020  1
  O2-  O279  1  0.29784728  0.66746964  0.06546339  1
  O2-  O280  1  0.29548345  0.66131709  0.39775207  1
  O2-  O281  1  0.29495531  0.67148433  0.73387077  1
  O2-  O282  1  0.79251496  0.16240404  0.06368670  1
  O2-  O283  1  0.79686356  0.16586132  0.39537818  1
  O2-  O284  1  0.79356121  0.16635196  0.73579857  1
  O2-  O285  1  0.79199639  0.67453500  0.06601817  1
  O2-  O286  1  0.79948927  0.66624443  0.39582960  1
  O2-  O287  1  0.80052640  0.67471992  0.72900602  1
