# generated using pymatgen
data_Ca2Al2SiO7
_symmetry_space_group_name_H-M   'P 1'
_cell_length_a   15.46223262
_cell_length_b   15.46210579
_cell_length_c   15.28580596
_cell_angle_alpha   90.00381429
_cell_angle_beta   89.99594631
_cell_angle_gamma   89.99552700
_symmetry_Int_Tables_number   1
_chemical_formula_structural   Ca2Al2SiO7
_chemical_formula_sum   'Ca48 Al48 Si24 O168'
_cell_volume   3654.51023041
_cell_formula_units_Z   24
loop_
 _symmetry_equiv_pos_site_id
 _symmetry_equiv_pos_as_xyz
  1  'x, y, z'
loop_
 _atom_type_symbol
 _atom_type_oxidation_number
  Ca2+  2.0
  Al0+  0.0
  Si0+  0.0
  O2-  -2.0
loop_
 _atom_site_type_symbol
 _atom_site_label
 _atom_site_symmetry_multiplicity
 _atom_site_fract_x
 _atom_site_fract_y
 _atom_site_fract_z
 _atom_site_occupancy
  Ca2+  Ca0  1  0.16942958  0.08673518  0.16807256  1
  Ca2+  Ca1  1  0.17757089  0.08386770  0.51052297  1
  Ca2+  Ca2  1  0.16719000  0.08490600  0.83245817  1
  Ca2+  Ca3  1  0.16587509  0.58453945  0.16658742  1
  Ca2+  Ca4  1  0.16979079  0.57392956  0.50969445  1
  Ca2+  Ca5  1  0.16275703  0.57740502  0.83888108  1
  Ca2+  Ca6  1  0.67711131  0.08089375  0.16631197  1
  Ca2+  Ca7  1  0.67456814  0.08238224  0.50555777  1
  Ca2+  Ca8  1  0.66947266  0.07001271  0.84112232  1
  Ca2+  Ca9  1  0.67037904  0.58150683  0.16553886  1
  Ca2+  Ca10  1  0.66869113  0.57239029  0.51018878  1
  Ca2+  Ca11  1  0.67213895  0.58759709  0.83676936  1
  Ca2+  Ca12  1  0.06835421  0.32485899  0.15709018  1
  Ca2+  Ca13  1  0.07892380  0.33052870  0.49891886  1
  Ca2+  Ca14  1  0.07827147  0.32425031  0.83041586  1
  Ca2+  Ca15  1  0.07627887  0.82648251  0.15454825  1
  Ca2+  Ca16  1  0.08675171  0.83522886  0.50158447  1
  Ca2+  Ca17  1  0.07786715  0.83301794  0.83117317  1
  Ca2+  Ca18  1  0.57425097  0.33802179  0.16358705  1
  Ca2+  Ca19  1  0.58174226  0.33731717  0.49267776  1
  Ca2+  Ca20  1  0.57873986  0.33687923  0.82961839  1
  Ca2+  Ca21  1  0.57988403  0.82934090  0.15285446  1
  Ca2+  Ca22  1  0.58635738  0.83229727  0.50556129  1
  Ca2+  Ca23  1  0.58549372  0.83018663  0.82569915  1
  Ca2+  Ca24  1  0.33509763  0.41327365  0.17024559  1
  Ca2+  Ca25  1  0.32878781  0.41420086  0.50670779  1
  Ca2+  Ca26  1  0.32612642  0.41167579  0.83748061  1
  Ca2+  Ca27  1  0.33366214  0.92128687  0.17104685  1
  Ca2+  Ca28  1  0.33159144  0.92794473  0.51234595  1
  Ca2+  Ca29  1  0.33485129  0.91470898  0.83458336  1
  Ca2+  Ca30  1  0.83389127  0.41743265  0.17112090  1
  Ca2+  Ca31  1  0.82409562  0.41766947  0.50656468  1
  Ca2+  Ca32  1  0.83151010  0.42587782  0.83865154  1
  Ca2+  Ca33  1  0.83514739  0.92395878  0.16335694  1
  Ca2+  Ca34  1  0.82928387  0.92399783  0.50558785  1
  Ca2+  Ca35  1  0.82398133  0.91622908  0.84406181  1
  Ca2+  Ca36  1  0.41335178  0.17602905  0.16345559  1
  Ca2+  Ca37  1  0.41447031  0.16791917  0.49553337  1
  Ca2+  Ca38  1  0.41422388  0.16925833  0.83010138  1
  Ca2+  Ca39  1  0.42568198  0.67408057  0.15351012  1
  Ca2+  Ca40  1  0.42196838  0.67142595  0.50200445  1
  Ca2+  Ca41  1  0.43070898  0.67935244  0.82878205  1
  Ca2+  Ca42  1  0.91241008  0.17206463  0.15752337  1
  Ca2+  Ca43  1  0.92213967  0.16878474  0.49227035  1
  Ca2+  Ca44  1  0.92496727  0.16205552  0.83099065  1
  Ca2+  Ca45  1  0.92059046  0.67047948  0.15318951  1
  Ca2+  Ca46  1  0.91272830  0.66485704  0.50239411  1
  Ca2+  Ca47  1  0.91098710  0.66670443  0.83372880  1
  Al0+  Al48  1  0.00170143  -0.00115654  -0.00231608  1
  Al0+  Al49  1  0.00044151  -0.00220290  0.33649228  1
  Al0+  Al50  1  0.00407230  0.00064406  0.66208745  1
  Al0+  Al51  1  -0.00062607  0.49681823  -0.00041560  1
  Al0+  Al52  1  0.00083159  0.50007402  0.33042438  1
  Al0+  Al53  1  0.00002597  0.49989793  0.67242418  1
  Al0+  Al54  1  0.49761174  0.00220887  0.00398123  1
  Al0+  Al55  1  0.49983900  -0.00051835  0.33672622  1
  Al0+  Al56  1  0.50090893  0.00304232  0.66907181  1
  Al0+  Al57  1  0.49729986  0.50157354  -0.00797579  1
  Al0+  Al58  1  0.50000333  0.50109787  0.33287936  1
  Al0+  Al59  1  0.49960750  0.50129065  0.66528440  1
  Al0+  Al60  1  0.24821504  0.25025248  -0.00440928  1
  Al0+  Al61  1  0.24965393  0.24984405  0.33330292  1
  Al0+  Al62  1  0.24853778  0.24997893  0.67001023  1
  Al0+  Al63  1  0.25099676  0.74854392  -0.00505558  1
  Al0+  Al64  1  0.25124129  0.74864991  0.33362056  1
  Al0+  Al65  1  0.24961897  0.75152679  0.66452149  1
  Al0+  Al66  1  0.74669560  0.25049036  -0.00079134  1
  Al0+  Al67  1  0.74962991  0.24923732  0.33730590  1
  Al0+  Al68  1  0.74955661  0.25256770  0.67084246  1
  Al0+  Al69  1  0.75066929  0.74753036  0.00409715  1
  Al0+  Al70  1  0.75109815  0.74941913  0.33220400  1
  Al0+  Al71  1  0.75083809  0.75049788  0.66550965  1
  Al0+  Al72  1  0.07181405  0.67701856  0.98437624  1
  Al0+  Al73  1  0.31988407  0.07137266  0.34635431  1
  Al0+  Al74  1  0.42912831  0.32064003  0.98543880  1
  Al0+  Al75  1  0.92946636  0.82010677  0.98513816  1
  Al0+  Al76  1  0.82020011  0.57072476  0.68178270  1
  Al0+  Al77  1  0.92765981  0.32007753  0.32108192  1
  Al0+  Al78  1  0.07032037  0.17969869  0.64976294  1
  Al0+  Al79  1  0.82290421  0.07151799  0.01299844  1
  Al0+  Al80  1  0.42914749  0.32050337  0.32115355  1
  Al0+  Al81  1  0.32158952  0.07136888  0.68429933  1
  Al0+  Al82  1  0.67737082  0.92751622  0.01587810  1
  Al0+  Al83  1  0.57228213  0.68030894  0.98528117  1
  Al0+  Al84  1  0.17859037  0.92782557  0.68339375  1
  Al0+  Al85  1  0.82140771  0.07042531  0.34742440  1
  Al0+  Al86  1  0.07006705  0.17800621  0.98488563  1
  Al0+  Al87  1  0.42873026  0.82488386  0.98634591  1
  Al0+  Al88  1  0.68149046  0.93176519  0.67852491  1
  Al0+  Al89  1  0.82125386  0.56795305  0.01607832  1
  Al0+  Al90  1  0.92395513  0.32064990  0.98379580  1
  Al0+  Al91  1  0.18026367  0.42951001  0.68104029  1
  Al0+  Al92  1  0.42906775  0.82380766  0.64944281  1
  Al0+  Al93  1  0.67597427  0.42758590  0.68342976  1
  Al0+  Al94  1  0.57335628  0.67946497  0.64839724  1
  Al0+  Al95  1  0.67874011  0.43083542  0.34489573  1
  Si0+  Si96  1  0.92984258  0.82137810  0.64990122  1
  Si0+  Si97  1  0.82407993  0.57239564  0.34952213  1
  Si0+  Si98  1  0.07099716  0.67689984  0.65074022  1
  Si0+  Si99  1  0.07129691  0.17724020  0.31750994  1
  Si0+  Si100  1  0.42881854  0.32039397  0.65189117  1
  Si0+  Si101  1  0.32130708  0.57166613  0.34815824  1
  Si0+  Si102  1  0.57257156  0.17564361  0.31721275  1
  Si0+  Si103  1  0.92795575  0.32309692  0.64959189  1
  Si0+  Si104  1  0.82455362  0.07324525  0.68141653  1
  Si0+  Si105  1  0.17975493  0.42722404  0.01781845  1
  Si0+  Si106  1  0.57082267  0.67938781  0.31792407  1
  Si0+  Si107  1  0.67817774  0.92590951  0.35057757  1
  Si0+  Si108  1  0.57089269  0.17779120  0.98371904  1
  Si0+  Si109  1  0.07244185  0.67891223  0.31966767  1
  Si0+  Si110  1  0.31965547  0.57004022  0.01475871  1
  Si0+  Si111  1  0.31936055  0.07343168  0.01681729  1
  Si0+  Si112  1  0.17951353  0.92520583  0.34918811  1
  Si0+  Si113  1  0.18060381  0.92658353  0.01515784  1
  Si0+  Si114  1  0.32215869  0.57358924  0.68371833  1
  Si0+  Si115  1  0.92921635  0.82089226  0.31878149  1
  Si0+  Si116  1  0.57283207  0.18038157  0.65196712  1
  Si0+  Si117  1  0.42905749  0.82120116  0.31891787  1
  Si0+  Si118  1  0.67362029  0.42847532  0.01676876  1
  Si0+  Si119  1  0.17863275  0.43032711  0.34684688  1
  O2-  O120  1  0.25101457  -0.00132762  0.05793865  1
  O2-  O121  1  0.24614633  -0.00424165  0.39242628  1
  O2-  O122  1  0.25274644  -0.00350046  0.73431738  1
  O2-  O123  1  0.24890834  0.50018705  0.06083385  1
  O2-  O124  1  0.25115928  0.49961025  0.38997638  1
  O2-  O125  1  0.25399248  0.50480769  0.72836666  1
  O2-  O126  1  0.75110654  -0.00086909  0.06425932  1
  O2-  O127  1  0.74609842  -0.00403223  0.39385360  1
  O2-  O128  1  0.75625750  0.00526637  0.72555697  1
  O2-  O129  1  0.74667505  0.49205730  0.06214115  1
  O2-  O130  1  0.75583544  0.50307643  0.39214405  1
  O2-  O131  1  0.74665324  0.50078437  0.73187192  1
  O2-  O132  1  -0.00102903  0.24193197  0.27393322  1
  O2-  O133  1  -0.00696892  0.25185742  0.60321057  1
  O2-  O134  1  -0.00731672  0.24468597  0.93566167  1
  O2-  O135  1  0.00114124  0.74960622  0.27850015  1
  O2-  O136  1  0.00133408  0.74935095  0.60783323  1
  O2-  O137  1  -0.00076642  0.74694168  0.93318221  1
  O2-  O138  1  0.50326366  0.24514671  0.27410303  1
  O2-  O139  1  0.50311945  0.25318249  0.60939066  1
  O2-  O140  1  0.50470794  0.24824442  0.93823255  1
  O2-  O141  1  0.50286785  0.75374744  0.27632908  1
  O2-  O142  1  0.50056758  0.75143559  0.59796994  1
  O2-  O143  1  0.50750318  0.76010498  0.93788052  1
  O2-  O144  1  0.07438481  0.18180456  0.09917411  1
  O2-  O145  1  0.07255417  0.18008489  0.42295291  1
  O2-  O146  1  0.06926619  0.18014826  0.76221294  1
  O2-  O147  1  0.07322442  0.68079262  0.09924148  1
  O2-  O148  1  0.07438642  0.67766669  0.42468160  1
  O2-  O149  1  0.07097340  0.67526096  0.75494767  1
  O2-  O150  1  0.56858346  0.17799371  0.08968099  1
  O2-  O151  1  0.57163088  0.17561350  0.42307252  1
  O2-  O152  1  0.57237763  0.18031779  0.75678907  1
  O2-  O153  1  0.56686578  0.67739618  0.10009211  1
  O2-  O154  1  0.56975003  0.67851017  0.42259527  1
  O2-  O155  1  0.57349168  0.68125697  0.76119011  1
  O2-  O156  1  0.17881584  0.43280013  0.24192508  1
  O2-  O157  1  0.18155421  0.43132317  0.56667035  1
  O2-  O158  1  0.18257782  0.42677700  0.91296389  1
  O2-  O159  1  0.18105230  0.92140652  0.24355385  1
  O2-  O160  1  0.17892409  0.93015755  0.56885611  1
  O2-  O161  1  0.18115943  0.92512275  0.91086990  1
  O2-  O162  1  0.67592377  0.43500786  0.23213829  1
  O2-  O163  1  0.67751045  0.42695249  0.56910900  1
  O2-  O164  1  0.67163093  0.43141325  0.91167497  1
  O2-  O165  1  0.67805796  0.92394936  0.24552186  1
  O2-  O166  1  0.68472055  0.93422282  0.56468251  1
  O2-  O167  1  0.67733306  0.93016065  0.90236559  1
  O2-  O168  1  0.42857719  0.31969462  0.09915332  1
  O2-  O169  1  0.42817953  0.32094623  0.43415697  1
  O2-  O170  1  0.42805252  0.31858629  0.75689230  1
  O2-  O171  1  0.42635104  0.82030859  0.10132383  1
  O2-  O172  1  0.42638951  0.81913894  0.42338982  1
  O2-  O173  1  0.43097411  0.82187514  0.76234693  1
  O2-  O174  1  0.92800178  0.32080818  0.09829981  1
  O2-  O175  1  0.93195840  0.32208075  0.43412276  1
  O2-  O176  1  0.92989827  0.32257572  0.75458589  1
  O2-  O177  1  0.93404476  0.81967019  0.09976887  1
  O2-  O178  1  0.92862554  0.82041624  0.42403544  1
  O2-  O179  1  0.92951190  0.82207777  0.75420397  1
  O2-  O180  1  0.31754821  0.07109857  0.23296617  1
  O2-  O181  1  0.31955517  0.07325601  0.57006784  1
  O2-  O182  1  0.31862753  0.07630296  0.91255536  1
  O2-  O183  1  0.31984720  0.57434377  0.24313259  1
  O2-  O184  1  0.31975816  0.57085849  0.57688383  1
  O2-  O185  1  0.31788861  0.56761083  0.91026658  1
  O2-  O186  1  0.82215463  0.06848776  0.23488479  1
  O2-  O187  1  0.82253070  0.07217470  0.57505594  1
  O2-  O188  1  0.82105582  0.06906692  0.89951046  1
  O2-  O189  1  0.82498096  0.57406746  0.24438934  1
  O2-  O190  1  0.82165511  0.56766347  0.56706543  1
  O2-  O191  1  0.82099886  0.56794471  0.90374573  1
  O2-  O192  1  0.05124857  0.08056640  0.27517964  1
  O2-  O193  1  0.04402251  0.08259898  0.59333619  1
  O2-  O194  1  0.04998417  0.07809021  0.93301680  1
  O2-  O195  1  0.04625309  0.58764462  0.27043709  1
  O2-  O196  1  0.04103295  0.58563613  0.60179591  1
  O2-  O197  1  0.04730460  0.57693761  0.93579876  1
  O2-  O198  1  0.54687003  0.08171406  0.27154894  1
  O2-  O199  1  0.54445010  0.09004925  0.60224774  1
  O2-  O200  1  0.54129454  0.08566268  0.93779749  1
  O2-  O201  1  0.53861923  0.58987089  0.26935678  1
  O2-  O202  1  0.54151490  0.58078838  0.59545303  1
  O2-  O203  1  0.53592177  0.58636889  0.92979168  1
  O2-  O204  1  0.16320364  0.20707124  0.27052486  1
  O2-  O205  1  0.16661667  0.21570376  0.59724776  1
  O2-  O206  1  0.16506867  0.21350266  0.93025719  1
  O2-  O207  1  0.16455245  0.70607358  0.27124018  1
  O2-  O208  1  0.16269542  0.70300319  0.60117873  1
  O2-  O209  1  0.16961801  0.70395779  0.93144501  1
  O2-  O210  1  0.66595574  0.20140850  0.27195999  1
  O2-  O211  1  0.66563070  0.20689895  0.60409443  1
  O2-  O212  1  0.66449360  0.19890553  0.93698090  1
  O2-  O213  1  0.66461088  0.70366763  0.27209909  1
  O2-  O214  1  0.67122060  0.70966838  0.59377063  1
  O2-  O215  1  0.67281425  0.70055388  0.93656006  1
  O2-  O216  1  0.08774572  0.45331371  0.06527081  1
  O2-  O217  1  0.08829817  0.46123253  0.39580041  1
  O2-  O218  1  0.08496160  0.45975051  0.73566585  1
  O2-  O219  1  0.08924205  0.95398033  0.06398188  1
  O2-  O220  1  0.08496730  0.94693205  0.39467985  1
  O2-  O221  1  0.08014783  0.95844222  0.73401242  1
  O2-  O222  1  0.58035472  0.45983456  0.06199971  1
  O2-  O223  1  0.58278020  0.46379803  0.40027106  1
  O2-  O224  1  0.57546047  0.45271210  0.73256429  1
  O2-  O225  1  0.57896386  0.95842148  0.06993430  1
  O2-  O226  1  0.58398326  0.94930619  0.39634575  1
  O2-  O227  1  0.58601525  0.96269842  0.73230693  1
  O2-  O228  1  0.21202947  0.33689011  0.06570803  1
  O2-  O229  1  0.20521135  0.33833868  0.39389524  1
  O2-  O230  1  0.21289127  0.33533661  0.73649937  1
  O2-  O231  1  0.20959299  0.83474947  0.06351661  1
  O2-  O232  1  0.20625009  0.83196292  0.39662192  1
  O2-  O233  1  0.20074778  0.82681415  0.73276729  1
  O2-  O234  1  0.69148842  0.33230751  0.06067639  1
  O2-  O235  1  0.70423733  0.33324116  0.39929357  1
  O2-  O236  1  0.70298324  0.32959200  0.73775185  1
  O2-  O237  1  0.70452634  0.82943301  0.06969454  1
  O2-  O238  1  0.70706638  0.83276627  0.39694313  1
  O2-  O239  1  0.71192256  0.83510784  0.73004578  1
  O2-  O240  1  0.45855610  0.41805996  0.26696420  1
  O2-  O241  1  0.45080602  0.41397856  0.60484994  1
  O2-  O242  1  0.45494366  0.41680404  0.92967817  1
  O2-  O243  1  0.45296409  0.91476245  0.27305552  1
  O2-  O244  1  0.45918757  0.92321652  0.59824011  1
  O2-  O245  1  0.44599630  0.92697669  0.93863810  1
  O2-  O246  1  0.96140007  0.41624940  0.26659984  1
  O2-  O247  1  0.95862681  0.41578360  0.60379649  1
  O2-  O248  1  0.95919398  0.41622938  0.93139207  1
  O2-  O249  1  0.95773057  0.91239288  0.27122455  1
  O2-  O250  1  0.95957643  0.91177438  0.59969950  1
  O2-  O251  1  0.95881226  0.91703800  0.93174739  1
  O2-  O252  1  0.33202415  0.29073096  0.26634096  1
  O2-  O253  1  0.33781052  0.28966841  0.60456958  1
  O2-  O254  1  0.33381611  0.28787851  0.93166134  1
  O2-  O255  1  0.33778622  0.79040675  0.27101272  1
  O2-  O256  1  0.32976493  0.79471884  0.59616509  1
  O2-  O257  1  0.33419115  0.78949365  0.93204773  1
  O2-  O258  1  0.82973017  0.29266617  0.26876788  1
  O2-  O259  1  0.83211844  0.30055306  0.60594497  1
  O2-  O260  1  0.82293502  0.30141409  0.93382136  1
  O2-  O261  1  0.83770448  0.79336599  0.27074607  1
  O2-  O262  1  0.83975398  0.79255436  0.59946331  1
  O2-  O263  1  0.83032004  0.79264291  0.93595445  1
  O2-  O264  1  0.41128733  0.05060805  0.06649136  1
  O2-  O265  1  0.41728844  0.04297093  0.40036965  1
  O2-  O266  1  0.42128864  0.04892723  0.73562662  1
  O2-  O267  1  0.41122489  0.54069961  0.06253198  1
  O2-  O268  1  0.41235075  0.54416001  0.39614942  1
  O2-  O269  1  0.41572399  0.54862723  0.72783245  1
  O2-  O270  1  0.92199809  0.04318531  0.06645627  1
  O2-  O271  1  0.91800656  0.03850545  0.40246575  1
  O2-  O272  1  0.91873816  0.04676806  0.72307205  1
  O2-  O273  1  0.91907722  0.53806854  0.07047180  1
  O2-  O274  1  0.91889506  0.54851357  0.39468107  1
  O2-  O275  1  0.91809882  0.54354813  0.73500793  1
  O2-  O276  1  0.28613506  0.16398981  0.06490435  1
  O2-  O277  1  0.28897858  0.16794971  0.40101035  1
  O2-  O278  1  0.28910366  0.16823513  0.73690220  1
  O2-  O279  1  0.29197375  0.66192674  0.06364030  1
  O2-  O280  1  0.29161524  0.66219551  0.39772478  1
  O2-  O281  1  0.29639060  0.66718104  0.72700150  1
  O2-  O282  1  0.79119154  0.17002924  0.06623901  1
  O2-  O283  1  0.79154213  0.16594539  0.40385740  1
  O2-  O284  1  0.80113496  0.16718661  0.72605771  1
  O2-  O285  1  0.79188147  0.66399713  0.07274440  1
  O2-  O286  1  0.79799657  0.66632028  0.39545079  1
  O2-  O287  1  0.79509121  0.67051602  0.73161676  1
