# generated using pymatgen
data_Ca2Al2SiO7
_symmetry_space_group_name_H-M   'P 1'
_cell_length_a   15.45286153
_cell_length_b   15.45310211
_cell_length_c   15.27973687
_cell_angle_alpha   90.00692293
_cell_angle_beta   89.99073221
_cell_angle_gamma   90.01111097
_symmetry_Int_Tables_number   1
_chemical_formula_structural   Ca2Al2SiO7
_chemical_formula_sum   'Ca48 Al48 Si24 O168'
_cell_volume   3648.71923112
_cell_formula_units_Z   24
loop_
 _symmetry_equiv_pos_site_id
 _symmetry_equiv_pos_as_xyz
  1  'x, y, z'
loop_
 _atom_type_symbol
 _atom_type_oxidation_number
  Ca2+  2.0
  Al0+  0.0
  Si0+  0.0
  O2-  -2.0
loop_
 _atom_site_type_symbol
 _atom_site_label
 _atom_site_symmetry_multiplicity
 _atom_site_fract_x
 _atom_site_fract_y
 _atom_site_fract_z
 _atom_site_occupancy
  Ca2+  Ca0  1  0.17737525  0.08559300  0.17142758  1
  Ca2+  Ca1  1  0.16607605  0.07238971  0.49873501  1
  Ca2+  Ca2  1  0.16656321  0.08045101  0.83954534  1
  Ca2+  Ca3  1  0.17325978  0.57640615  0.17002989  1
  Ca2+  Ca4  1  0.17784292  0.59093023  0.50711364  1
  Ca2+  Ca5  1  0.16838681  0.57868211  0.83445531  1
  Ca2+  Ca6  1  0.67665547  0.07981975  0.16965418  1
  Ca2+  Ca7  1  0.67383234  0.07620455  0.50374079  1
  Ca2+  Ca8  1  0.67396583  0.07344563  0.84095119  1
  Ca2+  Ca9  1  0.65832134  0.57208348  0.17142276  1
  Ca2+  Ca10  1  0.67065492  0.58097265  0.50242985  1
  Ca2+  Ca11  1  0.67646218  0.57868367  0.83585000  1
  Ca2+  Ca12  1  0.07967109  0.32786518  0.15786671  1
  Ca2+  Ca13  1  0.06689831  0.33645299  0.49552246  1
  Ca2+  Ca14  1  0.08541970  0.32566332  0.82918177  1
  Ca2+  Ca15  1  0.08180382  0.84065901  0.16878297  1
  Ca2+  Ca16  1  0.07993344  0.83539172  0.49818120  1
  Ca2+  Ca17  1  0.07679195  0.82787651  0.82041420  1
  Ca2+  Ca18  1  0.57929452  0.33543101  0.15967952  1
  Ca2+  Ca19  1  0.57879103  0.33767077  0.49530631  1
  Ca2+  Ca20  1  0.57518971  0.33643317  0.83189513  1
  Ca2+  Ca21  1  0.58042691  0.82753545  0.15897459  1
  Ca2+  Ca22  1  0.58676709  0.82516397  0.49417013  1
  Ca2+  Ca23  1  0.57894147  0.84453201  0.83150844  1
  Ca2+  Ca24  1  0.32673895  0.41427210  0.16976516  1
  Ca2+  Ca25  1  0.33650083  0.42905356  0.50590983  1
  Ca2+  Ca26  1  0.33375885  0.41833581  0.83834333  1
  Ca2+  Ca27  1  0.33230722  0.92693132  0.17316036  1
  Ca2+  Ca28  1  0.32017710  0.91663979  0.50488888  1
  Ca2+  Ca29  1  0.32723596  0.92090589  0.84091873  1
  Ca2+  Ca30  1  0.81980306  0.41070427  0.17380328  1
  Ca2+  Ca31  1  0.82973602  0.41607387  0.50611875  1
  Ca2+  Ca32  1  0.83669599  0.42169936  0.83652922  1
  Ca2+  Ca33  1  0.83797648  0.92832736  0.17033488  1
  Ca2+  Ca34  1  0.83574452  0.91653348  0.50609224  1
  Ca2+  Ca35  1  0.82268489  0.91293052  0.83851443  1
  Ca2+  Ca36  1  0.41271815  0.16846530  0.15511032  1
  Ca2+  Ca37  1  0.41547492  0.17101809  0.49793384  1
  Ca2+  Ca38  1  0.40940338  0.17887825  0.83168125  1
  Ca2+  Ca39  1  0.41837276  0.66980945  0.16504309  1
  Ca2+  Ca40  1  0.41981874  0.66245531  0.49175005  1
  Ca2+  Ca41  1  0.41641179  0.67150765  0.83012040  1
  Ca2+  Ca42  1  0.91908311  0.16480596  0.16268194  1
  Ca2+  Ca43  1  0.91031280  0.17573345  0.49256824  1
  Ca2+  Ca44  1  0.91832116  0.16888809  0.83245108  1
  Ca2+  Ca45  1  0.91601343  0.67521242  0.16622870  1
  Ca2+  Ca46  1  0.91700678  0.67624387  0.49827106  1
  Ca2+  Ca47  1  0.92365910  0.66844597  0.81907223  1
  Al0+  Al48  1  -0.00029482  -0.00075449  -0.00358419  1
  Al0+  Al49  1  -0.00001647  0.00200035  0.33736871  1
  Al0+  Al50  1  0.00073913  0.00089873  0.66839292  1
  Al0+  Al51  1  0.00149542  0.50090488  0.00570187  1
  Al0+  Al52  1  -0.00266418  0.50116726  0.32514531  1
  Al0+  Al53  1  0.00214385  0.49914031  0.66106983  1
  Al0+  Al54  1  0.50017737  -0.00042021  0.00286051  1
  Al0+  Al55  1  0.50112180  0.00116258  0.33778922  1
  Al0+  Al56  1  0.50030920  0.00153794  0.66836744  1
  Al0+  Al57  1  0.50148336  0.50243562  -0.00256009  1
  Al0+  Al58  1  0.49948630  0.49874358  0.33608468  1
  Al0+  Al59  1  0.49928826  0.50056819  0.66819013  1
  Al0+  Al60  1  0.24780896  0.25039166  -0.00155638  1
  Al0+  Al61  1  0.24834774  0.25086722  0.34026091  1
  Al0+  Al62  1  0.25111645  0.25107181  0.65727867  1
  Al0+  Al63  1  0.25043771  0.74939894  -0.00446454  1
  Al0+  Al64  1  0.24991281  0.74944703  0.33838757  1
  Al0+  Al65  1  0.25149023  0.75115475  0.67342797  1
  Al0+  Al66  1  0.75003844  0.25107862  0.00525904  1
  Al0+  Al67  1  0.74665695  0.24962490  0.33811605  1
  Al0+  Al68  1  0.74793838  0.24789447  0.66454046  1
  Al0+  Al69  1  0.74998739  0.74821303  0.00331340  1
  Al0+  Al70  1  0.74994123  0.74759160  0.31956308  1
  Al0+  Al71  1  0.74923175  0.74856868  0.67282885  1
  Al0+  Al72  1  0.56953747  0.67786040  0.31949027  1
  Al0+  Al73  1  0.32479560  0.07424220  0.35061325  1
  Al0+  Al74  1  0.67729991  0.92719644  0.01773966  1
  Al0+  Al75  1  0.82219259  0.56862944  0.67739766  1
  Al0+  Al76  1  0.82268701  0.07005187  0.01445984  1
  Al0+  Al77  1  0.67951607  0.43017958  0.34850994  1
  Al0+  Al78  1  0.67940182  0.43140253  0.01226917  1
  Al0+  Al79  1  0.42980973  0.82210613  0.98649135  1
  Al0+  Al80  1  0.92865082  0.31957020  0.65434254  1
  Al0+  Al81  1  0.67988826  0.92826222  0.67897872  1
  Al0+  Al82  1  0.31872543  0.56759409  0.34493963  1
  Al0+  Al83  1  0.93063323  0.82235571  0.31827022  1
  Al0+  Al84  1  0.81963498  0.06958701  0.34841517  1
  Al0+  Al85  1  0.17976078  0.92971537  0.34784352  1
  Al0+  Al86  1  0.06996664  0.17929476  0.98694947  1
  Al0+  Al87  1  0.17998359  0.42879521  0.01240424  1
  Al0+  Al88  1  0.31819652  0.07077142  0.01020429  1
  Al0+  Al89  1  0.43031364  0.32211080  0.65086907  1
  Al0+  Al90  1  0.92579597  0.32145703  0.31753691  1
  Al0+  Al91  1  0.07383950  0.67892313  0.65116993  1
  Al0+  Al92  1  0.42932504  0.32068223  0.98814710  1
  Al0+  Al93  1  0.32252332  0.57084277  0.68272626  1
  Al0+  Al94  1  0.92697042  0.82048395  0.65347795  1
  Al0+  Al95  1  0.17859743  0.93053889  0.68334617  1
  Si0+  Si96  1  0.42702640  0.82285662  0.31912992  1
  Si0+  Si97  1  0.42909565  0.31951952  0.31891295  1
  Si0+  Si98  1  0.82242871  0.57384829  0.34835563  1
  Si0+  Si99  1  0.07332252  0.17691529  0.64695598  1
  Si0+  Si100  1  0.42974489  0.82298362  0.65200760  1
  Si0+  Si101  1  0.32161792  0.07330417  0.68406329  1
  Si0+  Si102  1  0.17357191  0.42788177  0.35084514  1
  Si0+  Si103  1  0.82198170  0.07418979  0.68358962  1
  Si0+  Si104  1  0.32203179  0.57322545  0.01609254  1
  Si0+  Si105  1  0.57009336  0.67978421  0.65351010  1
  Si0+  Si106  1  0.17782294  0.92531392  0.01515559  1
  Si0+  Si107  1  0.67911199  0.92448195  0.34805454  1
  Si0+  Si108  1  0.57291425  0.67798197  0.97997748  1
  Si0+  Si109  1  0.56992732  0.17762294  0.31830517  1
  Si0+  Si110  1  0.07107980  0.67722421  0.98493435  1
  Si0+  Si111  1  0.17886271  0.42707395  0.68112090  1
  Si0+  Si112  1  0.92953845  0.81995063  0.98422464  1
  Si0+  Si113  1  0.57123036  0.17665591  0.64858355  1
  Si0+  Si114  1  0.67801796  0.42637379  0.68342628  1
  Si0+  Si115  1  0.92655948  0.32315911  0.98481481  1
  Si0+  Si116  1  0.82477214  0.57192346  0.01922860  1
  Si0+  Si117  1  0.07103394  0.18037301  0.31694043  1
  Si0+  Si118  1  0.07543068  0.67852658  0.31418927  1
  Si0+  Si119  1  0.57444125  0.17805795  0.98414111  1
  O2-  O120  1  0.24692776  -0.00638261  0.05854875  1
  O2-  O121  1  0.25470204  -0.00082900  0.39805070  1
  O2-  O122  1  0.25160517  0.00709037  0.72934642  1
  O2-  O123  1  0.25630234  0.50175864  0.05977259  1
  O2-  O124  1  0.24084510  0.49787688  0.39459291  1
  O2-  O125  1  0.24749473  0.49527275  0.72680520  1
  O2-  O126  1  0.75079890  -0.00159407  0.06584729  1
  O2-  O127  1  0.74947170  -0.00998795  0.39425018  1
  O2-  O128  1  0.75766425  0.00026642  0.72540136  1
  O2-  O129  1  0.75563323  0.50299281  0.06168177  1
  O2-  O130  1  0.75706142  0.50259635  0.39366166  1
  O2-  O131  1  0.75172640  0.49035526  0.72614335  1
  O2-  O132  1  0.00382519  0.25005778  0.27143813  1
  O2-  O133  1  0.00119648  0.24356326  0.60514652  1
  O2-  O134  1  -0.00579722  0.25369081  0.94054682  1
  O2-  O135  1  0.00670086  0.74823279  0.27080283  1
  O2-  O136  1  0.00119225  0.75116146  0.60237578  1
  O2-  O137  1  0.00001262  0.74813695  0.94280368  1
  O2-  O138  1  0.49335665  0.24297988  0.27602629  1
  O2-  O139  1  0.50497239  0.24771901  0.60380321  1
  O2-  O140  1  0.50399474  0.24579924  0.94029216  1
  O2-  O141  1  0.49728889  0.75594823  0.27425350  1
  O2-  O142  1  0.49998316  0.75124389  0.61004451  1
  O2-  O143  1  0.50734737  0.75057058  0.93713051  1
  O2-  O144  1  0.07162362  0.18090139  0.09997433  1
  O2-  O145  1  0.06960341  0.18187264  0.42263448  1
  O2-  O146  1  0.07559319  0.17890775  0.75283547  1
  O2-  O147  1  0.07160520  0.67709475  0.09003641  1
  O2-  O148  1  0.07634155  0.67726528  0.41929884  1
  O2-  O149  1  0.07129967  0.67838923  0.76557476  1
  O2-  O150  1  0.57419352  0.18015178  0.08999548  1
  O2-  O151  1  0.57090066  0.17940667  0.42350843  1
  O2-  O152  1  0.57114444  0.17620413  0.75405826  1
  O2-  O153  1  0.56926055  0.67518283  0.08561067  1
  O2-  O154  1  0.56963340  0.67870748  0.43322431  1
  O2-  O155  1  0.56907284  0.67914008  0.75844441  1
  O2-  O156  1  0.17696447  0.42640087  0.24490136  1
  O2-  O157  1  0.18025967  0.42797745  0.57555165  1
  O2-  O158  1  0.17874436  0.43055149  0.89935487  1
  O2-  O159  1  0.18189075  0.93144526  0.23371597  1
  O2-  O160  1  0.18067797  0.93042304  0.57047440  1
  O2-  O161  1  0.17875744  0.92563962  0.90954913  1
  O2-  O162  1  0.67662476  0.43086092  0.23534958  1
  O2-  O163  1  0.67702854  0.42896593  0.57775008  1
  O2-  O164  1  0.67997660  0.43357266  0.89900090  1
  O2-  O165  1  0.67783833  0.92815678  0.24288502  1
  O2-  O166  1  0.67899526  0.92850769  0.56564984  1
  O2-  O167  1  0.67968041  0.92921680  0.90370959  1
  O2-  O168  1  0.42934516  0.31978107  0.10165052  1
  O2-  O169  1  0.43323274  0.32144817  0.42402303  1
  O2-  O170  1  0.43064040  0.32150706  0.76424821  1
  O2-  O171  1  0.42726877  0.81830012  0.09970605  1
  O2-  O172  1  0.42806992  0.82101495  0.42506258  1
  O2-  O173  1  0.43115636  0.82366640  0.75719792  1
  O2-  O174  1  0.92741246  0.32263867  0.09029364  1
  O2-  O175  1  0.92632924  0.32029793  0.43099051  1
  O2-  O176  1  0.92938644  0.31911622  0.76772189  1
  O2-  O177  1  0.93227046  0.82058858  0.08946223  1
  O2-  O178  1  0.92850854  0.81987207  0.43104407  1
  O2-  O179  1  0.92699140  0.81639179  0.76755904  1
  O2-  O180  1  0.32387094  0.07580222  0.23667778  1
  O2-  O181  1  0.32267046  0.07029190  0.57859843  1
  O2-  O182  1  0.31486833  0.07178096  0.89718538  1
  O2-  O183  1  0.31857325  0.56517928  0.23158882  1
  O2-  O184  1  0.32443925  0.56993935  0.56940281  1
  O2-  O185  1  0.31985101  0.57349746  0.91050503  1
  O2-  O186  1  0.81888169  0.06988129  0.23553384  1
  O2-  O187  1  0.81819110  0.07672984  0.57794823  1
  O2-  O188  1  0.82190845  0.06910962  0.90065588  1
  O2-  O189  1  0.82065515  0.57297246  0.24262840  1
  O2-  O190  1  0.81755716  0.57027531  0.56451161  1
  O2-  O191  1  0.82634034  0.57127725  0.91326548  1
  O2-  O192  1  0.04476262  0.08711685  0.27167323  1
  O2-  O193  1  0.04951209  0.08238391  0.60284889  1
  O2-  O194  1  0.04057237  0.08274383  0.93069967  1
  O2-  O195  1  0.04893328  0.58569435  0.26578729  1
  O2-  O196  1  0.04933749  0.58047078  0.59737232  1
  O2-  O197  1  0.04253490  0.58514667  0.93780144  1
  O2-  O198  1  0.54928076  0.08332750  0.27176943  1
  O2-  O199  1  0.54247569  0.08447669  0.60035391  1
  O2-  O200  1  0.55078908  0.08356231  0.93993965  1
  O2-  O201  1  0.53258719  0.58262591  0.26574539  1
  O2-  O202  1  0.54178111  0.58831608  0.60563881  1
  O2-  O203  1  0.54432327  0.58676756  0.93063886  1
  O2-  O204  1  0.16633737  0.20597619  0.27293504  1
  O2-  O205  1  0.16536163  0.20339609  0.59830185  1
  O2-  O206  1  0.16361021  0.21357561  0.92935721  1
  O2-  O207  1  0.16901006  0.70472594  0.26746110  1
  O2-  O208  1  0.17320544  0.71027619  0.60186649  1
  O2-  O209  1  0.16286316  0.70295657  0.93650380  1
  O2-  O210  1  0.65920052  0.21137667  0.27030854  1
  O2-  O211  1  0.66504514  0.19972415  0.60142223  1
  O2-  O212  1  0.66717801  0.20649479  0.93719879  1
  O2-  O213  1  0.66448396  0.70258146  0.25950672  1
  O2-  O214  1  0.66172314  0.70771267  0.60632263  1
  O2-  O215  1  0.66948781  0.69883011  0.93742475  1
  O2-  O216  1  0.08510717  0.46037958  0.07004514  1
  O2-  O217  1  0.07786383  0.45313392  0.39208705  1
  O2-  O218  1  0.08536624  0.45141955  0.72738945  1
  O2-  O219  1  0.08382611  0.95111773  0.05890433  1
  O2-  O220  1  0.08361584  0.96183162  0.40282048  1
  O2-  O221  1  0.08102932  0.95895458  0.73754482  1
  O2-  O222  1  0.58319918  0.46472993  0.06685714  1
  O2-  O223  1  0.58467614  0.46399910  0.40373672  1
  O2-  O224  1  0.58690398  0.45828482  0.73018788  1
  O2-  O225  1  0.57918437  0.95425518  0.07077866  1
  O2-  O226  1  0.58633521  0.95068413  0.39600492  1
  O2-  O227  1  0.58413125  0.96286068  0.73360149  1
  O2-  O228  1  0.21102713  0.33387535  0.06838873  1
  O2-  O229  1  0.19813893  0.33549387  0.39885203  1
  O2-  O230  1  0.20600910  0.33252308  0.72506105  1
  O2-  O231  1  0.20244502  0.83110536  0.06039084  1
  O2-  O232  1  0.20486491  0.83095153  0.40188274  1
  O2-  O233  1  0.21139018  0.83558512  0.73879117  1
  O2-  O234  1  0.70551917  0.33458832  0.06805925  1
  O2-  O235  1  0.70675626  0.33390939  0.40417584  1
  O2-  O236  1  0.69732193  0.33035670  0.72670298  1
  O2-  O237  1  0.70277070  0.82674972  0.06762136  1
  O2-  O238  1  0.70281384  0.82814981  0.38854288  1
  O2-  O239  1  0.70651651  0.83264614  0.73699881  1
  O2-  O240  1  0.46203865  0.40902354  0.27085863  1
  O2-  O241  1  0.46306835  0.41880732  0.59758936  1
  O2-  O242  1  0.46022519  0.41763659  0.93407389  1
  O2-  O243  1  0.45092047  0.91826578  0.27553928  1
  O2-  O244  1  0.45717675  0.91483710  0.60461432  1
  O2-  O245  1  0.45826320  0.91954330  0.93177999  1
  O2-  O246  1  0.95111767  0.41912535  0.26222679  1
  O2-  O247  1  0.96010963  0.41430224  0.59690028  1
  O2-  O248  1  0.95387210  0.41799955  0.94172328  1
  O2-  O249  1  0.96311058  0.91963350  0.26573497  1
  O2-  O250  1  0.95246097  0.92133561  0.60429916  1
  O2-  O251  1  0.95577541  0.91088896  0.93508074  1
  O2-  O252  1  0.33306864  0.29825330  0.27645439  1
  O2-  O253  1  0.33465555  0.29350227  0.59363646  1
  O2-  O254  1  0.33388105  0.28914112  0.93262267  1
  O2-  O255  1  0.33410372  0.79508633  0.27316471  1
  O2-  O256  1  0.33778260  0.79418269  0.60678704  1
  O2-  O257  1  0.33401899  0.78926885  0.93009352  1
  O2-  O258  1  0.82853958  0.28705391  0.26730070  1
  O2-  O259  1  0.83054618  0.29100128  0.60078676  1
  O2-  O260  1  0.83246779  0.29917655  0.93895307  1
  O2-  O261  1  0.83648636  0.79063732  0.25918152  1
  O2-  O262  1  0.82859570  0.78910864  0.60181193  1
  O2-  O263  1  0.83607949  0.79192553  0.94012006  1
  O2-  O264  1  0.41578829  0.04494125  0.06412684  1
  O2-  O265  1  0.42424482  0.04997718  0.40385196  1
  O2-  O266  1  0.41496622  0.04754208  0.73005842  1
  O2-  O267  1  0.41733433  0.55159320  0.05901142  1
  O2-  O268  1  0.41286668  0.53324878  0.40147215  1
  O2-  O269  1  0.41823794  0.53879829  0.73800763  1
  O2-  O270  1  0.92078021  0.03881285  0.06739693  1
  O2-  O271  1  0.91677748  0.04471579  0.40291026  1
  O2-  O272  1  0.91795273  0.05588454  0.72645383  1
  O2-  O273  1  0.91786500  0.54916246  0.06721594  1
  O2-  O274  1  0.91848888  0.55296883  0.39085248  1
  O2-  O275  1  0.92007108  0.53972101  0.73059701  1
  O2-  O276  1  0.28497026  0.16555396  0.06572606  1
  O2-  O277  1  0.29366545  0.17133471  0.40549813  1
  O2-  O278  1  0.29644391  0.16945521  0.72501877  1
  O2-  O279  1  0.29190534  0.66537539  0.06282671  1
  O2-  O280  1  0.29420069  0.66520631  0.40010515  1
  O2-  O281  1  0.29382146  0.66694889  0.73794239  1
  O2-  O282  1  0.79677550  0.16912130  0.06717812  1
  O2-  O283  1  0.78258233  0.16329448  0.40373616  1
  O2-  O284  1  0.79061460  0.16530457  0.73221519  1
  O2-  O285  1  0.79867564  0.66525191  0.06512666  1
  O2-  O286  1  0.79217055  0.66713918  0.39189580  1
  O2-  O287  1  0.78762880  0.66146777  0.73675936  1
