# generated using pymatgen
data_Ca2Al2SiO7
_symmetry_space_group_name_H-M   'P 1'
_cell_length_a   15.45892084
_cell_length_b   15.45984564
_cell_length_c   15.28441557
_cell_angle_alpha   90.01128758
_cell_angle_beta   90.01432153
_cell_angle_gamma   89.99268538
_symmetry_Int_Tables_number   1
_chemical_formula_structural   Ca2Al2SiO7
_chemical_formula_sum   'Ca48 Al48 Si24 O168'
_cell_volume   3652.86093044
_cell_formula_units_Z   24
loop_
 _symmetry_equiv_pos_site_id
 _symmetry_equiv_pos_as_xyz
  1  'x, y, z'
loop_
 _atom_type_symbol
 _atom_type_oxidation_number
  Ca2+  2.0
  Al0+  0.0
  Si0+  0.0
  O2-  -2.0
loop_
 _atom_site_type_symbol
 _atom_site_label
 _atom_site_symmetry_multiplicity
 _atom_site_fract_x
 _atom_site_fract_y
 _atom_site_fract_z
 _atom_site_occupancy
  Ca2+  Ca0  1  0.16584013  0.08162921  0.17524481  1
  Ca2+  Ca1  1  0.17010278  0.07326988  0.50387375  1
  Ca2+  Ca2  1  0.16952878  0.08360785  0.83533289  1
  Ca2+  Ca3  1  0.16791243  0.56954776  0.17180105  1
  Ca2+  Ca4  1  0.16248234  0.58044211  0.50641112  1
  Ca2+  Ca5  1  0.16330660  0.57955225  0.83829462  1
  Ca2+  Ca6  1  0.66778608  0.07345074  0.17159237  1
  Ca2+  Ca7  1  0.66600827  0.07297152  0.50733954  1
  Ca2+  Ca8  1  0.66144668  0.07538811  0.83750754  1
  Ca2+  Ca9  1  0.66111813  0.58932540  0.16853342  1
  Ca2+  Ca10  1  0.67044068  0.57925191  0.50931728  1
  Ca2+  Ca11  1  0.67101500  0.58402590  0.83599536  1
  Ca2+  Ca12  1  0.09046484  0.32291524  0.16171785  1
  Ca2+  Ca13  1  0.07714464  0.32871234  0.49377695  1
  Ca2+  Ca14  1  0.08171683  0.33021439  0.83043911  1
  Ca2+  Ca15  1  0.07580961  0.84003001  0.16084226  1
  Ca2+  Ca16  1  0.08390624  0.83556329  0.49917290  1
  Ca2+  Ca17  1  0.07084683  0.83146756  0.82209153  1
  Ca2+  Ca18  1  0.57507294  0.32484584  0.15495054  1
  Ca2+  Ca19  1  0.59052097  0.32606410  0.50065367  1
  Ca2+  Ca20  1  0.58639009  0.32207318  0.82626926  1
  Ca2+  Ca21  1  0.57912272  0.83315501  0.15964576  1
  Ca2+  Ca22  1  0.58148976  0.83375048  0.49114619  1
  Ca2+  Ca23  1  0.58380125  0.83619878  0.83249151  1
  Ca2+  Ca24  1  0.32525320  0.40948625  0.16816644  1
  Ca2+  Ca25  1  0.32602191  0.41687872  0.50207057  1
  Ca2+  Ca26  1  0.32909265  0.41523015  0.84279547  1
  Ca2+  Ca27  1  0.33113890  0.91283627  0.17223059  1
  Ca2+  Ca28  1  0.32495415  0.91598394  0.50738346  1
  Ca2+  Ca29  1  0.33061888  0.91994500  0.83417583  1
  Ca2+  Ca30  1  0.83149917  0.42190213  0.17029961  1
  Ca2+  Ca31  1  0.83040762  0.42235197  0.51289672  1
  Ca2+  Ca32  1  0.83512594  0.41975185  0.82934492  1
  Ca2+  Ca33  1  0.82365513  0.91923154  0.17086390  1
  Ca2+  Ca34  1  0.82433531  0.91967793  0.50420444  1
  Ca2+  Ca35  1  0.82441391  0.90567859  0.83697660  1
  Ca2+  Ca36  1  0.42240422  0.17027305  0.15713976  1
  Ca2+  Ca37  1  0.41909335  0.15977419  0.50450050  1
  Ca2+  Ca38  1  0.42527451  0.16625022  0.83150075  1
  Ca2+  Ca39  1  0.42686859  0.67918093  0.16241970  1
  Ca2+  Ca40  1  0.42496465  0.67474080  0.48915812  1
  Ca2+  Ca41  1  0.42026488  0.67197145  0.83433017  1
  Ca2+  Ca42  1  0.92832484  0.15599515  0.16599855  1
  Ca2+  Ca43  1  0.91628434  0.16957142  0.49397440  1
  Ca2+  Ca44  1  0.92338798  0.17053379  0.82726395  1
  Ca2+  Ca45  1  0.91751723  0.67686453  0.16024888  1
  Ca2+  Ca46  1  0.91619989  0.67068169  0.50601766  1
  Ca2+  Ca47  1  0.91840496  0.67514519  0.82454759  1
  Al0+  Al48  1  -0.00076750  0.00076684  -0.01042806  1
  Al0+  Al49  1  0.00079584  0.00132108  0.33781409  1
  Al0+  Al50  1  -0.00078738  -0.00054069  0.66482686  1
  Al0+  Al51  1  0.00024656  0.49923602  0.00825827  1
  Al0+  Al52  1  -0.00116829  0.49952329  0.33629849  1
  Al0+  Al53  1  -0.00070166  0.49993175  0.66367205  1
  Al0+  Al54  1  0.49850409  -0.00024766  -0.00141601  1
  Al0+  Al55  1  0.49911349  0.00111642  0.33214030  1
  Al0+  Al56  1  0.49939728  0.00101105  0.66967986  1
  Al0+  Al57  1  0.49934357  0.50220901  -0.00461106  1
  Al0+  Al58  1  0.49931564  0.50025812  0.32959065  1
  Al0+  Al59  1  0.49796956  0.49810699  0.67002606  1
  Al0+  Al60  1  0.24977465  0.24879710  -0.00364011  1
  Al0+  Al61  1  0.24828719  0.25003145  0.33666292  1
  Al0+  Al62  1  0.25199312  0.25008471  0.66919941  1
  Al0+  Al63  1  0.25106935  0.74861835  -0.00058050  1
  Al0+  Al64  1  0.25046339  0.74802737  0.33197568  1
  Al0+  Al65  1  0.24923001  0.74881066  0.66791514  1
  Al0+  Al66  1  0.75300714  0.25099913  -0.00027518  1
  Al0+  Al67  1  0.75116489  0.25262557  0.33299323  1
  Al0+  Al68  1  0.74955920  0.24890571  0.66125397  1
  Al0+  Al69  1  0.75007715  0.75039419  -0.00081199  1
  Al0+  Al70  1  0.75188259  0.74910411  0.33394639  1
  Al0+  Al71  1  0.75114965  0.74906800  0.66911731  1
  Al0+  Al72  1  0.93033272  0.31908234  0.65299945  1
  Al0+  Al73  1  0.07032419  0.17956591  0.98539242  1
  Al0+  Al74  1  0.68016295  0.92929545  0.68099932  1
  Al0+  Al75  1  0.82132416  0.07212204  0.34794309  1
  Al0+  Al76  1  0.42789199  0.82328231  0.31944086  1
  Al0+  Al77  1  0.17731035  0.92735232  0.68367681  1
  Al0+  Al78  1  0.42665917  0.82240222  0.98210947  1
  Al0+  Al79  1  0.42849481  0.32079368  0.98555054  1
  Al0+  Al80  1  0.18060555  0.42884682  0.01397389  1
  Al0+  Al81  1  0.32035984  0.07104622  0.68402845  1
  Al0+  Al82  1  0.57377725  0.17909503  0.98601111  1
  Al0+  Al83  1  0.67807348  0.92908250  0.34777801  1
  Al0+  Al84  1  0.17991720  0.92724929  0.34471226  1
  Al0+  Al85  1  0.07181433  0.67971573  0.65185202  1
  Al0+  Al86  1  0.57215198  0.68037364  0.98214657  1
  Al0+  Al87  1  0.56943558  0.17873118  0.65120606  1
  Al0+  Al88  1  0.67922738  0.93045481  0.01434215  1
  Al0+  Al89  1  0.93027775  0.82063175  0.98748496  1
  Al0+  Al90  1  0.57337049  0.67910707  0.31978161  1
  Al0+  Al91  1  0.67764510  0.42675448  0.68215829  1
  Al0+  Al92  1  0.82115916  0.56971917  0.68317602  1
  Al0+  Al93  1  0.06913839  0.18033259  0.32128148  1
  Al0+  Al94  1  0.17904115  0.42833960  0.34937629  1
  Al0+  Al95  1  0.92659928  0.82257167  0.64810694  1
  Si0+  Si96  1  0.82155813  0.57126171  0.34886122  1
  Si0+  Si97  1  0.82224872  0.07321959  0.68299482  1
  Si0+  Si98  1  0.92854384  0.32599762  0.98439507  1
  Si0+  Si99  1  0.07121799  0.67608291  0.98760345  1
  Si0+  Si100  1  0.42878557  0.32044271  0.31995397  1
  Si0+  Si101  1  0.32176134  0.57146248  0.68225538  1
  Si0+  Si102  1  0.67715342  0.43014995  0.34613753  1
  Si0+  Si103  1  0.07148821  0.67592954  0.31724044  1
  Si0+  Si104  1  0.42985401  0.82014180  0.65235837  1
  Si0+  Si105  1  0.42674750  0.32367935  0.64805774  1
  Si0+  Si106  1  0.57285477  0.17977874  0.31854951  1
  Si0+  Si107  1  0.31896772  0.06971664  0.01583509  1
  Si0+  Si108  1  0.17707354  0.92891039  0.01299821  1
  Si0+  Si109  1  0.07497106  0.17818332  0.64835929  1
  Si0+  Si110  1  0.92714317  0.32426186  0.31449059  1
  Si0+  Si111  1  0.81983273  0.57052282  0.01695198  1
  Si0+  Si112  1  0.32160380  0.56990382  0.34997554  1
  Si0+  Si113  1  0.93149494  0.82062907  0.31868299  1
  Si0+  Si114  1  0.57008551  0.67713741  0.65291932  1
  Si0+  Si115  1  0.32425402  0.57381920  0.01948407  1
  Si0+  Si116  1  0.17928311  0.42999728  0.68144508  1
  Si0+  Si117  1  0.32235809  0.07359824  0.34864525  1
  Si0+  Si118  1  0.82465873  0.07418039  0.01489900  1
  Si0+  Si119  1  0.67783683  0.42811210  0.01515176  1
  O2-  O120  1  0.24891087  -0.00244816  0.05791975  1
  O2-  O121  1  0.25892455  -0.00153417  0.38979436  1
  O2-  O122  1  0.24617761  0.00163620  0.73474525  1
  O2-  O123  1  0.25635735  0.50258313  0.06181249  1
  O2-  O124  1  0.25125471  0.50460391  0.39730521  1
  O2-  O125  1  0.25015782  0.50059004  0.72391870  1
  O2-  O126  1  0.75226553  0.00872777  0.05837363  1
  O2-  O127  1  0.74677734  0.00362005  0.39876591  1
  O2-  O128  1  0.75768664  0.00131111  0.72797343  1
  O2-  O129  1  0.74752467  0.50019615  0.05916871  1
  O2-  O130  1  0.74769087  0.50157847  0.38778844  1
  O2-  O131  1  0.74780934  0.49938185  0.73389412  1
  O2-  O132  1  -0.00559654  0.25396222  0.27120821  1
  O2-  O133  1  0.00341638  0.24391506  0.60442246  1
  O2-  O134  1  -0.00480946  0.25500282  0.94144586  1
  O2-  O135  1  0.00412348  0.75065184  0.27541743  1
  O2-  O136  1  0.00338348  0.75402570  0.59954638  1
  O2-  O137  1  0.00735661  0.74770568  0.94274378  1
  O2-  O138  1  0.49994152  0.24970113  0.27762105  1
  O2-  O139  1  0.49651245  0.25597057  0.60389931  1
  O2-  O140  1  0.50555298  0.25478157  0.93586952  1
  O2-  O141  1  0.50525242  0.75562740  0.27114898  1
  O2-  O142  1  0.50124905  0.74953944  0.60990939  1
  O2-  O143  1  0.50070306  0.75254573  0.93191906  1
  O2-  O144  1  0.07059946  0.17800242  0.09884359  1
  O2-  O145  1  0.06914487  0.18324579  0.43384035  1
  O2-  O146  1  0.07515087  0.18209662  0.75424971  1
  O2-  O147  1  0.06797851  0.67544887  0.09380769  1
  O2-  O148  1  0.06976380  0.67351640  0.42179907  1
  O2-  O149  1  0.07077766  0.67739711  0.76577571  1
  O2-  O150  1  0.57096106  0.18063077  0.10061463  1
  O2-  O151  1  0.57312659  0.18091582  0.42346723  1
  O2-  O152  1  0.56865101  0.17927165  0.76383164  1
  O2-  O153  1  0.57149765  0.68184112  0.09589734  1
  O2-  O154  1  0.57047496  0.67524177  0.43370571  1
  O2-  O155  1  0.56744771  0.67652427  0.75759705  1
  O2-  O156  1  0.18165385  0.42743963  0.23625120  1
  O2-  O157  1  0.18127677  0.43009511  0.57615625  1
  O2-  O158  1  0.17898111  0.43231010  0.90066343  1
  O2-  O159  1  0.17744631  0.93059795  0.23094027  1
  O2-  O160  1  0.18190170  0.92685305  0.56967789  1
  O2-  O161  1  0.17726279  0.93052259  0.90861461  1
  O2-  O162  1  0.67815535  0.42882908  0.24077953  1
  O2-  O163  1  0.67790274  0.43038349  0.56760703  1
  O2-  O164  1  0.68051379  0.42664991  0.91084935  1
  O2-  O165  1  0.67990818  0.92973567  0.23405840  1
  O2-  O166  1  0.67786801  0.92999397  0.56779883  1
  O2-  O167  1  0.68174353  0.92994048  0.90146846  1
  O2-  O168  1  0.42832649  0.31651159  0.10022275  1
  O2-  O169  1  0.42980606  0.32233156  0.42488413  1
  O2-  O170  1  0.42481307  0.32451062  0.75304829  1
  O2-  O171  1  0.42485791  0.82094671  0.09563225  1
  O2-  O172  1  0.42651594  0.81961016  0.43350370  1
  O2-  O173  1  0.42958987  0.81832688  0.75720344  1
  O2-  O174  1  0.92858771  0.32909113  0.09008087  1
  O2-  O175  1  0.92759506  0.32623978  0.41981802  1
  O2-  O176  1  0.93438672  0.31920685  0.76643035  1
  O2-  O177  1  0.93159744  0.82032387  0.10157170  1
  O2-  O178  1  0.93045235  0.81823825  0.42306889  1
  O2-  O179  1  0.92640138  0.81788750  0.76178732  1
  O2-  O180  1  0.32031513  0.07841987  0.24290441  1
  O2-  O181  1  0.31993794  0.06862664  0.56976602  1
  O2-  O182  1  0.31748010  0.07078123  0.91129414  1
  O2-  O183  1  0.32040957  0.56674234  0.24471147  1
  O2-  O184  1  0.32342509  0.56997465  0.57700119  1
  O2-  O185  1  0.32153251  0.57537730  0.91367621  1
  O2-  O186  1  0.82173333  0.06900064  0.23394924  1
  O2-  O187  1  0.81865295  0.07399558  0.57728588  1
  O2-  O188  1  0.82678229  0.07539558  0.90974369  1
  O2-  O189  1  0.82456047  0.57039354  0.24331769  1
  O2-  O190  1  0.81878137  0.56846648  0.56900544  1
  O2-  O191  1  0.82302631  0.56846193  0.91268862  1
  O2-  O192  1  0.03899299  0.08316912  0.26663177  1
  O2-  O193  1  0.05314756  0.08283926  0.60547222  1
  O2-  O194  1  0.03996787  0.08576953  0.92682855  1
  O2-  O195  1  0.03849950  0.58547978  0.26922388  1
  O2-  O196  1  0.04073934  0.58242813  0.59731590  1
  O2-  O197  1  0.04155572  0.58335439  0.94245185  1
  O2-  O198  1  0.54603415  0.08810599  0.27092037  1
  O2-  O199  1  0.53404548  0.08325982  0.59671577  1
  O2-  O200  1  0.54050272  0.08287766  0.93378628  1
  O2-  O201  1  0.54095237  0.58187253  0.26450877  1
  O2-  O202  1  0.54018639  0.58521042  0.60613902  1
  O2-  O203  1  0.54521989  0.58152167  0.92968548  1
  O2-  O204  1  0.16613477  0.21253927  0.26744793  1
  O2-  O205  1  0.16787863  0.20763933  0.60331953  1
  O2-  O206  1  0.16498509  0.21187440  0.93014532  1
  O2-  O207  1  0.16492669  0.69749071  0.27084474  1
  O2-  O208  1  0.17195139  0.70328158  0.59845181  1
  O2-  O209  1  0.16662239  0.69474768  0.94403114  1
  O2-  O210  1  0.66372478  0.20991051  0.27062867  1
  O2-  O211  1  0.66499142  0.20879380  0.59480552  1
  O2-  O212  1  0.67399099  0.20390733  0.93534846  1
  O2-  O213  1  0.67413135  0.70058895  0.26807888  1
  O2-  O214  1  0.66316423  0.70197047  0.60777775  1
  O2-  O215  1  0.67105530  0.70679320  0.93087060  1
  O2-  O216  1  0.08518569  0.45938265  0.07198421  1
  O2-  O217  1  0.08142402  0.45827052  0.40143832  1
  O2-  O218  1  0.08778579  0.45801831  0.72801860  1
  O2-  O219  1  0.08471711  0.95943935  0.05852861  1
  O2-  O220  1  0.08634700  0.96156279  0.40124210  1
  O2-  O221  1  0.07661519  0.95287054  0.73300133  1
  O2-  O222  1  0.58474490  0.45509658  0.06119542  1
  O2-  O223  1  0.58490782  0.45599947  0.39346616  1
  O2-  O224  1  0.57780218  0.45151305  0.73367913  1
  O2-  O225  1  0.58107126  0.95955041  0.06692774  1
  O2-  O226  1  0.57801560  0.95566873  0.39883994  1
  O2-  O227  1  0.58451961  0.96234452  0.73452403  1
  O2-  O228  1  0.21289102  0.33160673  0.06697988  1
  O2-  O229  1  0.21238909  0.33375460  0.40522916  1
  O2-  O230  1  0.20705315  0.33839755  0.72868810  1
  O2-  O231  1  0.20116578  0.83516317  0.05936906  1
  O2-  O232  1  0.20521561  0.82851537  0.39755651  1
  O2-  O233  1  0.20710879  0.82883816  0.73568120  1
  O2-  O234  1  0.70705378  0.33708781  0.06497538  1
  O2-  O235  1  0.70544982  0.33892090  0.39436647  1
  O2-  O236  1  0.70896265  0.32832135  0.73225271  1
  O2-  O237  1  0.71365978  0.83426043  0.06775735  1
  O2-  O238  1  0.70868351  0.83043538  0.39907030  1
  O2-  O239  1  0.70824194  0.83196473  0.73418696  1
  O2-  O240  1  0.45538086  0.41140853  0.27032214  1
  O2-  O241  1  0.44989227  0.41806954  0.60160244  1
  O2-  O242  1  0.44743215  0.42200628  0.93613944  1
  O2-  O243  1  0.44938700  0.92378634  0.26688094  1
  O2-  O244  1  0.45702311  0.91218814  0.60630206  1
  O2-  O245  1  0.45227090  0.92131648  0.93083559  1
  O2-  O246  1  0.95441300  0.41776482  0.26847866  1
  O2-  O247  1  0.96159452  0.41471987  0.59758174  1
  O2-  O248  1  0.95827853  0.41845518  0.93847416  1
  O2-  O249  1  0.95989317  0.91254044  0.27236580  1
  O2-  O250  1  0.95031584  0.92294641  0.59693563  1
  O2-  O251  1  0.95743799  0.91522328  0.92960309  1
  O2-  O252  1  0.33692126  0.29127529  0.27365133  1
  O2-  O253  1  0.33364355  0.29543171  0.60094365  1
  O2-  O254  1  0.33274060  0.28874816  0.93077091  1
  O2-  O255  1  0.33091902  0.79005880  0.26465906  1
  O2-  O256  1  0.33823053  0.79062489  0.60591479  1
  O2-  O257  1  0.32843178  0.79085574  0.92925771  1
  O2-  O258  1  0.83243619  0.30234454  0.26821130  1
  O2-  O259  1  0.83395176  0.29142703  0.59682153  1
  O2-  O260  1  0.83443976  0.30399221  0.93877306  1
  O2-  O261  1  0.84083623  0.78980022  0.27027217  1
  O2-  O262  1  0.82964469  0.78734762  0.59520470  1
  O2-  O263  1  0.83615683  0.78529061  0.93405954  1
  O2-  O264  1  0.41098430  0.04382705  0.06402157  1
  O2-  O265  1  0.41764465  0.05423698  0.39340986  1
  O2-  O266  1  0.41706991  0.03995746  0.73752770  1
  O2-  O267  1  0.41882668  0.55008189  0.06430680  1
  O2-  O268  1  0.41464179  0.54100300  0.39639641  1
  O2-  O269  1  0.41188874  0.54302093  0.73229655  1
  O2-  O270  1  0.91721387  0.04170156  0.06062910  1
  O2-  O271  1  0.91802387  0.04289352  0.40270328  1
  O2-  O272  1  0.91850385  0.05411961  0.72589535  1
  O2-  O273  1  0.91008817  0.54156326  0.06841098  1
  O2-  O274  1  0.91144685  0.54087021  0.39802119  1
  O2-  O275  1  0.91934758  0.53820740  0.73525606  1
  O2-  O276  1  0.28939722  0.16111087  0.06343052  1
  O2-  O277  1  0.29152447  0.16363172  0.39875152  1
  O2-  O278  1  0.29521548  0.17103576  0.73618140  1
  O2-  O279  1  0.29575551  0.66614835  0.06746771  1
  O2-  O280  1  0.29858174  0.66415205  0.39535614  1
  O2-  O281  1  0.29426561  0.66221721  0.73116077  1
  O2-  O282  1  0.80608948  0.16953791  0.06176074  1
  O2-  O283  1  0.79790737  0.17382342  0.39716533  1
  O2-  O284  1  0.79441950  0.16597801  0.72872881  1
  O2-  O285  1  0.79197963  0.66185179  0.06548014  1
  O2-  O286  1  0.79685096  0.66293156  0.39702842  1
  O2-  O287  1  0.79329962  0.66743288  0.73632982  1
