# generated using pymatgen
data_Ca2Al2SiO7
_symmetry_space_group_name_H-M   'P 1'
_cell_length_a   15.46309367
_cell_length_b   15.46323442
_cell_length_c   15.28730742
_cell_angle_alpha   89.97618679
_cell_angle_beta   89.99710462
_cell_angle_gamma   90.01878217
_symmetry_Int_Tables_number   1
_chemical_formula_structural   Ca2Al2SiO7
_chemical_formula_sum   'Ca48 Al48 Si24 O168'
_cell_volume   3655.33903427
_cell_formula_units_Z   24
loop_
 _symmetry_equiv_pos_site_id
 _symmetry_equiv_pos_as_xyz
  1  'x, y, z'
loop_
 _atom_type_symbol
 _atom_type_oxidation_number
  Ca2+  2.0
  Al0+  0.0
  Si0+  0.0
  O2-  -2.0
loop_
 _atom_site_type_symbol
 _atom_site_label
 _atom_site_symmetry_multiplicity
 _atom_site_fract_x
 _atom_site_fract_y
 _atom_site_fract_z
 _atom_site_occupancy
  Ca2+  Ca0  1  0.17221298  0.08375376  0.16861990  1
  Ca2+  Ca1  1  0.16705550  0.08339333  0.50813436  1
  Ca2+  Ca2  1  0.17852397  0.08756207  0.83344401  1
  Ca2+  Ca3  1  0.18275965  0.58650317  0.16996272  1
  Ca2+  Ca4  1  0.17900576  0.58751993  0.50741348  1
  Ca2+  Ca5  1  0.18000337  0.59080158  0.83457658  1
  Ca2+  Ca6  1  0.66403020  0.07059843  0.17063195  1
  Ca2+  Ca7  1  0.67384553  0.07576560  0.50547628  1
  Ca2+  Ca8  1  0.67329158  0.07957629  0.84601658  1
  Ca2+  Ca9  1  0.65879606  0.58375163  0.16667408  1
  Ca2+  Ca10  1  0.66596227  0.58913767  0.50623899  1
  Ca2+  Ca11  1  0.67041711  0.58568978  0.84117500  1
  Ca2+  Ca12  1  0.08024312  0.32837484  0.16453152  1
  Ca2+  Ca13  1  0.08249009  0.32022874  0.49665666  1
  Ca2+  Ca14  1  0.08057710  0.32784824  0.82520878  1
  Ca2+  Ca15  1  0.07800500  0.83474758  0.16382870  1
  Ca2+  Ca16  1  0.08375820  0.82767505  0.50116869  1
  Ca2+  Ca17  1  0.07861341  0.82732495  0.82746171  1
  Ca2+  Ca18  1  0.58907159  0.32623771  0.15903249  1
  Ca2+  Ca19  1  0.57614599  0.33460843  0.50188935  1
  Ca2+  Ca20  1  0.58360069  0.32995940  0.83365433  1
  Ca2+  Ca21  1  0.57939868  0.83020844  0.15917889  1
  Ca2+  Ca22  1  0.57576709  0.82587179  0.49476469  1
  Ca2+  Ca23  1  0.57803835  0.82759979  0.83170138  1
  Ca2+  Ca24  1  0.34405013  0.43391739  0.16753917  1
  Ca2+  Ca25  1  0.33786241  0.42830605  0.50744448  1
  Ca2+  Ca26  1  0.34187996  0.42832326  0.83343632  1
  Ca2+  Ca27  1  0.34460092  0.91926858  0.16632726  1
  Ca2+  Ca28  1  0.33748519  0.91785643  0.50590456  1
  Ca2+  Ca29  1  0.34248938  0.92179681  0.83597769  1
  Ca2+  Ca30  1  0.82633423  0.42070181  0.16208622  1
  Ca2+  Ca31  1  0.82834572  0.42204302  0.50665180  1
  Ca2+  Ca32  1  0.82645996  0.42733997  0.83926548  1
  Ca2+  Ca33  1  0.81612771  0.92150509  0.16972407  1
  Ca2+  Ca34  1  0.82637748  0.92122091  0.50261343  1
  Ca2+  Ca35  1  0.82514889  0.92465255  0.83985293  1
  Ca2+  Ca36  1  0.42400444  0.16730976  0.15441583  1
  Ca2+  Ca37  1  0.40759103  0.17483529  0.50038193  1
  Ca2+  Ca38  1  0.42058864  0.16700013  0.82732440  1
  Ca2+  Ca39  1  0.42350317  0.67537290  0.15940783  1
  Ca2+  Ca40  1  0.42187918  0.67257471  0.49343568  1
  Ca2+  Ca41  1  0.42474839  0.67190978  0.82448331  1
  Ca2+  Ca42  1  0.91800385  0.15425129  0.16372535  1
  Ca2+  Ca43  1  0.92435126  0.15386257  0.49579299  1
  Ca2+  Ca44  1  0.91881743  0.16208592  0.82537421  1
  Ca2+  Ca45  1  0.91688913  0.66540147  0.15891543  1
  Ca2+  Ca46  1  0.92219122  0.66009866  0.50033796  1
  Ca2+  Ca47  1  0.91936008  0.66003789  0.82460032  1
  Al0+  Al48  1  0.00260050  -0.00130167  -0.00000234  1
  Al0+  Al49  1  0.00278895  -0.00113418  0.33076860  1
  Al0+  Al50  1  -0.00054829  -0.00177299  0.66702201  1
  Al0+  Al51  1  0.00038461  0.49764298  0.00289728  1
  Al0+  Al52  1  0.00070808  0.49640935  0.33164876  1
  Al0+  Al53  1  -0.00051455  0.49786306  0.66361623  1
  Al0+  Al54  1  0.50022163  0.00172492  -0.00071835  1
  Al0+  Al55  1  0.49981889  0.00122262  0.33796375  1
  Al0+  Al56  1  0.50049691  -0.00065606  0.66621138  1
  Al0+  Al57  1  0.50063383  0.49978370  0.00468205  1
  Al0+  Al58  1  0.50064150  0.50076574  0.33573355  1
  Al0+  Al59  1  0.49997094  0.49744753  0.66349318  1
  Al0+  Al60  1  0.24870565  0.24986629  0.00388083  1
  Al0+  Al61  1  0.24715212  0.25182912  0.32601744  1
  Al0+  Al62  1  0.24879855  0.24927971  0.66219864  1
  Al0+  Al63  1  0.24805977  0.75139573  0.00107554  1
  Al0+  Al64  1  0.25075858  0.75170933  0.33370275  1
  Al0+  Al65  1  0.24797098  0.75068505  0.66371644  1
  Al0+  Al66  1  0.75372725  0.25313475  0.00156788  1
  Al0+  Al67  1  0.75157407  0.25299201  0.33880778  1
  Al0+  Al68  1  0.75023053  0.25038168  0.66913357  1
  Al0+  Al69  1  0.75158380  0.75282081  0.00287836  1
  Al0+  Al70  1  0.75063931  0.74954288  0.33497259  1
  Al0+  Al71  1  0.75014134  0.75035788  0.66748093  1
  Al0+  Al72  1  0.57184241  0.67808999  0.98430510  1
  Al0+  Al73  1  0.42822029  0.82233207  0.65083736  1
  Al0+  Al74  1  0.32065356  0.57225069  0.01255051  1
  Al0+  Al75  1  0.57265511  0.18032142  0.98833052  1
  Al0+  Al76  1  0.82134718  0.07037535  0.34880336  1
  Al0+  Al77  1  0.06918925  0.17812352  0.31620866  1
  Al0+  Al78  1  0.32112164  0.57182394  0.67970291  1
  Al0+  Al79  1  0.07001219  0.67708650  0.65319580  1
  Al0+  Al80  1  0.32023431  0.07150945  0.67853068  1
  Al0+  Al81  1  0.67626232  0.92708440  0.35195039  1
  Al0+  Al82  1  0.67842388  0.43032191  0.01500799  1
  Al0+  Al83  1  0.42813302  0.82323282  0.31689978  1
  Al0+  Al84  1  0.67736440  0.93037143  0.01435376  1
  Al0+  Al85  1  0.06856031  0.17852333  0.65394310  1
  Al0+  Al86  1  0.57220483  0.67872593  0.31677523  1
  Al0+  Al87  1  0.32015067  0.57065049  0.34909358  1
  Al0+  Al88  1  0.82213085  0.57264541  0.01483060  1
  Al0+  Al89  1  0.32041480  0.07115169  0.01290975  1
  Al0+  Al90  1  0.82379901  0.07227451  0.01404312  1
  Al0+  Al91  1  0.42686121  0.82162578  0.98304904  1
  Al0+  Al92  1  0.42926054  0.31872203  0.65402448  1
  Al0+  Al93  1  0.57188312  0.67808309  0.65210759  1
  Al0+  Al94  1  0.82104842  0.06995670  0.68105182  1
  Al0+  Al95  1  0.82058451  0.57046080  0.67834593  1
  Si0+  Si96  1  0.17720325  0.92742957  0.68367046  1
  Si0+  Si97  1  0.32019967  0.07382371  0.34722386  1
  Si0+  Si98  1  0.93079572  0.32250860  0.98278735  1
  Si0+  Si99  1  0.17680485  0.42760314  0.35123506  1
  Si0+  Si100  1  0.92787057  0.82135028  0.64960653  1
  Si0+  Si101  1  0.42618258  0.32171785  0.98477103  1
  Si0+  Si102  1  0.67750560  0.92785348  0.68488302  1
  Si0+  Si103  1  0.07123184  0.67704847  0.31803356  1
  Si0+  Si104  1  0.67920168  0.42935008  0.35104453  1
  Si0+  Si105  1  0.67660085  0.42732714  0.68378288  1
  Si0+  Si106  1  0.17900854  0.92992479  0.34888120  1
  Si0+  Si107  1  0.82371792  0.57070440  0.34832108  1
  Si0+  Si108  1  0.57141941  0.18171869  0.32196005  1
  Si0+  Si109  1  0.17857231  0.42742169  0.68125916  1
  Si0+  Si110  1  0.57432774  0.17742281  0.65006155  1
  Si0+  Si111  1  0.17742030  0.42706473  0.01751990  1
  Si0+  Si112  1  0.93063025  0.81943339  0.31843821  1
  Si0+  Si113  1  0.06957609  0.67713385  0.98629334  1
  Si0+  Si114  1  0.92636585  0.32128842  0.64896029  1
  Si0+  Si115  1  0.92653038  0.32291134  0.31387070  1
  Si0+  Si116  1  0.42848852  0.32137577  0.31757960  1
  Si0+  Si117  1  0.93023105  0.82153649  0.98550137  1
  Si0+  Si118  1  0.07126813  0.17840864  0.98319827  1
  Si0+  Si119  1  0.17771322  0.92801244  0.01727076  1
  O2-  O120  1  0.24941964  -0.00634122  0.06106190  1
  O2-  O121  1  0.25155603  0.00032686  0.38901579  1
  O2-  O122  1  0.24862139  -0.00599537  0.72616390  1
  O2-  O123  1  0.24743197  0.49518775  0.06012155  1
  O2-  O124  1  0.24442005  0.49625456  0.39577548  1
  O2-  O125  1  0.24486840  0.49761700  0.72638943  1
  O2-  O126  1  0.74731147  0.00569786  0.06354199  1
  O2-  O127  1  0.74845012  0.00070673  0.40017727  1
  O2-  O128  1  0.74345751  -0.00002579  0.72828951  1
  O2-  O129  1  0.74523180  0.50710628  0.06650682  1
  O2-  O130  1  0.74907586  0.50326707  0.39011642  1
  O2-  O131  1  0.74313828  0.49942897  0.72510638  1
  O2-  O132  1  -0.00905819  0.24969677  0.26998527  1
  O2-  O133  1  -0.00932698  0.24859946  0.60486177  1
  O2-  O134  1  -0.00134363  0.24769409  0.94141409  1
  O2-  O135  1  -0.00232807  0.74449881  0.27491522  1
  O2-  O136  1  -0.00630057  0.74959238  0.60507996  1
  O2-  O137  1  -0.00423256  0.74489332  0.94379928  1
  O2-  O138  1  0.49771199  0.24859993  0.27685828  1
  O2-  O139  1  0.50254542  0.24301308  0.60532693  1
  O2-  O140  1  0.49547879  0.25317903  0.94178225  1
  O2-  O141  1  0.50184446  0.75273061  0.26783697  1
  O2-  O142  1  0.49804352  0.74794580  0.60181476  1
  O2-  O143  1  0.49726338  0.74743207  0.93443278  1
  O2-  O144  1  0.07140181  0.17920466  0.08836733  1
  O2-  O145  1  0.07063267  0.17920065  0.42926322  1
  O2-  O146  1  0.06910738  0.18190111  0.76715455  1
  O2-  O147  1  0.06957944  0.67895792  0.09191545  1
  O2-  O148  1  0.07022171  0.67784116  0.42305074  1
  O2-  O149  1  0.06917494  0.67888443  0.76656898  1
  O2-  O150  1  0.57016089  0.18150814  0.10227826  1
  O2-  O151  1  0.57026653  0.18489220  0.42709211  1
  O2-  O152  1  0.57581528  0.18021654  0.75551578  1
  O2-  O153  1  0.56953135  0.67915551  0.09778270  1
  O2-  O154  1  0.57055133  0.67713073  0.43026353  1
  O2-  O155  1  0.57318118  0.67844549  0.76533441  1
  O2-  O156  1  0.17513713  0.42887745  0.24562948  1
  O2-  O157  1  0.17984393  0.42736772  0.57559092  1
  O2-  O158  1  0.17454454  0.42579398  0.91209737  1
  O2-  O159  1  0.17476715  0.93049697  0.24393008  1
  O2-  O160  1  0.17405540  0.92914610  0.57773919  1
  O2-  O161  1  0.17166108  0.92957938  0.91220349  1
  O2-  O162  1  0.67947365  0.42533890  0.24647122  1
  O2-  O163  1  0.67888229  0.42458431  0.57771107  1
  O2-  O164  1  0.68199732  0.42793166  0.90168269  1
  O2-  O165  1  0.67646011  0.92851684  0.23863100  1
  O2-  O166  1  0.67998055  0.92845688  0.57921301  1
  O2-  O167  1  0.68080407  0.93058971  0.90075926  1
  O2-  O168  1  0.42530799  0.31966387  0.09093181  1
  O2-  O169  1  0.42769832  0.32062576  0.42278981  1
  O2-  O170  1  0.42987013  0.31871367  0.76689043  1
  O2-  O171  1  0.42662868  0.82014972  0.09661366  1
  O2-  O172  1  0.42569630  0.82109974  0.43014963  1
  O2-  O173  1  0.42951876  0.82253073  0.76401872  1
  O2-  O174  1  0.93410515  0.32650846  0.08773330  1
  O2-  O175  1  0.92910312  0.32798672  0.41912112  1
  O2-  O176  1  0.92900011  0.32315989  0.75448092  1
  O2-  O177  1  0.93514840  0.82287825  0.09085320  1
  O2-  O178  1  0.93385417  0.81905719  0.42352772  1
  O2-  O179  1  0.93070981  0.82256688  0.75526299  1
  O2-  O180  1  0.31904047  0.07507787  0.24213060  1
  O2-  O181  1  0.31510018  0.07374079  0.56500258  1
  O2-  O182  1  0.31687410  0.07544472  0.90011329  1
  O2-  O183  1  0.31817350  0.56874863  0.23582036  1
  O2-  O184  1  0.31945381  0.56987086  0.56656339  1
  O2-  O185  1  0.31838310  0.57109507  0.89953190  1
  O2-  O186  1  0.81955414  0.06774405  0.23565853  1
  O2-  O187  1  0.82183973  0.06664733  0.56803734  1
  O2-  O188  1  0.82531525  0.06823424  0.90032124  1
  O2-  O189  1  0.82826377  0.56815378  0.24375655  1
  O2-  O190  1  0.82239404  0.56649202  0.56470661  1
  O2-  O191  1  0.82726542  0.56741768  0.90158605  1
  O2-  O192  1  0.04279414  0.08041459  0.26175437  1
  O2-  O193  1  0.04071735  0.08061462  0.60034416  1
  O2-  O194  1  0.04631453  0.08559534  0.93689953  1
  O2-  O195  1  0.04637885  0.58384725  0.27169408  1
  O2-  O196  1  0.04082260  0.58071593  0.59710521  1
  O2-  O197  1  0.04508303  0.58395934  0.94054152  1
  O2-  O198  1  0.54576975  0.08881157  0.27671094  1
  O2-  O199  1  0.55231613  0.08305851  0.60533712  1
  O2-  O200  1  0.54283675  0.08514399  0.93263895  1
  O2-  O201  1  0.54214253  0.57896225  0.26657910  1
  O2-  O202  1  0.54761380  0.57807873  0.60046879  1
  O2-  O203  1  0.54687216  0.57667920  0.93563936  1
  O2-  O204  1  0.16389206  0.21313390  0.25944406  1
  O2-  O205  1  0.16250737  0.21223178  0.59677350  1
  O2-  O206  1  0.16270992  0.20961104  0.93691431  1
  O2-  O207  1  0.16120831  0.70948320  0.27046977  1
  O2-  O208  1  0.16359352  0.71161708  0.59605140  1
  O2-  O209  1  0.15950402  0.70865079  0.93809681  1
  O2-  O210  1  0.66268994  0.21365791  0.27615932  1
  O2-  O211  1  0.66652711  0.20741384  0.60250344  1
  O2-  O212  1  0.66953022  0.21279078  0.93529045  1
  O2-  O213  1  0.67425668  0.70082682  0.26802499  1
  O2-  O214  1  0.67093356  0.70744578  0.59959949  1
  O2-  O215  1  0.67258111  0.70698952  0.93555867  1
  O2-  O216  1  0.08545439  0.45400150  0.06634424  1
  O2-  O217  1  0.08242811  0.45077257  0.39722976  1
  O2-  O218  1  0.08373427  0.45006195  0.72603162  1
  O2-  O219  1  0.08700034  0.95877171  0.06727791  1
  O2-  O220  1  0.08880473  0.95910532  0.39854504  1
  O2-  O221  1  0.08481599  0.95481351  0.73134879  1
  O2-  O222  1  0.57902175  0.44946210  0.07023468  1
  O2-  O223  1  0.58726437  0.45529130  0.39900208  1
  O2-  O224  1  0.58209127  0.44798294  0.72833117  1
  O2-  O225  1  0.58004973  0.95906025  0.06831809  1
  O2-  O226  1  0.57899300  0.95805007  0.40621149  1
  O2-  O227  1  0.58321956  0.95085369  0.72924216  1
  O2-  O228  1  0.20113388  0.33386102  0.06561329  1
  O2-  O229  1  0.20367207  0.33303444  0.39484143  1
  O2-  O230  1  0.20526500  0.33463513  0.72786341  1
  O2-  O231  1  0.19704819  0.83358826  0.06434304  1
  O2-  O232  1  0.20426556  0.83778716  0.39690510  1
  O2-  O233  1  0.19846264  0.83295834  0.72911449  1
  O2-  O234  1  0.71508292  0.33522014  0.07093253  1
  O2-  O235  1  0.70958975  0.34038768  0.40298973  1
  O2-  O236  1  0.70523103  0.33526185  0.73135342  1
  O2-  O237  1  0.71074739  0.83480697  0.06965433  1
  O2-  O238  1  0.70982918  0.82949671  0.40409903  1
  O2-  O239  1  0.70765684  0.83606387  0.73124440  1
  O2-  O240  1  0.46044228  0.41208176  0.27140392  1
  O2-  O241  1  0.46183385  0.41282368  0.59559912  1
  O2-  O242  1  0.45234287  0.41539892  0.94028120  1
  O2-  O243  1  0.45375366  0.92503789  0.26864242  1
  O2-  O244  1  0.45652974  0.92132265  0.59763704  1
  O2-  O245  1  0.45585734  0.92087491  0.93281383  1
  O2-  O246  1  0.95845842  0.41379854  0.26424280  1
  O2-  O247  1  0.95614994  0.41205211  0.59917939  1
  O2-  O248  1  0.96373960  0.41231324  0.93347352  1
  O2-  O249  1  0.96523137  0.90791264  0.26918401  1
  O2-  O250  1  0.95878895  0.91231050  0.60111560  1
  O2-  O251  1  0.96568913  0.90995809  0.93544784  1
  O2-  O252  1  0.33624062  0.29770360  0.26928925  1
  O2-  O253  1  0.33379103  0.28862676  0.59655110  1
  O2-  O254  1  0.33173597  0.29664375  0.94032173  1
  O2-  O255  1  0.32823397  0.79591990  0.26507020  1
  O2-  O256  1  0.32768856  0.79868730  0.60012894  1
  O2-  O257  1  0.32506287  0.79807330  0.93379391  1
  O2-  O258  1  0.83074765  0.30225527  0.27060409  1
  O2-  O259  1  0.83112765  0.30043339  0.60421186  1
  O2-  O260  1  0.83855289  0.29975547  0.93507738  1
  O2-  O261  1  0.83824313  0.79440400  0.27185856  1
  O2-  O262  1  0.83420463  0.79861338  0.60370525  1
  O2-  O263  1  0.83734640  0.80118801  0.93861558  1
  O2-  O264  1  0.41729528  0.04465674  0.06731951  1
  O2-  O265  1  0.41217973  0.05174516  0.39605947  1
  O2-  O266  1  0.41919898  0.04636326  0.73048532  1
  O2-  O267  1  0.41537866  0.54084142  0.06907283  1
  O2-  O268  1  0.41586889  0.53640314  0.40223695  1
  O2-  O269  1  0.41686823  0.53642232  0.73179765  1
  O2-  O270  1  0.92110344  0.03781643  0.06603404  1
  O2-  O271  1  0.92087339  0.03769369  0.39783729  1
  O2-  O272  1  0.91739871  0.03730352  0.73452843  1
  O2-  O273  1  0.91866687  0.53720950  0.06976979  1
  O2-  O274  1  0.91490111  0.53833233  0.39581197  1
  O2-  O275  1  0.91714503  0.53660645  0.73136816  1
  O2-  O276  1  0.28650797  0.16605628  0.06988139  1
  O2-  O277  1  0.28822932  0.16612639  0.39178223  1
  O2-  O278  1  0.28511856  0.16688987  0.73247643  1
  O2-  O279  1  0.28441826  0.66664779  0.06770172  1
  O2-  O280  1  0.28654041  0.66735831  0.40068354  1
  O2-  O281  1  0.28696189  0.66785597  0.73207893  1
  O2-  O282  1  0.80657293  0.17399866  0.06268307  1
  O2-  O283  1  0.79851865  0.17128781  0.40008438  1
  O2-  O284  1  0.79631231  0.16940382  0.73227644  1
  O2-  O285  1  0.80497320  0.67382685  0.06498975  1
  O2-  O286  1  0.80195510  0.66356427  0.39535592  1
  O2-  O287  1  0.79748063  0.66909280  0.73133052  1
