# generated using pymatgen
data_Ca2Al2SiO7
_symmetry_space_group_name_H-M   'P 1'
_cell_length_a   15.45723953
_cell_length_b   15.45716248
_cell_length_c   15.28362522
_cell_angle_alpha   90.00343894
_cell_angle_beta   90.00341401
_cell_angle_gamma   89.98259817
_symmetry_Int_Tables_number   1
_chemical_formula_structural   Ca2Al2SiO7
_chemical_formula_sum   'Ca48 Al48 Si24 O168'
_cell_volume   3651.64093513
_cell_formula_units_Z   24
loop_
 _symmetry_equiv_pos_site_id
 _symmetry_equiv_pos_as_xyz
  1  'x, y, z'
loop_
 _atom_type_symbol
 _atom_type_oxidation_number
  Ca2+  2.0
  Al0+  0.0
  Si0+  0.0
  O2-  -2.0
loop_
 _atom_site_type_symbol
 _atom_site_label
 _atom_site_symmetry_multiplicity
 _atom_site_fract_x
 _atom_site_fract_y
 _atom_site_fract_z
 _atom_site_occupancy
  Ca2+  Ca0  1  0.16183649  0.07446286  0.16902926  1
  Ca2+  Ca1  1  0.15994125  0.08247867  0.49965662  1
  Ca2+  Ca2  1  0.16920444  0.08444664  0.84423693  1
  Ca2+  Ca3  1  0.16364016  0.58651124  0.16773165  1
  Ca2+  Ca4  1  0.17161875  0.58269526  0.50387655  1
  Ca2+  Ca5  1  0.16422680  0.58253846  0.84284057  1
  Ca2+  Ca6  1  0.67322445  0.08100275  0.16808825  1
  Ca2+  Ca7  1  0.66450089  0.06729280  0.50495782  1
  Ca2+  Ca8  1  0.66937327  0.08041667  0.84209661  1
  Ca2+  Ca9  1  0.67800194  0.58191910  0.17588930  1
  Ca2+  Ca10  1  0.66669779  0.58182047  0.50296486  1
  Ca2+  Ca11  1  0.66911679  0.57707776  0.83603014  1
  Ca2+  Ca12  1  0.07689264  0.32160067  0.15838764  1
  Ca2+  Ca13  1  0.07828687  0.32152944  0.49726977  1
  Ca2+  Ca14  1  0.06947959  0.32375697  0.82910450  1
  Ca2+  Ca15  1  0.07557208  0.83377334  0.15901260  1
  Ca2+  Ca16  1  0.07492735  0.83601857  0.48963025  1
  Ca2+  Ca17  1  0.07828088  0.83725321  0.83920037  1
  Ca2+  Ca18  1  0.58696110  0.32901241  0.16268467  1
  Ca2+  Ca19  1  0.58262386  0.34264001  0.49863715  1
  Ca2+  Ca20  1  0.58374194  0.32644076  0.82783331  1
  Ca2+  Ca21  1  0.57668261  0.83774730  0.16549843  1
  Ca2+  Ca22  1  0.58706862  0.82561712  0.48951666  1
  Ca2+  Ca23  1  0.58126603  0.83073953  0.82846871  1
  Ca2+  Ca24  1  0.33007517  0.41814923  0.17052081  1
  Ca2+  Ca25  1  0.33549572  0.41670429  0.50716797  1
  Ca2+  Ca26  1  0.33451452  0.41571906  0.83517860  1
  Ca2+  Ca27  1  0.32529253  0.91312570  0.16758937  1
  Ca2+  Ca28  1  0.32826374  0.91283962  0.49907741  1
  Ca2+  Ca29  1  0.32726893  0.92314830  0.84767473  1
  Ca2+  Ca30  1  0.83554767  0.42706393  0.17155530  1
  Ca2+  Ca31  1  0.82421277  0.42092026  0.50468996  1
  Ca2+  Ca32  1  0.83491496  0.41558517  0.84103644  1
  Ca2+  Ca33  1  0.83796237  0.91933347  0.17150167  1
  Ca2+  Ca34  1  0.82256315  0.90898236  0.49992962  1
  Ca2+  Ca35  1  0.82802000  0.92064115  0.84066799  1
  Ca2+  Ca36  1  0.42520678  0.15947941  0.15941486  1
  Ca2+  Ca37  1  0.41659037  0.17396838  0.49945112  1
  Ca2+  Ca38  1  0.42029589  0.16675572  0.83373748  1
  Ca2+  Ca39  1  0.42257462  0.67899878  0.16490171  1
  Ca2+  Ca40  1  0.43238793  0.67151030  0.49242863  1
  Ca2+  Ca41  1  0.42177048  0.67574440  0.82946633  1
  Ca2+  Ca42  1  0.92402976  0.16722885  0.15564492  1
  Ca2+  Ca43  1  0.92323906  0.16850592  0.49736394  1
  Ca2+  Ca44  1  0.92102356  0.16908539  0.83159491  1
  Ca2+  Ca45  1  0.91267253  0.67531626  0.15969701  1
  Ca2+  Ca46  1  0.91290623  0.67185180  0.49247153  1
  Ca2+  Ca47  1  0.91599706  0.66747986  0.83933160  1
  Al0+  Al48  1  -0.00111676  -0.00130629  -0.00131206  1
  Al0+  Al49  1  0.00223723  0.00016229  0.33149629  1
  Al0+  Al50  1  -0.00016308  -0.00152197  0.66313581  1
  Al0+  Al51  1  -0.00056417  0.50020656  -0.00143854  1
  Al0+  Al52  1  0.00103304  0.49883603  0.34066448  1
  Al0+  Al53  1  0.00091706  0.49968855  0.66248861  1
  Al0+  Al54  1  0.49868087  0.00035677  -0.00571166  1
  Al0+  Al55  1  0.49868823  0.00238566  0.33591220  1
  Al0+  Al56  1  0.49688286  -0.00031491  0.67073992  1
  Al0+  Al57  1  0.49901128  0.50043602  0.00232692  1
  Al0+  Al58  1  0.49961696  0.50096801  0.33011605  1
  Al0+  Al59  1  0.50161857  0.50166273  0.66545479  1
  Al0+  Al60  1  0.25182945  0.25092303  0.00239989  1
  Al0+  Al61  1  0.25028790  0.24916674  0.32961339  1
  Al0+  Al62  1  0.25034541  0.24990945  0.65974099  1
  Al0+  Al63  1  0.25127508  0.74960417  -0.00393525  1
  Al0+  Al64  1  0.25065593  0.75044337  0.33689006  1
  Al0+  Al65  1  0.24993105  0.75062701  0.66816985  1
  Al0+  Al66  1  0.74758805  0.24751550  -0.00316145  1
  Al0+  Al67  1  0.75019094  0.25238511  0.33838476  1
  Al0+  Al68  1  0.75024143  0.24943057  0.66471852  1
  Al0+  Al69  1  0.74876062  0.74718552  -0.00077911  1
  Al0+  Al70  1  0.75153333  0.75022332  0.33141322  1
  Al0+  Al71  1  0.75021261  0.74919798  0.66985101  1
  Al0+  Al72  1  0.67777300  0.42911038  0.34874891  1
  Al0+  Al73  1  0.07089870  0.67942078  0.98648372  1
  Al0+  Al74  1  0.92803191  0.32099034  0.98720102  1
  Al0+  Al75  1  0.82074475  0.56929742  0.01356318  1
  Al0+  Al76  1  0.07035690  0.18003037  0.31632329  1
  Al0+  Al77  1  0.92589445  0.32303351  0.64847907  1
  Al0+  Al78  1  0.32235659  0.07297863  0.01561325  1
  Al0+  Al79  1  0.07048496  0.17791816  0.65035272  1
  Al0+  Al80  1  0.92982384  0.81933467  0.32050473  1
  Al0+  Al81  1  0.82233638  0.57244689  0.34989984  1
  Al0+  Al82  1  0.07225575  0.17743250  0.98580452  1
  Al0+  Al83  1  0.57253243  0.67870311  0.31594452  1
  Al0+  Al84  1  0.67871830  0.93178499  0.34431595  1
  Al0+  Al85  1  0.42811281  0.82338031  0.31888131  1
  Al0+  Al86  1  0.92577869  0.82199301  0.98399116  1
  Al0+  Al87  1  0.67811940  0.92760084  0.68147366  1
  Al0+  Al88  1  0.17901388  0.92846712  0.01498846  1
  Al0+  Al89  1  0.43193073  0.31996937  0.65410834  1
  Al0+  Al90  1  0.67915147  0.42930938  0.68227546  1
  Al0+  Al91  1  0.82009221  0.07031754  0.01214840  1
  Al0+  Al92  1  0.17957961  0.92937550  0.34792583  1
  Al0+  Al93  1  0.43017609  0.82046039  0.98524082  1
  Al0+  Al94  1  0.57075607  0.68185939  0.65374748  1
  Al0+  Al95  1  0.56999359  0.17939941  0.98729461  1
  Si0+  Si96  1  0.32066205  0.57091755  0.68218466  1
  Si0+  Si97  1  0.42897713  0.32163478  0.31770640  1
  Si0+  Si98  1  0.67623494  0.42694558  0.01587811  1
  Si0+  Si99  1  0.07339358  0.67570926  0.32031565  1
  Si0+  Si100  1  0.31879352  0.07274708  0.68158224  1
  Si0+  Si101  1  0.42790415  0.32506526  0.98474986  1
  Si0+  Si102  1  0.57165621  0.67596228  0.98253372  1
  Si0+  Si103  1  0.92746740  0.32262267  0.31707548  1
  Si0+  Si104  1  0.32036742  0.57075125  0.34901702  1
  Si0+  Si105  1  0.57173428  0.17944855  0.32117902  1
  Si0+  Si106  1  0.07390803  0.67841228  0.65095305  1
  Si0+  Si107  1  0.18091773  0.42652337  0.34963826  1
  Si0+  Si108  1  0.32232335  0.57165099  0.01562364  1
  Si0+  Si109  1  0.32211687  0.07386384  0.35265209  1
  Si0+  Si110  1  0.82459710  0.57159650  0.68563028  1
  Si0+  Si111  1  0.93056480  0.81904760  0.65161899  1
  Si0+  Si112  1  0.67727556  0.92688898  0.01533594  1
  Si0+  Si113  1  0.82230915  0.07004691  0.68181667  1
  Si0+  Si114  1  0.57234631  0.17520414  0.64915543  1
  Si0+  Si115  1  0.17794759  0.92846896  0.68215944  1
  Si0+  Si116  1  0.82388648  0.07305864  0.35002273  1
  Si0+  Si117  1  0.17944835  0.42995564  0.01453720  1
  Si0+  Si118  1  0.17992082  0.42885061  0.68126372  1
  Si0+  Si119  1  0.42624106  0.82335614  0.64938210  1
  O2-  O120  1  0.24819877  0.00345547  0.06537795  1
  O2-  O121  1  0.25424140  0.00395923  0.39634106  1
  O2-  O122  1  0.24883785  0.00014075  0.72245188  1
  O2-  O123  1  0.25061314  0.50107659  0.05765389  1
  O2-  O124  1  0.25025108  0.49914518  0.39267263  1
  O2-  O125  1  0.24830287  0.50171574  0.72539378  1
  O2-  O126  1  0.74938391  -0.00818725  0.05948001  1
  O2-  O127  1  0.75387438  0.00519990  0.39385007  1
  O2-  O128  1  0.74953257  0.00586424  0.72659612  1
  O2-  O129  1  0.74591142  0.49422203  0.05940266  1
  O2-  O130  1  0.74865440  0.50174144  0.39929596  1
  O2-  O131  1  0.75904853  0.49882428  0.72849877  1
  O2-  O132  1  -0.00677059  0.25258110  0.27151738  1
  O2-  O133  1  -0.00296830  0.24878429  0.60043953  1
  O2-  O134  1  -0.00203605  0.24716607  0.93657476  1
  O2-  O135  1  0.00340265  0.74204636  0.27672678  1
  O2-  O136  1  0.00188016  0.74782230  0.60923611  1
  O2-  O137  1  -0.00017006  0.75099477  0.93434030  1
  O2-  O138  1  0.50290271  0.25302676  0.27852682  1
  O2-  O139  1  0.50762525  0.24785532  0.60448521  1
  O2-  O140  1  0.49575801  0.25567263  0.94189808  1
  O2-  O141  1  0.50277745  0.75439408  0.26844932  1
  O2-  O142  1  0.49947358  0.75991580  0.60614053  1
  O2-  O143  1  0.50583185  0.74706645  0.93799954  1
  O2-  O144  1  0.07163995  0.18099434  0.09940962  1
  O2-  O145  1  0.07076321  0.18244111  0.42960627  1
  O2-  O146  1  0.07240621  0.17900773  0.76337687  1
  O2-  O147  1  0.07075669  0.67843515  0.10006159  1
  O2-  O148  1  0.07512220  0.67742791  0.42652704  1
  O2-  O149  1  0.07711871  0.67803951  0.75540347  1
  O2-  O150  1  0.57040660  0.18098629  0.10100169  1
  O2-  O151  1  0.56832730  0.17788761  0.42624465  1
  O2-  O152  1  0.56908056  0.17450780  0.75458951  1
  O2-  O153  1  0.56908014  0.67361111  0.08761497  1
  O2-  O154  1  0.56962582  0.67807664  0.43000990  1
  O2-  O155  1  0.56658433  0.68183324  0.76692960  1
  O2-  O156  1  0.18258978  0.42687234  0.24446414  1
  O2-  O157  1  0.18295785  0.43104523  0.57581915  1
  O2-  O158  1  0.18209410  0.43063348  0.90923002  1
  O2-  O159  1  0.17925381  0.92819030  0.23587059  1
  O2-  O160  1  0.17882266  0.92593018  0.57696997  1
  O2-  O161  1  0.18233297  0.92844883  0.90052669  1
  O2-  O162  1  0.67907770  0.42638082  0.23516466  1
  O2-  O163  1  0.67640151  0.43537362  0.56971108  1
  O2-  O164  1  0.67273329  0.42936585  0.91024316  1
  O2-  O165  1  0.67643056  0.93649739  0.23169912  1
  O2-  O166  1  0.68011782  0.92657852  0.56807492  1
  O2-  O167  1  0.67764812  0.92923574  0.90922575  1
  O2-  O168  1  0.42910761  0.32944970  0.09038572  1
  O2-  O169  1  0.42615982  0.32161896  0.42291612  1
  O2-  O170  1  0.43000448  0.31787310  0.76689447  1
  O2-  O171  1  0.43021718  0.81872997  0.09808359  1
  O2-  O172  1  0.42777948  0.81921627  0.43293079  1
  O2-  O173  1  0.42307850  0.82031770  0.75480205  1
  O2-  O174  1  0.93142094  0.32223773  0.10095691  1
  O2-  O175  1  0.92989602  0.32164448  0.42257841  1
  O2-  O176  1  0.92943099  0.32416792  0.76180215  1
  O2-  O177  1  0.92559896  0.82034021  0.09734010  1
  O2-  O178  1  0.93126741  0.81891536  0.43461065  1
  O2-  O179  1  0.93179200  0.82034966  0.75621881  1
  O2-  O180  1  0.32336780  0.07709016  0.24782663  1
  O2-  O181  1  0.32024651  0.07290484  0.57639415  1
  O2-  O182  1  0.32172254  0.07225368  0.90126221  1
  O2-  O183  1  0.31863741  0.56927598  0.24383798  1
  O2-  O184  1  0.31800428  0.57056720  0.57686148  1
  O2-  O185  1  0.32442633  0.56880796  0.91025687  1
  O2-  O186  1  0.82234216  0.07386554  0.24444162  1
  O2-  O187  1  0.82334158  0.06594462  0.57597013  1
  O2-  O188  1  0.81637249  0.07117008  0.89877305  1
  O2-  O189  1  0.82445056  0.56936692  0.23642930  1
  O2-  O190  1  0.82381717  0.57439567  0.58023164  1
  O2-  O191  1  0.81879746  0.56806929  0.90020551  1
  O2-  O192  1  0.04186433  0.08283359  0.26466529  1
  O2-  O193  1  0.04241253  0.07889490  0.59681607  1
  O2-  O194  1  0.04706366  0.07888844  0.93345158  1
  O2-  O195  1  0.05258948  0.57954263  0.27734064  1
  O2-  O196  1  0.05044836  0.58594734  0.60273396  1
  O2-  O197  1  0.04237380  0.58165251  0.93144778  1
  O2-  O198  1  0.54081999  0.08998792  0.27194357  1
  O2-  O199  1  0.53975478  0.08298397  0.60308806  1
  O2-  O200  1  0.53844506  0.08534529  0.92918247  1
  O2-  O201  1  0.53880407  0.58190457  0.26231387  1
  O2-  O202  1  0.53473318  0.58771603  0.59885689  1
  O2-  O203  1  0.54121876  0.58323687  0.93622663  1
  O2-  O204  1  0.16687531  0.21326383  0.26373024  1
  O2-  O205  1  0.16723694  0.20948418  0.59506199  1
  O2-  O206  1  0.17124260  0.20939496  0.93546403  1
  O2-  O207  1  0.16714127  0.70087486  0.27519538  1
  O2-  O208  1  0.16586675  0.70705344  0.60287221  1
  O2-  O209  1  0.16978653  0.70348813  0.93174758  1
  O2-  O210  1  0.66483915  0.20530701  0.27524093  1
  O2-  O211  1  0.66748516  0.19380146  0.60492639  1
  O2-  O212  1  0.66403755  0.20922842  0.92858472  1
  O2-  O213  1  0.67124430  0.70449598  0.26501104  1
  O2-  O214  1  0.66905810  0.70913744  0.60150510  1
  O2-  O215  1  0.66524480  0.69809345  0.93596633  1
  O2-  O216  1  0.08895124  0.45877150  0.06295020  1
  O2-  O217  1  0.08973303  0.45158020  0.39947460  1
  O2-  O218  1  0.08741382  0.45604836  0.72716533  1
  O2-  O219  1  0.07881887  0.95189470  0.06528507  1
  O2-  O220  1  0.08372617  0.96242000  0.40352876  1
  O2-  O221  1  0.08519137  0.95485610  0.72773091  1
  O2-  O222  1  0.58259069  0.45295476  0.06308264  1
  O2-  O223  1  0.57683084  0.45591538  0.39865163  1
  O2-  O224  1  0.58313260  0.46401808  0.73640411  1
  O2-  O225  1  0.58478277  0.95792238  0.05924749  1
  O2-  O226  1  0.58299584  0.96306469  0.40160618  1
  O2-  O227  1  0.57926633  0.95490465  0.73362901  1
  O2-  O228  1  0.20902063  0.34001770  0.06475817  1
  O2-  O229  1  0.21338376  0.33627373  0.39744746  1
  O2-  O230  1  0.21181503  0.33768920  0.72668667  1
  O2-  O231  1  0.21139754  0.82975912  0.06549726  1
  O2-  O232  1  0.20936625  0.83259771  0.40460518  1
  O2-  O233  1  0.20599967  0.83650544  0.72965209  1
  O2-  O234  1  0.69891657  0.33218964  0.05964235  1
  O2-  O235  1  0.70368827  0.33065040  0.40464136  1
  O2-  O236  1  0.70222553  0.32827088  0.73171703  1
  O2-  O237  1  0.69620624  0.83099756  0.05834501  1
  O2-  O238  1  0.71029661  0.83510913  0.39756189  1
  O2-  O239  1  0.71171533  0.83276964  0.73694729  1
  O2-  O240  1  0.45243286  0.41371338  0.26912755  1
  O2-  O241  1  0.45920736  0.41752837  0.59992151  1
  O2-  O242  1  0.45283640  0.41851424  0.93701603  1
  O2-  O243  1  0.45224491  0.92401029  0.26925096  1
  O2-  O244  1  0.44493349  0.91967385  0.60671180  1
  O2-  O245  1  0.45873262  0.91599524  0.92874620  1
  O2-  O246  1  0.95796293  0.41625433  0.27372003  1
  O2-  O247  1  0.95794469  0.42075390  0.59520676  1
  O2-  O248  1  0.96038081  0.41703272  0.93228875  1
  O2-  O249  1  0.96213995  0.91539496  0.26785888  1
  O2-  O250  1  0.95860675  0.90952745  0.60204613  1
  O2-  O251  1  0.95351752  0.91938634  0.92907179  1
  O2-  O252  1  0.33852187  0.29232424  0.26871128  1
  O2-  O253  1  0.33685991  0.28881110  0.59615962  1
  O2-  O254  1  0.33417021  0.30135823  0.93863468  1
  O2-  O255  1  0.33076547  0.78877216  0.26733294  1
  O2-  O256  1  0.33375454  0.79228193  0.60297902  1
  O2-  O257  1  0.33614085  0.78602576  0.92869381  1
  O2-  O258  1  0.83183065  0.30138741  0.27387061  1
  O2-  O259  1  0.82692690  0.29619568  0.59579031  1
  O2-  O260  1  0.82915857  0.29533415  0.93496449  1
  O2-  O261  1  0.83398603  0.79275948  0.26486000  1
  O2-  O262  1  0.83860107  0.78980843  0.60563667  1
  O2-  O263  1  0.82797029  0.79063565  0.93035066  1
  O2-  O264  1  0.42072701  0.04081739  0.06669303  1
  O2-  O265  1  0.41514567  0.05034132  0.40131210  1
  O2-  O266  1  0.41058225  0.04708072  0.73046551  1
  O2-  O267  1  0.41250545  0.54228045  0.06613897  1
  O2-  O268  1  0.41176384  0.54122993  0.39587018  1
  O2-  O269  1  0.41109954  0.54131631  0.72995735  1
  O2-  O270  1  0.91714385  0.04305888  0.06612240  1
  O2-  O271  1  0.91677995  0.04566348  0.39578935  1
  O2-  O272  1  0.91466589  0.03912839  0.72799718  1
  O2-  O273  1  0.91790159  0.54000671  0.06737850  1
  O2-  O274  1  0.92099817  0.54457695  0.40516205  1
  O2-  O275  1  0.92108876  0.54982012  0.72820678  1
  O2-  O276  1  0.30296361  0.17425824  0.06754410  1
  O2-  O277  1  0.29340024  0.16752627  0.39880677  1
  O2-  O278  1  0.29017623  0.16483811  0.72777830  1
  O2-  O279  1  0.29423489  0.66259182  0.06287291  1
  O2-  O280  1  0.29244360  0.66071743  0.39993217  1
  O2-  O281  1  0.29299310  0.66319775  0.72968675  1
  O2-  O282  1  0.78542523  0.16554333  0.06754385  1
  O2-  O283  1  0.79956045  0.16673787  0.39668842  1
  O2-  O284  1  0.80236383  0.16591291  0.72482914  1
  O2-  O285  1  0.78905605  0.66586700  0.06739910  1
  O2-  O286  1  0.79506809  0.67133127  0.40213486  1
  O2-  O287  1  0.79543330  0.66363892  0.73273836  1
