# generated using pymatgen
data_Ca2Al2SiO7
_symmetry_space_group_name_H-M   'P 1'
_cell_length_a   15.46257226
_cell_length_b   15.46061360
_cell_length_c   15.28576546
_cell_angle_alpha   90.00093438
_cell_angle_beta   90.00592045
_cell_angle_gamma   89.98167520
_symmetry_Int_Tables_number   1
_chemical_formula_structural   Ca2Al2SiO7
_chemical_formula_sum   'Ca48 Al48 Si24 O168'
_cell_volume   3654.22795420
_cell_formula_units_Z   24
loop_
 _symmetry_equiv_pos_site_id
 _symmetry_equiv_pos_as_xyz
  1  'x, y, z'
loop_
 _atom_type_symbol
 _atom_type_oxidation_number
  Ca2+  2.0
  Al0+  0.0
  Si0+  0.0
  O2-  -2.0
loop_
 _atom_site_type_symbol
 _atom_site_label
 _atom_site_symmetry_multiplicity
 _atom_site_fract_x
 _atom_site_fract_y
 _atom_site_fract_z
 _atom_site_occupancy
  Ca2+  Ca0  1  0.16836605  0.08476724  0.17177341  1
  Ca2+  Ca1  1  0.16954346  0.07566380  0.50478491  1
  Ca2+  Ca2  1  0.17598992  0.08804924  0.83767436  1
  Ca2+  Ca3  1  0.16722762  0.58342344  0.17555662  1
  Ca2+  Ca4  1  0.16883237  0.58442025  0.50229951  1
  Ca2+  Ca5  1  0.17186378  0.57833897  0.83739418  1
  Ca2+  Ca6  1  0.66149055  0.07302818  0.17465414  1
  Ca2+  Ca7  1  0.65419521  0.07235189  0.50040408  1
  Ca2+  Ca8  1  0.66346565  0.06936095  0.83852483  1
  Ca2+  Ca9  1  0.66384217  0.58226465  0.16486225  1
  Ca2+  Ca10  1  0.66995807  0.58657999  0.50587995  1
  Ca2+  Ca11  1  0.67330041  0.58316272  0.84250582  1
  Ca2+  Ca12  1  0.07854992  0.32170807  0.16620168  1
  Ca2+  Ca13  1  0.07200496  0.32727863  0.49279942  1
  Ca2+  Ca14  1  0.07870404  0.32670353  0.82992100  1
  Ca2+  Ca15  1  0.08025753  0.83265013  0.16362804  1
  Ca2+  Ca16  1  0.08929127  0.83077298  0.49118108  1
  Ca2+  Ca17  1  0.07652088  0.83693274  0.83080903  1
  Ca2+  Ca18  1  0.57638553  0.33053359  0.16195002  1
  Ca2+  Ca19  1  0.57159353  0.32588895  0.49026355  1
  Ca2+  Ca20  1  0.57447025  0.33935829  0.83041402  1
  Ca2+  Ca21  1  0.59322403  0.82654589  0.16399718  1
  Ca2+  Ca22  1  0.58480225  0.82776565  0.49263537  1
  Ca2+  Ca23  1  0.59574810  0.82452002  0.83023056  1
  Ca2+  Ca24  1  0.33891674  0.41450541  0.16897773  1
  Ca2+  Ca25  1  0.33629177  0.41201002  0.50264442  1
  Ca2+  Ca26  1  0.33762923  0.41187218  0.83940738  1
  Ca2+  Ca27  1  0.33078153  0.92202802  0.17623990  1
  Ca2+  Ca28  1  0.32492273  0.91684220  0.50598756  1
  Ca2+  Ca29  1  0.32967181  0.93042326  0.83709611  1
  Ca2+  Ca30  1  0.83203043  0.42036791  0.17011795  1
  Ca2+  Ca31  1  0.83785599  0.42091199  0.50814543  1
  Ca2+  Ca32  1  0.82988577  0.42693142  0.84078275  1
  Ca2+  Ca33  1  0.82593776  0.91214554  0.16751705  1
  Ca2+  Ca34  1  0.82116147  0.91782478  0.50276646  1
  Ca2+  Ca35  1  0.82456919  0.91138322  0.83947510  1
  Ca2+  Ca36  1  0.41704989  0.17252730  0.16353147  1
  Ca2+  Ca37  1  0.41546761  0.17194742  0.49690429  1
  Ca2+  Ca38  1  0.40980392  0.17273243  0.83104265  1
  Ca2+  Ca39  1  0.42685619  0.67809661  0.16640246  1
  Ca2+  Ca40  1  0.43047666  0.67436632  0.49124886  1
  Ca2+  Ca41  1  0.43424712  0.66651569  0.82823892  1
  Ca2+  Ca42  1  0.92862824  0.16133577  0.16410022  1
  Ca2+  Ca43  1  0.91801745  0.17771602  0.49105581  1
  Ca2+  Ca44  1  0.92273898  0.16964633  0.82836312  1
  Ca2+  Ca45  1  0.91824423  0.67124788  0.16203067  1
  Ca2+  Ca46  1  0.92177005  0.66664432  0.49610449  1
  Ca2+  Ca47  1  0.90614451  0.66925726  0.83310060  1
  Al0+  Al48  1  0.00066147  -0.00134753  -0.01098416  1
  Al0+  Al49  1  -0.00121960  0.00021199  0.33602440  1
  Al0+  Al50  1  -0.00168194  -0.00162706  0.66773449  1
  Al0+  Al51  1  0.00152242  0.49980151  0.00455671  1
  Al0+  Al52  1  0.00092427  0.50071774  0.32740777  1
  Al0+  Al53  1  0.00084695  0.50086969  0.66894734  1
  Al0+  Al54  1  0.49780095  0.00067472  0.00927178  1
  Al0+  Al55  1  0.49747410  0.00113938  0.33409907  1
  Al0+  Al56  1  0.49731510  -0.00122105  0.67711471  1
  Al0+  Al57  1  0.50003421  0.50114824  -0.00373342  1
  Al0+  Al58  1  0.50124368  0.50202178  0.32869380  1
  Al0+  Al59  1  0.50063463  0.50050625  0.65696641  1
  Al0+  Al60  1  0.24991757  0.24981799  -0.00280876  1
  Al0+  Al61  1  0.24730000  0.25174993  0.32931163  1
  Al0+  Al62  1  0.24864963  0.25012012  0.66491039  1
  Al0+  Al63  1  0.25056460  0.75002284  -0.00183527  1
  Al0+  Al64  1  0.25188528  0.74868507  0.33004716  1
  Al0+  Al65  1  0.25020249  0.74885565  0.67397878  1
  Al0+  Al66  1  0.74981210  0.24920128  0.00295520  1
  Al0+  Al67  1  0.74778042  0.25207713  0.32703561  1
  Al0+  Al68  1  0.74837309  0.24943823  0.66268334  1
  Al0+  Al69  1  0.75253349  0.74947226  0.00103550  1
  Al0+  Al70  1  0.75180102  0.74899633  0.33565844  1
  Al0+  Al71  1  0.75262866  0.74859702  0.66753606  1
  Al0+  Al72  1  0.92861112  0.32165884  0.65557819  1
  Al0+  Al73  1  0.93144962  0.81781559  0.98587559  1
  Al0+  Al74  1  0.07210333  0.68034712  0.32167894  1
  Al0+  Al75  1  0.67675191  0.42817332  0.01529446  1
  Al0+  Al76  1  0.56931185  0.68286989  0.98546259  1
  Al0+  Al77  1  0.43243090  0.31872157  0.98529192  1
  Al0+  Al78  1  0.42891225  0.32009076  0.65240544  1
  Al0+  Al79  1  0.42815872  0.32141498  0.31729010  1
  Al0+  Al80  1  0.17638509  0.92564924  0.68373300  1
  Al0+  Al81  1  0.82173130  0.57051526  0.01843823  1
  Al0+  Al82  1  0.42851490  0.82219228  0.32074656  1
  Al0+  Al83  1  0.92689053  0.32340534  0.31691548  1
  Al0+  Al84  1  0.82169657  0.56827328  0.67968981  1
  Al0+  Al85  1  0.67889663  0.92925428  0.34778312  1
  Al0+  Al86  1  0.68067899  0.93013885  0.01486875  1
  Al0+  Al87  1  0.31846319  0.07247507  0.68243823  1
  Al0+  Al88  1  0.17887457  0.92833287  0.34505255  1
  Al0+  Al89  1  0.57322590  0.68144443  0.65221721  1
  Al0+  Al90  1  0.31831402  0.07202004  0.01737731  1
  Al0+  Al91  1  0.68052765  0.92962869  0.68021994  1
  Al0+  Al92  1  0.06861268  0.17697495  0.31992898  1
  Al0+  Al93  1  0.57037077  0.17710154  0.31835821  1
  Al0+  Al94  1  0.07011485  0.18014000  0.98392041  1
  Al0+  Al95  1  0.57495090  0.68119198  0.31683702  1
  Si0+  Si96  1  0.57383966  0.17456668  0.98324962  1
  Si0+  Si97  1  0.67707610  0.42910112  0.34934042  1
  Si0+  Si98  1  0.17975093  0.43044379  0.68065351  1
  Si0+  Si99  1  0.07297289  0.67951451  0.65339636  1
  Si0+  Si100  1  0.82145127  0.07436674  0.34931189  1
  Si0+  Si101  1  0.32139287  0.57200692  0.01479610  1
  Si0+  Si102  1  0.42676534  0.82165246  0.65321817  1
  Si0+  Si103  1  0.07507755  0.67503036  0.98161860  1
  Si0+  Si104  1  0.92915076  0.82045639  0.65020122  1
  Si0+  Si105  1  0.82227447  0.07474421  0.68237477  1
  Si0+  Si106  1  0.17848360  0.42992302  0.34887923  1
  Si0+  Si107  1  0.67604214  0.42681597  0.67965710  1
  Si0+  Si108  1  0.18032281  0.42930568  0.01575080  1
  Si0+  Si109  1  0.92681722  0.32376011  0.98337466  1
  Si0+  Si110  1  0.42526867  0.82517607  0.98184251  1
  Si0+  Si111  1  0.17678280  0.92789298  0.01649667  1
  Si0+  Si112  1  0.32346200  0.56991492  0.68093558  1
  Si0+  Si113  1  0.31981092  0.07497710  0.35068752  1
  Si0+  Si114  1  0.82499753  0.07204225  0.01468750  1
  Si0+  Si115  1  0.32219337  0.57024003  0.34858322  1
  Si0+  Si116  1  0.92832256  0.82186158  0.31917925  1
  Si0+  Si117  1  0.82230996  0.56877486  0.34969945  1
  Si0+  Si118  1  0.07070084  0.17742099  0.64923321  1
  Si0+  Si119  1  0.57128698  0.17403659  0.65258614  1
  O2-  O120  1  0.24633235  -0.00617265  0.06236786  1
  O2-  O121  1  0.25258168  0.00345804  0.39309420  1
  O2-  O122  1  0.24506437  0.00113217  0.73242116  1
  O2-  O123  1  0.24743196  0.50423975  0.05755124  1
  O2-  O124  1  0.25237761  0.49780320  0.39193195  1
  O2-  O125  1  0.25504041  0.49649833  0.72384341  1
  O2-  O126  1  0.75222804  0.00879284  0.06018251  1
  O2-  O127  1  0.75003935  0.00831932  0.39410308  1
  O2-  O128  1  0.75317514  0.00678311  0.72681791  1
  O2-  O129  1  0.75147486  0.49652048  0.06756814  1
  O2-  O130  1  0.75100930  0.49778434  0.39182295  1
  O2-  O131  1  0.74710177  0.49262936  0.72429929  1
  O2-  O132  1  -0.00577223  0.24618900  0.26899340  1
  O2-  O133  1  -0.00193831  0.24291292  0.60702056  1
  O2-  O134  1  -0.00743809  0.25283325  0.93817526  1
  O2-  O135  1  0.00099528  0.75740768  0.27532511  1
  O2-  O136  1  0.00627034  0.75434353  0.61057948  1
  O2-  O137  1  0.00581522  0.74253230  0.93750315  1
  O2-  O138  1  0.49908088  0.24913559  0.26753925  1
  O2-  O139  1  0.50407845  0.24485793  0.60884738  1
  O2-  O140  1  0.50870573  0.24609048  0.93758661  1
  O2-  O141  1  0.50689395  0.75813068  0.26923646  1
  O2-  O142  1  0.49846510  0.75705761  0.60768606  1
  O2-  O143  1  0.49674244  0.75941968  0.93729568  1
  O2-  O144  1  0.06928401  0.18039624  0.09672754  1
  O2-  O145  1  0.06810634  0.17921814  0.43377534  1
  O2-  O146  1  0.07160193  0.18095567  0.75498275  1
  O2-  O147  1  0.07743738  0.67595150  0.08703752  1
  O2-  O148  1  0.07049931  0.67847185  0.43540686  1
  O2-  O149  1  0.07327751  0.67643629  0.75822117  1
  O2-  O150  1  0.57104005  0.17432334  0.08844521  1
  O2-  O151  1  0.56849442  0.17883913  0.43269337  1
  O2-  O152  1  0.57284072  0.17441837  0.75799837  1
  O2-  O153  1  0.56732913  0.68330120  0.09805291  1
  O2-  O154  1  0.57433710  0.68036596  0.43083022  1
  O2-  O155  1  0.57249802  0.68015146  0.76536775  1
  O2-  O156  1  0.17783774  0.43188607  0.24380203  1
  O2-  O157  1  0.17782628  0.43326236  0.57560193  1
  O2-  O158  1  0.18058535  0.43066568  0.90996147  1
  O2-  O159  1  0.17934448  0.92826332  0.23209351  1
  O2-  O160  1  0.17949803  0.92336089  0.56988026  1
  O2-  O161  1  0.17815019  0.92863231  0.91096977  1
  O2-  O162  1  0.67575488  0.43146018  0.24465981  1
  O2-  O163  1  0.67641619  0.42858101  0.57395507  1
  O2-  O164  1  0.67660372  0.43136028  0.90097777  1
  O2-  O165  1  0.68467812  0.92714998  0.23506827  1
  O2-  O166  1  0.68129782  0.92968775  0.56705347  1
  O2-  O167  1  0.68350334  0.92913364  0.90139791  1
  O2-  O168  1  0.43068193  0.31857853  0.09769099  1
  O2-  O169  1  0.42857693  0.32045472  0.43121451  1
  O2-  O170  1  0.42952381  0.32207557  0.76534931  1
  O2-  O171  1  0.42097040  0.82107859  0.08702745  1
  O2-  O172  1  0.42680797  0.81708454  0.43480126  1
  O2-  O173  1  0.42596153  0.81759920  0.75869211  1
  O2-  O174  1  0.93050966  0.32426613  0.08853194  1
  O2-  O175  1  0.93118111  0.32551555  0.43114608  1
  O2-  O176  1  0.93318332  0.32177072  0.76850511  1
  O2-  O177  1  0.93404800  0.81811702  0.09910748  1
  O2-  O178  1  0.92690958  0.81886849  0.42506324  1
  O2-  O179  1  0.92680749  0.81772651  0.75510045  1
  O2-  O180  1  0.31704601  0.07639681  0.24517905  1
  O2-  O181  1  0.31687786  0.07327841  0.56886954  1
  O2-  O182  1  0.31604095  0.07348611  0.90426541  1
  O2-  O183  1  0.31980675  0.57004361  0.24338992  1
  O2-  O184  1  0.32035753  0.57180877  0.57595198  1
  O2-  O185  1  0.32014587  0.57036595  0.90913453  1
  O2-  O186  1  0.82477657  0.07045684  0.24388592  1
  O2-  O187  1  0.82452663  0.07358137  0.57697013  1
  O2-  O188  1  0.82461208  0.07071807  0.90878974  1
  O2-  O189  1  0.82388261  0.56931142  0.24515379  1
  O2-  O190  1  0.82462180  0.56815330  0.56629070  1
  O2-  O191  1  0.82071583  0.56925015  0.90440235  1
  O2-  O192  1  0.04183495  0.07831884  0.26616418  1
  O2-  O193  1  0.04891305  0.08151436  0.60662815  1
  O2-  O194  1  0.04237649  0.08442204  0.92698845  1
  O2-  O195  1  0.04055224  0.58616722  0.26469237  1
  O2-  O196  1  0.04202995  0.58913147  0.60483342  1
  O2-  O197  1  0.05140741  0.57982935  0.93756444  1
  O2-  O198  1  0.54325080  0.07884428  0.26589830  1
  O2-  O199  1  0.54129617  0.08078506  0.60784013  1
  O2-  O200  1  0.54383688  0.08120099  0.93880258  1
  O2-  O201  1  0.54163990  0.58499115  0.26428992  1
  O2-  O202  1  0.54126906  0.58645662  0.59584981  1
  O2-  O203  1  0.53536693  0.58768013  0.93033410  1
  O2-  O204  1  0.16434598  0.21000750  0.26542839  1
  O2-  O205  1  0.16187389  0.20781679  0.60216834  1
  O2-  O206  1  0.16364939  0.21793053  0.92880666  1
  O2-  O207  1  0.16821958  0.70610060  0.26557468  1
  O2-  O208  1  0.16664577  0.70334415  0.60694545  1
  O2-  O209  1  0.16887444  0.69992826  0.93444318  1
  O2-  O210  1  0.66877470  0.20204591  0.26469798  1
  O2-  O211  1  0.66526674  0.19510472  0.60486576  1
  O2-  O212  1  0.67010405  0.19405066  0.93948281  1
  O2-  O213  1  0.67445729  0.70640631  0.26554214  1
  O2-  O214  1  0.67000490  0.71166526  0.59863060  1
  O2-  O215  1  0.66730590  0.71207795  0.93375903  1
  O2-  O216  1  0.08839801  0.45320652  0.06449071  1
  O2-  O217  1  0.08781903  0.46238840  0.39655270  1
  O2-  O218  1  0.09161570  0.46363534  0.73186775  1
  O2-  O219  1  0.08232274  0.95508334  0.05899030  1
  O2-  O220  1  0.08115764  0.95521067  0.40043961  1
  O2-  O221  1  0.07517890  0.94944510  0.73308289  1
  O2-  O222  1  0.57930956  0.46197933  0.06738291  1
  O2-  O223  1  0.58599030  0.46020245  0.39722107  1
  O2-  O224  1  0.58266774  0.45606060  0.72441081  1
  O2-  O225  1  0.58281335  0.95477818  0.06862946  1
  O2-  O226  1  0.58046034  0.95706144  0.40095810  1
  O2-  O227  1  0.58372706  0.95467886  0.73653122  1
  O2-  O228  1  0.21252979  0.33945420  0.06265082  1
  O2-  O229  1  0.20331589  0.33743861  0.39669413  1
  O2-  O230  1  0.20343191  0.33759405  0.72735336  1
  O2-  O231  1  0.19864367  0.83144848  0.05926745  1
  O2-  O232  1  0.21107131  0.83079580  0.39825502  1
  O2-  O233  1  0.20454149  0.82796405  0.73931939  1
  O2-  O234  1  0.69918382  0.32722927  0.06649060  1
  O2-  O235  1  0.70048642  0.33521216  0.39520991  1
  O2-  O236  1  0.69618269  0.33131718  0.72436447  1
  O2-  O237  1  0.71794363  0.83571843  0.06792020  1
  O2-  O238  1  0.71478746  0.83372059  0.40259861  1
  O2-  O239  1  0.71780226  0.83475560  0.73329270  1
  O2-  O240  1  0.45662907  0.41999114  0.26584411  1
  O2-  O241  1  0.45731558  0.41593881  0.59548757  1
  O2-  O242  1  0.45985574  0.41639854  0.93056153  1
  O2-  O243  1  0.44497740  0.92342696  0.27171864  1
  O2-  O244  1  0.44764205  0.91765254  0.61117291  1
  O2-  O245  1  0.44871413  0.92097593  0.94060602  1
  O2-  O246  1  0.96272339  0.41791295  0.26191248  1
  O2-  O247  1  0.96582817  0.41663871  0.60142780  1
  O2-  O248  1  0.95746958  0.41678484  0.93818434  1
  O2-  O249  1  0.94879285  0.91648083  0.27446528  1
  O2-  O250  1  0.94937584  0.91467761  0.60388957  1
  O2-  O251  1  0.96025795  0.91250676  0.92654745  1
  O2-  O252  1  0.32834486  0.29775796  0.26605298  1
  O2-  O253  1  0.33090301  0.29193784  0.59899658  1
  O2-  O254  1  0.33541844  0.28790260  0.93160779  1
  O2-  O255  1  0.33516127  0.78533955  0.26318966  1
  O2-  O256  1  0.33369036  0.79142590  0.60790369  1
  O2-  O257  1  0.33246503  0.79728195  0.93420348  1
  O2-  O258  1  0.82685818  0.30392668  0.26609463  1
  O2-  O259  1  0.83048912  0.29723340  0.60067544  1
  O2-  O260  1  0.83131925  0.30233921  0.93951450  1
  O2-  O261  1  0.83813376  0.78969626  0.27131064  1
  O2-  O262  1  0.84102655  0.78600814  0.60033336  1
  O2-  O263  1  0.83611953  0.78526409  0.93031785  1
  O2-  O264  1  0.41491092  0.04525112  0.07257370  1
  O2-  O265  1  0.41403321  0.05305530  0.39653646  1
  O2-  O266  1  0.41526129  0.04508858  0.73964949  1
  O2-  O267  1  0.41121557  0.54069819  0.06196656  1
  O2-  O268  1  0.41454881  0.54358955  0.39590089  1
  O2-  O269  1  0.41614452  0.54210543  0.72634848  1
  O2-  O270  1  0.91755144  0.03935613  0.05894441  1
  O2-  O271  1  0.91307303  0.04642721  0.39905687  1
  O2-  O272  1  0.91574365  0.04897583  0.72895360  1
  O2-  O273  1  0.92245071  0.54578394  0.06968410  1
  O2-  O274  1  0.91507654  0.54025686  0.39616199  1
  O2-  O275  1  0.91815654  0.53950098  0.73573887  1
  O2-  O276  1  0.28321963  0.16813503  0.06940298  1
  O2-  O277  1  0.29055892  0.16824247  0.39652491  1
  O2-  O278  1  0.28795962  0.17136548  0.73537806  1
  O2-  O279  1  0.29554508  0.66484108  0.06162697  1
  O2-  O280  1  0.29115901  0.66024327  0.39743175  1
  O2-  O281  1  0.29361878  0.65882990  0.73256112  1
  O2-  O282  1  0.80814749  0.16767780  0.05965856  1
  O2-  O283  1  0.79888300  0.17038280  0.39223221  1
  O2-  O284  1  0.79873667  0.16909407  0.72854073  1
  O2-  O285  1  0.79284402  0.66838595  0.07043922  1
  O2-  O286  1  0.79575795  0.66069299  0.39815066  1
  O2-  O287  1  0.79038252  0.66422994  0.73365971  1
