# generated using pymatgen
data_Ca2Al2SiO7
_symmetry_space_group_name_H-M   'P 1'
_cell_length_a   15.46190495
_cell_length_b   15.46324445
_cell_length_c   15.28559053
_cell_angle_alpha   90.01546307
_cell_angle_beta   89.99896754
_cell_angle_gamma   90.01078154
_symmetry_Int_Tables_number   1
_chemical_formula_structural   Ca2Al2SiO7
_chemical_formula_sum   'Ca48 Al48 Si24 O168'
_cell_volume   3654.65022716
_cell_formula_units_Z   24
loop_
 _symmetry_equiv_pos_site_id
 _symmetry_equiv_pos_as_xyz
  1  'x, y, z'
loop_
 _atom_type_symbol
 _atom_type_oxidation_number
  Ca2+  2.0
  Al0+  0.0
  Si0+  0.0
  O2-  -2.0
loop_
 _atom_site_type_symbol
 _atom_site_label
 _atom_site_symmetry_multiplicity
 _atom_site_fract_x
 _atom_site_fract_y
 _atom_site_fract_z
 _atom_site_occupancy
  Ca2+  Ca0  1  0.17108232  0.08777655  0.16442634  1
  Ca2+  Ca1  1  0.17399226  0.08072778  0.51287875  1
  Ca2+  Ca2  1  0.17649923  0.08616955  0.83445317  1
  Ca2+  Ca3  1  0.16188499  0.57401772  0.17011560  1
  Ca2+  Ca4  1  0.16773571  0.56916205  0.50451459  1
  Ca2+  Ca5  1  0.16345858  0.57311155  0.83657343  1
  Ca2+  Ca6  1  0.67459019  0.07787060  0.17746371  1
  Ca2+  Ca7  1  0.66765014  0.07825113  0.50401962  1
  Ca2+  Ca8  1  0.65772059  0.07783541  0.83114277  1
  Ca2+  Ca9  1  0.67506643  0.57801638  0.17847537  1
  Ca2+  Ca10  1  0.67429537  0.57409129  0.50602661  1
  Ca2+  Ca11  1  0.67006736  0.58210971  0.82916493  1
  Ca2+  Ca12  1  0.07980547  0.33478420  0.16336626  1
  Ca2+  Ca13  1  0.08318056  0.33164111  0.49643406  1
  Ca2+  Ca14  1  0.09237270  0.32508831  0.82763168  1
  Ca2+  Ca15  1  0.08048119  0.82247199  0.15818340  1
  Ca2+  Ca16  1  0.07593516  0.83870453  0.50033922  1
  Ca2+  Ca17  1  0.08078080  0.82862710  0.82231487  1
  Ca2+  Ca18  1  0.57840944  0.33940969  0.16690367  1
  Ca2+  Ca19  1  0.57771495  0.33776975  0.49528370  1
  Ca2+  Ca20  1  0.57616744  0.32521299  0.81732436  1
  Ca2+  Ca21  1  0.57578841  0.83997365  0.16686766  1
  Ca2+  Ca22  1  0.57563448  0.84314541  0.49712473  1
  Ca2+  Ca23  1  0.57366377  0.83687167  0.82372122  1
  Ca2+  Ca24  1  0.32058780  0.41244733  0.17341088  1
  Ca2+  Ca25  1  0.32666264  0.40514445  0.50559817  1
  Ca2+  Ca26  1  0.32290072  0.40733727  0.83397001  1
  Ca2+  Ca27  1  0.33945157  0.92046117  0.16859692  1
  Ca2+  Ca28  1  0.33106671  0.92022248  0.51107931  1
  Ca2+  Ca29  1  0.33970190  0.92744141  0.83437567  1
  Ca2+  Ca30  1  0.82992439  0.42093559  0.18194538  1
  Ca2+  Ca31  1  0.82908878  0.42246960  0.50392822  1
  Ca2+  Ca32  1  0.82901723  0.41676583  0.82989064  1
  Ca2+  Ca33  1  0.82706742  0.92459363  0.17890687  1
  Ca2+  Ca34  1  0.82271155  0.91707720  0.50782202  1
  Ca2+  Ca35  1  0.83044542  0.91211203  0.82921464  1
  Ca2+  Ca36  1  0.41459176  0.17091522  0.16622837  1
  Ca2+  Ca37  1  0.42031929  0.17385196  0.50426181  1
  Ca2+  Ca38  1  0.41643215  0.16721484  0.82211902  1
  Ca2+  Ca39  1  0.41592426  0.67998989  0.16268774  1
  Ca2+  Ca40  1  0.41404034  0.67989837  0.49498609  1
  Ca2+  Ca41  1  0.41291783  0.68033432  0.82714770  1
  Ca2+  Ca42  1  0.91943193  0.17173001  0.16441216  1
  Ca2+  Ca43  1  0.92359453  0.16762203  0.49342874  1
  Ca2+  Ca44  1  0.93332720  0.16442549  0.82581027  1
  Ca2+  Ca45  1  0.92047609  0.66245830  0.16348056  1
  Ca2+  Ca46  1  0.90929962  0.66525575  0.50122999  1
  Ca2+  Ca47  1  0.92134286  0.66796248  0.82606912  1
  Al0+  Al48  1  -0.00023898  0.00117207  -0.00244427  1
  Al0+  Al49  1  0.00199546  -0.00110677  0.33163976  1
  Al0+  Al50  1  0.00020063  -0.00254050  0.66093119  1
  Al0+  Al51  1  -0.00238461  0.50030931  -0.00110104  1
  Al0+  Al52  1  0.00148987  0.49817483  0.33779701  1
  Al0+  Al53  1  0.00112369  0.49949955  0.67535215  1
  Al0+  Al54  1  0.49948423  0.00165259  0.00327283  1
  Al0+  Al55  1  0.49926234  0.00206943  0.33126547  1
  Al0+  Al56  1  0.50063603  0.00133900  0.66542607  1
  Al0+  Al57  1  0.49886700  0.50208884  -0.00029577  1
  Al0+  Al58  1  0.49804918  0.50316533  0.32915779  1
  Al0+  Al59  1  0.49952790  0.50152344  0.66735752  1
  Al0+  Al60  1  0.24920274  0.24941488  0.00686464  1
  Al0+  Al61  1  0.25159680  0.24824178  0.33261359  1
  Al0+  Al62  1  0.25090821  0.24781007  0.66595086  1
  Al0+  Al63  1  0.24907731  0.75031827  -0.00930004  1
  Al0+  Al64  1  0.24953649  0.75007446  0.32721608  1
  Al0+  Al65  1  0.24786407  0.74727253  0.66392790  1
  Al0+  Al66  1  0.74884209  0.24962591  0.00016888  1
  Al0+  Al67  1  0.75165999  0.24944082  0.33595608  1
  Al0+  Al68  1  0.75244970  0.24904964  0.66818234  1
  Al0+  Al69  1  0.74813600  0.74912209  0.00246934  1
  Al0+  Al70  1  0.74887424  0.75057341  0.33833499  1
  Al0+  Al71  1  0.75093416  0.75047120  0.67228876  1
  Al0+  Al72  1  0.67822276  0.93087294  0.34893051  1
  Al0+  Al73  1  0.06934839  0.67768157  0.98530910  1
  Al0+  Al74  1  0.82303103  0.57101659  0.34862374  1
  Al0+  Al75  1  0.18164246  0.42832406  0.34765685  1
  Al0+  Al76  1  0.42889184  0.82256561  0.31832940  1
  Al0+  Al77  1  0.67663794  0.42637487  0.68239480  1
  Al0+  Al78  1  0.17639658  0.92621510  0.68049673  1
  Al0+  Al79  1  0.42873451  0.32249091  0.31785940  1
  Al0+  Al80  1  0.92910155  0.81882118  0.65204630  1
  Al0+  Al81  1  0.07093966  0.18068906  0.98608969  1
  Al0+  Al82  1  0.43126527  0.82242246  0.98452988  1
  Al0+  Al83  1  0.18223896  0.42860503  0.68050511  1
  Al0+  Al84  1  0.57429726  0.17822446  0.65140374  1
  Al0+  Al85  1  0.32006645  0.06827847  0.68070921  1
  Al0+  Al86  1  0.67968993  0.93172901  0.68166860  1
  Al0+  Al87  1  0.07134773  0.17925794  0.65234773  1
  Al0+  Al88  1  0.82482628  0.07204990  0.34880797  1
  Al0+  Al89  1  0.42883206  0.82004794  0.65240074  1
  Al0+  Al90  1  0.17974874  0.43068394  0.01504516  1
  Al0+  Al91  1  0.42977394  0.32253343  0.65331610  1
  Al0+  Al92  1  0.67538648  0.42845678  0.34715291  1
  Al0+  Al93  1  0.82035407  0.57044989  0.68500117  1
  Al0+  Al94  1  0.93036603  0.32015091  0.32178573  1
  Al0+  Al95  1  0.32079671  0.06945767  0.01658043  1
  Si0+  Si96  1  0.92627997  0.82206235  0.98497818  1
  Si0+  Si97  1  0.92944495  0.32328988  0.65105595  1
  Si0+  Si98  1  0.07107143  0.67447076  0.64758032  1
  Si0+  Si99  1  0.57321146  0.67876589  0.64981890  1
  Si0+  Si100  1  0.82301206  0.07162784  0.01426914  1
  Si0+  Si101  1  0.57182312  0.17940221  0.31566473  1
  Si0+  Si102  1  0.92739678  0.82108230  0.31825341  1
  Si0+  Si103  1  0.67732605  0.42749893  0.01478296  1
  Si0+  Si104  1  0.32255655  0.57538075  0.01664824  1
  Si0+  Si105  1  0.31966245  0.06993398  0.34875205  1
  Si0+  Si106  1  0.17988578  0.92566922  0.34544344  1
  Si0+  Si107  1  0.32040230  0.57502780  0.34768554  1
  Si0+  Si108  1  0.06985197  0.67913703  0.31921569  1
  Si0+  Si109  1  0.57318972  0.67738423  0.98230364  1
  Si0+  Si110  1  0.57167740  0.18084105  0.98691113  1
  Si0+  Si111  1  0.67963180  0.93005438  0.01532883  1
  Si0+  Si112  1  0.07345396  0.17593632  0.31511279  1
  Si0+  Si113  1  0.57278111  0.67917950  0.31625907  1
  Si0+  Si114  1  0.32300061  0.57445311  0.68288683  1
  Si0+  Si115  1  0.42888502  0.32128286  0.98723366  1
  Si0+  Si116  1  0.17612282  0.92664685  0.01594741  1
  Si0+  Si117  1  0.92549700  0.32200341  0.98253707  1
  Si0+  Si118  1  0.82504864  0.07213082  0.68424702  1
  Si0+  Si119  1  0.81841344  0.57025279  0.01608678  1
  O2-  O120  1  0.24612179  -0.00683949  0.06237002  1
  O2-  O121  1  0.24859745  -0.00193467  0.38784895  1
  O2-  O122  1  0.24945402  -0.00450162  0.73234481  1
  O2-  O123  1  0.25395182  0.50678535  0.06159701  1
  O2-  O124  1  0.25985676  0.50004565  0.39293634  1
  O2-  O125  1  0.25878216  0.50153076  0.72709495  1
  O2-  O126  1  0.75390328  -0.00174479  0.05613079  1
  O2-  O127  1  0.75294888  0.00004715  0.39823431  1
  O2-  O128  1  0.75265545  0.00774165  0.73018179  1
  O2-  O129  1  0.74817917  0.49837311  0.05753514  1
  O2-  O130  1  0.74945593  0.49909807  0.39532360  1
  O2-  O131  1  0.74835324  0.49783387  0.73467016  1
  O2-  O132  1  0.00291354  0.24395472  0.27269811  1
  O2-  O133  1  -0.00441521  0.25273967  0.60627019  1
  O2-  O134  1  -0.00403105  0.25508993  0.93902191  1
  O2-  O135  1  -0.00315798  0.74851587  0.27603540  1
  O2-  O136  1  0.00422512  0.74505139  0.60362125  1
  O2-  O137  1  -0.00300722  0.75577290  0.94097149  1
  O2-  O138  1  0.50748744  0.25204381  0.26989305  1
  O2-  O139  1  0.50834683  0.25712572  0.60368240  1
  O2-  O140  1  0.50313511  0.25409942  0.94568581  1
  O2-  O141  1  0.50508103  0.74915629  0.27160010  1
  O2-  O142  1  0.50292396  0.74528420  0.60469922  1
  O2-  O143  1  0.50404206  0.74542737  0.93850043  1
  O2-  O144  1  0.06810435  0.18100987  0.09934525  1
  O2-  O145  1  0.07499792  0.17477842  0.42030235  1
  O2-  O146  1  0.07184718  0.18135962  0.76587331  1
  O2-  O147  1  0.06565488  0.67748271  0.09932025  1
  O2-  O148  1  0.07300198  0.68203133  0.42357605  1
  O2-  O149  1  0.06907153  0.67445257  0.75346540  1
  O2-  O150  1  0.57424591  0.18167062  0.09199884  1
  O2-  O151  1  0.56776048  0.17589391  0.42036857  1
  O2-  O152  1  0.56951103  0.17734147  0.76619569  1
  O2-  O153  1  0.57545413  0.67755479  0.08779228  1
  O2-  O154  1  0.57117608  0.67784594  0.42122736  1
  O2-  O155  1  0.57171283  0.68138412  0.75609618  1
  O2-  O156  1  0.17962476  0.43131080  0.23416635  1
  O2-  O157  1  0.18159138  0.43007400  0.56735260  1
  O2-  O158  1  0.18271137  0.42945976  0.90227647  1
  O2-  O159  1  0.17965229  0.92405354  0.24000660  1
  O2-  O160  1  0.17837632  0.92903402  0.56603335  1
  O2-  O161  1  0.17439211  0.92818736  0.91123630  1
  O2-  O162  1  0.67761847  0.43205842  0.23222245  1
  O2-  O163  1  0.67702503  0.42932149  0.56934066  1
  O2-  O164  1  0.67777641  0.42628441  0.91036445  1
  O2-  O165  1  0.68015002  0.93266326  0.23401939  1
  O2-  O166  1  0.67986733  0.93182019  0.56916084  1
  O2-  O167  1  0.67864119  0.93039603  0.91056761  1
  O2-  O168  1  0.43043704  0.32051374  0.09259502  1
  O2-  O169  1  0.42574333  0.31822215  0.42992834  1
  O2-  O170  1  0.42782720  0.31855747  0.76779873  1
  O2-  O171  1  0.43440098  0.82230583  0.09803263  1
  O2-  O172  1  0.42615375  0.82147986  0.43082282  1
  O2-  O173  1  0.43148224  0.81985180  0.76575044  1
  O2-  O174  1  0.92333590  0.32087237  0.08833920  1
  O2-  O175  1  0.93486605  0.32141941  0.43431831  1
  O2-  O176  1  0.93087284  0.32187368  0.75725453  1
  O2-  O177  1  0.92562530  0.82067906  0.09108761  1
  O2-  O178  1  0.92916149  0.82303259  0.42264689  1
  O2-  O179  1  0.92965271  0.81682319  0.76575713  1
  O2-  O180  1  0.31903719  0.07026538  0.24301091  1
  O2-  O181  1  0.31916726  0.06832640  0.56684017  1
  O2-  O182  1  0.32352008  0.07060128  0.90449221  1
  O2-  O183  1  0.31475673  0.57848071  0.24194160  1
  O2-  O184  1  0.31976326  0.57849365  0.57731661  1
  O2-  O185  1  0.32456526  0.57382385  0.91144926  1
  O2-  O186  1  0.82420600  0.06871214  0.23379135  1
  O2-  O187  1  0.82646997  0.06873135  0.57899514  1
  O2-  O188  1  0.82307568  0.07272571  0.90972617  1
  O2-  O189  1  0.82282529  0.57006163  0.23383464  1
  O2-  O190  1  0.81961260  0.56899418  0.57177285  1
  O2-  O191  1  0.81718584  0.57234982  0.91168646  1
  O2-  O192  1  0.04982364  0.08182746  0.26737013  1
  O2-  O193  1  0.04188906  0.08286672  0.59788202  1
  O2-  O194  1  0.04099496  0.08351282  0.93237626  1
  O2-  O195  1  0.04212970  0.58712415  0.27207407  1
  O2-  O196  1  0.04173009  0.58119095  0.60312369  1
  O2-  O197  1  0.03486251  0.58279048  0.93045995  1
  O2-  O198  1  0.54009467  0.08856419  0.26568894  1
  O2-  O199  1  0.53976106  0.08324909  0.59653449  1
  O2-  O200  1  0.54135377  0.08939258  0.94118111  1
  O2-  O201  1  0.54654161  0.58754466  0.26553472  1
  O2-  O202  1  0.55049325  0.58431140  0.60509739  1
  O2-  O203  1  0.54885898  0.58322674  0.93615025  1
  O2-  O204  1  0.16604011  0.20423053  0.26847283  1
  O2-  O205  1  0.16655602  0.21097006  0.59755367  1
  O2-  O206  1  0.16851449  0.21283783  0.93525951  1
  O2-  O207  1  0.15920496  0.70916861  0.26725328  1
  O2-  O208  1  0.16519919  0.69574212  0.60147647  1
  O2-  O209  1  0.16614909  0.70279158  0.92997182  1
  O2-  O210  1  0.66785443  0.19860363  0.27146957  1
  O2-  O211  1  0.67654494  0.19682685  0.60309456  1
  O2-  O212  1  0.66384130  0.20479945  0.93797082  1
  O2-  O213  1  0.66703362  0.70486708  0.26971610  1
  O2-  O214  1  0.66663239  0.70608341  0.60639298  1
  O2-  O215  1  0.66671360  0.70420416  0.93630621  1
  O2-  O216  1  0.08074893  0.46077914  0.06599510  1
  O2-  O217  1  0.08775126  0.46236396  0.40278352  1
  O2-  O218  1  0.08744382  0.45969436  0.73746003  1
  O2-  O219  1  0.08233942  0.95329083  0.06316089  1
  O2-  O220  1  0.08702014  0.95072364  0.39140750  1
  O2-  O221  1  0.07724162  0.95325285  0.73177745  1
  O2-  O222  1  0.58471544  0.45564207  0.06131792  1
  O2-  O223  1  0.57616481  0.45848081  0.39687189  1
  O2-  O224  1  0.57789897  0.45541301  0.73590219  1
  O2-  O225  1  0.59028089  0.96233662  0.06449936  1
  O2-  O226  1  0.57976366  0.96226190  0.39904493  1
  O2-  O227  1  0.58383686  0.96334401  0.73663951  1
  O2-  O228  1  0.21166070  0.33577855  0.07141143  1
  O2-  O229  1  0.21066812  0.33033074  0.39881240  1
  O2-  O230  1  0.21408666  0.33258603  0.73445228  1
  O2-  O231  1  0.20043924  0.83109626  0.05940852  1
  O2-  O232  1  0.20832314  0.83468492  0.39305049  1
  O2-  O233  1  0.19942915  0.82501285  0.72938078  1
  O2-  O234  1  0.70377680  0.33526630  0.06270956  1
  O2-  O235  1  0.69966922  0.32894069  0.39678521  1
  O2-  O236  1  0.70617965  0.32783209  0.73634289  1
  O2-  O237  1  0.70399906  0.83692031  0.06270291  1
  O2-  O238  1  0.70176878  0.83166329  0.40024925  1
  O2-  O239  1  0.71153288  0.83642250  0.73776519  1
  O2-  O240  1  0.45218388  0.42140206  0.26304421  1
  O2-  O241  1  0.44823048  0.42420308  0.60259004  1
  O2-  O242  1  0.45115973  0.41530222  0.94180479  1
  O2-  O243  1  0.46050905  0.91888391  0.26314684  1
  O2-  O244  1  0.46096056  0.91603162  0.59965903  1
  O2-  O245  1  0.46626804  0.91891045  0.93332245  1
  O2-  O246  1  0.96378351  0.41640424  0.26625010  1
  O2-  O247  1  0.95886482  0.41658805  0.60758056  1
  O2-  O248  1  0.94810216  0.41635842  0.93807317  1
  O2-  O249  1  0.95780710  0.91148592  0.26808634  1
  O2-  O250  1  0.95856695  0.91387091  0.59468251  1
  O2-  O251  1  0.94754270  0.91673673  0.94000219  1
  O2-  O252  1  0.33408338  0.28471672  0.26227565  1
  O2-  O253  1  0.33493353  0.28558243  0.59900014  1
  O2-  O254  1  0.33782409  0.28935281  0.94259335  1
  O2-  O255  1  0.33346282  0.78941364  0.26160414  1
  O2-  O256  1  0.33163956  0.78902688  0.59905384  1
  O2-  O257  1  0.33390791  0.79569655  0.93093891  1
  O2-  O258  1  0.83271792  0.29268029  0.26619586  1
  O2-  O259  1  0.83451052  0.30204170  0.60707023  1
  O2-  O260  1  0.83214396  0.29428510  0.93635872  1
  O2-  O261  1  0.83464420  0.79548843  0.27109719  1
  O2-  O262  1  0.83190887  0.78711562  0.60000649  1
  O2-  O263  1  0.83266705  0.79364040  0.94018026  1
  O2-  O264  1  0.41726184  0.03896062  0.07278054  1
  O2-  O265  1  0.41157413  0.04250578  0.39385317  1
  O2-  O266  1  0.41828572  0.04065733  0.73405269  1
  O2-  O267  1  0.41710154  0.55162855  0.06323644  1
  O2-  O268  1  0.41702643  0.55909147  0.38898341  1
  O2-  O269  1  0.41825578  0.55675025  0.72822654  1
  O2-  O270  1  0.91474995  0.04578614  0.06318405  1
  O2-  O271  1  0.92459918  0.04406670  0.39834422  1
  O2-  O272  1  0.91630888  0.03919795  0.73081884  1
  O2-  O273  1  0.91041643  0.54319384  0.06315578  1
  O2-  O274  1  0.92022932  0.54291878  0.40219781  1
  O2-  O275  1  0.91794108  0.54160781  0.73975919  1
  O2-  O276  1  0.28770593  0.16435600  0.07319670  1
  O2-  O277  1  0.29113750  0.16069016  0.39617768  1
  O2-  O278  1  0.28920350  0.16530956  0.73475495  1
  O2-  O279  1  0.29620575  0.66997087  0.06072755  1
  O2-  O280  1  0.28751226  0.66592754  0.39548825  1
  O2-  O281  1  0.29142222  0.66491690  0.73229741  1
  O2-  O282  1  0.79200006  0.16273743  0.06245548  1
  O2-  O283  1  0.79973823  0.17025082  0.40116975  1
  O2-  O284  1  0.80725814  0.16734432  0.72991455  1
  O2-  O285  1  0.79078948  0.66217989  0.06513849  1
  O2-  O286  1  0.79624514  0.66973409  0.40019804  1
  O2-  O287  1  0.79058056  0.66760957  0.74010855  1
