# generated using pymatgen
data_Ca2Al2SiO7
_symmetry_space_group_name_H-M   'P 1'
_cell_length_a   15.45613300
_cell_length_b   15.45557194
_cell_length_c   15.28228941
_cell_angle_alpha   90.00243734
_cell_angle_beta   89.99987714
_cell_angle_gamma   90.01860463
_symmetry_Int_Tables_number   1
_chemical_formula_structural   Ca2Al2SiO7
_chemical_formula_sum   'Ca48 Al48 Si24 O168'
_cell_volume   3650.68468261
_cell_formula_units_Z   24
loop_
 _symmetry_equiv_pos_site_id
 _symmetry_equiv_pos_as_xyz
  1  'x, y, z'
loop_
 _atom_type_symbol
 _atom_type_oxidation_number
  Ca2+  2.0
  Al0+  0.0
  Si0+  0.0
  O2-  -2.0
loop_
 _atom_site_type_symbol
 _atom_site_label
 _atom_site_symmetry_multiplicity
 _atom_site_fract_x
 _atom_site_fract_y
 _atom_site_fract_z
 _atom_site_occupancy
  Ca2+  Ca0  1  0.17954514  0.07829499  0.17656302  1
  Ca2+  Ca1  1  0.16176347  0.07117283  0.50116569  1
  Ca2+  Ca2  1  0.16893874  0.07467999  0.83884789  1
  Ca2+  Ca3  1  0.16420138  0.58569286  0.16988247  1
  Ca2+  Ca4  1  0.16124357  0.57534940  0.50382710  1
  Ca2+  Ca5  1  0.17175181  0.58188937  0.83568296  1
  Ca2+  Ca6  1  0.67195821  0.07553859  0.16738209  1
  Ca2+  Ca7  1  0.67117306  0.08043905  0.49738252  1
  Ca2+  Ca8  1  0.66963213  0.08351825  0.84429775  1
  Ca2+  Ca9  1  0.67130698  0.57696536  0.17164748  1
  Ca2+  Ca10  1  0.68282952  0.58612538  0.50362907  1
  Ca2+  Ca11  1  0.67384683  0.57604707  0.83812978  1
  Ca2+  Ca12  1  0.07819588  0.33714801  0.16873268  1
  Ca2+  Ca13  1  0.07806264  0.34146878  0.49396527  1
  Ca2+  Ca14  1  0.07965990  0.33066388  0.82594901  1
  Ca2+  Ca15  1  0.08611210  0.82503907  0.16433963  1
  Ca2+  Ca16  1  0.07595588  0.83142497  0.49114441  1
  Ca2+  Ca17  1  0.07983483  0.82906565  0.82677878  1
  Ca2+  Ca18  1  0.58340743  0.32710030  0.15665094  1
  Ca2+  Ca19  1  0.58205819  0.32612868  0.49766634  1
  Ca2+  Ca20  1  0.58951230  0.32232446  0.82986543  1
  Ca2+  Ca21  1  0.58087341  0.84044615  0.16052573  1
  Ca2+  Ca22  1  0.58284053  0.83372970  0.49348541  1
  Ca2+  Ca23  1  0.57511927  0.84194869  0.83378034  1
  Ca2+  Ca24  1  0.32657734  0.42420160  0.17248900  1
  Ca2+  Ca25  1  0.31826538  0.42135519  0.50787005  1
  Ca2+  Ca26  1  0.33144635  0.42690318  0.83633659  1
  Ca2+  Ca27  1  0.33390259  0.92428164  0.17050340  1
  Ca2+  Ca28  1  0.31810880  0.91721143  0.49936180  1
  Ca2+  Ca29  1  0.32854737  0.91697929  0.83946422  1
  Ca2+  Ca30  1  0.83022807  0.41879268  0.17181024  1
  Ca2+  Ca31  1  0.84791321  0.42878297  0.50218885  1
  Ca2+  Ca32  1  0.83363374  0.41952120  0.83441337  1
  Ca2+  Ca33  1  0.82668287  0.92381477  0.17664371  1
  Ca2+  Ca34  1  0.83463175  0.91327299  0.50256382  1
  Ca2+  Ca35  1  0.82812593  0.92248826  0.84141317  1
  Ca2+  Ca36  1  0.41987471  0.16064329  0.15732385  1
  Ca2+  Ca37  1  0.42104152  0.15963091  0.49632843  1
  Ca2+  Ca38  1  0.42948008  0.15852978  0.83079974  1
  Ca2+  Ca39  1  0.41417311  0.67563341  0.15531641  1
  Ca2+  Ca40  1  0.41697878  0.66286439  0.49795005  1
  Ca2+  Ca41  1  0.41273923  0.66631789  0.83308183  1
  Ca2+  Ca42  1  0.90714727  0.16803814  0.16582524  1
  Ca2+  Ca43  1  0.91477448  0.18014124  0.49207981  1
  Ca2+  Ca44  1  0.91218516  0.17271868  0.82687279  1
  Ca2+  Ca45  1  0.92608389  0.66794032  0.16826267  1
  Ca2+  Ca46  1  0.91740126  0.67390635  0.48915164  1
  Ca2+  Ca47  1  0.92009292  0.67136201  0.82659970  1
  Al0+  Al48  1  -0.00022904  0.00073094  0.00363418  1
  Al0+  Al49  1  -0.00031044  0.00282011  0.33544319  1
  Al0+  Al50  1  -0.00098482  -0.00005250  0.66865272  1
  Al0+  Al51  1  0.00063915  0.50038064  -0.00626724  1
  Al0+  Al52  1  -0.00041487  0.50011876  0.33000481  1
  Al0+  Al53  1  0.00074732  0.50037822  0.67422978  1
  Al0+  Al54  1  0.49958124  -0.00010762  -0.00299946  1
  Al0+  Al55  1  0.50189042  -0.00058054  0.34014703  1
  Al0+  Al56  1  0.50046274  -0.00154063  0.65860547  1
  Al0+  Al57  1  0.49874019  0.50088460  0.00753275  1
  Al0+  Al58  1  0.50068050  0.49795753  0.33208185  1
  Al0+  Al59  1  0.50083341  0.49859726  0.66821283  1
  Al0+  Al60  1  0.24816452  0.25108743  0.00172259  1
  Al0+  Al61  1  0.25124805  0.25296543  0.34106513  1
  Al0+  Al62  1  0.25208553  0.24851162  0.67103676  1
  Al0+  Al63  1  0.24971512  0.74820408  -0.00633800  1
  Al0+  Al64  1  0.25231709  0.75120978  0.33254581  1
  Al0+  Al65  1  0.25004291  0.75118699  0.67233072  1
  Al0+  Al66  1  0.74913362  0.25163173  0.00224040  1
  Al0+  Al67  1  0.74757060  0.24827670  0.33136890  1
  Al0+  Al68  1  0.75033394  0.24959912  0.65473023  1
  Al0+  Al69  1  0.75016372  0.74869226  0.00263548  1
  Al0+  Al70  1  0.74927729  0.74894729  0.33438084  1
  Al0+  Al71  1  0.74867476  0.75046897  0.67005192  1
  Al0+  Al72  1  0.17761868  0.42694176  0.68432912  1
  Al0+  Al73  1  0.07189271  0.67991582  0.31938582  1
  Al0+  Al74  1  0.82197446  0.07302945  0.35073419  1
  Al0+  Al75  1  0.31968868  0.07058853  0.01047865  1
  Al0+  Al76  1  0.82102945  0.57284929  0.68123123  1
  Al0+  Al77  1  0.43139944  0.82035776  0.98580068  1
  Al0+  Al78  1  0.82244986  0.07222596  0.01385474  1
  Al0+  Al79  1  0.57057645  0.17795084  0.64944006  1
  Al0+  Al80  1  0.17695439  0.93070065  0.68211890  1
  Al0+  Al81  1  0.67844283  0.92807418  0.01266894  1
  Al0+  Al82  1  0.06977488  0.67965633  0.98248362  1
  Al0+  Al83  1  0.31883382  0.57121731  0.01538156  1
  Al0+  Al84  1  0.81939058  0.56785092  0.34465458  1
  Al0+  Al85  1  0.32236282  0.07229683  0.34937834  1
  Al0+  Al86  1  0.92928688  0.32011607  0.31773163  1
  Al0+  Al87  1  0.92692433  0.82437144  0.31719556  1
  Al0+  Al88  1  0.56894498  0.18161362  0.98736400  1
  Al0+  Al89  1  0.68107589  0.92821664  0.35029933  1
  Al0+  Al90  1  0.92767542  0.82100073  0.65441480  1
  Al0+  Al91  1  0.32296072  0.57096499  0.68209623  1
  Al0+  Al92  1  0.17844586  0.92747646  0.34629559  1
  Al0+  Al93  1  0.93198148  0.32121677  0.65272333  1
  Al0+  Al94  1  0.17920656  0.43227521  0.34573532  1
  Al0+  Al95  1  0.67993460  0.42995896  0.01234499  1
  Si0+  Si96  1  0.32459851  0.57314353  0.34842141  1
  Si0+  Si97  1  0.42826704  0.81987034  0.64931698  1
  Si0+  Si98  1  0.57362218  0.67484956  0.98378150  1
  Si0+  Si99  1  0.17760496  0.92688037  0.01596014  1
  Si0+  Si100  1  0.32465291  0.06934884  0.68379959  1
  Si0+  Si101  1  0.92941453  0.31926588  0.98457928  1
  Si0+  Si102  1  0.81857933  0.07230053  0.67985108  1
  Si0+  Si103  1  0.67577841  0.42621898  0.35117238  1
  Si0+  Si104  1  0.57159559  0.67665776  0.31837520  1
  Si0+  Si105  1  0.07225278  0.67988953  0.65084175  1
  Si0+  Si106  1  0.56786887  0.17844178  0.31539762  1
  Si0+  Si107  1  0.57079971  0.67737483  0.65286857  1
  Si0+  Si108  1  0.07429125  0.17703231  0.65155615  1
  Si0+  Si109  1  0.07489087  0.17889065  0.31735606  1
  Si0+  Si110  1  0.42521161  0.32457167  0.98412887  1
  Si0+  Si111  1  0.42790894  0.32293293  0.64988586  1
  Si0+  Si112  1  0.43146142  0.82007685  0.31912212  1
  Si0+  Si113  1  0.92677794  0.82371948  0.98399687  1
  Si0+  Si114  1  0.67933808  0.42641947  0.68072997  1
  Si0+  Si115  1  0.42758342  0.32192629  0.31772735  1
  Si0+  Si116  1  0.07324814  0.17765128  0.98634605  1
  Si0+  Si117  1  0.17604552  0.42796224  0.01798878  1
  Si0+  Si118  1  0.82451536  0.57162215  0.01697061  1
  Si0+  Si119  1  0.67753430  0.92923273  0.68237780  1
  O2-  O120  1  0.24423458  -0.00191880  0.05884743  1
  O2-  O121  1  0.24646776  0.00345627  0.39735831  1
  O2-  O122  1  0.25200287  0.00569650  0.72850765  1
  O2-  O123  1  0.24519701  0.49605685  0.06204252  1
  O2-  O124  1  0.25346352  0.50771086  0.39215876  1
  O2-  O125  1  0.25109059  0.49875228  0.73204067  1
  O2-  O126  1  0.75470222  -0.00457240  0.06196330  1
  O2-  O127  1  0.75685614  -0.00482786  0.40212751  1
  O2-  O128  1  0.74840542  0.00083719  0.72303509  1
  O2-  O129  1  0.75231328  0.50606737  0.06002863  1
  O2-  O130  1  0.74576879  0.49311678  0.39482409  1
  O2-  O131  1  0.74757291  0.49518983  0.72543682  1
  O2-  O132  1  0.00227146  0.24304817  0.27119343  1
  O2-  O133  1  0.01098381  0.25030734  0.60688853  1
  O2-  O134  1  -0.00047801  0.24633930  0.94389204  1
  O2-  O135  1  0.00316426  0.75548483  0.26867626  1
  O2-  O136  1  0.00204526  0.74657153  0.60681337  1
  O2-  O137  1  -0.00554455  0.75506051  0.93785157  1
  O2-  O138  1  0.49591297  0.24913440  0.27402059  1
  O2-  O139  1  0.49354043  0.25173979  0.60430720  1
  O2-  O140  1  0.49343057  0.25563061  0.93909228  1
  O2-  O141  1  0.49996247  0.74685237  0.27651444  1
  O2-  O142  1  0.49733783  0.74558825  0.60925557  1
  O2-  O143  1  0.50807468  0.74645744  0.93888460  1
  O2-  O144  1  0.07722119  0.17960518  0.09085450  1
  O2-  O145  1  0.07592528  0.18231647  0.42303945  1
  O2-  O146  1  0.07042013  0.17595643  0.75774019  1
  O2-  O147  1  0.06926346  0.67899133  0.09541378  1
  O2-  O148  1  0.07044368  0.67793894  0.43308262  1
  O2-  O149  1  0.07102201  0.68271500  0.75670445  1
  O2-  O150  1  0.56727000  0.18237620  0.10030494  1
  O2-  O151  1  0.56710195  0.18015852  0.42080810  1
  O2-  O152  1  0.57180846  0.17782636  0.76274481  1
  O2-  O153  1  0.57118499  0.67324371  0.08942187  1
  O2-  O154  1  0.56952553  0.67522736  0.42390740  1
  O2-  O155  1  0.57180472  0.67841646  0.75777517  1
  O2-  O156  1  0.18165819  0.43149482  0.23254418  1
  O2-  O157  1  0.17710439  0.42983168  0.57058880  1
  O2-  O158  1  0.17620403  0.42670452  0.91266116  1
  O2-  O159  1  0.18500201  0.92612086  0.23263544  1
  O2-  O160  1  0.17777315  0.93001401  0.56935818  1
  O2-  O161  1  0.17728771  0.92943937  0.90996607  1
  O2-  O162  1  0.67329990  0.42850840  0.24540218  1
  O2-  O163  1  0.67671802  0.42880365  0.57536317  1
  O2-  O164  1  0.68375692  0.42846668  0.89888382  1
  O2-  O165  1  0.67565684  0.93161969  0.23719210  1
  O2-  O166  1  0.67683816  0.92765312  0.57767844  1
  O2-  O167  1  0.67834371  0.93183143  0.89831073  1
  O2-  O168  1  0.42582803  0.32319144  0.08998163  1
  O2-  O169  1  0.43110415  0.32496921  0.42264883  1
  O2-  O170  1  0.43086796  0.32424560  0.75536902  1
  O2-  O171  1  0.43167447  0.82019121  0.09918985  1
  O2-  O172  1  0.43160425  0.81780723  0.42454473  1
  O2-  O173  1  0.43068990  0.82391977  0.75431617  1
  O2-  O174  1  0.93009146  0.32130234  0.08952056  1
  O2-  O175  1  0.93270386  0.32260188  0.43071863  1
  O2-  O176  1  0.92808339  0.31654675  0.76642050  1
  O2-  O177  1  0.92799390  0.82358562  0.08900648  1
  O2-  O178  1  0.92649545  0.81875369  0.43119955  1
  O2-  O179  1  0.92735069  0.82082087  0.76781850  1
  O2-  O180  1  0.32435941  0.06993714  0.23540091  1
  O2-  O181  1  0.32544890  0.06610421  0.57848544  1
  O2-  O182  1  0.31839084  0.06830629  0.89728530  1
  O2-  O183  1  0.32732417  0.57120153  0.24294874  1
  O2-  O184  1  0.32430660  0.56926038  0.56822271  1
  O2-  O185  1  0.31871189  0.56918148  0.90261768  1
  O2-  O186  1  0.81426740  0.07571720  0.23748094  1
  O2-  O187  1  0.81759398  0.07227894  0.57539439  1
  O2-  O188  1  0.82068137  0.07418747  0.89931980  1
  O2-  O189  1  0.81649848  0.56519602  0.23151276  1
  O2-  O190  1  0.81999628  0.57359249  0.56816117  1
  O2-  O191  1  0.82387894  0.56982458  0.91104271  1
  O2-  O192  1  0.05614641  0.08357930  0.27248788  1
  O2-  O193  1  0.04330110  0.08546959  0.60493301  1
  O2-  O194  1  0.04854733  0.08446370  0.93911698  1
  O2-  O195  1  0.03905734  0.58399297  0.26346438  1
  O2-  O196  1  0.04807597  0.58414150  0.60998015  1
  O2-  O197  1  0.03931819  0.58300732  0.92721267  1
  O2-  O198  1  0.53954875  0.08547879  0.27114602  1
  O2-  O199  1  0.53922484  0.08215895  0.59336837  1
  O2-  O200  1  0.53840469  0.08593995  0.93122071  1
  O2-  O201  1  0.54546212  0.58391496  0.27062619  1
  O2-  O202  1  0.54653196  0.58476470  0.60452076  1
  O2-  O203  1  0.54385788  0.58216722  0.93734675  1
  O2-  O204  1  0.16808270  0.21008488  0.27223725  1
  O2-  O205  1  0.17129237  0.19451243  0.60929712  1
  O2-  O206  1  0.16306972  0.20791978  0.93515052  1
  O2-  O207  1  0.17256104  0.70513184  0.26699569  1
  O2-  O208  1  0.16670409  0.70551305  0.60684573  1
  O2-  O209  1  0.16544143  0.71014454  0.92702255  1
  O2-  O210  1  0.65895764  0.20729896  0.26801149  1
  O2-  O211  1  0.66412856  0.21108978  0.59132546  1
  O2-  O212  1  0.66540633  0.21510777  0.93300547  1
  O2-  O213  1  0.66236920  0.70354110  0.26991559  1
  O2-  O214  1  0.66091528  0.70959156  0.60454796  1
  O2-  O215  1  0.66955112  0.69472529  0.93934197  1
  O2-  O216  1  0.08219063  0.45612999  0.06181708  1
  O2-  O217  1  0.08315763  0.46330386  0.39933642  1
  O2-  O218  1  0.08111464  0.45535157  0.74049347  1
  O2-  O219  1  0.08373086  0.94942486  0.06171297  1
  O2-  O220  1  0.07958933  0.95281375  0.39916987  1
  O2-  O221  1  0.08124204  0.96225551  0.73848038  1
  O2-  O222  1  0.58346151  0.45680795  0.06870979  1
  O2-  O223  1  0.58252477  0.45326707  0.39799239  1
  O2-  O224  1  0.58627887  0.45059848  0.72842625  1
  O2-  O225  1  0.58159589  0.96068861  0.06521493  1
  O2-  O226  1  0.58502437  0.96100322  0.40642440  1
  O2-  O227  1  0.58469044  0.95858369  0.72688922  1
  O2-  O228  1  0.19994035  0.33437118  0.06466890  1
  O2-  O229  1  0.21009687  0.33794582  0.40357662  1
  O2-  O230  1  0.20457534  0.32706666  0.73663182  1
  O2-  O231  1  0.20687574  0.83380669  0.05866516  1
  O2-  O232  1  0.21281779  0.83146024  0.40179677  1
  O2-  O233  1  0.20960091  0.83546849  0.73692156  1
  O2-  O234  1  0.71234807  0.33594444  0.06956573  1
  O2-  O235  1  0.69809394  0.33154278  0.39434826  1
  O2-  O236  1  0.70787369  0.33226387  0.72411896  1
  O2-  O237  1  0.69777000  0.82667834  0.06367650  1
  O2-  O238  1  0.70174720  0.82736588  0.40186813  1
  O2-  O239  1  0.70304053  0.83794781  0.73129370  1
  O2-  O240  1  0.45737185  0.41290037  0.26793374  1
  O2-  O241  1  0.45635084  0.41523866  0.60176770  1
  O2-  O242  1  0.45230765  0.41871181  0.94022706  1
  O2-  O243  1  0.46268537  0.91199098  0.27387453  1
  O2-  O244  1  0.45987031  0.90864489  0.59856427  1
  O2-  O245  1  0.46188419  0.91544986  0.92801191  1
  O2-  O246  1  0.96251828  0.41458779  0.26141515  1
  O2-  O247  1  0.96110806  0.42034723  0.60281492  1
  O2-  O248  1  0.95821970  0.40995889  0.93521760  1
  O2-  O249  1  0.94855560  0.92629724  0.26867103  1
  O2-  O250  1  0.95721982  0.91865548  0.60198368  1
  O2-  O251  1  0.95190273  0.91844309  0.93841827  1
  O2-  O252  1  0.33416592  0.29840984  0.27194647  1
  O2-  O253  1  0.33265347  0.29939803  0.60566866  1
  O2-  O254  1  0.33066341  0.30112090  0.93879118  1
  O2-  O255  1  0.34003858  0.79545614  0.26982930  1
  O2-  O256  1  0.33548116  0.79305602  0.60358552  1
  O2-  O257  1  0.33606862  0.78827663  0.93007360  1
  O2-  O258  1  0.83036964  0.29143107  0.26563449  1
  O2-  O259  1  0.83762879  0.28980496  0.59518076  1
  O2-  O260  1  0.83766264  0.29209005  0.93689750  1
  O2-  O261  1  0.82888529  0.79114494  0.26543724  1
  O2-  O262  1  0.82955387  0.79119788  0.60241742  1
  O2-  O263  1  0.83213640  0.79837042  0.93854158  1
  O2-  O264  1  0.41524065  0.03813559  0.06412122  1
  O2-  O265  1  0.41785054  0.03879808  0.40422291  1
  O2-  O266  1  0.41740761  0.03689672  0.72826012  1
  O2-  O267  1  0.41540338  0.54419576  0.07125720  1
  O2-  O268  1  0.41748002  0.54390204  0.39501881  1
  O2-  O269  1  0.42206370  0.54267643  0.73552924  1
  O2-  O270  1  0.92249714  0.05125625  0.06703184  1
  O2-  O271  1  0.92409046  0.05821616  0.39995937  1
  O2-  O272  1  0.91054213  0.04702186  0.72804196  1
  O2-  O273  1  0.91673230  0.54012490  0.06142729  1
  O2-  O274  1  0.91536118  0.53696982  0.39852337  1
  O2-  O275  1  0.91601590  0.54315067  0.73758501  1
  O2-  O276  1  0.29232935  0.16834108  0.06453754  1
  O2-  O277  1  0.30067500  0.17199688  0.40211535  1
  O2-  O278  1  0.30813458  0.16550027  0.72762698  1
  O2-  O279  1  0.28712624  0.66850234  0.06708097  1
  O2-  O280  1  0.30483923  0.66804707  0.39294599  1
  O2-  O281  1  0.29667982  0.66968344  0.73483343  1
  O2-  O282  1  0.79009473  0.16884160  0.06680358  1
  O2-  O283  1  0.78482384  0.16955967  0.40369736  1
  O2-  O284  1  0.78839060  0.16462623  0.72521764  1
  O2-  O285  1  0.80336190  0.66615743  0.06204263  1
  O2-  O286  1  0.78664955  0.66299424  0.39984185  1
  O2-  O287  1  0.78532452  0.66678095  0.73799163  1
