# generated using pymatgen
data_Ca2Al2SiO7
_symmetry_space_group_name_H-M   'P 1'
_cell_length_a   15.46137861
_cell_length_b   15.46114394
_cell_length_c   15.28641864
_cell_angle_alpha   90.01291578
_cell_angle_beta   90.01388144
_cell_angle_gamma   90.00009893
_symmetry_Int_Tables_number   1
_chemical_formula_structural   Ca2Al2SiO7
_chemical_formula_sum   'Ca48 Al48 Si24 O168'
_cell_volume   3654.22735022
_cell_formula_units_Z   24
loop_
 _symmetry_equiv_pos_site_id
 _symmetry_equiv_pos_as_xyz
  1  'x, y, z'
loop_
 _atom_type_symbol
 _atom_type_oxidation_number
  Ca2+  2.0
  Al0+  0.0
  Si0+  0.0
  O2-  -2.0
loop_
 _atom_site_type_symbol
 _atom_site_label
 _atom_site_symmetry_multiplicity
 _atom_site_fract_x
 _atom_site_fract_y
 _atom_site_fract_z
 _atom_site_occupancy
  Ca2+  Ca0  1  0.16795954  0.07472058  0.16503510  1
  Ca2+  Ca1  1  0.16570907  0.08035902  0.50972240  1
  Ca2+  Ca2  1  0.15918942  0.07301879  0.83662253  1
  Ca2+  Ca3  1  0.16197049  0.58211780  0.16674423  1
  Ca2+  Ca4  1  0.16509441  0.57997115  0.50506429  1
  Ca2+  Ca5  1  0.15965905  0.57180763  0.84287033  1
  Ca2+  Ca6  1  0.67168709  0.07661221  0.16910019  1
  Ca2+  Ca7  1  0.67737550  0.07866782  0.50230700  1
  Ca2+  Ca8  1  0.67863610  0.08126587  0.84559063  1
  Ca2+  Ca9  1  0.66287013  0.58210301  0.16999126  1
  Ca2+  Ca10  1  0.65947700  0.57750094  0.49887445  1
  Ca2+  Ca11  1  0.67445780  0.57839580  0.84641638  1
  Ca2+  Ca12  1  0.08147063  0.33093075  0.15838255  1
  Ca2+  Ca13  1  0.07831783  0.33263958  0.50242618  1
  Ca2+  Ca14  1  0.07923588  0.33004753  0.82434097  1
  Ca2+  Ca15  1  0.07801044  0.82291784  0.15468504  1
  Ca2+  Ca16  1  0.07659745  0.83657589  0.49795370  1
  Ca2+  Ca17  1  0.07333083  0.83876524  0.83166715  1
  Ca2+  Ca18  1  0.57817745  0.33534687  0.15620127  1
  Ca2+  Ca19  1  0.57766985  0.33381234  0.48888179  1
  Ca2+  Ca20  1  0.58655919  0.33050700  0.83755881  1
  Ca2+  Ca21  1  0.58605433  0.83057920  0.15478502  1
  Ca2+  Ca22  1  0.58476638  0.82813365  0.49096684  1
  Ca2+  Ca23  1  0.58873733  0.83130861  0.83635869  1
  Ca2+  Ca24  1  0.33294099  0.41094285  0.16669604  1
  Ca2+  Ca25  1  0.32890711  0.41802141  0.50560850  1
  Ca2+  Ca26  1  0.32138056  0.41228891  0.84084244  1
  Ca2+  Ca27  1  0.32864873  0.90409507  0.16336668  1
  Ca2+  Ca28  1  0.32456129  0.91796084  0.50802455  1
  Ca2+  Ca29  1  0.32179014  0.91177246  0.84188926  1
  Ca2+  Ca30  1  0.81925739  0.42339757  0.16439971  1
  Ca2+  Ca31  1  0.82987486  0.41599818  0.50319493  1
  Ca2+  Ca32  1  0.83409956  0.42284579  0.84450555  1
  Ca2+  Ca33  1  0.82731253  0.92206682  0.16611480  1
  Ca2+  Ca34  1  0.83422802  0.92363106  0.50374344  1
  Ca2+  Ca35  1  0.83775452  0.92516582  0.84263267  1
  Ca2+  Ca36  1  0.42608100  0.17672023  0.15649675  1
  Ca2+  Ca37  1  0.41757533  0.17472735  0.49267868  1
  Ca2+  Ca38  1  0.42421267  0.16661835  0.83796967  1
  Ca2+  Ca39  1  0.43101489  0.67115651  0.15827563  1
  Ca2+  Ca40  1  0.42166620  0.66845653  0.49238193  1
  Ca2+  Ca41  1  0.42141165  0.66912249  0.84087258  1
  Ca2+  Ca42  1  0.91023398  0.16306783  0.16336254  1
  Ca2+  Ca43  1  0.91655710  0.16309734  0.50402484  1
  Ca2+  Ca44  1  0.91589553  0.16997186  0.82373651  1
  Ca2+  Ca45  1  0.92320512  0.66885770  0.15529555  1
  Ca2+  Ca46  1  0.92397096  0.67402118  0.49526361  1
  Ca2+  Ca47  1  0.91418870  0.67750993  0.83561508  1
  Al0+  Al48  1  0.00275832  -0.00104215  0.00794689  1
  Al0+  Al49  1  0.00065147  0.00106985  0.33556846  1
  Al0+  Al50  1  -0.00003269  0.00037288  0.66480916  1
  Al0+  Al51  1  0.00001362  0.49803349  0.00637765  1
  Al0+  Al52  1  -0.00087846  0.49800996  0.33053404  1
  Al0+  Al53  1  -0.00095371  0.50015752  0.66572125  1
  Al0+  Al54  1  0.49947407  0.00222599  -0.00604177  1
  Al0+  Al55  1  0.49800731  0.00140713  0.33793382  1
  Al0+  Al56  1  0.50022168  -0.00117875  0.66390873  1
  Al0+  Al57  1  0.49606282  0.50004158  -0.00787624  1
  Al0+  Al58  1  0.49731269  0.50200926  0.33050446  1
  Al0+  Al59  1  0.50012202  0.50020064  0.66795291  1
  Al0+  Al60  1  0.24965544  0.24899875  0.00076762  1
  Al0+  Al61  1  0.24798523  0.24952967  0.33038654  1
  Al0+  Al62  1  0.25191974  0.25001260  0.66691359  1
  Al0+  Al63  1  0.25096584  0.74554244  -0.00264756  1
  Al0+  Al64  1  0.24892590  0.74785154  0.33267930  1
  Al0+  Al65  1  0.25264960  0.74954251  0.67083881  1
  Al0+  Al66  1  0.75042335  0.25207990  0.00389199  1
  Al0+  Al67  1  0.75034046  0.25039150  0.34196831  1
  Al0+  Al68  1  0.74860734  0.24936777  0.66434476  1
  Al0+  Al69  1  0.75351221  0.75181505  -0.00214530  1
  Al0+  Al70  1  0.75159542  0.75022175  0.33421761  1
  Al0+  Al71  1  0.75011112  0.74819665  0.65914623  1
  Al0+  Al72  1  0.92680141  0.32343416  0.65132421  1
  Al0+  Al73  1  0.82145447  0.57282746  0.01426330  1
  Al0+  Al74  1  0.82229254  0.07111328  0.35246900  1
  Al0+  Al75  1  0.17954701  0.43039692  0.67922183  1
  Al0+  Al76  1  0.17995597  0.92988237  0.68020492  1
  Al0+  Al77  1  0.57423440  0.67943303  0.98406542  1
  Al0+  Al78  1  0.42696161  0.32155414  0.98224068  1
  Al0+  Al79  1  0.81875995  0.06933366  0.68142333  1
  Al0+  Al80  1  0.67714308  0.92702837  0.34902319  1
  Al0+  Al81  1  0.92963857  0.82115473  0.65150243  1
  Al0+  Al82  1  0.57404110  0.18011048  0.98556401  1
  Al0+  Al83  1  0.93090563  0.82285632  0.98605513  1
  Al0+  Al84  1  0.67715808  0.43268282  0.34703144  1
  Al0+  Al85  1  0.07074123  0.67544561  0.98394241  1
  Al0+  Al86  1  0.82313016  0.07290487  0.01462339  1
  Al0+  Al87  1  0.67659842  0.43083771  0.01271064  1
  Al0+  Al88  1  0.42817552  0.32099094  0.31987063  1
  Al0+  Al89  1  0.67749352  0.92973874  0.01191105  1
  Al0+  Al90  1  0.18099911  0.92659429  0.01467927  1
  Al0+  Al91  1  0.57108004  0.68155384  0.32068193  1
  Al0+  Al92  1  0.42900362  0.82269342  0.98448047  1
  Al0+  Al93  1  0.07041310  0.67823188  0.31987330  1
  Al0+  Al94  1  0.07150260  0.17964418  0.65256432  1
  Al0+  Al95  1  0.17938870  0.42733435  0.01529767  1
  Si0+  Si96  1  0.42695102  0.82387701  0.31950221  1
  Si0+  Si97  1  0.82029836  0.57120787  0.67931532  1
  Si0+  Si98  1  0.07142811  0.17804326  0.98722973  1
  Si0+  Si99  1  0.07055920  0.17871011  0.31679584  1
  Si0+  Si100  1  0.07375991  0.67783504  0.65154075  1
  Si0+  Si101  1  0.32188642  0.07188601  0.01666026  1
  Si0+  Si102  1  0.43100457  0.32100836  0.65087626  1
  Si0+  Si103  1  0.92996967  0.31907768  0.98831468  1
  Si0+  Si104  1  0.82423588  0.57139250  0.35152786  1
  Si0+  Si105  1  0.32166102  0.57083519  0.01866699  1
  Si0+  Si106  1  0.92739212  0.32046900  0.31690199  1
  Si0+  Si107  1  0.31899168  0.07377195  0.34815364  1
  Si0+  Si108  1  0.57240541  0.17857096  0.31856989  1
  Si0+  Si109  1  0.32461520  0.57178930  0.68525187  1
  Si0+  Si110  1  0.57131336  0.17770647  0.64911998  1
  Si0+  Si111  1  0.92970739  0.82392728  0.31584307  1
  Si0+  Si112  1  0.67742411  0.42930785  0.68085451  1
  Si0+  Si113  1  0.56987079  0.67854326  0.64990342  1
  Si0+  Si114  1  0.67726797  0.92549297  0.68258534  1
  Si0+  Si115  1  0.31856285  0.56999238  0.34802875  1
  Si0+  Si116  1  0.17716031  0.42668379  0.34938048  1
  Si0+  Si117  1  0.18169891  0.92808253  0.34836427  1
  Si0+  Si118  1  0.32516186  0.07278042  0.68376639  1
  Si0+  Si119  1  0.42795013  0.82087418  0.65030573  1
  O2-  O120  1  0.25926745  -0.00208878  0.06220559  1
  O2-  O121  1  0.25237765  -0.00088501  0.39137310  1
  O2-  O122  1  0.25480488  0.00532251  0.72614509  1
  O2-  O123  1  0.25374301  0.50139998  0.06338377  1
  O2-  O124  1  0.24724971  0.49914478  0.39088624  1
  O2-  O125  1  0.25187992  0.50667972  0.72710969  1
  O2-  O126  1  0.74868892  0.00213899  0.06226869  1
  O2-  O127  1  0.75025410  -0.00255925  0.40019381  1
  O2-  O128  1  0.74483649  -0.00601620  0.72708146  1
  O2-  O129  1  0.74159889  0.50873232  0.06370756  1
  O2-  O130  1  0.75168149  0.50673600  0.39678143  1
  O2-  O131  1  0.75297649  0.49607532  0.72060895  1
  O2-  O132  1  -0.00274881  0.24749360  0.27545658  1
  O2-  O133  1  -0.00002633  0.25185688  0.60098852  1
  O2-  O134  1  -0.00195357  0.24598869  0.94565616  1
  O2-  O135  1  -0.00485889  0.75141129  0.27350427  1
  O2-  O136  1  0.00787157  0.74837254  0.60594249  1
  O2-  O137  1  0.00243828  0.75054556  0.93443058  1
  O2-  O138  1  0.50578190  0.24926179  0.27478415  1
  O2-  O139  1  0.50049138  0.24960882  0.60679552  1
  O2-  O140  1  0.50273929  0.25275963  0.93365784  1
  O2-  O141  1  0.50332242  0.76384823  0.27703521  1
  O2-  O142  1  0.49979572  0.75096035  0.60782356  1
  O2-  O143  1  0.50527917  0.75519109  0.93375579  1
  O2-  O144  1  0.07315562  0.18022787  0.09296642  1
  O2-  O145  1  0.07491889  0.17971894  0.42158684  1
  O2-  O146  1  0.07058975  0.18048230  0.76605865  1
  O2-  O147  1  0.06873460  0.67710756  0.09801355  1
  O2-  O148  1  0.07157275  0.68008525  0.43361955  1
  O2-  O149  1  0.07192281  0.67575760  0.75618557  1
  O2-  O150  1  0.57208766  0.18093612  0.09946095  1
  O2-  O151  1  0.56792280  0.17986340  0.42490728  1
  O2-  O152  1  0.57136503  0.17758779  0.75353053  1
  O2-  O153  1  0.57036309  0.67875154  0.09768344  1
  O2-  O154  1  0.56402338  0.67876248  0.43459348  1
  O2-  O155  1  0.57092841  0.67730581  0.75405735  1
  O2-  O156  1  0.17756571  0.42469047  0.24480311  1
  O2-  O157  1  0.18259178  0.43217610  0.56524003  1
  O2-  O158  1  0.17870616  0.42667168  0.90206746  1
  O2-  O159  1  0.18341247  0.92763429  0.24368286  1
  O2-  O160  1  0.18351462  0.92984377  0.56603395  1
  O2-  O161  1  0.17898737  0.93117470  0.90176783  1
  O2-  O162  1  0.67642603  0.43356767  0.23491535  1
  O2-  O163  1  0.67234905  0.43296142  0.57548036  1
  O2-  O164  1  0.68385602  0.42903158  0.89858215  1
  O2-  O165  1  0.67454333  0.92931267  0.23626092  1
  O2-  O166  1  0.67590326  0.92679133  0.57685046  1
  O2-  O167  1  0.67967672  0.93191292  0.89792605  1
  O2-  O168  1  0.42562642  0.31740076  0.09608982  1
  O2-  O169  1  0.42720288  0.31917664  0.43397273  1
  O2-  O170  1  0.43207497  0.32165514  0.75501968  1
  O2-  O171  1  0.42804551  0.81790309  0.09854728  1
  O2-  O172  1  0.42227802  0.81983162  0.42561488  1
  O2-  O173  1  0.42680956  0.82157797  0.75433206  1
  O2-  O174  1  0.93168331  0.31867168  0.09385115  1
  O2-  O175  1  0.93066302  0.32382351  0.42188762  1
  O2-  O176  1  0.92726875  0.32449924  0.76487284  1
  O2-  O177  1  0.93386494  0.82392127  0.09981886  1
  O2-  O178  1  0.93360184  0.82438982  0.42206051  1
  O2-  O179  1  0.92762612  0.82040330  0.76363967  1
  O2-  O180  1  0.31661411  0.07640996  0.24381408  1
  O2-  O181  1  0.32636613  0.07122963  0.57731482  1
  O2-  O182  1  0.31705071  0.07429206  0.91112283  1
  O2-  O183  1  0.31800540  0.57132065  0.24389941  1
  O2-  O184  1  0.32769369  0.57018170  0.57893791  1
  O2-  O185  1  0.32085627  0.57021495  0.91289875  1
  O2-  O186  1  0.82293616  0.07065505  0.23953367  1
  O2-  O187  1  0.81644921  0.06802519  0.56844635  1
  O2-  O188  1  0.82463904  0.07371638  0.90092389  1
  O2-  O189  1  0.82623623  0.56813848  0.24667129  1
  O2-  O190  1  0.81815446  0.57193018  0.57387530  1
  O2-  O191  1  0.82317423  0.56784528  0.89991255  1
  O2-  O192  1  0.04561267  0.08561410  0.27033503  1
  O2-  O193  1  0.04282413  0.08244934  0.59699266  1
  O2-  O194  1  0.04701017  0.08487652  0.94278199  1
  O2-  O195  1  0.04313436  0.57998316  0.26763889  1
  O2-  O196  1  0.04520169  0.58587965  0.60282397  1
  O2-  O197  1  0.03846912  0.57670950  0.93400191  1
  O2-  O198  1  0.54310748  0.08543347  0.27405066  1
  O2-  O199  1  0.54258660  0.08588524  0.60079550  1
  O2-  O200  1  0.54387696  0.08431438  0.92820012  1
  O2-  O201  1  0.53234919  0.58854669  0.26618005  1
  O2-  O202  1  0.53808863  0.58705016  0.60222670  1
  O2-  O203  1  0.54024151  0.58357591  0.92828683  1
  O2-  O204  1  0.16052143  0.20903872  0.26720760  1
  O2-  O205  1  0.17178617  0.20624076  0.59961739  1
  O2-  O206  1  0.16155218  0.20735629  0.93878054  1
  O2-  O207  1  0.16724571  0.70874920  0.26645031  1
  O2-  O208  1  0.17011546  0.69975823  0.60785342  1
  O2-  O209  1  0.17124525  0.69604880  0.93402589  1
  O2-  O210  1  0.66795782  0.20160802  0.27777320  1
  O2-  O211  1  0.66155928  0.20641309  0.59986479  1
  O2-  O212  1  0.67170871  0.21161459  0.93182318  1
  O2-  O213  1  0.67175900  0.70080162  0.27113710  1
  O2-  O214  1  0.66084626  0.70348582  0.59935284  1
  O2-  O215  1  0.67321355  0.70380445  0.93079088  1
  O2-  O216  1  0.08443589  0.45740652  0.07227894  1
  O2-  O217  1  0.08495917  0.45442278  0.39612426  1
  O2-  O218  1  0.08139715  0.45803042  0.73144755  1
  O2-  O219  1  0.08897318  0.96167690  0.07407968  1
  O2-  O220  1  0.09029805  0.95766818  0.39499353  1
  O2-  O221  1  0.08389006  0.96155490  0.73272298  1
  O2-  O222  1  0.57381741  0.45088428  0.05852581  1
  O2-  O223  1  0.58000141  0.46489671  0.40171894  1
  O2-  O224  1  0.58767225  0.46123525  0.72977360  1
  O2-  O225  1  0.57707474  0.95560858  0.06237383  1
  O2-  O226  1  0.57732722  0.95476671  0.40334540  1
  O2-  O227  1  0.58181526  0.94938899  0.72558153  1
  O2-  O228  1  0.21039457  0.33075091  0.07004795  1
  O2-  O229  1  0.20690128  0.33525629  0.39684441  1
  O2-  O230  1  0.21203041  0.33378847  0.73188023  1
  O2-  O231  1  0.21108955  0.82866216  0.06673321  1
  O2-  O232  1  0.20963963  0.83654432  0.39687719  1
  O2-  O233  1  0.21122038  0.83326272  0.73331729  1
  O2-  O234  1  0.71064332  0.33622981  0.06909715  1
  O2-  O235  1  0.70669519  0.33646158  0.40304029  1
  O2-  O236  1  0.69931872  0.33515180  0.72430908  1
  O2-  O237  1  0.70587263  0.83141222  0.06379038  1
  O2-  O238  1  0.70443887  0.82761126  0.40260856  1
  O2-  O239  1  0.70221024  0.82981690  0.72377124  1
  O2-  O240  1  0.45421694  0.41841942  0.26725796  1
  O2-  O241  1  0.45991316  0.41335836  0.60348113  1
  O2-  O242  1  0.44716389  0.42020762  0.92748789  1
  O2-  O243  1  0.44107441  0.92134977  0.27799245  1
  O2-  O244  1  0.45308709  0.91333412  0.60125968  1
  O2-  O245  1  0.44635756  0.92308362  0.93171627  1
  O2-  O246  1  0.95758019  0.41055063  0.26807533  1
  O2-  O247  1  0.95588473  0.42144349  0.59597680  1
  O2-  O248  1  0.96118404  0.40953563  0.94131430  1
  O2-  O249  1  0.95981373  0.91639164  0.27100355  1
  O2-  O250  1  0.96233308  0.91606717  0.59568112  1
  O2-  O251  1  0.96480209  0.92104799  0.93464894  1
  O2-  O252  1  0.33197226  0.28808183  0.26666374  1
  O2-  O253  1  0.33909784  0.29439609  0.60260608  1
  O2-  O254  1  0.32983224  0.28599856  0.92984755  1
  O2-  O255  1  0.33655172  0.78983358  0.27219587  1
  O2-  O256  1  0.33676143  0.79126127  0.60095484  1
  O2-  O257  1  0.33320334  0.78670480  0.92999606  1
  O2-  O258  1  0.83417418  0.29331847  0.27286154  1
  O2-  O259  1  0.82810645  0.29506864  0.59768888  1
  O2-  O260  1  0.83795027  0.29588730  0.94030385  1
  O2-  O261  1  0.83422582  0.80234835  0.27378417  1
  O2-  O262  1  0.83468384  0.78722478  0.59434805  1
  O2-  O263  1  0.83351865  0.79774410  0.93031154  1
  O2-  O264  1  0.41776829  0.05383145  0.05977113  1
  O2-  O265  1  0.41148703  0.05181032  0.39751835  1
  O2-  O266  1  0.41843987  0.04470783  0.72900992  1
  O2-  O267  1  0.41548737  0.54476481  0.06346268  1
  O2-  O268  1  0.40890421  0.54136888  0.39832392  1
  O2-  O269  1  0.41636483  0.54171906  0.73239556  1
  O2-  O270  1  0.92006742  0.04405207  0.07043795  1
  O2-  O271  1  0.92225914  0.04266788  0.40445882  1
  O2-  O272  1  0.91713870  0.04164729  0.73153146  1
  O2-  O273  1  0.91476021  0.53499355  0.07126480  1
  O2-  O274  1  0.91613422  0.53954146  0.39926655  1
  O2-  O275  1  0.91295153  0.54789181  0.72591388  1
  O2-  O276  1  0.28880777  0.16184309  0.06600193  1
  O2-  O277  1  0.28616298  0.16347274  0.39822940  1
  O2-  O278  1  0.30346569  0.16735950  0.72815652  1
  O2-  O279  1  0.29664724  0.66352424  0.06636769  1
  O2-  O280  1  0.29049899  0.66128518  0.39856468  1
  O2-  O281  1  0.30503709  0.66681662  0.72971750  1
  O2-  O282  1  0.79553139  0.17083944  0.06841650  1
  O2-  O283  1  0.79468777  0.16927821  0.40708912  1
  O2-  O284  1  0.78809275  0.16784843  0.73207794  1
  O2-  O285  1  0.80381812  0.67380952  0.06418058  1
  O2-  O286  1  0.80485104  0.66710256  0.39563813  1
  O2-  O287  1  0.78755910  0.66177307  0.72584160  1
