# generated using pymatgen
data_Ca2Al2SiO7
_symmetry_space_group_name_H-M   'P 1'
_cell_length_a   15.45975415
_cell_length_b   15.46150903
_cell_length_c   15.28530521
_cell_angle_alpha   90.00646966
_cell_angle_beta   89.99611687
_cell_angle_gamma   89.98809606
_symmetry_Int_Tables_number   1
_chemical_formula_structural   Ca2Al2SiO7
_chemical_formula_sum   'Ca48 Al48 Si24 O168'
_cell_volume   3653.66364139
_cell_formula_units_Z   24
loop_
 _symmetry_equiv_pos_site_id
 _symmetry_equiv_pos_as_xyz
  1  'x, y, z'
loop_
 _atom_type_symbol
 _atom_type_oxidation_number
  Ca2+  2.0
  Al0+  0.0
  Si0+  0.0
  O2-  -2.0
loop_
 _atom_site_type_symbol
 _atom_site_label
 _atom_site_symmetry_multiplicity
 _atom_site_fract_x
 _atom_site_fract_y
 _atom_site_fract_z
 _atom_site_occupancy
  Ca2+  Ca0  1  0.16325516  0.07872678  0.16978527  1
  Ca2+  Ca1  1  0.16272340  0.08157766  0.50901325  1
  Ca2+  Ca2  1  0.15612884  0.07215979  0.83244829  1
  Ca2+  Ca3  1  0.16472262  0.57186600  0.16401981  1
  Ca2+  Ca4  1  0.16524953  0.56816337  0.50622294  1
  Ca2+  Ca5  1  0.17225749  0.57351654  0.84247051  1
  Ca2+  Ca6  1  0.67514240  0.08331171  0.17492584  1
  Ca2+  Ca7  1  0.67141193  0.08617324  0.50544199  1
  Ca2+  Ca8  1  0.66280702  0.08416688  0.83397532  1
  Ca2+  Ca9  1  0.67483609  0.58018331  0.17065584  1
  Ca2+  Ca10  1  0.67406689  0.58339994  0.50375602  1
  Ca2+  Ca11  1  0.67542232  0.59376454  0.83655599  1
  Ca2+  Ca12  1  0.08271714  0.33420414  0.16138711  1
  Ca2+  Ca13  1  0.08483632  0.32910527  0.49779449  1
  Ca2+  Ca14  1  0.07741260  0.33908235  0.82609197  1
  Ca2+  Ca15  1  0.08215793  0.82395435  0.15772121  1
  Ca2+  Ca16  1  0.07989031  0.83528065  0.50091622  1
  Ca2+  Ca17  1  0.08516063  0.82766730  0.82823207  1
  Ca2+  Ca18  1  0.57960997  0.34053072  0.16060099  1
  Ca2+  Ca19  1  0.58159060  0.33643087  0.50003474  1
  Ca2+  Ca20  1  0.56908073  0.33302118  0.82581877  1
  Ca2+  Ca21  1  0.57665209  0.82630257  0.16103197  1
  Ca2+  Ca22  1  0.57362199  0.82779243  0.49949188  1
  Ca2+  Ca23  1  0.57630836  0.82107712  0.82480087  1
  Ca2+  Ca24  1  0.32752746  0.41904734  0.16713158  1
  Ca2+  Ca25  1  0.32285255  0.40933686  0.50655160  1
  Ca2+  Ca26  1  0.32600181  0.41300880  0.84000559  1
  Ca2+  Ca27  1  0.32798984  0.91292017  0.16912528  1
  Ca2+  Ca28  1  0.33131607  0.91492846  0.50956568  1
  Ca2+  Ca29  1  0.32359082  0.91250216  0.83549975  1
  Ca2+  Ca30  1  0.83298714  0.42621526  0.17229065  1
  Ca2+  Ca31  1  0.83339340  0.42749998  0.50733729  1
  Ca2+  Ca32  1  0.83972274  0.42597326  0.83742326  1
  Ca2+  Ca33  1  0.83184462  0.92429439  0.17354571  1
  Ca2+  Ca34  1  0.83910023  0.92344737  0.50727561  1
  Ca2+  Ca35  1  0.83596863  0.91642838  0.83390465  1
  Ca2+  Ca36  1  0.41984696  0.17607318  0.16073771  1
  Ca2+  Ca37  1  0.42017627  0.17071592  0.50346760  1
  Ca2+  Ca38  1  0.41817247  0.17763741  0.82661633  1
  Ca2+  Ca39  1  0.42036423  0.66484696  0.15812913  1
  Ca2+  Ca40  1  0.41377879  0.67732834  0.49787549  1
  Ca2+  Ca41  1  0.42629470  0.66176042  0.82750363  1
  Ca2+  Ca42  1  0.91936818  0.17350293  0.16372098  1
  Ca2+  Ca43  1  0.92795797  0.16971249  0.49649679  1
  Ca2+  Ca44  1  0.92209514  0.18472098  0.82573772  1
  Ca2+  Ca45  1  0.91984716  0.65877309  0.15928319  1
  Ca2+  Ca46  1  0.90992966  0.66789660  0.50124254  1
  Ca2+  Ca47  1  0.92158425  0.66482989  0.82824894  1
  Al0+  Al48  1  -0.00111095  0.00038949  0.00617943  1
  Al0+  Al49  1  0.00048413  -0.00000384  0.33189954  1
  Al0+  Al50  1  -0.00037984  -0.00020314  0.66644751  1
  Al0+  Al51  1  0.00063067  0.50103963  -0.00043769  1
  Al0+  Al52  1  0.00061702  0.50010906  0.34154719  1
  Al0+  Al53  1  -0.00010707  0.50110126  0.67043557  1
  Al0+  Al54  1  0.49978528  -0.00101532  0.00237215  1
  Al0+  Al55  1  0.49829448  0.00060479  0.32730725  1
  Al0+  Al56  1  0.50035323  0.00036472  0.66228230  1
  Al0+  Al57  1  0.50047358  0.49998542  -0.00630909  1
  Al0+  Al58  1  0.49959029  0.50208869  0.33645886  1
  Al0+  Al59  1  0.50155107  0.49938772  0.65616517  1
  Al0+  Al60  1  0.25006063  0.24551618  -0.00017442  1
  Al0+  Al61  1  0.25056174  0.24700160  0.33135050  1
  Al0+  Al62  1  0.25054849  0.24746526  0.66575001  1
  Al0+  Al63  1  0.24869258  0.75000727  0.00456055  1
  Al0+  Al64  1  0.24820922  0.75042788  0.32828777  1
  Al0+  Al65  1  0.24941753  0.74832801  0.66731180  1
  Al0+  Al66  1  0.75147875  0.24957034  -0.00374732  1
  Al0+  Al67  1  0.75079766  0.24968258  0.34100716  1
  Al0+  Al68  1  0.75106895  0.25239256  0.66187012  1
  Al0+  Al69  1  0.74878569  0.75207954  0.00273067  1
  Al0+  Al70  1  0.74775743  0.75160057  0.33496287  1
  Al0+  Al71  1  0.75056766  0.75221793  0.66267063  1
  Al0+  Al72  1  0.06958681  0.17906305  0.65357134  1
  Al0+  Al73  1  0.82045370  0.57195751  0.01240208  1
  Al0+  Al74  1  0.93012399  0.32160050  0.98817663  1
  Al0+  Al75  1  0.57351133  0.67841294  0.64891264  1
  Al0+  Al76  1  0.82156543  0.57239493  0.34980560  1
  Al0+  Al77  1  0.42755108  0.82138230  0.31650916  1
  Al0+  Al78  1  0.18171288  0.42749272  0.34737036  1
  Al0+  Al79  1  0.67642263  0.42891446  0.34856026  1
  Al0+  Al80  1  0.32390784  0.57000658  0.01333369  1
  Al0+  Al81  1  0.18097684  0.42724419  0.68106391  1
  Al0+  Al82  1  0.57233245  0.17871458  0.65162693  1
  Al0+  Al83  1  0.42679141  0.81926294  0.65386254  1
  Al0+  Al84  1  0.17846713  0.92836361  0.67951953  1
  Al0+  Al85  1  0.82224594  0.06937116  0.34877343  1
  Al0+  Al86  1  0.81798815  0.57251932  0.68311087  1
  Al0+  Al87  1  0.07082999  0.67968891  0.98668909  1
  Al0+  Al88  1  0.93072078  0.82063140  0.65463382  1
  Al0+  Al89  1  0.17821717  0.92921861  0.01541474  1
  Al0+  Al90  1  0.42778854  0.32130195  0.64987951  1
  Al0+  Al91  1  0.17861961  0.42618042  0.01444669  1
  Al0+  Al92  1  0.57129909  0.67960323  0.98704227  1
  Al0+  Al93  1  0.42855362  0.32002243  0.98777716  1
  Al0+  Al94  1  0.07150232  0.17859479  0.31707572  1
  Al0+  Al95  1  0.93013290  0.32570480  0.64945878  1
  Si0+  Si96  1  0.32411739  0.07035946  0.68404383  1
  Si0+  Si97  1  0.06905253  0.67795878  0.31865379  1
  Si0+  Si98  1  0.57264011  0.17974373  0.31782284  1
  Si0+  Si99  1  0.67885486  0.42683186  0.01232892  1
  Si0+  Si100  1  0.07240672  0.67780225  0.64961708  1
  Si0+  Si101  1  0.57299476  0.17628015  0.98582799  1
  Si0+  Si102  1  0.07132582  0.17537586  0.98389449  1
  Si0+  Si103  1  0.32338570  0.57152639  0.68086439  1
  Si0+  Si104  1  0.92755796  0.82396128  0.98586810  1
  Si0+  Si105  1  0.81946526  0.07226090  0.01491518  1
  Si0+  Si106  1  0.17997447  0.92838222  0.34852362  1
  Si0+  Si107  1  0.67848401  0.93109244  0.68161742  1
  Si0+  Si108  1  0.42739487  0.82290832  0.98341323  1
  Si0+  Si109  1  0.67702877  0.42702125  0.68502894  1
  Si0+  Si110  1  0.82128477  0.07237209  0.68330167  1
  Si0+  Si111  1  0.57143784  0.67865778  0.31419176  1
  Si0+  Si112  1  0.92808692  0.82135524  0.31840613  1
  Si0+  Si113  1  0.32410705  0.07002456  0.01875792  1
  Si0+  Si114  1  0.32174704  0.06993049  0.34843713  1
  Si0+  Si115  1  0.92879277  0.32261718  0.31745627  1
  Si0+  Si116  1  0.42949225  0.32106496  0.31783841  1
  Si0+  Si117  1  0.32108276  0.57381020  0.34988614  1
  Si0+  Si118  1  0.67774629  0.92954570  0.01576216  1
  Si0+  Si119  1  0.67590482  0.93017715  0.35058337  1
  O2-  O120  1  0.25421082  0.00246329  0.06314608  1
  O2-  O121  1  0.25158961  -0.00175987  0.39075231  1
  O2-  O122  1  0.25478110  0.00141679  0.72690916  1
  O2-  O123  1  0.25250898  0.49719929  0.06388365  1
  O2-  O124  1  0.25654499  0.50198160  0.39461338  1
  O2-  O125  1  0.25900164  0.49948342  0.72554717  1
  O2-  O126  1  0.74781200  0.00180766  0.05756880  1
  O2-  O127  1  0.74691087  -0.00463934  0.39619657  1
  O2-  O128  1  0.74709145  0.00414711  0.72589771  1
  O2-  O129  1  0.74735142  0.49494041  0.05767084  1
  O2-  O130  1  0.74965606  0.49967693  0.39831439  1
  O2-  O131  1  0.74360589  0.49714320  0.73012608  1
  O2-  O132  1  -0.00216265  0.25485343  0.27135348  1
  O2-  O133  1  0.00248981  0.25354611  0.60059073  1
  O2-  O134  1  0.00899147  0.25020827  0.94200866  1
  O2-  O135  1  -0.00611027  0.74583487  0.27673598  1
  O2-  O136  1  0.00417329  0.74686254  0.60488948  1
  O2-  O137  1  -0.00462910  0.75513310  0.94199070  1
  O2-  O138  1  0.50620077  0.25515671  0.27555783  1
  O2-  O139  1  0.50291395  0.25194205  0.59991818  1
  O2-  O140  1  0.50419992  0.24458820  0.94326228  1
  O2-  O141  1  0.50130197  0.74600751  0.26976717  1
  O2-  O142  1  0.49629650  0.74655669  0.60131058  1
  O2-  O143  1  0.49288239  0.75114476  0.94075904  1
  O2-  O144  1  0.06745595  0.17246961  0.08971831  1
  O2-  O145  1  0.07135702  0.17623935  0.42950701  1
  O2-  O146  1  0.06454076  0.17583351  0.76715079  1
  O2-  O147  1  0.06777942  0.67997905  0.10058681  1
  O2-  O148  1  0.07229348  0.68107786  0.42357206  1
  O2-  O149  1  0.07267654  0.67952986  0.75517027  1
  O2-  O150  1  0.57400482  0.17557414  0.09175201  1
  O2-  O151  1  0.56906307  0.17526602  0.42209990  1
  O2-  O152  1  0.56912794  0.17775107  0.76578628  1
  O2-  O153  1  0.57258687  0.68317305  0.10032352  1
  O2-  O154  1  0.57174006  0.68129521  0.41929443  1
  O2-  O155  1  0.57380360  0.68286237  0.76284399  1
  O2-  O156  1  0.18206230  0.42825212  0.23441283  1
  O2-  O157  1  0.18170246  0.42862492  0.56744806  1
  O2-  O158  1  0.17940595  0.42795631  0.90115475  1
  O2-  O159  1  0.18022498  0.92916340  0.24346814  1
  O2-  O160  1  0.17897637  0.93034031  0.56598313  1
  O2-  O161  1  0.17683508  0.93119655  0.90250955  1
  O2-  O162  1  0.67598876  0.43055722  0.23405770  1
  O2-  O163  1  0.67968663  0.42712781  0.57948866  1
  O2-  O164  1  0.67995620  0.42463500  0.90732661  1
  O2-  O165  1  0.67784305  0.93233864  0.24432662  1
  O2-  O166  1  0.67967509  0.93253824  0.57658590  1
  O2-  O167  1  0.67665067  0.93026766  0.91083795  1
  O2-  O168  1  0.43159090  0.31872427  0.10168732  1
  O2-  O169  1  0.42738715  0.31694547  0.42231590  1
  O2-  O170  1  0.42774592  0.31902764  0.76361437  1
  O2-  O171  1  0.43174383  0.82562240  0.08921346  1
  O2-  O172  1  0.42743921  0.82150818  0.42926342  1
  O2-  O173  1  0.42819478  0.81953704  0.76748483  1
  O2-  O174  1  0.92597459  0.31762528  0.10145322  1
  O2-  O175  1  0.93109565  0.32141304  0.42253792  1
  O2-  O176  1  0.93045453  0.32398889  0.76351697  1
  O2-  O177  1  0.92799729  0.82574593  0.09188065  1
  O2-  O178  1  0.93106664  0.82434490  0.42326594  1
  O2-  O179  1  0.93119985  0.82126629  0.76778662  1
  O2-  O180  1  0.32192770  0.07016183  0.24335070  1
  O2-  O181  1  0.32517585  0.06897280  0.57801202  1
  O2-  O182  1  0.32883941  0.06829104  0.91379729  1
  O2-  O183  1  0.32109943  0.57297185  0.24439992  1
  O2-  O184  1  0.31777901  0.57456925  0.57501479  1
  O2-  O185  1  0.32411069  0.56902833  0.89987362  1
  O2-  O186  1  0.81956822  0.06810461  0.23478597  1
  O2-  O187  1  0.82224815  0.06819475  0.57826980  1
  O2-  O188  1  0.81921483  0.07154809  0.91003146  1
  O2-  O189  1  0.82182841  0.57138826  0.23573188  1
  O2-  O190  1  0.81664631  0.57299151  0.57016574  1
  O2-  O191  1  0.81915792  0.57475271  0.89976143  1
  O2-  O192  1  0.03827022  0.08194340  0.26297253  1
  O2-  O193  1  0.03703846  0.08241917  0.59897757  1
  O2-  O194  1  0.03749383  0.08387445  0.93813596  1
  O2-  O195  1  0.04300455  0.58486324  0.27296409  1
  O2-  O196  1  0.04425216  0.58550509  0.60371494  1
  O2-  O197  1  0.04061778  0.58434589  0.93163246  1
  O2-  O198  1  0.54089616  0.09033290  0.26681378  1
  O2-  O199  1  0.54376161  0.08134596  0.59632703  1
  O2-  O200  1  0.54729132  0.08207033  0.94055100  1
  O2-  O201  1  0.54637512  0.58415406  0.26954625  1
  O2-  O202  1  0.55290488  0.57931676  0.59576184  1
  O2-  O203  1  0.54599648  0.58335495  0.93082458  1
  O2-  O204  1  0.16934720  0.20581233  0.26291712  1
  O2-  O205  1  0.17002553  0.19939461  0.60241190  1
  O2-  O206  1  0.16814267  0.18948674  0.94150712  1
  O2-  O207  1  0.15842026  0.70970037  0.26868118  1
  O2-  O208  1  0.16526535  0.70292068  0.60240112  1
  O2-  O209  1  0.16760098  0.71146109  0.93390672  1
  O2-  O210  1  0.66699809  0.20246714  0.27256010  1
  O2-  O211  1  0.67123320  0.20319940  0.59880973  1
  O2-  O212  1  0.66623525  0.19914932  0.93842686  1
  O2-  O213  1  0.66497781  0.70701783  0.26812714  1
  O2-  O214  1  0.66764510  0.71597629  0.59428306  1
  O2-  O215  1  0.66607994  0.71747839  0.93350773  1
  O2-  O216  1  0.08194700  0.45920191  0.06852403  1
  O2-  O217  1  0.08648929  0.45893422  0.40279817  1
  O2-  O218  1  0.08557557  0.46177679  0.73433985  1
  O2-  O219  1  0.08207175  0.96067269  0.07193488  1
  O2-  O220  1  0.08779414  0.95649410  0.39424016  1
  O2-  O221  1  0.08269390  0.96119229  0.73487106  1
  O2-  O222  1  0.58567996  0.45366472  0.05816120  1
  O2-  O223  1  0.57807531  0.45713010  0.40259482  1
  O2-  O224  1  0.58041528  0.45035477  0.72617961  1
  O2-  O225  1  0.58635035  0.95636024  0.06561069  1
  O2-  O226  1  0.58250305  0.95973606  0.39411386  1
  O2-  O227  1  0.58638821  0.95776852  0.72972353  1
  O2-  O228  1  0.20374383  0.32546013  0.06510987  1
  O2-  O229  1  0.21385067  0.33011226  0.39903466  1
  O2-  O230  1  0.20833552  0.32899402  0.73324255  1
  O2-  O231  1  0.20731026  0.83348308  0.07187739  1
  O2-  O232  1  0.20634589  0.83567752  0.39453943  1
  O2-  O233  1  0.20754318  0.83104761  0.73358456  1
  O2-  O234  1  0.70259368  0.33220689  0.05916496  1
  O2-  O235  1  0.69917560  0.32924251  0.40073933  1
  O2-  O236  1  0.70191002  0.33242429  0.73001189  1
  O2-  O237  1  0.70732561  0.84037659  0.06703038  1
  O2-  O238  1  0.69719236  0.83540736  0.39477988  1
  O2-  O239  1  0.71016448  0.84096951  0.72932811  1
  O2-  O240  1  0.45236275  0.41574500  0.27357767  1
  O2-  O241  1  0.45135527  0.41911231  0.59407846  1
  O2-  O242  1  0.45886808  0.41442411  0.93098612  1
  O2-  O243  1  0.45878322  0.91776653  0.26095100  1
  O2-  O244  1  0.45679697  0.91679505  0.60022063  1
  O2-  O245  1  0.45701477  0.91569503  0.93756175  1
  O2-  O246  1  0.95514820  0.41738946  0.27375643  1
  O2-  O247  1  0.95891888  0.42403441  0.59792674  1
  O2-  O248  1  0.95816665  0.41793692  0.93400452  1
  O2-  O249  1  0.96018300  0.91074866  0.26846788  1
  O2-  O250  1  0.96250572  0.91584236  0.59847998  1
  O2-  O251  1  0.95297400  0.91820332  0.94074402  1
  O2-  O252  1  0.34101542  0.28621214  0.26855130  1
  O2-  O253  1  0.33200566  0.28639680  0.59598573  1
  O2-  O254  1  0.33285926  0.28618016  0.93382781  1
  O2-  O255  1  0.33036107  0.79175851  0.26234109  1
  O2-  O256  1  0.32848297  0.79212852  0.59895733  1
  O2-  O257  1  0.33141673  0.80247724  0.94246643  1
  O2-  O258  1  0.83407688  0.29529517  0.27398210  1
  O2-  O259  1  0.83169593  0.29793411  0.59807372  1
  O2-  O260  1  0.83552822  0.28691322  0.93146994  1
  O2-  O261  1  0.83302210  0.80115252  0.27324180  1
  O2-  O262  1  0.83486886  0.79388141  0.59784353  1
  O2-  O263  1  0.83279924  0.80165528  0.94148588  1
  O2-  O264  1  0.41728118  0.04402591  0.06791016  1
  O2-  O265  1  0.41425008  0.04238608  0.39460667  1
  O2-  O266  1  0.41791021  0.04513072  0.73031127  1
  O2-  O267  1  0.42286745  0.54136992  0.06664466  1
  O2-  O268  1  0.41605726  0.55433236  0.39494557  1
  O2-  O269  1  0.42045851  0.55004763  0.72096066  1
  O2-  O270  1  0.90941716  0.04343169  0.06544837  1
  O2-  O271  1  0.91812056  0.03500306  0.40178990  1
  O2-  O272  1  0.91016185  0.03872680  0.73204532  1
  O2-  O273  1  0.91639972  0.54086203  0.06675677  1
  O2-  O274  1  0.91954757  0.54679301  0.40441393  1
  O2-  O275  1  0.91586782  0.54311648  0.73543971  1
  O2-  O276  1  0.29853278  0.16309303  0.06603115  1
  O2-  O277  1  0.29369815  0.16085313  0.39647182  1
  O2-  O278  1  0.29813367  0.16323587  0.73039303  1
  O2-  O279  1  0.29651427  0.66844271  0.06704531  1
  O2-  O280  1  0.29013101  0.66683035  0.39457791  1
  O2-  O281  1  0.29583335  0.66339906  0.72936380  1
  O2-  O282  1  0.79086471  0.16330839  0.06398631  1
  O2-  O283  1  0.79375638  0.16521649  0.40353286  1
  O2-  O284  1  0.79529474  0.16564830  0.72869842  1
  O2-  O285  1  0.79011321  0.66885724  0.06763495  1
  O2-  O286  1  0.79333693  0.67262960  0.40003825  1
  O2-  O287  1  0.78778730  0.67112982  0.73438789  1
