# generated using pymatgen
data_Ca2Al2SiO7
_symmetry_space_group_name_H-M   'P 1'
_cell_length_a   15.46190695
_cell_length_b   15.46247933
_cell_length_c   15.28604159
_cell_angle_alpha   89.99144152
_cell_angle_beta   90.01634001
_cell_angle_gamma   90.02192371
_symmetry_Int_Tables_number   1
_chemical_formula_structural   Ca2Al2SiO7
_chemical_formula_sum   'Ca48 Al48 Si24 O168'
_cell_volume   3654.57745143
_cell_formula_units_Z   24
loop_
 _symmetry_equiv_pos_site_id
 _symmetry_equiv_pos_as_xyz
  1  'x, y, z'
loop_
 _atom_type_symbol
 _atom_type_oxidation_number
  Ca2+  2.0
  Al0+  0.0
  Si0+  0.0
  O2-  -2.0
loop_
 _atom_site_type_symbol
 _atom_site_label
 _atom_site_symmetry_multiplicity
 _atom_site_fract_x
 _atom_site_fract_y
 _atom_site_fract_z
 _atom_site_occupancy
  Ca2+  Ca0  1  0.16156212  0.08406909  0.16650175  1
  Ca2+  Ca1  1  0.16422802  0.08094280  0.50304471  1
  Ca2+  Ca2  1  0.16938586  0.07429292  0.84535890  1
  Ca2+  Ca3  1  0.17254894  0.57683536  0.18085711  1
  Ca2+  Ca4  1  0.17269074  0.57535200  0.50295599  1
  Ca2+  Ca5  1  0.17307786  0.57899096  0.83515199  1
  Ca2+  Ca6  1  0.67428036  0.08797822  0.16989373  1
  Ca2+  Ca7  1  0.67415690  0.07943620  0.50389677  1
  Ca2+  Ca8  1  0.66799736  0.07236611  0.84786415  1
  Ca2+  Ca9  1  0.67126857  0.57929199  0.17234527  1
  Ca2+  Ca10  1  0.66294558  0.58230376  0.49669852  1
  Ca2+  Ca11  1  0.66770160  0.58247425  0.84397186  1
  Ca2+  Ca12  1  0.07940184  0.32689186  0.16540536  1
  Ca2+  Ca13  1  0.08156220  0.33339107  0.48664031  1
  Ca2+  Ca14  1  0.08510059  0.32828448  0.83052578  1
  Ca2+  Ca15  1  0.08363638  0.82809240  0.16304020  1
  Ca2+  Ca16  1  0.08484006  0.82779515  0.49271629  1
  Ca2+  Ca17  1  0.08441095  0.83851294  0.83051810  1
  Ca2+  Ca18  1  0.58060517  0.33836820  0.16198037  1
  Ca2+  Ca19  1  0.57570410  0.33873523  0.48956534  1
  Ca2+  Ca20  1  0.58897274  0.32750448  0.83617210  1
  Ca2+  Ca21  1  0.59028411  0.82222372  0.16067183  1
  Ca2+  Ca22  1  0.58620655  0.82244019  0.49657451  1
  Ca2+  Ca23  1  0.59281555  0.82503929  0.82816622  1
  Ca2+  Ca24  1  0.32988087  0.41926208  0.17789300  1
  Ca2+  Ca25  1  0.32745769  0.42350129  0.49845116  1
  Ca2+  Ca26  1  0.33222001  0.42055713  0.83090420  1
  Ca2+  Ca27  1  0.33250401  0.92337667  0.16401315  1
  Ca2+  Ca28  1  0.32607462  0.91728893  0.50511747  1
  Ca2+  Ca29  1  0.32184167  0.91881203  0.84115185  1
  Ca2+  Ca30  1  0.82250946  0.42047124  0.17442509  1
  Ca2+  Ca31  1  0.83510995  0.42043945  0.49419727  1
  Ca2+  Ca32  1  0.82557051  0.42600495  0.84444639  1
  Ca2+  Ca33  1  0.83002040  0.92813906  0.16518515  1
  Ca2+  Ca34  1  0.83094662  0.92264732  0.50067557  1
  Ca2+  Ca35  1  0.82240090  0.92047815  0.84127269  1
  Ca2+  Ca36  1  0.41944866  0.17402168  0.15899925  1
  Ca2+  Ca37  1  0.41761360  0.17662734  0.49074058  1
  Ca2+  Ca38  1  0.42034189  0.16021842  0.83684852  1
  Ca2+  Ca39  1  0.42823224  0.66053121  0.16417252  1
  Ca2+  Ca40  1  0.42270566  0.65720849  0.49425595  1
  Ca2+  Ca41  1  0.42823275  0.66548047  0.82749217  1
  Ca2+  Ca42  1  0.91965174  0.16633380  0.16408800  1
  Ca2+  Ca43  1  0.92351316  0.17377041  0.48604677  1
  Ca2+  Ca44  1  0.91949527  0.16032288  0.83601360  1
  Ca2+  Ca45  1  0.91898085  0.65669117  0.16494988  1
  Ca2+  Ca46  1  0.92292911  0.66730329  0.48845155  1
  Ca2+  Ca47  1  0.91366950  0.66812160  0.83173475  1
  Al0+  Al48  1  -0.00107746  -0.00210189  0.00190796  1
  Al0+  Al49  1  -0.00114380  -0.00077424  0.33476353  1
  Al0+  Al50  1  -0.00004743  0.00059842  0.66807921  1
  Al0+  Al51  1  0.00119454  0.49942475  -0.00082130  1
  Al0+  Al52  1  -0.00155685  0.49914264  0.33134834  1
  Al0+  Al53  1  0.00018749  0.49947294  0.67063414  1
  Al0+  Al54  1  0.49615494  -0.00128399  0.00373650  1
  Al0+  Al55  1  0.49837926  -0.00127545  0.33572430  1
  Al0+  Al56  1  0.50138470  -0.00219056  0.66751336  1
  Al0+  Al57  1  0.49872715  0.50089352  -0.00443911  1
  Al0+  Al58  1  0.49988598  0.50045079  0.33086254  1
  Al0+  Al59  1  0.50117159  0.49861526  0.66701161  1
  Al0+  Al60  1  0.24897229  0.24992380  -0.00428054  1
  Al0+  Al61  1  0.25145944  0.24880098  0.32897656  1
  Al0+  Al62  1  0.25129721  0.25029490  0.66905617  1
  Al0+  Al63  1  0.25027676  0.74917169  0.00205046  1
  Al0+  Al64  1  0.25092725  0.75177231  0.33195332  1
  Al0+  Al65  1  0.25168559  0.75020742  0.67463343  1
  Al0+  Al66  1  0.74859817  0.25188613  0.00060882  1
  Al0+  Al67  1  0.75053670  0.24923407  0.34099587  1
  Al0+  Al68  1  0.75278279  0.25131882  0.66520030  1
  Al0+  Al69  1  0.75317176  0.75059799  0.00277026  1
  Al0+  Al70  1  0.74981647  0.75102626  0.33240609  1
  Al0+  Al71  1  0.75137920  0.75073592  0.66271309  1
  Al0+  Al72  1  0.07117882  0.67932160  0.32132339  1
  Al0+  Al73  1  0.56977240  0.68086641  0.31834003  1
  Al0+  Al74  1  0.67831431  0.42949155  0.34938722  1
  Al0+  Al75  1  0.32136574  0.57309047  0.34655052  1
  Al0+  Al76  1  0.68078575  0.92905047  0.67907882  1
  Al0+  Al77  1  0.07141194  0.17732544  0.31825818  1
  Al0+  Al78  1  0.92657031  0.32183436  0.31724774  1
  Al0+  Al79  1  0.67612843  0.92724805  0.01545352  1
  Al0+  Al80  1  0.82111225  0.57287932  0.34947488  1
  Al0+  Al81  1  0.81941458  0.07198595  0.01440744  1
  Al0+  Al82  1  0.57089435  0.17875193  0.98821864  1
  Al0+  Al83  1  0.67683423  0.43012060  0.01395745  1
  Al0+  Al84  1  0.57151679  0.67887805  0.65131260  1
  Al0+  Al85  1  0.82280931  0.57190876  0.01434136  1
  Al0+  Al86  1  0.17876886  0.42692384  0.34515355  1
  Al0+  Al87  1  0.17771605  0.92770547  0.01787555  1
  Al0+  Al88  1  0.17716686  0.42799967  0.68298923  1
  Al0+  Al89  1  0.31986765  0.07281775  0.01623472  1
  Al0+  Al90  1  0.06897738  0.17875177  0.98422248  1
  Al0+  Al91  1  0.57145530  0.68156637  0.98568954  1
  Al0+  Al92  1  0.43067326  0.32066508  0.32014698  1
  Al0+  Al93  1  0.17888955  0.93013392  0.67919381  1
  Al0+  Al94  1  0.82120378  0.07048883  0.34864710  1
  Al0+  Al95  1  0.32321418  0.57023965  0.68325724  1
  Si0+  Si96  1  0.32191845  0.07108716  0.34888254  1
  Si0+  Si97  1  0.92946844  0.32294775  0.65121558  1
  Si0+  Si98  1  0.57293830  0.17696778  0.65249620  1
  Si0+  Si99  1  0.17920049  0.42841873  0.01483885  1
  Si0+  Si100  1  0.07316828  0.67717017  0.98337482  1
  Si0+  Si101  1  0.67915606  0.42820879  0.68169704  1
  Si0+  Si102  1  0.42564030  0.82121212  0.98215221  1
  Si0+  Si103  1  0.07064797  0.17944204  0.65288151  1
  Si0+  Si104  1  0.82133465  0.07336276  0.68389215  1
  Si0+  Si105  1  0.42678201  0.32284550  0.97985801  1
  Si0+  Si106  1  0.32334742  0.07290649  0.68231836  1
  Si0+  Si107  1  0.82120066  0.57106918  0.68021697  1
  Si0+  Si108  1  0.42661821  0.82203690  0.65041462  1
  Si0+  Si109  1  0.92799823  0.32307121  0.98121326  1
  Si0+  Si110  1  0.07213202  0.67890240  0.65395263  1
  Si0+  Si111  1  0.93042129  0.82124124  0.65118699  1
  Si0+  Si112  1  0.42632041  0.82534664  0.31525690  1
  Si0+  Si113  1  0.92795247  0.82244122  0.31556268  1
  Si0+  Si114  1  0.93126671  0.81984672  0.98398724  1
  Si0+  Si115  1  0.67597287  0.92830224  0.35104455  1
  Si0+  Si116  1  0.31998884  0.56990167  0.01475539  1
  Si0+  Si117  1  0.43042435  0.31922621  0.65117187  1
  Si0+  Si118  1  0.17893091  0.92979394  0.34823110  1
  Si0+  Si119  1  0.57172994  0.17588742  0.32021303  1
  O2-  O120  1  0.24683847  0.00238650  0.06731232  1
  O2-  O121  1  0.24921344  0.00156383  0.39077454  1
  O2-  O122  1  0.25387075  0.00441869  0.72505932  1
  O2-  O123  1  0.24954075  0.49919015  0.05689143  1
  O2-  O124  1  0.24701594  0.50262975  0.39528227  1
  O2-  O125  1  0.24879537  0.50031486  0.73346757  1
  O2-  O126  1  0.74130432  0.00616700  0.06395401  1
  O2-  O127  1  0.74432248  -0.00232718  0.39517471  1
  O2-  O128  1  0.74972097  0.00804921  0.72712378  1
  O2-  O129  1  0.74928093  0.50157782  0.06271870  1
  O2-  O130  1  0.74973182  0.50137748  0.40149289  1
  O2-  O131  1  0.74908650  0.50112962  0.72212956  1
  O2-  O132  1  -0.00025081  0.24993116  0.26897547  1
  O2-  O133  1  0.00232860  0.25258546  0.61062434  1
  O2-  O134  1  -0.00598891  0.25229896  0.93501832  1
  O2-  O135  1  -0.00666249  0.75000175  0.27248373  1
  O2-  O136  1  0.00345420  0.75169099  0.61041604  1
  O2-  O137  1  0.00192753  0.74794773  0.94079806  1
  O2-  O138  1  0.50708779  0.24721927  0.27527030  1
  O2-  O139  1  0.50125456  0.24695081  0.60972060  1
  O2-  O140  1  0.49630607  0.25294585  0.93796546  1
  O2-  O141  1  0.49486784  0.75611046  0.27259481  1
  O2-  O142  1  0.49429496  0.75254123  0.60590986  1
  O2-  O143  1  0.49956361  0.75852247  0.93711390  1
  O2-  O144  1  0.06873674  0.18124790  0.09644455  1
  O2-  O145  1  0.07076613  0.17573523  0.43302805  1
  O2-  O146  1  0.06812086  0.17783369  0.75768011  1
  O2-  O147  1  0.07417446  0.67689752  0.08805178  1
  O2-  O148  1  0.07229015  0.68409084  0.43527989  1
  O2-  O149  1  0.06858663  0.67878778  0.75928719  1
  O2-  O150  1  0.56952950  0.18131687  0.10101592  1
  O2-  O151  1  0.56659843  0.17361926  0.42665808  1
  O2-  O152  1  0.57295734  0.17778716  0.75726756  1
  O2-  O153  1  0.56847215  0.68013458  0.09828688  1
  O2-  O154  1  0.56854679  0.68299493  0.43197159  1
  O2-  O155  1  0.57351364  0.68040987  0.76442726  1
  O2-  O156  1  0.18237095  0.42715738  0.23126855  1
  O2-  O157  1  0.17556466  0.42774560  0.57008098  1
  O2-  O158  1  0.17916553  0.43057499  0.90935992  1
  O2-  O159  1  0.17903016  0.92890226  0.24380954  1
  O2-  O160  1  0.17841291  0.93154586  0.56574862  1
  O2-  O161  1  0.17937567  0.92803643  0.90373560  1
  O2-  O162  1  0.67698803  0.43067863  0.23639373  1
  O2-  O163  1  0.67852679  0.42611760  0.57733381  1
  O2-  O164  1  0.67891814  0.43148742  0.89903587  1
  O2-  O165  1  0.67464969  0.92960804  0.24607943  1
  O2-  O166  1  0.68435171  0.93055131  0.56600196  1
  O2-  O167  1  0.68172064  0.92617545  0.90127321  1
  O2-  O168  1  0.42537682  0.32451311  0.08514853  1
  O2-  O169  1  0.42990957  0.31761072  0.43411139  1
  O2-  O170  1  0.43063637  0.31920173  0.75609725  1
  O2-  O171  1  0.42111812  0.81615915  0.08738302  1
  O2-  O172  1  0.42614476  0.82961438  0.42106478  1
  O2-  O173  1  0.42689141  0.82347693  0.75555220  1
  O2-  O174  1  0.93110732  0.32570486  0.08589245  1
  O2-  O175  1  0.92913903  0.31909986  0.43209219  1
  O2-  O176  1  0.92663184  0.32267084  0.75611666  1
  O2-  O177  1  0.93276248  0.82049882  0.08852137  1
  O2-  O178  1  0.93157595  0.82414221  0.42209291  1
  O2-  O179  1  0.92914096  0.82058549  0.75623596  1
  O2-  O180  1  0.32541498  0.06972715  0.24480011  1
  O2-  O181  1  0.32228146  0.07394600  0.57634327  1
  O2-  O182  1  0.31783596  0.07032625  0.90186414  1
  O2-  O183  1  0.32022853  0.57129161  0.23256759  1
  O2-  O184  1  0.32213887  0.56811587  0.57017087  1
  O2-  O185  1  0.31877417  0.56918425  0.90945504  1
  O2-  O186  1  0.82096997  0.06839994  0.23617328  1
  O2-  O187  1  0.82265997  0.07219939  0.57826247  1
  O2-  O188  1  0.82005700  0.06742377  0.90007313  1
  O2-  O189  1  0.81880925  0.57272577  0.23663922  1
  O2-  O190  1  0.82459922  0.57054265  0.57596612  1
  O2-  O191  1  0.82260617  0.57090788  0.89939508  1
  O2-  O192  1  0.04113376  0.07865894  0.26728114  1
  O2-  O193  1  0.04098997  0.08803270  0.60467839  1
  O2-  O194  1  0.03808478  0.08058675  0.93167724  1
  O2-  O195  1  0.04436291  0.58258931  0.26683526  1
  O2-  O196  1  0.04194968  0.58723194  0.60777387  1
  O2-  O197  1  0.04585779  0.58551318  0.93428360  1
  O2-  O198  1  0.54339475  0.08318209  0.27426425  1
  O2-  O199  1  0.54745332  0.08446803  0.60486727  1
  O2-  O200  1  0.53861442  0.08105626  0.93454963  1
  O2-  O201  1  0.53822525  0.58529318  0.26425674  1
  O2-  O202  1  0.54200027  0.58056650  0.59980051  1
  O2-  O203  1  0.53729497  0.58591871  0.93013563  1
  O2-  O204  1  0.17030296  0.20188689  0.26583425  1
  O2-  O205  1  0.16510576  0.20245723  0.60808542  1
  O2-  O206  1  0.16523238  0.21032602  0.92855952  1
  O2-  O207  1  0.16643938  0.71344599  0.26615103  1
  O2-  O208  1  0.16544086  0.70561759  0.60978936  1
  O2-  O209  1  0.16474709  0.70613431  0.93543543  1
  O2-  O210  1  0.66753786  0.19682338  0.27972984  1
  O2-  O211  1  0.66549587  0.20521825  0.60581638  1
  O2-  O212  1  0.66691520  0.20918112  0.93074231  1
  O2-  O213  1  0.66680731  0.71220561  0.26563395  1
  O2-  O214  1  0.66750738  0.71223742  0.59677048  1
  O2-  O215  1  0.67045163  0.71006193  0.93402294  1
  O2-  O216  1  0.08746316  0.45605793  0.06074964  1
  O2-  O217  1  0.07952920  0.45217737  0.39639306  1
  O2-  O218  1  0.07936622  0.45651210  0.73835848  1
  O2-  O219  1  0.07890817  0.95301822  0.06894847  1
  O2-  O220  1  0.08745848  0.95584365  0.39723728  1
  O2-  O221  1  0.08222965  0.96065161  0.73378369  1
  O2-  O222  1  0.57713387  0.45787101  0.06325650  1
  O2-  O223  1  0.58048160  0.46093881  0.40228563  1
  O2-  O224  1  0.58756123  0.45321493  0.72978184  1
  O2-  O225  1  0.57449612  0.94366989  0.06391865  1
  O2-  O226  1  0.58234505  0.95285232  0.39886085  1
  O2-  O227  1  0.58216684  0.95316428  0.73195160  1
  O2-  O228  1  0.20649164  0.33633990  0.05943188  1
  O2-  O229  1  0.21097370  0.32921882  0.39844161  1
  O2-  O230  1  0.20810448  0.32981188  0.73604436  1
  O2-  O231  1  0.20821869  0.82912273  0.06920064  1
  O2-  O232  1  0.20888510  0.83933897  0.39724583  1
  O2-  O233  1  0.20639013  0.83434714  0.73588808  1
  O2-  O234  1  0.70216402  0.33162999  0.06576074  1
  O2-  O235  1  0.70276738  0.33070299  0.40457026  1
  O2-  O236  1  0.70982260  0.33651230  0.72906410  1
  O2-  O237  1  0.71451252  0.83352541  0.06967917  1
  O2-  O238  1  0.70456096  0.83586509  0.39738381  1
  O2-  O239  1  0.71725427  0.83374634  0.73216948  1
  O2-  O240  1  0.45915590  0.41630628  0.26450271  1
  O2-  O241  1  0.46039193  0.41001811  0.60378205  1
  O2-  O242  1  0.45369115  0.41525841  0.93130541  1
  O2-  O243  1  0.45298260  0.91866003  0.26849488  1
  O2-  O244  1  0.45174807  0.91604454  0.60305789  1
  O2-  O245  1  0.44217112  0.91773610  0.93917452  1
  O2-  O246  1  0.95125658  0.42024841  0.26417501  1
  O2-  O247  1  0.95643405  0.41552319  0.60483266  1
  O2-  O248  1  0.95832860  0.41539551  0.93249205  1
  O2-  O249  1  0.95924429  0.91345182  0.26876769  1
  O2-  O250  1  0.95760395  0.91387306  0.60390811  1
  O2-  O251  1  0.95965585  0.91020200  0.93350178  1
  O2-  O252  1  0.33660203  0.28741293  0.26381873  1
  O2-  O253  1  0.33799731  0.29163743  0.60397060  1
  O2-  O254  1  0.33418840  0.29636016  0.93159712  1
  O2-  O255  1  0.33282340  0.80209644  0.26874430  1
  O2-  O256  1  0.33159129  0.79795604  0.60534950  1
  O2-  O257  1  0.33400121  0.78899173  0.93363989  1
  O2-  O258  1  0.82720682  0.29098969  0.26848650  1
  O2-  O259  1  0.83825677  0.29459931  0.60211655  1
  O2-  O260  1  0.83324807  0.30072719  0.93573795  1
  O2-  O261  1  0.83286026  0.80308308  0.27167065  1
  O2-  O262  1  0.84095223  0.79178748  0.60061165  1
  O2-  O263  1  0.84033838  0.79128923  0.93434296  1
  O2-  O264  1  0.41665869  0.04421227  0.07131120  1
  O2-  O265  1  0.41213049  0.04196996  0.40018981  1
  O2-  O266  1  0.41718222  0.04719262  0.72747467  1
  O2-  O267  1  0.41187294  0.54154323  0.06003397  1
  O2-  O268  1  0.41761305  0.54008826  0.39961812  1
  O2-  O269  1  0.42039276  0.53674679  0.73687734  1
  O2-  O270  1  0.91479107  0.03614074  0.06717976  1
  O2-  O271  1  0.91614156  0.03507094  0.40490487  1
  O2-  O272  1  0.91379360  0.04373244  0.72964908  1
  O2-  O273  1  0.92233439  0.54344694  0.06438866  1
  O2-  O274  1  0.91993455  0.54444382  0.40222082  1
  O2-  O275  1  0.91177559  0.54331729  0.73052829  1
  O2-  O276  1  0.29317173  0.17294702  0.06539039  1
  O2-  O277  1  0.29471566  0.16250804  0.39704165  1
  O2-  O278  1  0.29969169  0.16598304  0.72939868  1
  O2-  O279  1  0.29280917  0.66117784  0.06175790  1
  O2-  O280  1  0.29663352  0.67303311  0.39879238  1
  O2-  O281  1  0.29772805  0.66863083  0.73749296  1
  O2-  O282  1  0.79795337  0.17236806  0.06420956  1
  O2-  O283  1  0.79279096  0.16520610  0.40718985  1
  O2-  O284  1  0.80008810  0.16864141  0.72811759  1
  O2-  O285  1  0.80028999  0.67060941  0.06635660  1
  O2-  O286  1  0.79504826  0.67312010  0.40143879  1
  O2-  O287  1  0.79451479  0.66381956  0.72613960  1
