# generated using pymatgen
data_Ca2Al2SiO7
_symmetry_space_group_name_H-M   'P 1'
_cell_length_a   15.46794752
_cell_length_b   15.46492031
_cell_length_c   15.29010693
_cell_angle_alpha   89.99851028
_cell_angle_beta   89.98717912
_cell_angle_gamma   89.99510915
_symmetry_Int_Tables_number   1
_chemical_formula_structural   Ca2Al2SiO7
_chemical_formula_sum   'Ca48 Al48 Si24 O168'
_cell_volume   3657.55517331
_cell_formula_units_Z   24
loop_
 _symmetry_equiv_pos_site_id
 _symmetry_equiv_pos_as_xyz
  1  'x, y, z'
loop_
 _atom_type_symbol
 _atom_type_oxidation_number
  Ca2+  2.0
  Al0+  0.0
  Si0+  0.0
  O2-  -2.0
loop_
 _atom_site_type_symbol
 _atom_site_label
 _atom_site_symmetry_multiplicity
 _atom_site_fract_x
 _atom_site_fract_y
 _atom_site_fract_z
 _atom_site_occupancy
  Ca2+  Ca0  1  0.17533681  0.07793720  0.16208593  1
  Ca2+  Ca1  1  0.16690964  0.08529680  0.50483542  1
  Ca2+  Ca2  1  0.17211986  0.07833723  0.84234276  1
  Ca2+  Ca3  1  0.18451830  0.58437198  0.17051424  1
  Ca2+  Ca4  1  0.17510696  0.58058639  0.49931572  1
  Ca2+  Ca5  1  0.17506172  0.57946741  0.84200172  1
  Ca2+  Ca6  1  0.64983333  0.07363416  0.16759696  1
  Ca2+  Ca7  1  0.66564346  0.08061509  0.50212691  1
  Ca2+  Ca8  1  0.67645436  0.08025019  0.84481561  1
  Ca2+  Ca9  1  0.67333987  0.59371456  0.17212542  1
  Ca2+  Ca10  1  0.66470706  0.57885130  0.50027389  1
  Ca2+  Ca11  1  0.66504456  0.57942152  0.83976145  1
  Ca2+  Ca12  1  0.07427232  0.33946765  0.16626428  1
  Ca2+  Ca13  1  0.07652734  0.32690818  0.49484894  1
  Ca2+  Ca14  1  0.08019376  0.32338632  0.82775095  1
  Ca2+  Ca15  1  0.08161064  0.83571321  0.16101027  1
  Ca2+  Ca16  1  0.07296211  0.83430695  0.49925760  1
  Ca2+  Ca17  1  0.07828282  0.83717123  0.82836524  1
  Ca2+  Ca18  1  0.57645725  0.32357891  0.16135633  1
  Ca2+  Ca19  1  0.58147749  0.32985241  0.49532511  1
  Ca2+  Ca20  1  0.57536136  0.33222160  0.83191335  1
  Ca2+  Ca21  1  0.58172707  0.82704253  0.16114959  1
  Ca2+  Ca22  1  0.57497545  0.83233652  0.48929307  1
  Ca2+  Ca23  1  0.57861417  0.83334303  0.83634944  1
  Ca2+  Ca24  1  0.34810127  0.42569855  0.16877201  1
  Ca2+  Ca25  1  0.34985804  0.42289288  0.50087623  1
  Ca2+  Ca26  1  0.33826652  0.41791149  0.84131599  1
  Ca2+  Ca27  1  0.34198114  0.91674186  0.16759474  1
  Ca2+  Ca28  1  0.33757832  0.91486251  0.50295280  1
  Ca2+  Ca29  1  0.33027412  0.91707185  0.84570002  1
  Ca2+  Ca30  1  0.83180581  0.42584040  0.17436724  1
  Ca2+  Ca31  1  0.82812560  0.41847921  0.50312103  1
  Ca2+  Ca32  1  0.82228016  0.42089128  0.83910999  1
  Ca2+  Ca33  1  0.81530179  0.92252850  0.16766884  1
  Ca2+  Ca34  1  0.82390644  0.91924676  0.50632174  1
  Ca2+  Ca35  1  0.83064272  0.92382230  0.84129274  1
  Ca2+  Ca36  1  0.42555171  0.17169713  0.15850870  1
  Ca2+  Ca37  1  0.42298048  0.18045324  0.48964211  1
  Ca2+  Ca38  1  0.41773901  0.17165156  0.83261807  1
  Ca2+  Ca39  1  0.42598225  0.66969728  0.15905756  1
  Ca2+  Ca40  1  0.42367428  0.67532159  0.48999842  1
  Ca2+  Ca41  1  0.41665746  0.67611232  0.83409195  1
  Ca2+  Ca42  1  0.91299850  0.17019109  0.16292295  1
  Ca2+  Ca43  1  0.91770648  0.16783470  0.49892688  1
  Ca2+  Ca44  1  0.92158113  0.15425359  0.82659793  1
  Ca2+  Ca45  1  0.91529210  0.66218169  0.15998557  1
  Ca2+  Ca46  1  0.91235408  0.67053483  0.49475580  1
  Ca2+  Ca47  1  0.91371224  0.67326154  0.83163933  1
  Al0+  Al48  1  -0.00074864  0.00040918  0.00909904  1
  Al0+  Al49  1  0.00082205  -0.00000127  0.33290986  1
  Al0+  Al50  1  0.00051382  -0.00163946  0.65953957  1
  Al0+  Al51  1  -0.00013883  0.49979120  -0.00001442  1
  Al0+  Al52  1  0.00106848  0.50036536  0.33597579  1
  Al0+  Al53  1  0.00242428  0.49995972  0.66805865  1
  Al0+  Al54  1  0.49979035  0.00064204  -0.00207968  1
  Al0+  Al55  1  0.49769323  0.00069778  0.33569536  1
  Al0+  Al56  1  0.49989675  0.00052519  0.66463235  1
  Al0+  Al57  1  0.50094267  0.49936862  -0.00322253  1
  Al0+  Al58  1  0.50350115  0.50183508  0.33278248  1
  Al0+  Al59  1  0.50120678  0.50095472  0.66936993  1
  Al0+  Al60  1  0.24516008  0.24848944  0.00167560  1
  Al0+  Al61  1  0.24751618  0.24987179  0.32924947  1
  Al0+  Al62  1  0.24940559  0.25087011  0.65727169  1
  Al0+  Al63  1  0.24754939  0.74613639  0.00341652  1
  Al0+  Al64  1  0.24729556  0.74961393  0.33782398  1
  Al0+  Al65  1  0.25004829  0.74913057  0.66256657  1
  Al0+  Al66  1  0.75070794  0.25306356  -0.00064709  1
  Al0+  Al67  1  0.75266099  0.24967812  0.32525625  1
  Al0+  Al68  1  0.75050277  0.25094881  0.67653742  1
  Al0+  Al69  1  0.75112263  0.75095561  0.00133933  1
  Al0+  Al70  1  0.75040689  0.75385989  0.34039523  1
  Al0+  Al71  1  0.75006434  0.74966707  0.66275310  1
  Al0+  Al72  1  0.32202797  0.56808893  0.01226785  1
  Al0+  Al73  1  0.57429390  0.67945122  0.98359627  1
  Al0+  Al74  1  0.67800569  0.93012444  0.01368529  1
  Al0+  Al75  1  0.42851512  0.32343129  0.31779214  1
  Al0+  Al76  1  0.92916484  0.81923390  0.65326272  1
  Al0+  Al77  1  0.82003470  0.56997969  0.01210620  1
  Al0+  Al78  1  0.67759609  0.93250238  0.34928724  1
  Al0+  Al79  1  0.67899951  0.43045464  0.68151091  1
  Al0+  Al80  1  0.82223720  0.57156409  0.34874407  1
  Al0+  Al81  1  0.82070194  0.06814934  0.67864969  1
  Al0+  Al82  1  0.42577250  0.82038318  0.31841695  1
  Al0+  Al83  1  0.82152201  0.07399764  0.01633296  1
  Al0+  Al84  1  0.57282365  0.17768427  0.98212106  1
  Al0+  Al85  1  0.57359747  0.68121386  0.31949694  1
  Al0+  Al86  1  0.32335852  0.56958750  0.34836296  1
  Al0+  Al87  1  0.07004395  0.17888803  0.65343147  1
  Al0+  Al88  1  0.57163491  0.17839969  0.31970807  1
  Al0+  Al89  1  0.42855366  0.82161058  0.65269064  1
  Al0+  Al90  1  0.42695851  0.31954312  0.98474909  1
  Al0+  Al91  1  0.42656522  0.81992237  0.98584117  1
  Al0+  Al92  1  0.32147677  0.07158299  0.01385888  1
  Al0+  Al93  1  0.93063070  0.32114038  0.32044202  1
  Al0+  Al94  1  0.43013061  0.32103182  0.65242954  1
  Al0+  Al95  1  0.17897138  0.92666253  0.01394771  1
  Si0+  Si96  1  0.31879513  0.07172457  0.34984630  1
  Si0+  Si97  1  0.17659217  0.92894008  0.35216705  1
  Si0+  Si98  1  0.92943966  0.82189687  0.31701416  1
  Si0+  Si99  1  0.82468942  0.07283978  0.35075212  1
  Si0+  Si100  1  0.67571445  0.92634341  0.68373202  1
  Si0+  Si101  1  0.67722468  0.42880744  0.01909227  1
  Si0+  Si102  1  0.32044949  0.07292132  0.67813945  1
  Si0+  Si103  1  0.92948958  0.32433684  0.98341045  1
  Si0+  Si104  1  0.92699007  0.32356292  0.65252530  1
  Si0+  Si105  1  0.31953208  0.57019286  0.68186049  1
  Si0+  Si106  1  0.07216381  0.17571177  0.31263587  1
  Si0+  Si107  1  0.17646094  0.42678568  0.01637905  1
  Si0+  Si108  1  0.06920696  0.67936644  0.31825992  1
  Si0+  Si109  1  0.07324240  0.67583034  0.64879356  1
  Si0+  Si110  1  0.18052497  0.92905034  0.67861667  1
  Si0+  Si111  1  0.82425407  0.57357816  0.68324866  1
  Si0+  Si112  1  0.57162589  0.67805099  0.64987339  1
  Si0+  Si113  1  0.93132594  0.82111499  0.98743521  1
  Si0+  Si114  1  0.68062172  0.42592738  0.34876797  1
  Si0+  Si115  1  0.06632519  0.17800344  0.98550819  1
  Si0+  Si116  1  0.17789396  0.42768081  0.35121097  1
  Si0+  Si117  1  0.57458953  0.17899334  0.65171481  1
  Si0+  Si118  1  0.07061568  0.67678912  0.98519891  1
  Si0+  Si119  1  0.17799483  0.42714107  0.68119297  1
  O2-  O120  1  0.25692919  -0.00810713  0.06423361  1
  O2-  O121  1  0.24859795  -0.00057143  0.39317589  1
  O2-  O122  1  0.25405375  -0.00293506  0.72051463  1
  O2-  O123  1  0.25130836  0.48891690  0.05897178  1
  O2-  O124  1  0.25321679  0.48921723  0.39584091  1
  O2-  O125  1  0.24976925  0.49708451  0.72342284  1
  O2-  O126  1  0.74262070  0.00927133  0.06469549  1
  O2-  O127  1  0.75229876  0.00859778  0.39495826  1
  O2-  O128  1  0.74541227  -0.00513995  0.72625312  1
  O2-  O129  1  0.74406608  0.49975139  0.06243301  1
  O2-  O130  1  0.74801084  0.49616362  0.39405736  1
  O2-  O131  1  0.75524244  0.50553441  0.72661399  1
  O2-  O132  1  0.00341707  0.24552719  0.27107023  1
  O2-  O133  1  -0.00567177  0.25350636  0.60839729  1
  O2-  O134  1  -0.00609452  0.24691919  0.94171434  1
  O2-  O135  1  -0.00210723  0.74884883  0.27415604  1
  O2-  O136  1  0.00006538  0.74041294  0.60566024  1
  O2-  O137  1  0.00235956  0.75051774  0.94361794  1
  O2-  O138  1  0.49933836  0.25010003  0.26999791  1
  O2-  O139  1  0.50444554  0.24580110  0.60681399  1
  O2-  O140  1  0.49780146  0.24746630  0.93277631  1
  O2-  O141  1  0.49777203  0.74868907  0.26945891  1
  O2-  O142  1  0.50695681  0.75090061  0.60681047  1
  O2-  O143  1  0.50033878  0.75027374  0.93426789  1
  O2-  O144  1  0.06594511  0.17921590  0.09036663  1
  O2-  O145  1  0.07199540  0.17493811  0.41861040  1
  O2-  O146  1  0.07042045  0.17863686  0.76662659  1
  O2-  O147  1  0.06842559  0.67394128  0.09018442  1
  O2-  O148  1  0.06886136  0.68135240  0.42366775  1
  O2-  O149  1  0.07624047  0.67656492  0.75432668  1
  O2-  O150  1  0.57169288  0.18121163  0.09547651  1
  O2-  O151  1  0.57104215  0.18018912  0.43419639  1
  O2-  O152  1  0.57329894  0.17915156  0.75668878  1
  O2-  O153  1  0.57639743  0.68078503  0.09669598  1
  O2-  O154  1  0.57205925  0.68188466  0.43372543  1
  O2-  O155  1  0.57050423  0.67683630  0.75519538  1
  O2-  O156  1  0.17230002  0.43292731  0.24609233  1
  O2-  O157  1  0.17356192  0.42936225  0.57663478  1
  O2-  O158  1  0.17254832  0.42904663  0.91029564  1
  O2-  O159  1  0.17202676  0.92912368  0.24779031  1
  O2-  O160  1  0.17997210  0.93000968  0.57339860  1
  O2-  O161  1  0.17438626  0.93089337  0.89963150  1
  O2-  O162  1  0.68332439  0.42495396  0.24370784  1
  O2-  O163  1  0.68068419  0.43025415  0.56817470  1
  O2-  O164  1  0.68019491  0.42911354  0.91301400  1
  O2-  O165  1  0.67914791  0.93064167  0.23687575  1
  O2-  O166  1  0.67613515  0.92780863  0.57802668  1
  O2-  O167  1  0.68466421  0.92708051  0.89976010  1
  O2-  O168  1  0.42909729  0.31966611  0.09779920  1
  O2-  O169  1  0.43149838  0.32104478  0.43200744  1
  O2-  O170  1  0.42677808  0.31955370  0.76488394  1
  O2-  O171  1  0.42541862  0.81527276  0.09874067  1
  O2-  O172  1  0.42769375  0.81885845  0.43279900  1
  O2-  O173  1  0.42275304  0.81946273  0.76500312  1
  O2-  O174  1  0.93500734  0.32879689  0.08828598  1
  O2-  O175  1  0.93253440  0.32015753  0.43402370  1
  O2-  O176  1  0.93083210  0.32631131  0.75793936  1
  O2-  O177  1  0.93318524  0.81911970  0.09255131  1
  O2-  O178  1  0.93282706  0.82197388  0.42237799  1
  O2-  O179  1  0.93310194  0.81970524  0.76660541  1
  O2-  O180  1  0.31679505  0.07174860  0.24533671  1
  O2-  O181  1  0.31753162  0.07310961  0.57291678  1
  O2-  O182  1  0.31467604  0.07481714  0.89953171  1
  O2-  O183  1  0.31984129  0.57137215  0.23576801  1
  O2-  O184  1  0.31803717  0.56995684  0.57674443  1
  O2-  O185  1  0.31624171  0.56917266  0.89852020  1
  O2-  O186  1  0.83067449  0.06851975  0.24602428  1
  O2-  O187  1  0.81985735  0.06825423  0.56548479  1
  O2-  O188  1  0.82731599  0.06629521  0.90252932  1
  O2-  O189  1  0.82448608  0.56995283  0.23582297  1
  O2-  O190  1  0.82557606  0.57204563  0.57775403  1
  O2-  O191  1  0.82297032  0.56702537  0.89882202  1
  O2-  O192  1  0.04563724  0.08216577  0.26752021  1
  O2-  O193  1  0.04046354  0.08402732  0.59563937  1
  O2-  O194  1  0.03903829  0.08525260  0.93905934  1
  O2-  O195  1  0.04309460  0.58743646  0.27171134  1
  O2-  O196  1  0.05207519  0.58060058  0.60357069  1
  O2-  O197  1  0.03996994  0.58676669  0.93477331  1
  O2-  O198  1  0.53787318  0.08166739  0.26851318  1
  O2-  O199  1  0.55114810  0.08459136  0.60617967  1
  O2-  O200  1  0.54923567  0.07822826  0.92959865  1
  O2-  O201  1  0.55262350  0.58089930  0.26902346  1
  O2-  O202  1  0.54096366  0.58637169  0.60313289  1
  O2-  O203  1  0.54624827  0.58066045  0.93168842  1
  O2-  O204  1  0.16490120  0.20093579  0.26583107  1
  O2-  O205  1  0.16327234  0.21178024  0.59398249  1
  O2-  O206  1  0.15692541  0.20689892  0.93643871  1
  O2-  O207  1  0.16040207  0.70912154  0.27167040  1
  O2-  O208  1  0.16378965  0.70614792  0.59922444  1
  O2-  O209  1  0.16189265  0.70140260  0.93598581  1
  O2-  O210  1  0.67065753  0.20073473  0.26648872  1
  O2-  O211  1  0.66829400  0.20736513  0.60739424  1
  O2-  O212  1  0.67217699  0.20897929  0.93098424  1
  O2-  O213  1  0.67212788  0.71373836  0.26943672  1
  O2-  O214  1  0.66728803  0.69652486  0.60507811  1
  O2-  O215  1  0.67288314  0.70884082  0.92983655  1
  O2-  O216  1  0.08645991  0.46130458  0.06451902  1
  O2-  O217  1  0.08848139  0.46142675  0.40178741  1
  O2-  O218  1  0.08715400  0.45464895  0.73219572  1
  O2-  O219  1  0.08511547  0.96238983  0.07184753  1
  O2-  O220  1  0.08556732  0.96013822  0.40109574  1
  O2-  O221  1  0.08920350  0.95911419  0.72497896  1
  O2-  O222  1  0.58273459  0.45069039  0.06248085  1
  O2-  O223  1  0.58759001  0.45158839  0.39602786  1
  O2-  O224  1  0.58383332  0.46345057  0.73756049  1
  O2-  O225  1  0.57770638  0.95081724  0.06486230  1
  O2-  O226  1  0.58098576  0.96256565  0.40498661  1
  O2-  O227  1  0.58162704  0.95138834  0.72892571  1
  O2-  O228  1  0.19113986  0.33134501  0.06147038  1
  O2-  O229  1  0.19361715  0.32998451  0.39290695  1
  O2-  O230  1  0.20497967  0.33408691  0.72634328  1
  O2-  O231  1  0.19523260  0.82541503  0.06494788  1
  O2-  O232  1  0.20046729  0.83674244  0.40099585  1
  O2-  O233  1  0.20342392  0.83508163  0.72444197  1
  O2-  O234  1  0.70671499  0.33677380  0.06504896  1
  O2-  O235  1  0.70970098  0.33276147  0.39495332  1
  O2-  O236  1  0.70974478  0.33606356  0.73977063  1
  O2-  O237  1  0.71563003  0.83533268  0.06809442  1
  O2-  O238  1  0.71273455  0.83878871  0.40687446  1
  O2-  O239  1  0.70141598  0.83141209  0.72641358  1
  O2-  O240  1  0.45838818  0.42149891  0.26742830  1
  O2-  O241  1  0.46304858  0.41846344  0.60141752  1
  O2-  O242  1  0.45667709  0.41748922  0.93113356  1
  O2-  O243  1  0.45161836  0.92062282  0.27107878  1
  O2-  O244  1  0.45476544  0.92018577  0.59919987  1
  O2-  O245  1  0.44981835  0.91992227  0.93404847  1
  O2-  O246  1  0.96557509  0.41719460  0.26687959  1
  O2-  O247  1  0.95483676  0.41665454  0.60577259  1
  O2-  O248  1  0.96469377  0.41241382  0.93275577  1
  O2-  O249  1  0.96164101  0.91234371  0.27022968  1
  O2-  O250  1  0.96525639  0.91152991  0.59450159  1
  O2-  O251  1  0.96138065  0.91307736  0.94146570  1
  O2-  O252  1  0.32705018  0.30029222  0.26929802  1
  O2-  O253  1  0.33398696  0.29351063  0.59577786  1
  O2-  O254  1  0.32491394  0.29441959  0.93560970  1
  O2-  O255  1  0.32427069  0.79618270  0.27110111  1
  O2-  O256  1  0.33257365  0.78891201  0.59738772  1
  O2-  O257  1  0.32709516  0.78825319  0.93409953  1
  O2-  O258  1  0.83597944  0.29464534  0.26201934  1
  O2-  O259  1  0.83299820  0.29776523  0.60860076  1
  O2-  O260  1  0.83555931  0.30490967  0.93816995  1
  O2-  O261  1  0.83670189  0.79641257  0.27300509  1
  O2-  O262  1  0.83225126  0.79239054  0.59723439  1
  O2-  O263  1  0.84140519  0.79249504  0.93809326  1
  O2-  O264  1  0.42165579  0.05131931  0.06447727  1
  O2-  O265  1  0.40956984  0.04570946  0.39986204  1
  O2-  O266  1  0.41423546  0.05078760  0.72374939  1
  O2-  O267  1  0.41949669  0.54085245  0.06523577  1
  O2-  O268  1  0.42108075  0.54283709  0.40325039  1
  O2-  O269  1  0.41142373  0.54468939  0.72861850  1
  O2-  O270  1  0.91602715  0.04020017  0.07319483  1
  O2-  O271  1  0.91737910  0.04305208  0.39821347  1
  O2-  O272  1  0.91845793  0.03403742  0.72972308  1
  O2-  O273  1  0.91655346  0.53688549  0.06591603  1
  O2-  O274  1  0.91887950  0.54059573  0.40363097  1
  O2-  O275  1  0.91929115  0.55012906  0.72836057  1
  O2-  O276  1  0.28203143  0.16565332  0.06943110  1
  O2-  O277  1  0.28808208  0.16381067  0.39676544  1
  O2-  O278  1  0.28714868  0.16359618  0.72404276  1
  O2-  O279  1  0.28478752  0.66074941  0.06863155  1
  O2-  O280  1  0.28397878  0.66364107  0.40402600  1
  O2-  O281  1  0.28708793  0.66130636  0.72809138  1
  O2-  O282  1  0.80512394  0.17732689  0.06235019  1
  O2-  O283  1  0.80405303  0.16936718  0.39251798  1
  O2-  O284  1  0.79735796  0.16556248  0.73446420  1
  O2-  O285  1  0.79612448  0.66797302  0.06559845  1
  O2-  O286  1  0.79332139  0.66831070  0.40328196  1
  O2-  O287  1  0.79973487  0.66830875  0.72760772  1
