# generated using pymatgen
data_Ca2Al2SiO7
_symmetry_space_group_name_H-M   'P 1'
_cell_length_a   15.46602693
_cell_length_b   15.47012578
_cell_length_c   15.29092856
_cell_angle_alpha   90.00757890
_cell_angle_beta   89.99792401
_cell_angle_gamma   89.99708982
_symmetry_Int_Tables_number   1
_chemical_formula_structural   Ca2Al2SiO7
_chemical_formula_sum   'Ca48 Al48 Si24 O168'
_cell_volume   3658.52865892
_cell_formula_units_Z   24
loop_
 _symmetry_equiv_pos_site_id
 _symmetry_equiv_pos_as_xyz
  1  'x, y, z'
loop_
 _atom_type_symbol
 _atom_type_oxidation_number
  Ca2+  2.0
  Al0+  0.0
  Si0+  0.0
  O2-  -2.0
loop_
 _atom_site_type_symbol
 _atom_site_label
 _atom_site_symmetry_multiplicity
 _atom_site_fract_x
 _atom_site_fract_y
 _atom_site_fract_z
 _atom_site_occupancy
  Ca2+  Ca0  1  0.17525357  0.07342288  0.17474940  1
  Ca2+  Ca1  1  0.16274976  0.07704052  0.50233969  1
  Ca2+  Ca2  1  0.16638609  0.07288775  0.83856537  1
  Ca2+  Ca3  1  0.16286027  0.58422330  0.17428161  1
  Ca2+  Ca4  1  0.16776937  0.58845920  0.50475989  1
  Ca2+  Ca5  1  0.17383573  0.58599474  0.83204850  1
  Ca2+  Ca6  1  0.67379908  0.07406947  0.16721036  1
  Ca2+  Ca7  1  0.66698003  0.07342406  0.50425371  1
  Ca2+  Ca8  1  0.67066537  0.07739919  0.83630500  1
  Ca2+  Ca9  1  0.67115319  0.57705585  0.17286661  1
  Ca2+  Ca10  1  0.68217212  0.58469723  0.50532342  1
  Ca2+  Ca11  1  0.67334305  0.57816898  0.83521340  1
  Ca2+  Ca12  1  0.07885156  0.32523236  0.16923284  1
  Ca2+  Ca13  1  0.07801538  0.32298168  0.49492953  1
  Ca2+  Ca14  1  0.07602683  0.32011397  0.82162229  1
  Ca2+  Ca15  1  0.08847992  0.83291825  0.16697519  1
  Ca2+  Ca16  1  0.07260484  0.83484989  0.49261896  1
  Ca2+  Ca17  1  0.07755110  0.84109249  0.82535209  1
  Ca2+  Ca18  1  0.58456287  0.33268446  0.16015892  1
  Ca2+  Ca19  1  0.58384776  0.32446064  0.49971535  1
  Ca2+  Ca20  1  0.58666245  0.32620686  0.82780165  1
  Ca2+  Ca21  1  0.57451784  0.84720440  0.16449333  1
  Ca2+  Ca22  1  0.57214492  0.84476764  0.49541532  1
  Ca2+  Ca23  1  0.57193790  0.84859439  0.82886040  1
  Ca2+  Ca24  1  0.33133100  0.42122655  0.17246896  1
  Ca2+  Ca25  1  0.33080671  0.42717561  0.50737549  1
  Ca2+  Ca26  1  0.33750475  0.42543002  0.83340300  1
  Ca2+  Ca27  1  0.32867639  0.92048262  0.17317996  1
  Ca2+  Ca28  1  0.32091591  0.91149227  0.50162451  1
  Ca2+  Ca29  1  0.32403827  0.91624220  0.83825125  1
  Ca2+  Ca30  1  0.83239419  0.41952283  0.17422035  1
  Ca2+  Ca31  1  0.84920066  0.42566799  0.50251245  1
  Ca2+  Ca32  1  0.83250019  0.41851295  0.83537092  1
  Ca2+  Ca33  1  0.82288963  0.91227212  0.17322411  1
  Ca2+  Ca34  1  0.82278018  0.90316291  0.50657948  1
  Ca2+  Ca35  1  0.82286821  0.91886273  0.83874185  1
  Ca2+  Ca36  1  0.41254598  0.15995329  0.16329368  1
  Ca2+  Ca37  1  0.42254675  0.15615550  0.49650259  1
  Ca2+  Ca38  1  0.42403840  0.15865784  0.82828246  1
  Ca2+  Ca39  1  0.41661661  0.68474611  0.16188879  1
  Ca2+  Ca40  1  0.41408535  0.67885395  0.49728875  1
  Ca2+  Ca41  1  0.41888520  0.67839842  0.82605836  1
  Ca2+  Ca42  1  0.91934318  0.16119111  0.16547798  1
  Ca2+  Ca43  1  0.92808168  0.17381110  0.49476938  1
  Ca2+  Ca44  1  0.91707993  0.16885749  0.82189393  1
  Ca2+  Ca45  1  0.91672733  0.67088609  0.17436309  1
  Ca2+  Ca46  1  0.91641827  0.67232017  0.49267695  1
  Ca2+  Ca47  1  0.91638251  0.67348543  0.82541908  1
  Al0+  Al48  1  0.00169202  -0.00074567  0.00546694  1
  Al0+  Al49  1  -0.00148789  0.00086004  0.32771751  1
  Al0+  Al50  1  -0.00190434  -0.00065247  0.66128583  1
  Al0+  Al51  1  0.00096706  0.50007674  -0.00250198  1
  Al0+  Al52  1  0.00019360  0.49922249  0.32951499  1
  Al0+  Al53  1  0.00178650  0.50013926  0.67217610  1
  Al0+  Al54  1  0.50056990  0.00252954  -0.00022744  1
  Al0+  Al55  1  0.50133653  0.00148732  0.33444085  1
  Al0+  Al56  1  0.49880765  0.00009127  0.66057477  1
  Al0+  Al57  1  0.50097888  0.50109151  0.00297132  1
  Al0+  Al58  1  0.50065027  0.49872346  0.33462025  1
  Al0+  Al59  1  0.50085115  0.50054505  0.67074215  1
  Al0+  Al60  1  0.24911331  0.25296839  -0.00011933  1
  Al0+  Al61  1  0.25155500  0.25129925  0.33367326  1
  Al0+  Al62  1  0.25166476  0.25065475  0.66408721  1
  Al0+  Al63  1  0.25132878  0.74872750  -0.00240891  1
  Al0+  Al64  1  0.25156790  0.75148445  0.32850623  1
  Al0+  Al65  1  0.25086371  0.75102339  0.67314369  1
  Al0+  Al66  1  0.74937873  0.25189615  0.00696078  1
  Al0+  Al67  1  0.74722161  0.24914023  0.33012625  1
  Al0+  Al68  1  0.74881055  0.25065189  0.65552217  1
  Al0+  Al69  1  0.75036497  0.74737044  0.00321394  1
  Al0+  Al70  1  0.74895331  0.74563277  0.33731755  1
  Al0+  Al71  1  0.74735227  0.74733318  0.67611180  1
  Al0+  Al72  1  0.82303423  0.57019379  0.68234637  1
  Al0+  Al73  1  0.43185514  0.82135339  0.31897931  1
  Al0+  Al74  1  0.68191380  0.92933414  0.34822541  1
  Al0+  Al75  1  0.32090221  0.07202318  0.35025314  1
  Al0+  Al76  1  0.07294560  0.17608980  0.65223892  1
  Al0+  Al77  1  0.82039996  0.56655067  0.34755752  1
  Al0+  Al78  1  0.07149271  0.68092521  0.32004673  1
  Al0+  Al79  1  0.67928903  0.92794117  0.01451086  1
  Al0+  Al80  1  0.82220791  0.07209193  0.01297706  1
  Al0+  Al81  1  0.32036404  0.07295700  0.01200898  1
  Al0+  Al82  1  0.32139168  0.57181229  0.68079812  1
  Al0+  Al83  1  0.07339436  0.17764397  0.31516525  1
  Al0+  Al84  1  0.43141588  0.82241783  0.98417879  1
  Al0+  Al85  1  0.92885048  0.32291346  0.65241774  1
  Al0+  Al86  1  0.17769916  0.92772139  0.34958764  1
  Al0+  Al87  1  0.56939274  0.17895342  0.65226640  1
  Al0+  Al88  1  0.92481837  0.82141381  0.31860247  1
  Al0+  Al89  1  0.17677670  0.93099231  0.67940542  1
  Al0+  Al90  1  0.17943911  0.92618090  0.01575035  1
  Al0+  Al91  1  0.92594200  0.81896263  0.65647981  1
  Al0+  Al92  1  0.67702985  0.92927792  0.68044139  1
  Al0+  Al93  1  0.92891038  0.32012519  0.31639116  1
  Al0+  Al94  1  0.67996667  0.43060727  0.01313538  1
  Al0+  Al95  1  0.42902411  0.81992358  0.65222393  1
  Si0+  Si96  1  0.42758191  0.32441817  0.98460368  1
  Si0+  Si97  1  0.42858324  0.32509210  0.65021678  1
  Si0+  Si98  1  0.67853046  0.42624837  0.68205351  1
  Si0+  Si99  1  0.57085759  0.18237851  0.98552507  1
  Si0+  Si100  1  0.82203457  0.07419929  0.35102638  1
  Si0+  Si101  1  0.07254123  0.67941082  0.65442801  1
  Si0+  Si102  1  0.32231254  0.57160400  0.34673413  1
  Si0+  Si103  1  0.42977524  0.32361216  0.31776259  1
  Si0+  Si104  1  0.57139879  0.67489249  0.31740968  1
  Si0+  Si105  1  0.82518614  0.57121187  0.01888461  1
  Si0+  Si106  1  0.17825931  0.43039091  0.01529026  1
  Si0+  Si107  1  0.07146686  0.17957578  0.98510450  1
  Si0+  Si108  1  0.32201843  0.07286566  0.68169257  1
  Si0+  Si109  1  0.57135175  0.67507304  0.65085515  1
  Si0+  Si110  1  0.07119701  0.67743841  0.98268113  1
  Si0+  Si111  1  0.92857772  0.82076380  0.98570523  1
  Si0+  Si112  1  0.67558560  0.42533082  0.35276532  1
  Si0+  Si113  1  0.32074899  0.56997309  0.01641276  1
  Si0+  Si114  1  0.17999579  0.43039433  0.34805056  1
  Si0+  Si115  1  0.56912711  0.17938659  0.31451431  1
  Si0+  Si116  1  0.81987262  0.07292616  0.67820656  1
  Si0+  Si117  1  0.57251955  0.67561392  0.98292824  1
  Si0+  Si118  1  0.17935542  0.42631567  0.68478814  1
  Si0+  Si119  1  0.92838053  0.32060048  0.98491751  1
  O2-  O120  1  0.25220177  -0.00132422  0.06309971  1
  O2-  O121  1  0.24648883  0.00292952  0.40000512  1
  O2-  O122  1  0.24932200  0.00879233  0.72533739  1
  O2-  O123  1  0.24848836  0.50107628  0.05963493  1
  O2-  O124  1  0.24905979  0.50360605  0.38970466  1
  O2-  O125  1  0.24854540  0.49513216  0.72871095  1
  O2-  O126  1  0.75568197  -0.00466778  0.06389721  1
  O2-  O127  1  0.76136870  -0.00131156  0.39576646  1
  O2-  O128  1  0.75398534  0.00286382  0.72479627  1
  O2-  O129  1  0.75417637  0.50418043  0.06125679  1
  O2-  O130  1  0.74745028  0.49033379  0.39583022  1
  O2-  O131  1  0.74962268  0.49228602  0.72630409  1
  O2-  O132  1  -0.00369479  0.24494724  0.26450493  1
  O2-  O133  1  0.00190274  0.25092563  0.60510929  1
  O2-  O134  1  -0.00455015  0.24597470  0.94267122  1
  O2-  O135  1  0.00297663  0.75539087  0.26801830  1
  O2-  O136  1  0.00151545  0.74461369  0.61055202  1
  O2-  O137  1  0.00143137  0.75068983  0.94290579  1
  O2-  O138  1  0.49835151  0.25174694  0.27366252  1
  O2-  O139  1  0.49307561  0.25321826  0.60572212  1
  O2-  O140  1  0.49641477  0.25108220  0.94341152  1
  O2-  O141  1  0.50699817  0.74660782  0.27203210  1
  O2-  O142  1  0.50526122  0.74574568  0.60640875  1
  O2-  O143  1  0.51014589  0.74989058  0.93858123  1
  O2-  O144  1  0.07406403  0.18477778  0.08944589  1
  O2-  O145  1  0.07522543  0.18279949  0.42850293  1
  O2-  O146  1  0.07083740  0.17762980  0.76687106  1
  O2-  O147  1  0.07081890  0.67245195  0.08719876  1
  O2-  O148  1  0.07126922  0.67775136  0.43359609  1
  O2-  O149  1  0.07199405  0.68044352  0.76062271  1
  O2-  O150  1  0.57065030  0.18506852  0.09058177  1
  O2-  O151  1  0.56872241  0.18053581  0.41961453  1
  O2-  O152  1  0.56971999  0.18104102  0.76595808  1
  O2-  O153  1  0.56763380  0.66949141  0.08817713  1
  O2-  O154  1  0.56741470  0.67054017  0.42265620  1
  O2-  O155  1  0.56824430  0.67122068  0.75648120  1
  O2-  O156  1  0.18312838  0.43089564  0.24231565  1
  O2-  O157  1  0.18018583  0.42733564  0.57924660  1
  O2-  O158  1  0.17944363  0.43128421  0.91048632  1
  O2-  O159  1  0.18436358  0.92560035  0.23613303  1
  O2-  O160  1  0.17686817  0.92717466  0.56715413  1
  O2-  O161  1  0.17722669  0.92818043  0.90172003  1
  O2-  O162  1  0.67185703  0.42855710  0.24695179  1
  O2-  O163  1  0.67377166  0.42854981  0.57704532  1
  O2-  O164  1  0.68144214  0.42954172  0.90001565  1
  O2-  O165  1  0.67974344  0.93299110  0.23512041  1
  O2-  O166  1  0.67692052  0.93011194  0.56748087  1
  O2-  O167  1  0.67874536  0.93209465  0.90080628  1
  O2-  O168  1  0.42795135  0.32760010  0.08975104  1
  O2-  O169  1  0.43232315  0.32914954  0.42235330  1
  O2-  O170  1  0.43086729  0.32717737  0.75604214  1
  O2-  O171  1  0.43098034  0.81994259  0.09722776  1
  O2-  O172  1  0.43021678  0.81793780  0.43197349  1
  O2-  O173  1  0.42934922  0.81972346  0.76558581  1
  O2-  O174  1  0.93110463  0.32371588  0.08938645  1
  O2-  O175  1  0.93470346  0.32164243  0.42954966  1
  O2-  O176  1  0.92802393  0.31989184  0.76711347  1
  O2-  O177  1  0.92669517  0.81745435  0.09019750  1
  O2-  O178  1  0.92233212  0.81474250  0.43214067  1
  O2-  O179  1  0.92701747  0.81909527  0.77033835  1
  O2-  O180  1  0.32144659  0.07126140  0.23650969  1
  O2-  O181  1  0.32325129  0.07118559  0.57658461  1
  O2-  O182  1  0.31820536  0.07465149  0.89828885  1
  O2-  O183  1  0.32379948  0.56725054  0.24134747  1
  O2-  O184  1  0.31950226  0.57037927  0.56743257  1
  O2-  O185  1  0.32078242  0.56792507  0.91142468  1
  O2-  O186  1  0.81508657  0.07731645  0.24544753  1
  O2-  O187  1  0.81726968  0.07369987  0.57309084  1
  O2-  O188  1  0.81945442  0.07476459  0.89889166  1
  O2-  O189  1  0.81747196  0.56489375  0.23412910  1
  O2-  O190  1  0.82275850  0.56990700  0.56960545  1
  O2-  O191  1  0.82676405  0.56958159  0.91325368  1
  O2-  O192  1  0.04954305  0.07877163  0.26173026  1
  O2-  O193  1  0.04190102  0.08091823  0.59611646  1
  O2-  O194  1  0.04923791  0.08494610  0.94110505  1
  O2-  O195  1  0.04112165  0.58339446  0.26472114  1
  O2-  O196  1  0.05252697  0.58341112  0.61173280  1
  O2-  O197  1  0.04206514  0.58636698  0.93291695  1
  O2-  O198  1  0.53987808  0.08903036  0.26634370  1
  O2-  O199  1  0.53704790  0.08512201  0.59468873  1
  O2-  O200  1  0.54538445  0.09100847  0.93664294  1
  O2-  O201  1  0.54272190  0.58212823  0.26928669  1
  O2-  O202  1  0.54481536  0.58220397  0.60362693  1
  O2-  O203  1  0.54049996  0.58429430  0.93440041  1
  O2-  O204  1  0.17039639  0.21510655  0.26321398  1
  O2-  O205  1  0.17209616  0.20429777  0.60069533  1
  O2-  O206  1  0.16059109  0.21450542  0.93595407  1
  O2-  O207  1  0.17062734  0.70368180  0.26434766  1
  O2-  O208  1  0.16608125  0.70482588  0.60964039  1
  O2-  O209  1  0.16459397  0.70106593  0.93624114  1
  O2-  O210  1  0.66003986  0.20746109  0.26582741  1
  O2-  O211  1  0.66272171  0.21060870  0.59293408  1
  O2-  O212  1  0.66160343  0.21519533  0.93877436  1
  O2-  O213  1  0.66612067  0.69556107  0.27300505  1
  O2-  O214  1  0.66651416  0.69859158  0.60887758  1
  O2-  O215  1  0.66996983  0.69257364  0.94122438  1
  O2-  O216  1  0.08661762  0.45902957  0.06235864  1
  O2-  O217  1  0.08840852  0.45729932  0.39433007  1
  O2-  O218  1  0.08746622  0.45229350  0.73407386  1
  O2-  O219  1  0.08142207  0.95213052  0.06888731  1
  O2-  O220  1  0.07519958  0.95149431  0.39596604  1
  O2-  O221  1  0.07889207  0.96051145  0.73298593  1
  O2-  O222  1  0.58309440  0.46012123  0.06871961  1
  O2-  O223  1  0.58278041  0.45335924  0.39966954  1
  O2-  O224  1  0.58634830  0.45310159  0.73137458  1
  O2-  O225  1  0.58313067  0.96323767  0.06675961  1
  O2-  O226  1  0.58732939  0.96728067  0.40114502  1
  O2-  O227  1  0.58115433  0.96626802  0.73218971  1
  O2-  O228  1  0.20703027  0.33992535  0.06400236  1
  O2-  O229  1  0.21163500  0.34106285  0.39673521  1
  O2-  O230  1  0.20621768  0.33311654  0.73191480  1
  O2-  O231  1  0.20720092  0.82620895  0.06533150  1
  O2-  O232  1  0.21085741  0.82911125  0.40054056  1
  O2-  O233  1  0.20975000  0.83624132  0.73611484  1
  O2-  O234  1  0.70872414  0.33613716  0.07127522  1
  O2-  O235  1  0.69628740  0.32952496  0.39511761  1
  O2-  O236  1  0.70317286  0.33143813  0.72625143  1
  O2-  O237  1  0.70110167  0.82687728  0.06542571  1
  O2-  O238  1  0.70411056  0.82974052  0.39992670  1
  O2-  O239  1  0.70234819  0.83262952  0.73657242  1
  O2-  O240  1  0.45914312  0.41442167  0.26727442  1
  O2-  O241  1  0.45781999  0.41739088  0.60305372  1
  O2-  O242  1  0.45906319  0.41515220  0.93661705  1
  O2-  O243  1  0.46504131  0.91764754  0.26612422  1
  O2-  O244  1  0.45890477  0.91512923  0.59687340  1
  O2-  O245  1  0.46011639  0.92034399  0.93112746  1
  O2-  O246  1  0.96246589  0.41605646  0.26130291  1
  O2-  O247  1  0.96123110  0.42158007  0.60278152  1
  O2-  O248  1  0.95973952  0.41147812  0.93658313  1
  O2-  O249  1  0.94100896  0.92286917  0.26843194  1
  O2-  O250  1  0.95220989  0.91493261  0.60080411  1
  O2-  O251  1  0.95514593  0.91380282  0.93988779  1
  O2-  O252  1  0.33743162  0.29966800  0.26988308  1
  O2-  O253  1  0.33351678  0.30610782  0.60521883  1
  O2-  O254  1  0.33452367  0.30157210  0.93716084  1
  O2-  O255  1  0.33756685  0.78776269  0.26275556  1
  O2-  O256  1  0.33278049  0.78412585  0.60085418  1
  O2-  O257  1  0.33557226  0.78591313  0.93108724  1
  O2-  O258  1  0.82670098  0.29844396  0.26750139  1
  O2-  O259  1  0.83117271  0.29987873  0.59700032  1
  O2-  O260  1  0.83427063  0.29661597  0.94053723  1
  O2-  O261  1  0.82915091  0.78243959  0.26484882  1
  O2-  O262  1  0.82877059  0.78502320  0.60618836  1
  O2-  O263  1  0.83647426  0.79126553  0.93841696  1
  O2-  O264  1  0.42054074  0.05047211  0.06291851  1
  O2-  O265  1  0.41940878  0.04186985  0.40102008  1
  O2-  O266  1  0.41418812  0.04233591  0.72775316  1
  O2-  O267  1  0.41111373  0.53988144  0.06450310  1
  O2-  O268  1  0.41222093  0.53951988  0.39534712  1
  O2-  O269  1  0.41704985  0.53946655  0.73695694  1
  O2-  O270  1  0.92161099  0.05012601  0.06519469  1
  O2-  O271  1  0.91989740  0.06005047  0.39006120  1
  O2-  O272  1  0.91413253  0.05031557  0.72351112  1
  O2-  O273  1  0.91820203  0.54204240  0.06377277  1
  O2-  O274  1  0.91824941  0.53655583  0.39950980  1
  O2-  O275  1  0.91973276  0.54247140  0.73890148  1
  O2-  O276  1  0.29313586  0.17284024  0.06425316  1
  O2-  O277  1  0.30074421  0.17438865  0.39982361  1
  O2-  O278  1  0.30567600  0.16996325  0.72526313  1
  O2-  O279  1  0.29318717  0.66163081  0.06278108  1
  O2-  O280  1  0.29667297  0.66372107  0.39254985  1
  O2-  O281  1  0.28836482  0.66485804  0.73984154  1
  O2-  O282  1  0.78956526  0.16765310  0.06925031  1
  O2-  O283  1  0.78783931  0.16551399  0.39724213  1
  O2-  O284  1  0.79136784  0.16683054  0.72327717  1
  O2-  O285  1  0.80099344  0.66459804  0.06487554  1
  O2-  O286  1  0.78766407  0.66103841  0.40389657  1
  O2-  O287  1  0.78721356  0.66234364  0.74227302  1
