# generated using pymatgen
data_Ca2Al2SiO7
_symmetry_space_group_name_H-M   'P 1'
_cell_length_a   15.45369815
_cell_length_b   15.45407736
_cell_length_c   15.28028667
_cell_angle_alpha   90.00845017
_cell_angle_beta   89.99940377
_cell_angle_gamma   89.98626035
_symmetry_Int_Tables_number   1
_chemical_formula_structural   Ca2Al2SiO7
_chemical_formula_sum   'Ca48 Al48 Si24 O168'
_cell_volume   3649.27835885
_cell_formula_units_Z   24
loop_
 _symmetry_equiv_pos_site_id
 _symmetry_equiv_pos_as_xyz
  1  'x, y, z'
loop_
 _atom_type_symbol
 _atom_type_oxidation_number
  Ca2+  2.0
  Al0+  0.0
  Si0+  0.0
  O2-  -2.0
loop_
 _atom_site_type_symbol
 _atom_site_label
 _atom_site_symmetry_multiplicity
 _atom_site_fract_x
 _atom_site_fract_y
 _atom_site_fract_z
 _atom_site_occupancy
  Ca2+  Ca0  1  0.17058657  0.07726963  0.17057724  1
  Ca2+  Ca1  1  0.17033092  0.08713813  0.50311954  1
  Ca2+  Ca2  1  0.16430944  0.07830433  0.83826856  1
  Ca2+  Ca3  1  0.17408201  0.58041063  0.17500873  1
  Ca2+  Ca4  1  0.16428668  0.57148053  0.50647770  1
  Ca2+  Ca5  1  0.16270073  0.58183471  0.83378873  1
  Ca2+  Ca6  1  0.66411064  0.06586711  0.17286662  1
  Ca2+  Ca7  1  0.66967830  0.08054070  0.50749747  1
  Ca2+  Ca8  1  0.66998991  0.08340725  0.83564644  1
  Ca2+  Ca9  1  0.66000136  0.58124443  0.17023167  1
  Ca2+  Ca10  1  0.67358267  0.58403144  0.50380587  1
  Ca2+  Ca11  1  0.67171875  0.58115423  0.83909264  1
  Ca2+  Ca12  1  0.08026583  0.33884738  0.16941072  1
  Ca2+  Ca13  1  0.07688368  0.33859952  0.49921766  1
  Ca2+  Ca14  1  0.07888250  0.32612725  0.81872037  1
  Ca2+  Ca15  1  0.07475220  0.83285068  0.15528088  1
  Ca2+  Ca16  1  0.07537787  0.82525246  0.49574649  1
  Ca2+  Ca17  1  0.08523749  0.82409119  0.83108371  1
  Ca2+  Ca18  1  0.56820583  0.33914781  0.15862525  1
  Ca2+  Ca19  1  0.57472434  0.32810922  0.49621332  1
  Ca2+  Ca20  1  0.57398000  0.33524712  0.82775720  1
  Ca2+  Ca21  1  0.59121588  0.82244534  0.16278794  1
  Ca2+  Ca22  1  0.58190846  0.82974102  0.49449989  1
  Ca2+  Ca23  1  0.58231191  0.83337885  0.83285728  1
  Ca2+  Ca24  1  0.33011001  0.41931414  0.17842535  1
  Ca2+  Ca25  1  0.32766187  0.41562054  0.50159985  1
  Ca2+  Ca26  1  0.32918246  0.40806404  0.83434074  1
  Ca2+  Ca27  1  0.32708934  0.92246363  0.17334941  1
  Ca2+  Ca28  1  0.33922885  0.92254999  0.50491583  1
  Ca2+  Ca29  1  0.32880243  0.91502160  0.83825008  1
  Ca2+  Ca30  1  0.82636070  0.41679739  0.17049564  1
  Ca2+  Ca31  1  0.83901212  0.42007594  0.51077815  1
  Ca2+  Ca32  1  0.83121832  0.42046939  0.83430292  1
  Ca2+  Ca33  1  0.82706584  0.90524565  0.17049802  1
  Ca2+  Ca34  1  0.82891557  0.91778195  0.50344002  1
  Ca2+  Ca35  1  0.83357806  0.92400308  0.83990413  1
  Ca2+  Ca36  1  0.40762376  0.17723985  0.16625557  1
  Ca2+  Ca37  1  0.41505735  0.17557183  0.49758451  1
  Ca2+  Ca38  1  0.42464372  0.17655699  0.82440911  1
  Ca2+  Ca39  1  0.42795150  0.65671247  0.16476660  1
  Ca2+  Ca40  1  0.42099735  0.66952306  0.49470955  1
  Ca2+  Ca41  1  0.42388134  0.67314099  0.82993095  1
  Ca2+  Ca42  1  0.91504749  0.17280818  0.16759703  1
  Ca2+  Ca43  1  0.91748472  0.17487563  0.50030256  1
  Ca2+  Ca44  1  0.91971854  0.17108461  0.82097313  1
  Ca2+  Ca45  1  0.92415431  0.67857591  0.15946545  1
  Ca2+  Ca46  1  0.92090767  0.66411310  0.49680309  1
  Ca2+  Ca47  1  0.92403600  0.66872317  0.82989285  1
  Al0+  Al48  1  0.00076809  0.00222111  0.00224356  1
  Al0+  Al49  1  -0.00161480  0.00083769  0.32906494  1
  Al0+  Al50  1  -0.00097383  -0.00079377  0.66696675  1
  Al0+  Al51  1  -0.00011853  0.50035327  -0.00122867  1
  Al0+  Al52  1  -0.00093805  0.49955805  0.32950559  1
  Al0+  Al53  1  0.00131961  0.50095427  0.67088298  1
  Al0+  Al54  1  0.50160465  0.00243040  0.00639784  1
  Al0+  Al55  1  0.50008669  -0.00164618  0.34254856  1
  Al0+  Al56  1  0.49941229  -0.00049080  0.66183478  1
  Al0+  Al57  1  0.49952306  0.50048202  -0.00798521  1
  Al0+  Al58  1  0.50001850  0.49903370  0.33178456  1
  Al0+  Al59  1  0.49938674  0.50266314  0.66276264  1
  Al0+  Al60  1  0.24890262  0.25171976  -0.00300875  1
  Al0+  Al61  1  0.24870011  0.24830182  0.33687264  1
  Al0+  Al62  1  0.25042390  0.24883327  0.66627236  1
  Al0+  Al63  1  0.25035432  0.74965963  0.00362028  1
  Al0+  Al64  1  0.25127943  0.75025776  0.33742245  1
  Al0+  Al65  1  0.25026403  0.74909375  0.65701600  1
  Al0+  Al66  1  0.74876813  0.25131738  0.00646096  1
  Al0+  Al67  1  0.74956393  0.24756135  0.32704642  1
  Al0+  Al68  1  0.74871325  0.24911248  0.66478533  1
  Al0+  Al69  1  0.75242728  0.75114457  -0.00639827  1
  Al0+  Al70  1  0.75004253  0.74867161  0.33104247  1
  Al0+  Al71  1  0.75011723  0.74966186  0.67408558  1
  Al0+  Al72  1  0.82190017  0.57130881  0.68121597  1
  Al0+  Al73  1  0.06978863  0.67927551  0.65147417  1
  Al0+  Al74  1  0.56916111  0.68079270  0.32086118  1
  Al0+  Al75  1  0.68035774  0.92926228  0.01359638  1
  Al0+  Al76  1  0.68182798  0.92661840  0.34873245  1
  Al0+  Al77  1  0.42838122  0.32056795  0.98545554  1
  Al0+  Al78  1  0.17747082  0.43051905  0.34877227  1
  Al0+  Al79  1  0.57175388  0.17835440  0.65183637  1
  Al0+  Al80  1  0.07371631  0.67837808  0.98529374  1
  Al0+  Al81  1  0.07142692  0.17488678  0.65198135  1
  Al0+  Al82  1  0.42935823  0.81998818  0.65405109  1
  Al0+  Al83  1  0.67806060  0.43130596  0.01340322  1
  Al0+  Al84  1  0.42820169  0.32315482  0.64981448  1
  Al0+  Al85  1  0.92765103  0.32237641  0.31784056  1
  Al0+  Al86  1  0.17983384  0.92852279  0.01267448  1
  Al0+  Al87  1  0.92957653  0.32113291  0.65457883  1
  Al0+  Al88  1  0.31915914  0.06906931  0.34859627  1
  Al0+  Al89  1  0.57111502  0.67944621  0.98499024  1
  Al0+  Al90  1  0.32466994  0.57168676  0.34950440  1
  Al0+  Al91  1  0.18216400  0.42917328  0.68243642  1
  Al0+  Al92  1  0.82064592  0.07112200  0.67940035  1
  Al0+  Al93  1  0.42985881  0.31762738  0.31933871  1
  Al0+  Al94  1  0.93050972  0.82024387  0.32104441  1
  Al0+  Al95  1  0.92981868  0.82357244  0.98211540  1
  Si0+  Si96  1  0.32086021  0.57021071  0.01262833  1
  Si0+  Si97  1  0.17952365  0.92722861  0.67966572  1
  Si0+  Si98  1  0.67664094  0.92846748  0.68478192  1
  Si0+  Si99  1  0.81891608  0.56859006  0.34555744  1
  Si0+  Si100  1  0.57250167  0.17682939  0.98572600  1
  Si0+  Si101  1  0.67840950  0.42667194  0.34701955  1
  Si0+  Si102  1  0.07170423  0.17832733  0.31462321  1
  Si0+  Si103  1  0.32157028  0.06992634  0.68309829  1
  Si0+  Si104  1  0.57250793  0.17489805  0.31464316  1
  Si0+  Si105  1  0.82241903  0.07351139  0.35079783  1
  Si0+  Si106  1  0.42871312  0.82504261  0.98782957  1
  Si0+  Si107  1  0.32283395  0.57450636  0.68447663  1
  Si0+  Si108  1  0.92637346  0.82184679  0.65080344  1
  Si0+  Si109  1  0.67614485  0.42845247  0.68132964  1
  Si0+  Si110  1  0.32120742  0.07397793  0.01533015  1
  Si0+  Si111  1  0.92643450  0.32105711  0.98537471  1
  Si0+  Si112  1  0.57466760  0.67934915  0.65025038  1
  Si0+  Si113  1  0.07348493  0.67771840  0.31697368  1
  Si0+  Si114  1  0.17430261  0.92758141  0.35119499  1
  Si0+  Si115  1  0.42706966  0.82454758  0.31606713  1
  Si0+  Si116  1  0.82358518  0.07378478  0.01930735  1
  Si0+  Si117  1  0.82336101  0.57164941  0.01822741  1
  Si0+  Si118  1  0.17823211  0.42774166  0.01448297  1
  Si0+  Si119  1  0.07022442  0.18159256  0.98606955  1
  O2-  O120  1  0.25602704  0.00175713  0.05931374  1
  O2-  O121  1  0.24634790  -0.00785844  0.39619561  1
  O2-  O122  1  0.24873427  -0.00020709  0.72398999  1
  O2-  O123  1  0.24818138  0.50034138  0.05466918  1
  O2-  O124  1  0.24880916  0.50333533  0.39863864  1
  O2-  O125  1  0.25912307  0.50179608  0.73037455  1
  O2-  O126  1  0.75648324  0.00248133  0.06176141  1
  O2-  O127  1  0.75414040  0.00416910  0.39419466  1
  O2-  O128  1  0.74601327  -0.00296651  0.72783155  1
  O2-  O129  1  0.75196202  0.50579552  0.06312358  1
  O2-  O130  1  0.75338667  0.49308377  0.38950456  1
  O2-  O131  1  0.74592709  0.49634896  0.72564476  1
  O2-  O132  1  0.00319911  0.24809932  0.27081752  1
  O2-  O133  1  0.00123840  0.24930975  0.60335356  1
  O2-  O134  1  -0.00225137  0.25061922  0.94379784  1
  O2-  O135  1  0.01099370  0.75213219  0.27345816  1
  O2-  O136  1  -0.00740306  0.75170868  0.60549263  1
  O2-  O137  1  0.00249839  0.75101505  0.93449560  1
  O2-  O138  1  0.50438550  0.24390414  0.26964264  1
  O2-  O139  1  0.50131734  0.25151529  0.60140024  1
  O2-  O140  1  0.50468810  0.24622815  0.94152682  1
  O2-  O141  1  0.49208194  0.75270541  0.27179635  1
  O2-  O142  1  0.50548527  0.74724659  0.60687210  1
  O2-  O143  1  0.49930131  0.75900178  0.94221418  1
  O2-  O144  1  0.07248035  0.18334190  0.09115805  1
  O2-  O145  1  0.07017765  0.17600939  0.41967099  1
  O2-  O146  1  0.06962768  0.17506037  0.76652037  1
  O2-  O147  1  0.07300740  0.67826077  0.09914336  1
  O2-  O148  1  0.06878281  0.67598647  0.42256370  1
  O2-  O149  1  0.07139667  0.68225230  0.76436228  1
  O2-  O150  1  0.57057909  0.17558555  0.09115262  1
  O2-  O151  1  0.57411098  0.17803452  0.41997647  1
  O2-  O152  1  0.56952153  0.17750473  0.76608539  1
  O2-  O153  1  0.56845452  0.67730612  0.09810687  1
  O2-  O154  1  0.57259514  0.68299447  0.43383534  1
  O2-  O155  1  0.57383002  0.67991369  0.75596026  1
  O2-  O156  1  0.17804000  0.43274213  0.23401726  1
  O2-  O157  1  0.17950245  0.43117738  0.56987861  1
  O2-  O158  1  0.17888632  0.42431783  0.90975748  1
  O2-  O159  1  0.17478204  0.93008104  0.24525182  1
  O2-  O160  1  0.18050312  0.92780650  0.57466521  1
  O2-  O161  1  0.18200024  0.93011539  0.89916786  1
  O2-  O162  1  0.67752994  0.43028500  0.24171225  1
  O2-  O163  1  0.67599743  0.43067785  0.57538339  1
  O2-  O164  1  0.67982094  0.43099948  0.90038987  1
  O2-  O165  1  0.68387421  0.92570180  0.23541524  1
  O2-  O166  1  0.67869410  0.92616093  0.57916264  1
  O2-  O167  1  0.67712073  0.93408961  0.90076614  1
  O2-  O168  1  0.42550551  0.31985223  0.09874154  1
  O2-  O169  1  0.43196840  0.31742064  0.43171406  1
  O2-  O170  1  0.42973260  0.31990453  0.76396925  1
  O2-  O171  1  0.42771623  0.82447708  0.09311580  1
  O2-  O172  1  0.43057183  0.82484753  0.42169183  1
  O2-  O173  1  0.42892046  0.81949709  0.76786647  1
  O2-  O174  1  0.92791392  0.32059895  0.09070032  1
  O2-  O175  1  0.92633282  0.32311875  0.43027726  1
  O2-  O176  1  0.93059183  0.31889028  0.76884107  1
  O2-  O177  1  0.93092511  0.82078437  0.09609839  1
  O2-  O178  1  0.92988123  0.81725421  0.43435086  1
  O2-  O179  1  0.92882372  0.82300229  0.75609155  1
  O2-  O180  1  0.31578743  0.06883498  0.23470982  1
  O2-  O181  1  0.32180370  0.06847797  0.57813701  1
  O2-  O182  1  0.32006620  0.07447166  0.90973515  1
  O2-  O183  1  0.32507652  0.56795654  0.23486325  1
  O2-  O184  1  0.32094255  0.57524000  0.57926001  1
  O2-  O185  1  0.32077435  0.57153459  0.90767998  1
  O2-  O186  1  0.82155037  0.07474052  0.24503500  1
  O2-  O187  1  0.82064849  0.06826385  0.56635519  1
  O2-  O188  1  0.82318355  0.07583022  0.91366546  1
  O2-  O189  1  0.81703072  0.56848682  0.24053462  1
  O2-  O190  1  0.81972712  0.57233778  0.56724747  1
  O2-  O191  1  0.82444448  0.56742886  0.91270471  1
  O2-  O192  1  0.04453691  0.08574918  0.26580911  1
  O2-  O193  1  0.04277332  0.07737291  0.59790282  1
  O2-  O194  1  0.04495098  0.08905527  0.93958020  1
  O2-  O195  1  0.04269884  0.58705659  0.26838154  1
  O2-  O196  1  0.03741708  0.58319647  0.59912593  1
  O2-  O197  1  0.04406805  0.57960053  0.93264778  1
  O2-  O198  1  0.54449359  0.07988121  0.27312100  1
  O2-  O199  1  0.54295139  0.08093300  0.59773473  1
  O2-  O200  1  0.54622165  0.08390763  0.93833487  1
  O2-  O201  1  0.54002467  0.58366323  0.26596200  1
  O2-  O202  1  0.55109966  0.58604315  0.60313621  1
  O2-  O203  1  0.53608474  0.58676491  0.92688071  1
  O2-  O204  1  0.16481479  0.20409156  0.26807526  1
  O2-  O205  1  0.17088200  0.20041384  0.60212351  1
  O2-  O206  1  0.16068150  0.20996397  0.93634049  1
  O2-  O207  1  0.17046698  0.69707008  0.27516098  1
  O2-  O208  1  0.16397257  0.71065504  0.59415210  1
  O2-  O209  1  0.17268073  0.70686357  0.93312129  1
  O2-  O210  1  0.66604446  0.19690948  0.26683768  1
  O2-  O211  1  0.66957134  0.20414942  0.59712888  1
  O2-  O212  1  0.66737792  0.20234545  0.94229391  1
  O2-  O213  1  0.66435122  0.71272792  0.26463317  1
  O2-  O214  1  0.66860541  0.70599214  0.60542428  1
  O2-  O215  1  0.66819655  0.70643715  0.93115534  1
  O2-  O216  1  0.08539911  0.45382534  0.06138781  1
  O2-  O217  1  0.07788500  0.45956153  0.39978114  1
  O2-  O218  1  0.08664352  0.46196507  0.73776678  1
  O2-  O219  1  0.08497577  0.96323466  0.06823833  1
  O2-  O220  1  0.08134530  0.95699103  0.39633567  1
  O2-  O221  1  0.08731376  0.95262722  0.72758154  1
  O2-  O222  1  0.58031694  0.46379493  0.06501540  1
  O2-  O223  1  0.58906295  0.45817112  0.39565948  1
  O2-  O224  1  0.58288871  0.45684608  0.72777192  1
  O2-  O225  1  0.58428572  0.95933132  0.07098067  1
  O2-  O226  1  0.58497697  0.95400480  0.40335517  1
  O2-  O227  1  0.58256044  0.95529522  0.72931369  1
  O2-  O228  1  0.20736678  0.33671546  0.06330360  1
  O2-  O229  1  0.20371528  0.33128939  0.39912014  1
  O2-  O230  1  0.21065675  0.33079828  0.73632200  1
  O2-  O231  1  0.20829564  0.83266892  0.06960288  1
  O2-  O232  1  0.19437560  0.83191210  0.39503863  1
  O2-  O233  1  0.21161083  0.83593783  0.72582725  1
  O2-  O234  1  0.70714809  0.33514138  0.07040489  1
  O2-  O235  1  0.70213056  0.33201199  0.38992079  1
  O2-  O236  1  0.69957819  0.33447631  0.72705681  1
  O2-  O237  1  0.71093679  0.83082008  0.06476282  1
  O2-  O238  1  0.71646117  0.83136668  0.40291879  1
  O2-  O239  1  0.70088401  0.83520217  0.73233173  1
  O2-  O240  1  0.46176228  0.41400030  0.26522687  1
  O2-  O241  1  0.45326207  0.42297168  0.59868631  1
  O2-  O242  1  0.45920677  0.41511962  0.92879385  1
  O2-  O243  1  0.45459004  0.91817911  0.27153147  1
  O2-  O244  1  0.45882045  0.91546342  0.59798153  1
  O2-  O245  1  0.45197869  0.92001927  0.94268257  1
  O2-  O246  1  0.95837485  0.41798924  0.26060617  1
  O2-  O247  1  0.95973368  0.41914135  0.60319381  1
  O2-  O248  1  0.95284010  0.41347099  0.93963733  1
  O2-  O249  1  0.95385051  0.91851371  0.26604613  1
  O2-  O250  1  0.95370031  0.91399315  0.60353583  1
  O2-  O251  1  0.95801942  0.92385764  0.93320288  1
  O2-  O252  1  0.33214047  0.28575911  0.26720030  1
  O2-  O253  1  0.33083417  0.29124857  0.59876152  1
  O2-  O254  1  0.33222507  0.28858621  0.93102315  1
  O2-  O255  1  0.33019331  0.80492425  0.27354017  1
  O2-  O256  1  0.33550979  0.79037088  0.59485337  1
  O2-  O257  1  0.33627629  0.79618249  0.94126530  1
  O2-  O258  1  0.83203075  0.28988702  0.26103608  1
  O2-  O259  1  0.83070833  0.29631849  0.60219308  1
  O2-  O260  1  0.83383210  0.29343963  0.93999149  1
  O2-  O261  1  0.83731488  0.78211604  0.26557537  1
  O2-  O262  1  0.83104088  0.79734003  0.60816393  1
  O2-  O263  1  0.83238922  0.79694340  0.92759298  1
  O2-  O264  1  0.41521303  0.05391642  0.06275966  1
  O2-  O265  1  0.41528801  0.04088419  0.40481089  1
  O2-  O266  1  0.41296711  0.03933896  0.73025428  1
  O2-  O267  1  0.41201151  0.53897324  0.05882115  1
  O2-  O268  1  0.42188715  0.54019534  0.40280766  1
  O2-  O269  1  0.41944478  0.55476226  0.72784031  1
  O2-  O270  1  0.91784873  0.05143631  0.06549863  1
  O2-  O271  1  0.91700098  0.04868698  0.39457030  1
  O2-  O272  1  0.91709804  0.03999664  0.73536193  1
  O2-  O273  1  0.91595668  0.54286092  0.06576000  1
  O2-  O274  1  0.91222455  0.54458334  0.39164984  1
  O2-  O275  1  0.91644822  0.53982743  0.73796284  1
  O2-  O276  1  0.28798618  0.16548412  0.06233129  1
  O2-  O277  1  0.28609061  0.16377926  0.40396025  1
  O2-  O278  1  0.29561974  0.16153514  0.73137893  1
  O2-  O279  1  0.29647890  0.66150764  0.06320320  1
  O2-  O280  1  0.30392161  0.67330000  0.39957704  1
  O2-  O281  1  0.29182922  0.66746253  0.72942211  1
  O2-  O282  1  0.79671135  0.16645478  0.06729621  1
  O2-  O283  1  0.79532527  0.16740042  0.39574201  1
  O2-  O284  1  0.79056451  0.16790066  0.73461805  1
  O2-  O285  1  0.80073851  0.66759638  0.05929588  1
  O2-  O286  1  0.78666111  0.65782600  0.39465787  1
  O2-  O287  1  0.79138412  0.66671569  0.73880142  1
