# generated using pymatgen
data_Ca2Al2SiO7
_symmetry_space_group_name_H-M   'P 1'
_cell_length_a   15.45525419
_cell_length_b   15.45556809
_cell_length_c   15.28116811
_cell_angle_alpha   90.00528851
_cell_angle_beta   90.00826757
_cell_angle_gamma   90.00611712
_symmetry_Int_Tables_number   1
_chemical_formula_structural   Ca2Al2SiO7
_chemical_formula_sum   'Ca48 Al48 Si24 O168'
_cell_volume   3650.20847761
_cell_formula_units_Z   24
loop_
 _symmetry_equiv_pos_site_id
 _symmetry_equiv_pos_as_xyz
  1  'x, y, z'
loop_
 _atom_type_symbol
 _atom_type_oxidation_number
  Ca2+  2.0
  Al0+  0.0
  Si0+  0.0
  O2-  -2.0
loop_
 _atom_site_type_symbol
 _atom_site_label
 _atom_site_symmetry_multiplicity
 _atom_site_fract_x
 _atom_site_fract_y
 _atom_site_fract_z
 _atom_site_occupancy
  Ca2+  Ca0  1  0.15579992  0.07553596  0.16915680  1
  Ca2+  Ca1  1  0.15599980  0.07786409  0.50327623  1
  Ca2+  Ca2  1  0.15635863  0.07552658  0.83621072  1
  Ca2+  Ca3  1  0.17205844  0.58451677  0.17278002  1
  Ca2+  Ca4  1  0.17814027  0.57629658  0.50751815  1
  Ca2+  Ca5  1  0.16835019  0.58267747  0.83573171  1
  Ca2+  Ca6  1  0.67012151  0.08208154  0.17373371  1
  Ca2+  Ca7  1  0.67965374  0.08660809  0.50545755  1
  Ca2+  Ca8  1  0.67443509  0.07463063  0.83723433  1
  Ca2+  Ca9  1  0.66259540  0.57204244  0.17222886  1
  Ca2+  Ca10  1  0.66226506  0.57302558  0.50268514  1
  Ca2+  Ca11  1  0.67043967  0.57423326  0.83696944  1
  Ca2+  Ca12  1  0.07157358  0.32358522  0.15463439  1
  Ca2+  Ca13  1  0.08003063  0.32275058  0.49189795  1
  Ca2+  Ca14  1  0.08173775  0.32213350  0.82414152  1
  Ca2+  Ca15  1  0.08841148  0.83118196  0.16011296  1
  Ca2+  Ca16  1  0.07972415  0.84351534  0.50007020  1
  Ca2+  Ca17  1  0.08513584  0.83236900  0.82761829  1
  Ca2+  Ca18  1  0.58469671  0.33125417  0.16360776  1
  Ca2+  Ca19  1  0.58790866  0.33223594  0.49209021  1
  Ca2+  Ca20  1  0.58026471  0.34319530  0.83278692  1
  Ca2+  Ca21  1  0.57917316  0.82781434  0.15747353  1
  Ca2+  Ca22  1  0.58430263  0.82673836  0.49320116  1
  Ca2+  Ca23  1  0.58063941  0.84126318  0.82804364  1
  Ca2+  Ca24  1  0.33530497  0.42066520  0.17124839  1
  Ca2+  Ca25  1  0.33169952  0.42773496  0.50706740  1
  Ca2+  Ca26  1  0.32948078  0.41939701  0.83457127  1
  Ca2+  Ca27  1  0.32353615  0.91221735  0.16784499  1
  Ca2+  Ca28  1  0.32115734  0.91939601  0.50361870  1
  Ca2+  Ca29  1  0.32452724  0.91668402  0.84092605  1
  Ca2+  Ca30  1  0.82756646  0.40614396  0.17047927  1
  Ca2+  Ca31  1  0.82375916  0.40756624  0.50030325  1
  Ca2+  Ca32  1  0.82430770  0.40912380  0.83968092  1
  Ca2+  Ca33  1  0.82958221  0.92457468  0.17135618  1
  Ca2+  Ca34  1  0.83173468  0.92842741  0.51027891  1
  Ca2+  Ca35  1  0.82990021  0.91801909  0.83296962  1
  Ca2+  Ca36  1  0.42387128  0.17133253  0.16058382  1
  Ca2+  Ca37  1  0.42725854  0.16871115  0.49402034  1
  Ca2+  Ca38  1  0.41682579  0.17302915  0.83196346  1
  Ca2+  Ca39  1  0.41906511  0.66896842  0.16488190  1
  Ca2+  Ca40  1  0.41776135  0.66230827  0.49449319  1
  Ca2+  Ca41  1  0.41529958  0.67181130  0.83136195  1
  Ca2+  Ca42  1  0.92010497  0.17193330  0.16795144  1
  Ca2+  Ca43  1  0.92196138  0.16417279  0.49333586  1
  Ca2+  Ca44  1  0.92375015  0.16422063  0.83144726  1
  Ca2+  Ca45  1  0.92600422  0.66888613  0.15882486  1
  Ca2+  Ca46  1  0.91269203  0.67777049  0.49878153  1
  Ca2+  Ca47  1  0.92268602  0.67299322  0.82938467  1
  Al0+  Al48  1  -0.00147084  -0.00060262  0.00270668  1
  Al0+  Al49  1  -0.00265453  -0.00017511  0.33577153  1
  Al0+  Al50  1  -0.00045486  0.00017670  0.66737418  1
  Al0+  Al51  1  0.00018473  0.50041044  -0.00830874  1
  Al0+  Al52  1  -0.00188140  0.50194229  0.33152768  1
  Al0+  Al53  1  0.00000321  0.49972609  0.66689280  1
  Al0+  Al54  1  0.49910467  -0.00057826  0.00012909  1
  Al0+  Al55  1  0.49677189  -0.00105499  0.32882255  1
  Al0+  Al56  1  0.49904121  0.00109425  0.66556540  1
  Al0+  Al57  1  0.50123145  0.50033025  0.00004770  1
  Al0+  Al58  1  0.50029728  0.50153350  0.33697318  1
  Al0+  Al59  1  0.49975565  0.50232201  0.67415902  1
  Al0+  Al60  1  0.25174547  0.24993476  -0.00689896  1
  Al0+  Al61  1  0.25043522  0.24725374  0.32926673  1
  Al0+  Al62  1  0.25122092  0.25085465  0.66194548  1
  Al0+  Al63  1  0.25177569  0.75022728  -0.00393438  1
  Al0+  Al64  1  0.24930062  0.75038737  0.34338272  1
  Al0+  Al65  1  0.25175286  0.75062691  0.67159509  1
  Al0+  Al66  1  0.75015768  0.24846787  0.00106232  1
  Al0+  Al67  1  0.74957026  0.24852170  0.33355020  1
  Al0+  Al68  1  0.75028717  0.24913641  0.67714691  1
  Al0+  Al69  1  0.75077489  0.74814644  0.00453709  1
  Al0+  Al70  1  0.74912718  0.74784646  0.32584444  1
  Al0+  Al71  1  0.74943115  0.74890094  0.66476275  1
  Al0+  Al72  1  0.81708472  0.06880050  0.34697537  1
  Al0+  Al73  1  0.07043920  0.17991866  0.65094315  1
  Al0+  Al74  1  0.92715072  0.32073478  0.98240340  1
  Al0+  Al75  1  0.68012565  0.43015183  0.01607734  1
  Al0+  Al76  1  0.67770677  0.92690114  0.67865047  1
  Al0+  Al77  1  0.32078510  0.57108178  0.68552069  1
  Al0+  Al78  1  0.68194923  0.43089490  0.34617352  1
  Al0+  Al79  1  0.07276325  0.68006028  0.98669052  1
  Al0+  Al80  1  0.17978610  0.93146318  0.34773230  1
  Al0+  Al81  1  0.92915542  0.32233469  0.31931745  1
  Al0+  Al82  1  0.07183159  0.17658538  0.31686528  1
  Al0+  Al83  1  0.17774758  0.42697374  0.68063790  1
  Al0+  Al84  1  0.68094417  0.42960542  0.68116755  1
  Al0+  Al85  1  0.43077196  0.32260194  0.98595096  1
  Al0+  Al86  1  0.18033076  0.93239741  0.68109056  1
  Al0+  Al87  1  0.31946914  0.56872425  0.34595667  1
  Al0+  Al88  1  0.92976266  0.81921340  0.65332688  1
  Al0+  Al89  1  0.07089468  0.17763145  0.98323925  1
  Al0+  Al90  1  0.57108637  0.17847340  0.32131753  1
  Al0+  Al91  1  0.57029696  0.67845006  0.31919924  1
  Al0+  Al92  1  0.18013054  0.92975814  0.01333890  1
  Al0+  Al93  1  0.67690713  0.92752299  0.01517848  1
  Al0+  Al94  1  0.43101300  0.82068225  0.98607619  1
  Al0+  Al95  1  0.82207263  0.07070702  0.68418522  1
  Si0+  Si96  1  0.92669596  0.82142550  0.98469532  1
  Si0+  Si97  1  0.57198435  0.17702684  0.98230654  1
  Si0+  Si98  1  0.82503912  0.57172557  0.01732275  1
  Si0+  Si99  1  0.82264213  0.57417020  0.68248196  1
  Si0+  Si100  1  0.17852179  0.42764755  0.01368800  1
  Si0+  Si101  1  0.57153237  0.17962563  0.65333945  1
  Si0+  Si102  1  0.07463351  0.67742866  0.64821176  1
  Si0+  Si103  1  0.32483421  0.07427534  0.34986213  1
  Si0+  Si104  1  0.42539552  0.82047004  0.31758453  1
  Si0+  Si105  1  0.92542085  0.32294442  0.65014693  1
  Si0+  Si106  1  0.17525473  0.42605705  0.34586617  1
  Si0+  Si107  1  0.82084574  0.07031898  0.02004368  1
  Si0+  Si108  1  0.57305019  0.67820013  0.98215729  1
  Si0+  Si109  1  0.82486185  0.57552467  0.35005690  1
  Si0+  Si110  1  0.07214627  0.68071881  0.32140009  1
  Si0+  Si111  1  0.67492925  0.92509834  0.34736766  1
  Si0+  Si112  1  0.43154976  0.32346312  0.65082543  1
  Si0+  Si113  1  0.42893375  0.32296345  0.31890061  1
  Si0+  Si114  1  0.92882769  0.82116383  0.31768411  1
  Si0+  Si115  1  0.42817657  0.82283434  0.65003108  1
  Si0+  Si116  1  0.56951192  0.67922944  0.65201046  1
  Si0+  Si117  1  0.32232811  0.07439705  0.01678127  1
  Si0+  Si118  1  0.32475605  0.07355100  0.68262840  1
  Si0+  Si119  1  0.31966347  0.57022533  0.01582674  1
  O2-  O120  1  0.25171981  0.00727881  0.06086015  1
  O2-  O121  1  0.25194876  0.00955684  0.39329634  1
  O2-  O122  1  0.25435811  0.00748985  0.72751723  1
  O2-  O123  1  0.24893679  0.49879178  0.05806083  1
  O2-  O124  1  0.24658277  0.49164845  0.39105330  1
  O2-  O125  1  0.24602350  0.50121086  0.73384565  1
  O2-  O126  1  0.75040988  0.00210905  0.06303571  1
  O2-  O127  1  0.74062610  -0.00509238  0.39298738  1
  O2-  O128  1  0.74924795  -0.00261790  0.73087349  1
  O2-  O129  1  0.75783693  0.50195341  0.06219896  1
  O2-  O130  1  0.75745868  0.50496451  0.39329582  1
  O2-  O131  1  0.76007268  0.50008158  0.72682341  1
  O2-  O132  1  0.00625286  0.25560082  0.26930051  1
  O2-  O133  1  -0.00295205  0.25741309  0.60602678  1
  O2-  O134  1  0.00147952  0.25158111  0.93252648  1
  O2-  O135  1  -0.00021352  0.74924388  0.27716773  1
  O2-  O136  1  0.00486953  0.74512381  0.60382705  1
  O2-  O137  1  -0.00267927  0.75445105  0.94110451  1
  O2-  O138  1  0.49436964  0.25133222  0.27465309  1
  O2-  O139  1  0.50318058  0.25287445  0.60940776  1
  O2-  O140  1  0.50529189  0.24795551  0.93801474  1
  O2-  O141  1  0.49857498  0.75644743  0.27337503  1
  O2-  O142  1  0.50070658  0.75257525  0.60912114  1
  O2-  O143  1  0.51014446  0.75156093  0.93711956  1
  O2-  O144  1  0.06925822  0.17811195  0.09676205  1
  O2-  O145  1  0.06863528  0.17661103  0.43054747  1
  O2-  O146  1  0.06951220  0.17915350  0.76370906  1
  O2-  O147  1  0.07322765  0.68124950  0.10074907  1
  O2-  O148  1  0.07190226  0.68123883  0.42616221  1
  O2-  O149  1  0.07372256  0.67939329  0.75391311  1
  O2-  O150  1  0.56974680  0.17728565  0.08828168  1
  O2-  O151  1  0.57059235  0.18093877  0.43493556  1
  O2-  O152  1  0.56787731  0.17818075  0.75814329  1
  O2-  O153  1  0.56883473  0.67669111  0.08790013  1
  O2-  O154  1  0.56892460  0.67846834  0.43270983  1
  O2-  O155  1  0.56871691  0.67867228  0.75699271  1
  O2-  O156  1  0.17600345  0.43021587  0.24000236  1
  O2-  O157  1  0.18244759  0.42778149  0.56646228  1
  O2-  O158  1  0.18102699  0.42913578  0.90895976  1
  O2-  O159  1  0.18200468  0.92725542  0.23461598  1
  O2-  O160  1  0.18195696  0.93331581  0.56776417  1
  O2-  O161  1  0.18215802  0.92900244  0.90055735  1
  O2-  O162  1  0.68042374  0.43213673  0.23331863  1
  O2-  O163  1  0.67863340  0.43046356  0.56788550  1
  O2-  O164  1  0.67908656  0.43485602  0.90290541  1
  O2-  O165  1  0.67746605  0.92551762  0.24167367  1
  O2-  O166  1  0.67740518  0.92750738  0.56481214  1
  O2-  O167  1  0.67825599  0.92945779  0.90226386  1
  O2-  O168  1  0.43130229  0.32279586  0.09936499  1
  O2-  O169  1  0.43065766  0.32346995  0.42475126  1
  O2-  O170  1  0.43195905  0.32292996  0.75592909  1
  O2-  O171  1  0.42858728  0.81551003  0.09935167  1
  O2-  O172  1  0.42532234  0.81971939  0.42338853  1
  O2-  O173  1  0.42877083  0.82325777  0.75506603  1
  O2-  O174  1  0.92805076  0.32002678  0.09603073  1
  O2-  O175  1  0.92878584  0.32140644  0.43304869  1
  O2-  O176  1  0.92523386  0.32149578  0.75546326  1
  O2-  O177  1  0.92714201  0.81955364  0.09082783  1
  O2-  O178  1  0.92780589  0.82058554  0.42282030  1
  O2-  O179  1  0.92960933  0.81613746  0.76639451  1
  O2-  O180  1  0.32993096  0.07296670  0.24476602  1
  O2-  O181  1  0.32962332  0.07037631  0.57700500  1
  O2-  O182  1  0.32482855  0.07267194  0.91115706  1
  O2-  O183  1  0.31778345  0.57002404  0.23239547  1
  O2-  O184  1  0.32304767  0.56899060  0.57159129  1
  O2-  O185  1  0.31944913  0.56995186  0.91110370  1
  O2-  O186  1  0.81657014  0.06613118  0.23386492  1
  O2-  O187  1  0.81952021  0.07160141  0.57030490  1
  O2-  O188  1  0.82117702  0.06885060  0.91459017  1
  O2-  O189  1  0.82589449  0.57893112  0.24483198  1
  O2-  O190  1  0.81851522  0.57781794  0.57689910  1
  O2-  O191  1  0.82208502  0.57520755  0.91174834  1
  O2-  O192  1  0.03487130  0.08009038  0.26498671  1
  O2-  O193  1  0.03671572  0.08376329  0.59811976  1
  O2-  O194  1  0.03854249  0.07871223  0.93297305  1
  O2-  O195  1  0.04771085  0.58870688  0.27221383  1
  O2-  O196  1  0.05135540  0.58248975  0.60323841  1
  O2-  O197  1  0.04379135  0.58483209  0.92944311  1
  O2-  O198  1  0.54239486  0.08137664  0.26611053  1
  O2-  O199  1  0.54161993  0.08933010  0.60323526  1
  O2-  O200  1  0.54370476  0.08458857  0.93581033  1
  O2-  O201  1  0.53462163  0.58349014  0.26483166  1
  O2-  O202  1  0.53706054  0.58816553  0.60488819  1
  O2-  O203  1  0.54130908  0.58721695  0.93493362  1
  O2-  O204  1  0.17424671  0.19336568  0.26674599  1
  O2-  O205  1  0.16911356  0.20649691  0.59692614  1
  O2-  O206  1  0.17075660  0.20158062  0.93159326  1
  O2-  O207  1  0.16362558  0.71148485  0.27459609  1
  O2-  O208  1  0.16901848  0.70470873  0.60450103  1
  O2-  O209  1  0.16753567  0.71123426  0.93050903  1
  O2-  O210  1  0.66501306  0.21120639  0.26498638  1
  O2-  O211  1  0.66483595  0.20724913  0.60921958  1
  O2-  O212  1  0.66629966  0.19994938  0.93829521  1
  O2-  O213  1  0.66698977  0.70347289  0.26198070  1
  O2-  O214  1  0.66155819  0.70288636  0.60316621  1
  O2-  O215  1  0.66964648  0.69745999  0.94017315  1
  O2-  O216  1  0.08581432  0.45630692  0.05860288  1
  O2-  O217  1  0.08303847  0.45468595  0.39295708  1
  O2-  O218  1  0.07748002  0.45065949  0.73212063  1
  O2-  O219  1  0.08177303  0.95536043  0.06725453  1
  O2-  O220  1  0.08219359  0.95979671  0.40064904  1
  O2-  O221  1  0.08375132  0.96075479  0.73442231  1
  O2-  O222  1  0.58378087  0.46417855  0.06960486  1
  O2-  O223  1  0.58612678  0.46301922  0.40138034  1
  O2-  O224  1  0.58691161  0.46577070  0.73631364  1
  O2-  O225  1  0.57934624  0.95661679  0.06859680  1
  O2-  O226  1  0.57846587  0.94532614  0.38946974  1
  O2-  O227  1  0.57900357  0.95688801  0.73044084  1
  O2-  O228  1  0.20793305  0.33576551  0.05998823  1
  O2-  O229  1  0.19777776  0.33037041  0.38882068  1
  O2-  O230  1  0.21115015  0.32961666  0.73275469  1
  O2-  O231  1  0.21547312  0.83325204  0.06634403  1
  O2-  O232  1  0.21220247  0.83731245  0.40566039  1
  O2-  O233  1  0.21083068  0.83553977  0.73384132  1
  O2-  O234  1  0.70621968  0.33068015  0.06672834  1
  O2-  O235  1  0.71127724  0.33423835  0.40049790  1
  O2-  O236  1  0.70535188  0.33348319  0.73819959  1
  O2-  O237  1  0.70623054  0.82985016  0.06879893  1
  O2-  O238  1  0.70246077  0.83062462  0.39062855  1
  O2-  O239  1  0.70386334  0.82788792  0.73131152  1
  O2-  O240  1  0.45780734  0.41525164  0.27253620  1
  O2-  O241  1  0.46095915  0.41604480  0.60567653  1
  O2-  O242  1  0.46321290  0.41845866  0.93091984  1
  O2-  O243  1  0.44344857  0.91519268  0.27096111  1
  O2-  O244  1  0.45359352  0.91501727  0.60140114  1
  O2-  O245  1  0.45583148  0.91893511  0.93233118  1
  O2-  O246  1  0.94882767  0.42401657  0.26739737  1
  O2-  O247  1  0.94443691  0.41919857  0.60572948  1
  O2-  O248  1  0.94945841  0.42080007  0.93066226  1
  O2-  O249  1  0.95834516  0.91143958  0.26958195  1
  O2-  O250  1  0.96155229  0.91508131  0.59881597  1
  O2-  O251  1  0.95006871  0.91543150  0.94041538  1
  O2-  O252  1  0.33430761  0.30202075  0.27248898  1
  O2-  O253  1  0.34093468  0.29627958  0.60114966  1
  O2-  O254  1  0.33549695  0.29310635  0.92882185  1
  O2-  O255  1  0.33330550  0.78731715  0.27259298  1
  O2-  O256  1  0.33688418  0.79226475  0.60296762  1
  O2-  O257  1  0.33758843  0.78501334  0.92953015  1
  O2-  O258  1  0.83303902  0.28690150  0.26639189  1
  O2-  O259  1  0.83107805  0.29344137  0.60691156  1
  O2-  O260  1  0.82861003  0.28956050  0.93125574  1
  O2-  O261  1  0.83771820  0.79440853  0.26804269  1
  O2-  O262  1  0.83339412  0.78751414  0.59727415  1
  O2-  O263  1  0.83367428  0.79303145  0.93861709  1
  O2-  O264  1  0.41510580  0.04681493  0.06379204  1
  O2-  O265  1  0.41651418  0.04363798  0.39905068  1
  O2-  O266  1  0.41665309  0.04641257  0.73139073  1
  O2-  O267  1  0.41185807  0.54203248  0.06234394  1
  O2-  O268  1  0.41499334  0.53895238  0.40248399  1
  O2-  O269  1  0.41721560  0.54075247  0.74062676  1
  O2-  O270  1  0.91289715  0.04184319  0.06765927  1
  O2-  O271  1  0.91204392  0.03541336  0.40187346  1
  O2-  O272  1  0.91825847  0.03848553  0.73737487  1
  O2-  O273  1  0.92053477  0.54865682  0.06121225  1
  O2-  O274  1  0.91903075  0.55434763  0.39749416  1
  O2-  O275  1  0.91901888  0.55659247  0.72544012  1
  O2-  O276  1  0.30022623  0.16960253  0.06146444  1
  O2-  O277  1  0.30549932  0.16992135  0.39528781  1
  O2-  O278  1  0.30276680  0.16905527  0.72499648  1
  O2-  O279  1  0.29048791  0.66160397  0.06284498  1
  O2-  O280  1  0.28784766  0.66287961  0.40402475  1
  O2-  O281  1  0.29540801  0.67018917  0.73763783  1
  O2-  O282  1  0.79449080  0.16372237  0.06552289  1
  O2-  O283  1  0.78604758  0.16434452  0.40208552  1
  O2-  O284  1  0.79241528  0.16643514  0.74078932  1
  O2-  O285  1  0.79992420  0.66456098  0.06597337  1
  O2-  O286  1  0.79534160  0.66879325  0.39586436  1
  O2-  O287  1  0.79043305  0.66404903  0.73202233  1
