# generated using pymatgen
data_Ca2Al2SiO7
_symmetry_space_group_name_H-M   'P 1'
_cell_length_a   15.46248319
_cell_length_b   15.46178152
_cell_length_c   15.28772034
_cell_angle_alpha   90.00729522
_cell_angle_beta   89.98862987
_cell_angle_gamma   89.99645054
_symmetry_Int_Tables_number   1
_chemical_formula_structural   Ca2Al2SiO7
_chemical_formula_sum   'Ca48 Al48 Si24 O168'
_cell_volume   3654.95041487
_cell_formula_units_Z   24
loop_
 _symmetry_equiv_pos_site_id
 _symmetry_equiv_pos_as_xyz
  1  'x, y, z'
loop_
 _atom_type_symbol
 _atom_type_oxidation_number
  Ca2+  2.0
  Al0+  0.0
  Si0+  0.0
  O2-  -2.0
loop_
 _atom_site_type_symbol
 _atom_site_label
 _atom_site_symmetry_multiplicity
 _atom_site_fract_x
 _atom_site_fract_y
 _atom_site_fract_z
 _atom_site_occupancy
  Ca2+  Ca0  1  0.16601009  0.08385320  0.17419138  1
  Ca2+  Ca1  1  0.16134261  0.08923444  0.50333668  1
  Ca2+  Ca2  1  0.16357616  0.08394530  0.83637770  1
  Ca2+  Ca3  1  0.17731170  0.58163024  0.17769044  1
  Ca2+  Ca4  1  0.16297214  0.56968121  0.49769157  1
  Ca2+  Ca5  1  0.16960523  0.57398336  0.83661968  1
  Ca2+  Ca6  1  0.66874674  0.07720475  0.17194836  1
  Ca2+  Ca7  1  0.66697996  0.08308799  0.50408224  1
  Ca2+  Ca8  1  0.67920785  0.09251573  0.83423369  1
  Ca2+  Ca9  1  0.67434092  0.57945681  0.16863931  1
  Ca2+  Ca10  1  0.68017490  0.57420681  0.50510483  1
  Ca2+  Ca11  1  0.67553590  0.57132797  0.83673103  1
  Ca2+  Ca12  1  0.08045958  0.33656275  0.17269275  1
  Ca2+  Ca13  1  0.07751325  0.33267759  0.49386379  1
  Ca2+  Ca14  1  0.07606297  0.32856576  0.82189703  1
  Ca2+  Ca15  1  0.07230417  0.82473777  0.16645785  1
  Ca2+  Ca16  1  0.07335343  0.82260339  0.48971401  1
  Ca2+  Ca17  1  0.07614505  0.82836184  0.83329899  1
  Ca2+  Ca18  1  0.57467443  0.34029596  0.16243386  1
  Ca2+  Ca19  1  0.58702674  0.32468110  0.49449225  1
  Ca2+  Ca20  1  0.58204424  0.33898256  0.82749750  1
  Ca2+  Ca21  1  0.58132335  0.83217163  0.16257937  1
  Ca2+  Ca22  1  0.58545799  0.83297733  0.49210063  1
  Ca2+  Ca23  1  0.57818990  0.83233456  0.83241983  1
  Ca2+  Ca24  1  0.33339495  0.42173401  0.17595531  1
  Ca2+  Ca25  1  0.32149239  0.40821667  0.49797989  1
  Ca2+  Ca26  1  0.32702120  0.41514650  0.84091453  1
  Ca2+  Ca27  1  0.33452892  0.91706656  0.17151606  1
  Ca2+  Ca28  1  0.32906045  0.92059501  0.50310348  1
  Ca2+  Ca29  1  0.33177929  0.91782657  0.83975229  1
  Ca2+  Ca30  1  0.83287868  0.42448575  0.17165740  1
  Ca2+  Ca31  1  0.84019120  0.42175482  0.50739594  1
  Ca2+  Ca32  1  0.82372739  0.41609367  0.83806718  1
  Ca2+  Ca33  1  0.83617583  0.91938255  0.17308070  1
  Ca2+  Ca34  1  0.83078852  0.92118044  0.50060040  1
  Ca2+  Ca35  1  0.83813379  0.92990483  0.83961266  1
  Ca2+  Ca36  1  0.42274691  0.18053462  0.16712836  1
  Ca2+  Ca37  1  0.42879674  0.17444388  0.49217421  1
  Ca2+  Ca38  1  0.42714886  0.17447694  0.82852755  1
  Ca2+  Ca39  1  0.41266536  0.66662735  0.15669144  1
  Ca2+  Ca40  1  0.41738493  0.66492298  0.49389714  1
  Ca2+  Ca41  1  0.41227613  0.66775868  0.83567103  1
  Ca2+  Ca42  1  0.91828153  0.16957862  0.16648058  1
  Ca2+  Ca43  1  0.91996352  0.18011620  0.49621855  1
  Ca2+  Ca44  1  0.91599620  0.17070425  0.82169691  1
  Ca2+  Ca45  1  0.90941473  0.67260074  0.16437688  1
  Ca2+  Ca46  1  0.91590250  0.66609997  0.48697900  1
  Ca2+  Ca47  1  0.90252003  0.67009087  0.83223688  1
  Al0+  Al48  1  0.00061571  -0.00269305  0.00099689  1
  Al0+  Al49  1  -0.00000754  -0.00048882  0.32923264  1
  Al0+  Al50  1  0.00017258  -0.00342748  0.66703241  1
  Al0+  Al51  1  0.00066977  0.49833224  0.00186927  1
  Al0+  Al52  1  0.00369382  0.49991466  0.33162785  1
  Al0+  Al53  1  0.00384068  0.50305852  0.67426039  1
  Al0+  Al54  1  0.49955842  0.00059980  -0.00516879  1
  Al0+  Al55  1  0.50040206  -0.00049948  0.33432040  1
  Al0+  Al56  1  0.49744096  0.00080353  0.66421924  1
  Al0+  Al57  1  0.49803349  0.50028786  -0.00005463  1
  Al0+  Al58  1  0.50246417  0.50158117  0.33522681  1
  Al0+  Al59  1  0.49924664  0.50437045  0.66731894  1
  Al0+  Al60  1  0.25171236  0.24785261  -0.00350892  1
  Al0+  Al61  1  0.25251417  0.24961550  0.32996763  1
  Al0+  Al62  1  0.25146482  0.24879997  0.67005874  1
  Al0+  Al63  1  0.24814639  0.74996889  -0.00259330  1
  Al0+  Al64  1  0.24956979  0.75192291  0.33542153  1
  Al0+  Al65  1  0.24805721  0.75232091  0.66625259  1
  Al0+  Al66  1  0.75069442  0.24826216  0.01044633  1
  Al0+  Al67  1  0.75163609  0.24743897  0.32470113  1
  Al0+  Al68  1  0.74958313  0.24981366  0.66479845  1
  Al0+  Al69  1  0.74847702  0.75104162  -0.00469097  1
  Al0+  Al70  1  0.74747582  0.75170686  0.33716021  1
  Al0+  Al71  1  0.74589554  0.75148317  0.66899519  1
  Al0+  Al72  1  0.18137636  0.42768761  0.34799340  1
  Al0+  Al73  1  0.07217060  0.17653625  0.65355661  1
  Al0+  Al74  1  0.92780575  0.81984558  0.98438781  1
  Al0+  Al75  1  0.57141273  0.18020096  0.65326885  1
  Al0+  Al76  1  0.42757900  0.82146655  0.98628745  1
  Al0+  Al77  1  0.57264410  0.17562560  0.31665545  1
  Al0+  Al78  1  0.82046691  0.56953987  0.34499932  1
  Al0+  Al79  1  0.67888666  0.93097166  0.34632272  1
  Al0+  Al80  1  0.67921018  0.42808572  0.67903758  1
  Al0+  Al81  1  0.67788744  0.42835685  0.01648856  1
  Al0+  Al82  1  0.31726605  0.57032226  0.01204375  1
  Al0+  Al83  1  0.82015898  0.06856643  0.67716283  1
  Al0+  Al84  1  0.07175085  0.17902007  0.31810593  1
  Al0+  Al85  1  0.82150573  0.57248623  0.01603310  1
  Al0+  Al86  1  0.07285034  0.67773025  0.31872195  1
  Al0+  Al87  1  0.32426324  0.57410619  0.34932705  1
  Al0+  Al88  1  0.42987671  0.32195729  0.98476428  1
  Al0+  Al89  1  0.82368040  0.57330673  0.68098452  1
  Al0+  Al90  1  0.18087180  0.42722257  0.68224235  1
  Al0+  Al91  1  0.92859471  0.32353325  0.31670345  1
  Al0+  Al92  1  0.92611129  0.81871227  0.31939810  1
  Al0+  Al93  1  0.82329029  0.06974113  0.01550743  1
  Al0+  Al94  1  0.43225584  0.32231444  0.31940120  1
  Al0+  Al95  1  0.92981806  0.32317489  0.65477968  1
  Si0+  Si96  1  0.82461126  0.07217485  0.35103854  1
  Si0+  Si97  1  0.07267421  0.68100866  0.65255660  1
  Si0+  Si98  1  0.07074397  0.17770453  0.98514327  1
  Si0+  Si99  1  0.92701105  0.81914588  0.65225675  1
  Si0+  Si100  1  0.17964704  0.92851408  0.68299300  1
  Si0+  Si101  1  0.32032134  0.57499182  0.68378106  1
  Si0+  Si102  1  0.67411898  0.92881695  0.68505415  1
  Si0+  Si103  1  0.32078871  0.06977400  0.34856694  1
  Si0+  Si104  1  0.57007592  0.68086641  0.64972363  1
  Si0+  Si105  1  0.67894222  0.42570735  0.34905635  1
  Si0+  Si106  1  0.07155260  0.67741009  0.98201471  1
  Si0+  Si107  1  0.17995756  0.92911011  0.01603799  1
  Si0+  Si108  1  0.67638580  0.92945542  0.01421041  1
  Si0+  Si109  1  0.42807326  0.32482729  0.65087644  1
  Si0+  Si110  1  0.17861190  0.42365969  0.01752084  1
  Si0+  Si111  1  0.57117389  0.67796681  0.98119385  1
  Si0+  Si112  1  0.57058468  0.68027602  0.31952359  1
  Si0+  Si113  1  0.92852920  0.31989866  0.98543241  1
  Si0+  Si114  1  0.32206720  0.07032067  0.01509407  1
  Si0+  Si115  1  0.42856152  0.82085066  0.32009553  1
  Si0+  Si116  1  0.17765481  0.92984039  0.34929483  1
  Si0+  Si117  1  0.32167236  0.07005780  0.68299472  1
  Si0+  Si118  1  0.42750388  0.82109849  0.65014013  1
  Si0+  Si119  1  0.57272561  0.17850692  0.98295650  1
  O2-  O120  1  0.25156150  -0.00060513  0.05841274  1
  O2-  O121  1  0.24622733  0.00288581  0.39220299  1
  O2-  O122  1  0.24669795  0.00310012  0.72573830  1
  O2-  O123  1  0.24582147  0.49442290  0.05999061  1
  O2-  O124  1  0.25372685  0.50039295  0.39828630  1
  O2-  O125  1  0.25788160  0.50090793  0.72780602  1
  O2-  O126  1  0.74779781  -0.00586066  0.05921085  1
  O2-  O127  1  0.75223339  0.00619413  0.39380360  1
  O2-  O128  1  0.74396319  -0.00362759  0.72789661  1
  O2-  O129  1  0.75103687  0.49943837  0.06600082  1
  O2-  O130  1  0.75272740  0.48905849  0.39294554  1
  O2-  O131  1  0.75570232  0.49610271  0.72877418  1
  O2-  O132  1  -0.00036632  0.24935028  0.26670725  1
  O2-  O133  1  0.00310286  0.25145403  0.60514765  1
  O2-  O134  1  0.00016216  0.24872594  0.94325240  1
  O2-  O135  1  -0.00454702  0.74424299  0.26907402  1
  O2-  O136  1  -0.00825547  0.74181500  0.61180621  1
  O2-  O137  1  -0.00307767  0.73973564  0.93675644  1
  O2-  O138  1  0.50785664  0.25449407  0.26782010  1
  O2-  O139  1  0.50064752  0.25961258  0.60807368  1
  O2-  O140  1  0.50859258  0.25130728  0.93811831  1
  O2-  O141  1  0.49376962  0.74556457  0.27739357  1
  O2-  O142  1  0.49859138  0.75185313  0.60683851  1
  O2-  O143  1  0.50136933  0.74733796  0.93765927  1
  O2-  O144  1  0.07270639  0.17675826  0.08968302  1
  O2-  O145  1  0.06994767  0.17776105  0.43142075  1
  O2-  O146  1  0.07015764  0.17558341  0.76782066  1
  O2-  O147  1  0.07637678  0.68295595  0.08682562  1
  O2-  O148  1  0.07300241  0.68191705  0.43305161  1
  O2-  O149  1  0.08019431  0.68718227  0.75734078  1
  O2-  O150  1  0.56730589  0.17358734  0.08786857  1
  O2-  O151  1  0.56799086  0.17402536  0.43051362  1
  O2-  O152  1  0.56766243  0.17661697  0.76632997  1
  O2-  O153  1  0.57117750  0.68067618  0.08693174  1
  O2-  O154  1  0.57050804  0.68441772  0.42485228  1
  O2-  O155  1  0.56874350  0.68271689  0.75458812  1
  O2-  O156  1  0.18499540  0.42738564  0.23439474  1
  O2-  O157  1  0.18125117  0.42668559  0.56981308  1
  O2-  O158  1  0.18028753  0.42316388  0.91148682  1
  O2-  O159  1  0.18122806  0.92902838  0.24398471  1
  O2-  O160  1  0.18286915  0.92554269  0.57816836  1
  O2-  O161  1  0.18025292  0.93066913  0.91041166  1
  O2-  O162  1  0.67509972  0.43184210  0.24381299  1
  O2-  O163  1  0.67694741  0.43092334  0.56568485  1
  O2-  O164  1  0.67890294  0.42793209  0.90262833  1
  O2-  O165  1  0.67630804  0.93046072  0.23328115  1
  O2-  O166  1  0.67312773  0.92741426  0.57954136  1
  O2-  O167  1  0.67410113  0.93197095  0.90853421  1
  O2-  O168  1  0.42744210  0.31940608  0.09727445  1
  O2-  O169  1  0.43078497  0.31821408  0.43325470  1
  O2-  O170  1  0.42745760  0.32197799  0.75682056  1
  O2-  O171  1  0.42828846  0.82228817  0.09929517  1
  O2-  O172  1  0.42960866  0.82333290  0.42555692  1
  O2-  O173  1  0.42664359  0.82101362  0.75519340  1
  O2-  O174  1  0.93086822  0.31986081  0.09004606  1
  O2-  O175  1  0.92874815  0.32324399  0.43042979  1
  O2-  O176  1  0.92976959  0.31919356  0.76912596  1
  O2-  O177  1  0.93098557  0.82236202  0.09679552  1
  O2-  O178  1  0.92814113  0.81916470  0.43367136  1
  O2-  O179  1  0.93034320  0.82175683  0.75749854  1
  O2-  O180  1  0.32160682  0.06544109  0.24316468  1
  O2-  O181  1  0.32399369  0.06615866  0.57805687  1
  O2-  O182  1  0.32030376  0.06887909  0.90969289  1
  O2-  O183  1  0.32227145  0.57662651  0.23569945  1
  O2-  O184  1  0.31788516  0.58019140  0.57890915  1
  O2-  O185  1  0.31392263  0.57124556  0.89858014  1
  O2-  O186  1  0.82660402  0.06764700  0.24534074  1
  O2-  O187  1  0.81976389  0.06432814  0.56476031  1
  O2-  O188  1  0.82345205  0.06998128  0.90189055  1
  O2-  O189  1  0.81463249  0.57275346  0.23233785  1
  O2-  O190  1  0.82046448  0.57639301  0.56735973  1
  O2-  O191  1  0.81834821  0.57056329  0.90251795  1
  O2-  O192  1  0.04572672  0.07985035  0.26441185  1
  O2-  O193  1  0.04634723  0.07627198  0.60266303  1
  O2-  O194  1  0.04454780  0.08485051  0.93869502  1
  O2-  O195  1  0.05560072  0.57808923  0.26692023  1
  O2-  O196  1  0.05601819  0.58554064  0.60982614  1
  O2-  O197  1  0.05374879  0.58042011  0.93950695  1
  O2-  O198  1  0.53450179  0.08013141  0.26334012  1
  O2-  O199  1  0.53510469  0.08441707  0.59939503  1
  O2-  O200  1  0.54181809  0.08760102  0.93346280  1
  O2-  O201  1  0.55031919  0.58718136  0.27249662  1
  O2-  O202  1  0.54217854  0.58986241  0.60089232  1
  O2-  O203  1  0.54291872  0.58588819  0.93437832  1
  O2-  O204  1  0.17109931  0.20396756  0.26503438  1
  O2-  O205  1  0.17397782  0.19938327  0.60517413  1
  O2-  O206  1  0.16324771  0.20321655  0.93691097  1
  O2-  O207  1  0.16880354  0.71575992  0.26566324  1
  O2-  O208  1  0.15921047  0.72035924  0.60214680  1
  O2-  O209  1  0.16096458  0.71187573  0.93166400  1
  O2-  O210  1  0.67346498  0.19138765  0.26606110  1
  O2-  O211  1  0.66781630  0.20527018  0.59747400  1
  O2-  O212  1  0.66952255  0.20026870  0.94236769  1
  O2-  O213  1  0.65837348  0.71565154  0.27020701  1
  O2-  O214  1  0.66085247  0.71110573  0.60134334  1
  O2-  O215  1  0.66264126  0.70556619  0.93196058  1
  O2-  O216  1  0.08410649  0.44687026  0.06134902  1
  O2-  O217  1  0.08350528  0.45645379  0.40179735  1
  O2-  O218  1  0.08733718  0.46089882  0.74077502  1
  O2-  O219  1  0.08962402  0.95798256  0.06435057  1
  O2-  O220  1  0.08543418  0.95555578  0.39650588  1
  O2-  O221  1  0.08725799  0.95169140  0.73147865  1
  O2-  O222  1  0.57953779  0.45976976  0.06723569  1
  O2-  O223  1  0.58795013  0.45597339  0.39778372  1
  O2-  O224  1  0.58118441  0.46249751  0.73210995  1
  O2-  O225  1  0.58304677  0.95755849  0.06071048  1
  O2-  O226  1  0.58182039  0.95945781  0.40262049  1
  O2-  O227  1  0.57945309  0.95403865  0.72956735  1
  O2-  O228  1  0.20629244  0.32997333  0.06154020  1
  O2-  O229  1  0.21214060  0.32899566  0.40068294  1
  O2-  O230  1  0.21067017  0.33045313  0.73786819  1
  O2-  O231  1  0.20872874  0.83780084  0.06236302  1
  O2-  O232  1  0.20905044  0.84070715  0.39988492  1
  O2-  O233  1  0.21364566  0.83984182  0.73350719  1
  O2-  O234  1  0.70246437  0.33013401  0.07044334  1
  O2-  O235  1  0.69866084  0.32809922  0.38851002  1
  O2-  O236  1  0.70122823  0.32847864  0.73218819  1
  O2-  O237  1  0.69683770  0.83376975  0.05699389  1
  O2-  O238  1  0.70892044  0.83603821  0.40445961  1
  O2-  O239  1  0.69769624  0.83515293  0.73133185  1
  O2-  O240  1  0.45713821  0.42269521  0.26811599  1
  O2-  O241  1  0.44592870  0.42127681  0.60850493  1
  O2-  O242  1  0.45488314  0.41988842  0.93044115  1
  O2-  O243  1  0.46015607  0.91050501  0.27129833  1
  O2-  O244  1  0.45331933  0.91311541  0.60226163  1
  O2-  O245  1  0.45795291  0.91743363  0.92911305  1
  O2-  O246  1  0.96063230  0.41989477  0.26226054  1
  O2-  O247  1  0.95895934  0.42373788  0.60677926  1
  O2-  O248  1  0.95521695  0.41221453  0.93808450  1
  O2-  O249  1  0.95917161  0.91523975  0.26630016  1
  O2-  O250  1  0.96208480  0.90745160  0.60335283  1
  O2-  O251  1  0.96723265  0.91436553  0.92975461  1
  O2-  O252  1  0.33682598  0.28816389  0.26449510  1
  O2-  O253  1  0.33674249  0.29153901  0.60560711  1
  O2-  O254  1  0.33508300  0.28480116  0.92918221  1
  O2-  O255  1  0.33499785  0.80035426  0.27357077  1
  O2-  O256  1  0.33537209  0.79346081  0.60279014  1
  O2-  O257  1  0.33114731  0.79126542  0.93020407  1
  O2-  O258  1  0.83080366  0.29705316  0.26167448  1
  O2-  O259  1  0.83233565  0.29496180  0.60104130  1
  O2-  O260  1  0.83560304  0.29011534  0.94152821  1
  O2-  O261  1  0.82664714  0.79363783  0.26728521  1
  O2-  O262  1  0.83161075  0.79970878  0.60860813  1
  O2-  O263  1  0.82954071  0.79693035  0.92908981  1
  O2-  O264  1  0.41353135  0.04084241  0.06140762  1
  O2-  O265  1  0.40951059  0.03547110  0.39799855  1
  O2-  O266  1  0.41076320  0.03611633  0.73265336  1
  O2-  O267  1  0.41573167  0.54604133  0.06363522  1
  O2-  O268  1  0.42431551  0.54992920  0.40139003  1
  O2-  O269  1  0.41637213  0.55724072  0.72760318  1
  O2-  O270  1  0.91934504  0.03655898  0.06890579  1
  O2-  O271  1  0.91694585  0.04217838  0.39714411  1
  O2-  O272  1  0.91592476  0.03457791  0.73288485  1
  O2-  O273  1  0.92208735  0.54722188  0.06565349  1
  O2-  O274  1  0.92031558  0.54651178  0.39527681  1
  O2-  O275  1  0.92468109  0.55845657  0.73306962  1
  O2-  O276  1  0.29269819  0.16144331  0.06226864  1
  O2-  O277  1  0.29687842  0.16198831  0.39541727  1
  O2-  O278  1  0.29908347  0.16198822  0.73218196  1
  O2-  O279  1  0.28709784  0.66814105  0.06457444  1
  O2-  O280  1  0.29650833  0.67375633  0.40181769  1
  O2-  O281  1  0.28851539  0.66726714  0.73088979  1
  O2-  O282  1  0.79449179  0.16425576  0.07267264  1
  O2-  O283  1  0.80176700  0.16787390  0.39324318  1
  O2-  O284  1  0.79077863  0.16519618  0.73179923  1
  O2-  O285  1  0.79111950  0.67276827  0.06452109  1
  O2-  O286  1  0.78409623  0.66416672  0.40004133  1
  O2-  O287  1  0.78624913  0.66996123  0.73416666  1
