# generated using pymatgen
data_Ca2Al2SiO7
_symmetry_space_group_name_H-M   'P 1'
_cell_length_a   15.46292824
_cell_length_b   15.46199765
_cell_length_c   15.28676173
_cell_angle_alpha   89.99819810
_cell_angle_beta   89.98114016
_cell_angle_gamma   90.00661785
_symmetry_Int_Tables_number   1
_chemical_formula_structural   Ca2Al2SiO7
_chemical_formula_sum   'Ca48 Al48 Si24 O168'
_cell_volume   3654.87739754
_cell_formula_units_Z   24
loop_
 _symmetry_equiv_pos_site_id
 _symmetry_equiv_pos_as_xyz
  1  'x, y, z'
loop_
 _atom_type_symbol
 _atom_type_oxidation_number
  Ca2+  2.0
  Al0+  0.0
  Si0+  0.0
  O2-  -2.0
loop_
 _atom_site_type_symbol
 _atom_site_label
 _atom_site_symmetry_multiplicity
 _atom_site_fract_x
 _atom_site_fract_y
 _atom_site_fract_z
 _atom_site_occupancy
  Ca2+  Ca0  1  0.17055795  0.08953647  0.16387600  1
  Ca2+  Ca1  1  0.16617780  0.07880829  0.50404984  1
  Ca2+  Ca2  1  0.17164610  0.08346152  0.84376589  1
  Ca2+  Ca3  1  0.17249830  0.59241307  0.16567476  1
  Ca2+  Ca4  1  0.17960687  0.59039356  0.50198352  1
  Ca2+  Ca5  1  0.17530892  0.58545538  0.84495211  1
  Ca2+  Ca6  1  0.67049882  0.07231088  0.17391116  1
  Ca2+  Ca7  1  0.67485762  0.07892637  0.49741264  1
  Ca2+  Ca8  1  0.67508549  0.07510920  0.83888157  1
  Ca2+  Ca9  1  0.67217454  0.57861505  0.16233934  1
  Ca2+  Ca10  1  0.66965060  0.57844758  0.51140240  1
  Ca2+  Ca11  1  0.67223242  0.57935260  0.83604117  1
  Ca2+  Ca12  1  0.07476891  0.33079863  0.15537914  1
  Ca2+  Ca13  1  0.07390497  0.33037371  0.49307630  1
  Ca2+  Ca14  1  0.08322213  0.33530707  0.83911591  1
  Ca2+  Ca15  1  0.06979439  0.82936841  0.15871645  1
  Ca2+  Ca16  1  0.07018129  0.83280465  0.49687542  1
  Ca2+  Ca17  1  0.07328440  0.82470020  0.83521042  1
  Ca2+  Ca18  1  0.58844057  0.32566414  0.16197890  1
  Ca2+  Ca19  1  0.59051794  0.32748779  0.49430029  1
  Ca2+  Ca20  1  0.58755611  0.34022607  0.83032235  1
  Ca2+  Ca21  1  0.57695945  0.84102891  0.16052338  1
  Ca2+  Ca22  1  0.58121370  0.82643187  0.49353313  1
  Ca2+  Ca23  1  0.58205764  0.82725547  0.83310923  1
  Ca2+  Ca24  1  0.32472907  0.42855335  0.16705070  1
  Ca2+  Ca25  1  0.33517293  0.42982185  0.50525146  1
  Ca2+  Ca26  1  0.32830456  0.43013652  0.84344018  1
  Ca2+  Ca27  1  0.33712293  0.91579097  0.16852840  1
  Ca2+  Ca28  1  0.33421316  0.91248953  0.49845514  1
  Ca2+  Ca29  1  0.33484887  0.92199632  0.84506641  1
  Ca2+  Ca30  1  0.84015302  0.41722122  0.16589900  1
  Ca2+  Ca31  1  0.82906604  0.42217504  0.50852657  1
  Ca2+  Ca32  1  0.82462650  0.42517638  0.84350811  1
  Ca2+  Ca33  1  0.82529771  0.91424867  0.17450029  1
  Ca2+  Ca34  1  0.83816070  0.92462214  0.50428339  1
  Ca2+  Ca35  1  0.83404284  0.91615998  0.83983144  1
  Ca2+  Ca36  1  0.42452943  0.16144455  0.15991367  1
  Ca2+  Ca37  1  0.42832089  0.17079015  0.49071386  1
  Ca2+  Ca38  1  0.41693497  0.16847711  0.83243140  1
  Ca2+  Ca39  1  0.41188124  0.67494781  0.16089707  1
  Ca2+  Ca40  1  0.42244748  0.66375420  0.49489761  1
  Ca2+  Ca41  1  0.41871742  0.66525875  0.82913680  1
  Ca2+  Ca42  1  0.91543343  0.17622912  0.16048842  1
  Ca2+  Ca43  1  0.90642422  0.17136584  0.49212536  1
  Ca2+  Ca44  1  0.91662206  0.17077450  0.83338857  1
  Ca2+  Ca45  1  0.91731887  0.67468763  0.15439270  1
  Ca2+  Ca46  1  0.90684941  0.67867031  0.49797669  1
  Ca2+  Ca47  1  0.90558016  0.67348339  0.83194931  1
  Al0+  Al48  1  0.00159511  0.00124800  -0.00652105  1
  Al0+  Al49  1  0.00173349  0.00020320  0.33287567  1
  Al0+  Al50  1  0.00133520  0.00017709  0.66794920  1
  Al0+  Al51  1  0.00055750  0.49951588  -0.00189733  1
  Al0+  Al52  1  0.00136613  0.49903221  0.33224207  1
  Al0+  Al53  1  0.00183569  0.49989936  0.66724630  1
  Al0+  Al54  1  0.50098261  0.00038241  0.00047012  1
  Al0+  Al55  1  0.50098577  -0.00044258  0.33214869  1
  Al0+  Al56  1  0.49995561  0.00153150  0.66442735  1
  Al0+  Al57  1  0.50054136  0.49944926  0.00932439  1
  Al0+  Al58  1  0.49964968  0.49928529  0.33618084  1
  Al0+  Al59  1  0.49780609  0.50046493  0.66897398  1
  Al0+  Al60  1  0.25271481  0.25124436  0.00487796  1
  Al0+  Al61  1  0.25011333  0.25146807  0.33662178  1
  Al0+  Al62  1  0.25041816  0.24960278  0.66254904  1
  Al0+  Al63  1  0.24863496  0.75487448  -0.00431498  1
  Al0+  Al64  1  0.25160686  0.75052611  0.33612197  1
  Al0+  Al65  1  0.24769312  0.75210321  0.67034292  1
  Al0+  Al66  1  0.74992661  0.24790431  -0.00293381  1
  Al0+  Al67  1  0.74985383  0.24843539  0.32677051  1
  Al0+  Al68  1  0.75008173  0.24685120  0.67329838  1
  Al0+  Al69  1  0.74582393  0.74902547  0.00429367  1
  Al0+  Al70  1  0.74705781  0.74779939  0.33254731  1
  Al0+  Al71  1  0.74650498  0.75087037  0.65912847  1
  Al0+  Al72  1  0.67943884  0.42791964  0.67978190  1
  Al0+  Al73  1  0.92427626  0.81994135  0.98569217  1
  Al0+  Al74  1  0.31897318  0.57176600  0.68122455  1
  Al0+  Al75  1  0.82172303  0.06963695  0.34600221  1
  Al0+  Al76  1  0.56769973  0.67889795  0.65340583  1
  Al0+  Al77  1  0.82189774  0.57406667  0.67953931  1
  Al0+  Al78  1  0.32036791  0.57558819  0.01602925  1
  Al0+  Al79  1  0.56964449  0.18030413  0.31844866  1
  Al0+  Al80  1  0.17840265  0.42930501  0.01503720  1
  Al0+  Al81  1  0.92922923  0.82034097  0.65220945  1
  Al0+  Al82  1  0.92973901  0.32059644  0.32085718  1
  Al0+  Al83  1  0.82128526  0.57087192  0.01515977  1
  Al0+  Al84  1  0.31983634  0.57096156  0.34875826  1
  Al0+  Al85  1  0.43056645  0.81835278  0.32001052  1
  Al0+  Al86  1  0.67706843  0.92641126  0.35056793  1
  Al0+  Al87  1  0.07367262  0.18047367  0.98462899  1
  Al0+  Al88  1  0.32151727  0.07099969  0.01357766  1
  Al0+  Al89  1  0.82220740  0.06909662  0.68208393  1
  Al0+  Al90  1  0.92717656  0.32144340  0.98149058  1
  Al0+  Al91  1  0.43020574  0.82190394  0.98609917  1
  Al0+  Al92  1  0.07087504  0.67846962  0.98584384  1
  Al0+  Al93  1  0.92746633  0.82104460  0.32011195  1
  Al0+  Al94  1  0.68040431  0.92927397  0.01198750  1
  Al0+  Al95  1  0.67929591  0.42593711  0.01766653  1
  Si0+  Si96  1  0.57055489  0.17819379  0.98244840  1
  Si0+  Si97  1  0.43121206  0.32152352  0.98630980  1
  Si0+  Si98  1  0.42592874  0.82432613  0.65018441  1
  Si0+  Si99  1  0.07529668  0.17717364  0.31790567  1
  Si0+  Si100  1  0.92826637  0.31971482  0.65237190  1
  Si0+  Si101  1  0.17681865  0.42704920  0.35276558  1
  Si0+  Si102  1  0.42672506  0.32334382  0.31600240  1
  Si0+  Si103  1  0.17999251  0.92957519  0.34890241  1
  Si0+  Si104  1  0.42867586  0.31988997  0.65192480  1
  Si0+  Si105  1  0.07227639  0.17936933  0.65043620  1
  Si0+  Si106  1  0.82445494  0.07044423  0.01599155  1
  Si0+  Si107  1  0.57208914  0.67366163  0.31438061  1
  Si0+  Si108  1  0.17700991  0.93024636  0.01757170  1
  Si0+  Si109  1  0.82315021  0.57038687  0.34802753  1
  Si0+  Si110  1  0.56941879  0.67528018  0.98408773  1
  Si0+  Si111  1  0.68060282  0.42847970  0.34710369  1
  Si0+  Si112  1  0.07421317  0.67695526  0.64885511  1
  Si0+  Si113  1  0.17880916  0.93073190  0.68298432  1
  Si0+  Si114  1  0.32202449  0.07254570  0.34945642  1
  Si0+  Si115  1  0.32150830  0.07128839  0.67942579  1
  Si0+  Si116  1  0.67573040  0.92854570  0.68236724  1
  Si0+  Si117  1  0.17876630  0.42495591  0.68230826  1
  Si0+  Si118  1  0.57200359  0.17810291  0.65114888  1
  Si0+  Si119  1  0.07204379  0.67973071  0.31932905  1
  O2-  O120  1  0.24577233  -0.00113924  0.06215274  1
  O2-  O121  1  0.24982049  0.00278189  0.39188585  1
  O2-  O122  1  0.25413701  -0.00144411  0.72284262  1
  O2-  O123  1  0.24438827  0.50700867  0.06527654  1
  O2-  O124  1  0.24606315  0.49534311  0.39676723  1
  O2-  O125  1  0.24195728  0.49874286  0.72539999  1
  O2-  O126  1  0.76060128  -0.00249033  0.05918143  1
  O2-  O127  1  0.75470793  -0.00609104  0.39898614  1
  O2-  O128  1  0.74886482  -0.00774100  0.72666269  1
  O2-  O129  1  0.75499231  0.49395665  0.06726216  1
  O2-  O130  1  0.75095011  0.49968537  0.38959194  1
  O2-  O131  1  0.75237791  0.49912073  0.72837257  1
  O2-  O132  1  0.00549979  0.24543754  0.27681289  1
  O2-  O133  1  0.00005770  0.24925330  0.60868142  1
  O2-  O134  1  0.00114412  0.25020257  0.93201303  1
  O2-  O135  1  -0.00128716  0.74269311  0.27519361  1
  O2-  O136  1  0.00006062  0.74064873  0.60546070  1
  O2-  O137  1  -0.00725091  0.74414250  0.93556744  1
  O2-  O138  1  0.49302155  0.25311146  0.27116953  1
  O2-  O139  1  0.50308954  0.25207156  0.60961100  1
  O2-  O140  1  0.50394162  0.25367016  0.94057575  1
  O2-  O141  1  0.50595630  0.74565300  0.27209749  1
  O2-  O142  1  0.49218983  0.75364219  0.60659505  1
  O2-  O143  1  0.49890758  0.74241430  0.93959069  1
  O2-  O144  1  0.07312201  0.18128468  0.09844606  1
  O2-  O145  1  0.07843099  0.17833555  0.42410853  1
  O2-  O146  1  0.07774698  0.18035624  0.75449789  1
  O2-  O147  1  0.07230535  0.68555215  0.09985470  1
  O2-  O148  1  0.07345169  0.68253966  0.42532353  1
  O2-  O149  1  0.08016138  0.68053530  0.75335965  1
  O2-  O150  1  0.56798697  0.17690347  0.08747861  1
  O2-  O151  1  0.56917184  0.18339007  0.43243682  1
  O2-  O152  1  0.56802942  0.17398202  0.75588656  1
  O2-  O153  1  0.56940813  0.67560219  0.08968104  1
  O2-  O154  1  0.56981757  0.67088635  0.42036126  1
  O2-  O155  1  0.56624063  0.67961179  0.76621980  1
  O2-  O156  1  0.17742158  0.42495332  0.24813943  1
  O2-  O157  1  0.18211073  0.42086224  0.57652134  1
  O2-  O158  1  0.18645378  0.42657031  0.90113392  1
  O2-  O159  1  0.18055833  0.92899573  0.24449042  1
  O2-  O160  1  0.17850196  0.93261544  0.57723079  1
  O2-  O161  1  0.17926348  0.93169545  0.91161112  1
  O2-  O162  1  0.67980264  0.42895406  0.24265558  1
  O2-  O163  1  0.68179087  0.42560798  0.56533639  1
  O2-  O164  1  0.67714897  0.42898806  0.90419273  1
  O2-  O165  1  0.67559853  0.93059001  0.23725795  1
  O2-  O166  1  0.67228807  0.93253982  0.57709532  1
  O2-  O167  1  0.67847203  0.93261446  0.89845351  1
  O2-  O168  1  0.43205883  0.31850143  0.09132489  1
  O2-  O169  1  0.42842127  0.32176355  0.42237795  1
  O2-  O170  1  0.42517062  0.31614520  0.75671014  1
  O2-  O171  1  0.43257760  0.82359594  0.09914887  1
  O2-  O172  1  0.42912777  0.81622298  0.43365997  1
  O2-  O173  1  0.42745418  0.82859270  0.75528752  1
  O2-  O174  1  0.92636915  0.31659367  0.09531322  1
  O2-  O175  1  0.92956480  0.32027209  0.43500083  1
  O2-  O176  1  0.92912209  0.31832334  0.75647848  1
  O2-  O177  1  0.92656730  0.82111147  0.09946473  1
  O2-  O178  1  0.93134486  0.82183601  0.43373387  1
  O2-  O179  1  0.93147196  0.82222051  0.76457027  1
  O2-  O180  1  0.32144980  0.07378856  0.24491248  1
  O2-  O181  1  0.32030773  0.07205316  0.57405550  1
  O2-  O182  1  0.32231516  0.06971903  0.89964406  1
  O2-  O183  1  0.31707783  0.57297562  0.23657391  1
  O2-  O184  1  0.31933635  0.57007708  0.56763210  1
  O2-  O185  1  0.32233456  0.57170497  0.90224452  1
  O2-  O186  1  0.82011390  0.07071920  0.23303826  1
  O2-  O187  1  0.82056814  0.07214973  0.56899848  1
  O2-  O188  1  0.82107824  0.07078593  0.90991206  1
  O2-  O189  1  0.82475908  0.56967962  0.24351380  1
  O2-  O190  1  0.81943086  0.57101150  0.56495124  1
  O2-  O191  1  0.81500407  0.57325403  0.90176261  1
  O2-  O192  1  0.05392980  0.08302390  0.27251920  1
  O2-  O193  1  0.04613637  0.08696691  0.60342388  1
  O2-  O194  1  0.04929906  0.08180369  0.92965401  1
  O2-  O195  1  0.05371631  0.58368234  0.27637699  1
  O2-  O196  1  0.05762383  0.58029661  0.60445400  1
  O2-  O197  1  0.05550906  0.57716414  0.93539931  1
  O2-  O198  1  0.53743774  0.08435957  0.26526611  1
  O2-  O199  1  0.53995890  0.08872661  0.60049746  1
  O2-  O200  1  0.53625557  0.08971839  0.93292784  1
  O2-  O201  1  0.54353708  0.58071452  0.26898616  1
  O2-  O202  1  0.53606970  0.58197766  0.59834443  1
  O2-  O203  1  0.54484240  0.58066501  0.93968112  1
  O2-  O204  1  0.16940945  0.20336807  0.27270399  1
  O2-  O205  1  0.16345009  0.20719416  0.59933423  1
  O2-  O206  1  0.17382508  0.20934783  0.93354909  1
  O2-  O207  1  0.16362990  0.71152805  0.27368346  1
  O2-  O208  1  0.16519771  0.71149517  0.60013156  1
  O2-  O209  1  0.16560816  0.71527674  0.92930708  1
  O2-  O210  1  0.66374553  0.21176971  0.26172609  1
  O2-  O211  1  0.66456957  0.20486114  0.60490038  1
  O2-  O212  1  0.66305309  0.20098201  0.93466074  1
  O2-  O213  1  0.66666625  0.69497656  0.26949613  1
  O2-  O214  1  0.66220903  0.70858744  0.59410953  1
  O2-  O215  1  0.66121858  0.70495829  0.93747023  1
  O2-  O216  1  0.07712376  0.44707932  0.06457995  1
  O2-  O217  1  0.08345107  0.45323299  0.40013593  1
  O2-  O218  1  0.08304443  0.44370588  0.72545673  1
  O2-  O219  1  0.08344464  0.95699550  0.06312752  1
  O2-  O220  1  0.08940792  0.95801696  0.39918003  1
  O2-  O221  1  0.09031686  0.96351090  0.73193896  1
  O2-  O222  1  0.58253147  0.45503168  0.07357932  1
  O2-  O223  1  0.58797572  0.45359439  0.39538273  1
  O2-  O224  1  0.58026087  0.45488558  0.73097110  1
  O2-  O225  1  0.58702835  0.96818420  0.06654835  1
  O2-  O226  1  0.58018986  0.96106190  0.40409004  1
  O2-  O227  1  0.58347495  0.95965099  0.72930583  1
  O2-  O228  1  0.21442035  0.33463207  0.07127708  1
  O2-  O229  1  0.20180346  0.33321241  0.40069978  1
  O2-  O230  1  0.21011592  0.33281405  0.72841033  1
  O2-  O231  1  0.20361001  0.83789044  0.06400603  1
  O2-  O232  1  0.21100397  0.84024282  0.39960736  1
  O2-  O233  1  0.20247661  0.83874515  0.73077987  1
  O2-  O234  1  0.70358740  0.32442833  0.06607679  1
  O2-  O235  1  0.70902593  0.33633500  0.39328464  1
  O2-  O236  1  0.70378889  0.32931350  0.73342787  1
  O2-  O237  1  0.70066845  0.83190849  0.06781959  1
  O2-  O238  1  0.69801337  0.82450244  0.39968477  1
  O2-  O239  1  0.69621440  0.83284000  0.72408719  1
  O2-  O240  1  0.45353802  0.41651470  0.27125004  1
  O2-  O241  1  0.45323308  0.41241900  0.60502128  1
  O2-  O242  1  0.45739592  0.41459857  0.94047957  1
  O2-  O243  1  0.45657704  0.91694675  0.26829141  1
  O2-  O244  1  0.45236680  0.91790307  0.60239861  1
  O2-  O245  1  0.46539015  0.91712178  0.93077788  1
  O2-  O246  1  0.96081868  0.41693626  0.26662503  1
  O2-  O247  1  0.95481522  0.41241638  0.60450366  1
  O2-  O248  1  0.95269079  0.42055570  0.92968798  1
  O2-  O249  1  0.96212881  0.91681753  0.26747334  1
  O2-  O250  1  0.96776912  0.91593325  0.59888271  1
  O2-  O251  1  0.95609880  0.91751439  0.93282841  1
  O2-  O252  1  0.33155138  0.29959774  0.27335623  1
  O2-  O253  1  0.33954641  0.28809984  0.60023083  1
  O2-  O254  1  0.34139547  0.29027799  0.93774864  1
  O2-  O255  1  0.33306431  0.78847434  0.26716327  1
  O2-  O256  1  0.33025952  0.80170667  0.60666163  1
  O2-  O257  1  0.33199871  0.79993146  0.93202539  1
  O2-  O258  1  0.83503362  0.29009158  0.26475004  1
  O2-  O259  1  0.83630383  0.28878898  0.60616043  1
  O2-  O260  1  0.82947309  0.28908525  0.92795222  1
  O2-  O261  1  0.82924820  0.79284124  0.26934379  1
  O2-  O262  1  0.83163097  0.79553828  0.59670192  1
  O2-  O263  1  0.82441448  0.79354615  0.93432683  1
  O2-  O264  1  0.41659260  0.03746055  0.06792910  1
  O2-  O265  1  0.41255549  0.04286538  0.39794887  1
  O2-  O266  1  0.41440778  0.04722227  0.72648735  1
  O2-  O267  1  0.41638077  0.54347279  0.07060474  1
  O2-  O268  1  0.41653126  0.53820451  0.40313851  1
  O2-  O269  1  0.41354757  0.53786796  0.73551958  1
  O2-  O270  1  0.92087919  0.05244151  0.05796627  1
  O2-  O271  1  0.92275756  0.04787043  0.39888018  1
  O2-  O272  1  0.92011974  0.04182468  0.73447372  1
  O2-  O273  1  0.92208081  0.54921529  0.06513543  1
  O2-  O274  1  0.91518855  0.54337438  0.39597180  1
  O2-  O275  1  0.92338966  0.55182851  0.72807463  1
  O2-  O276  1  0.29471888  0.16681976  0.07011197  1
  O2-  O277  1  0.29625207  0.16488177  0.39860429  1
  O2-  O278  1  0.29180281  0.16295431  0.72589241  1
  O2-  O279  1  0.29254417  0.67597186  0.06520744  1
  O2-  O280  1  0.28778874  0.66678850  0.40475831  1
  O2-  O281  1  0.29212039  0.67013882  0.73312222  1
  O2-  O282  1  0.79282720  0.16228226  0.06085159  1
  O2-  O283  1  0.78621622  0.16742650  0.39858446  1
  O2-  O284  1  0.78864845  0.16293475  0.73865649  1
  O2-  O285  1  0.78652297  0.66621631  0.07099503  1
  O2-  O286  1  0.79373054  0.66173637  0.39526859  1
  O2-  O287  1  0.78919252  0.67242429  0.72897074  1
