# generated using pymatgen
data_Ca2Al2SiO7
_symmetry_space_group_name_H-M   'P 1'
_cell_length_a   15.45579895
_cell_length_b   15.45595977
_cell_length_c   15.28262613
_cell_angle_alpha   89.99868701
_cell_angle_beta   90.00080591
_cell_angle_gamma   90.01877612
_symmetry_Int_Tables_number   1
_chemical_formula_structural   Ca2Al2SiO7
_chemical_formula_sum   'Ca48 Al48 Si24 O168'
_cell_volume   3650.77782495
_cell_formula_units_Z   24
loop_
 _symmetry_equiv_pos_site_id
 _symmetry_equiv_pos_as_xyz
  1  'x, y, z'
loop_
 _atom_type_symbol
 _atom_type_oxidation_number
  Ca2+  2.0
  Al0+  0.0
  Si0+  0.0
  O2-  -2.0
loop_
 _atom_site_type_symbol
 _atom_site_label
 _atom_site_symmetry_multiplicity
 _atom_site_fract_x
 _atom_site_fract_y
 _atom_site_fract_z
 _atom_site_occupancy
  Ca2+  Ca0  1  0.17088092  0.07925526  0.17473852  1
  Ca2+  Ca1  1  0.18028851  0.07513868  0.50570449  1
  Ca2+  Ca2  1  0.17508170  0.07476994  0.84119346  1
  Ca2+  Ca3  1  0.16584542  0.57761185  0.17538123  1
  Ca2+  Ca4  1  0.16500940  0.57378363  0.50366719  1
  Ca2+  Ca5  1  0.17160982  0.58316289  0.83104058  1
  Ca2+  Ca6  1  0.67148224  0.09563440  0.17264147  1
  Ca2+  Ca7  1  0.67097162  0.08439994  0.50096817  1
  Ca2+  Ca8  1  0.66101865  0.07627760  0.83602871  1
  Ca2+  Ca9  1  0.67023750  0.57238839  0.17215615  1
  Ca2+  Ca10  1  0.66495948  0.58193320  0.50292664  1
  Ca2+  Ca11  1  0.68104995  0.58043112  0.84185324  1
  Ca2+  Ca12  1  0.07828748  0.32759694  0.15728546  1
  Ca2+  Ca13  1  0.08564151  0.33756690  0.49430110  1
  Ca2+  Ca14  1  0.08539793  0.33050101  0.83221891  1
  Ca2+  Ca15  1  0.09086528  0.83231462  0.16560319  1
  Ca2+  Ca16  1  0.08528527  0.83237834  0.49598725  1
  Ca2+  Ca17  1  0.08022165  0.83773817  0.82535348  1
  Ca2+  Ca18  1  0.58281835  0.32715189  0.16380295  1
  Ca2+  Ca19  1  0.57259353  0.33051485  0.48517954  1
  Ca2+  Ca20  1  0.58837096  0.32761892  0.83506535  1
  Ca2+  Ca21  1  0.58420807  0.82681296  0.16562010  1
  Ca2+  Ca22  1  0.57892170  0.83043502  0.49804957  1
  Ca2+  Ca23  1  0.57588468  0.83526875  0.82052315  1
  Ca2+  Ca24  1  0.32723942  0.41143877  0.17573064  1
  Ca2+  Ca25  1  0.32455271  0.41768762  0.50418537  1
  Ca2+  Ca26  1  0.33030154  0.42042307  0.82965568  1
  Ca2+  Ca27  1  0.32399129  0.92970689  0.17166865  1
  Ca2+  Ca28  1  0.32938363  0.92256956  0.50806712  1
  Ca2+  Ca29  1  0.32667017  0.92142811  0.83804138  1
  Ca2+  Ca30  1  0.82254607  0.40868188  0.16797272  1
  Ca2+  Ca31  1  0.82336494  0.42364198  0.50400686  1
  Ca2+  Ca32  1  0.83388315  0.42718232  0.84286784  1
  Ca2+  Ca33  1  0.83211552  0.92810020  0.17310540  1
  Ca2+  Ca34  1  0.82907994  0.91855137  0.50443244  1
  Ca2+  Ca35  1  0.82655155  0.90920611  0.83251232  1
  Ca2+  Ca36  1  0.41985883  0.16534013  0.16539675  1
  Ca2+  Ca37  1  0.41761700  0.16744977  0.49160715  1
  Ca2+  Ca38  1  0.41804065  0.15725614  0.83168419  1
  Ca2+  Ca39  1  0.42425976  0.66400785  0.16661139  1
  Ca2+  Ca40  1  0.41310163  0.67263802  0.49493438  1
  Ca2+  Ca41  1  0.41663098  0.67358377  0.82248129  1
  Ca2+  Ca42  1  0.92155439  0.17112889  0.15657293  1
  Ca2+  Ca43  1  0.91853681  0.16578468  0.49392495  1
  Ca2+  Ca44  1  0.92375805  0.17249004  0.83359121  1
  Ca2+  Ca45  1  0.92294997  0.66428847  0.16477987  1
  Ca2+  Ca46  1  0.91881072  0.67159927  0.49735647  1
  Ca2+  Ca47  1  0.91450654  0.66814403  0.82465432  1
  Al0+  Al48  1  -0.00130533  -0.00226257  -0.00196859  1
  Al0+  Al49  1  -0.00170263  0.00045599  0.34119294  1
  Al0+  Al50  1  -0.00020419  0.00188992  0.66370670  1
  Al0+  Al51  1  0.00167768  0.50339157  -0.00143993  1
  Al0+  Al52  1  -0.00117386  0.50240161  0.33214310  1
  Al0+  Al53  1  -0.00203640  0.49845474  0.67304921  1
  Al0+  Al54  1  0.49796853  -0.00123855  0.00117094  1
  Al0+  Al55  1  0.50147050  -0.00037041  0.33093385  1
  Al0+  Al56  1  0.50211932  -0.00147511  0.66662106  1
  Al0+  Al57  1  0.50201597  0.49961637  0.00032107  1
  Al0+  Al58  1  0.49923972  0.50041835  0.32796040  1
  Al0+  Al59  1  0.50001749  0.49661209  0.67070065  1
  Al0+  Al60  1  0.25257282  0.25062141  -0.00211143  1
  Al0+  Al61  1  0.24857935  0.24943923  0.33763960  1
  Al0+  Al62  1  0.25138625  0.24903368  0.67399890  1
  Al0+  Al63  1  0.25038681  0.75019335  0.00369733  1
  Al0+  Al64  1  0.24848384  0.75003932  0.32940376  1
  Al0+  Al65  1  0.24957198  0.74901614  0.66709214  1
  Al0+  Al66  1  0.74869823  0.25018870  -0.00881701  1
  Al0+  Al67  1  0.74936339  0.25221530  0.34203971  1
  Al0+  Al68  1  0.75206860  0.24949681  0.66500309  1
  Al0+  Al69  1  0.75175060  0.74811894  0.00589631  1
  Al0+  Al70  1  0.75075896  0.75137991  0.32630242  1
  Al0+  Al71  1  0.75103425  0.75046952  0.66883393  1
  Al0+  Al72  1  0.17632195  0.92887258  0.01652722  1
  Al0+  Al73  1  0.81950965  0.07274932  0.34588756  1
  Al0+  Al74  1  0.32178222  0.07233600  0.01765206  1
  Al0+  Al75  1  0.56922124  0.17864404  0.98449488  1
  Al0+  Al76  1  0.32277016  0.57150252  0.67955443  1
  Al0+  Al77  1  0.82420087  0.57254854  0.01927668  1
  Al0+  Al78  1  0.92836599  0.82163269  0.65229796  1
  Al0+  Al79  1  0.32317763  0.06959905  0.68304516  1
  Al0+  Al80  1  0.42800878  0.82005111  0.65299666  1
  Al0+  Al81  1  0.17720454  0.42961385  0.34370371  1
  Al0+  Al82  1  0.92960478  0.32227215  0.98435818  1
  Al0+  Al83  1  0.68214023  0.93111303  0.67798619  1
  Al0+  Al84  1  0.42566306  0.32027285  0.31875479  1
  Al0+  Al85  1  0.17714371  0.92824708  0.68138072  1
  Al0+  Al86  1  0.17774220  0.42845716  0.68337364  1
  Al0+  Al87  1  0.32288931  0.07089435  0.34945465  1
  Al0+  Al88  1  0.68034645  0.42757975  0.01565961  1
  Al0+  Al89  1  0.57164865  0.67914704  0.31911712  1
  Al0+  Al90  1  0.67773141  0.43079311  0.34797864  1
  Al0+  Al91  1  0.57222730  0.17914572  0.31977256  1
  Al0+  Al92  1  0.07323615  0.17702246  0.98516815  1
  Al0+  Al93  1  0.81769856  0.57004705  0.67821111  1
  Al0+  Al94  1  0.07003507  0.67982318  0.32008671  1
  Al0+  Al95  1  0.17871636  0.92726516  0.35076997  1
  Si0+  Si96  1  0.07215859  0.18110927  0.65015489  1
  Si0+  Si97  1  0.42895723  0.32062548  0.65187996  1
  Si0+  Si98  1  0.18095711  0.43051637  0.01429902  1
  Si0+  Si99  1  0.67721334  0.92759222  0.01494555  1
  Si0+  Si100  1  0.67693253  0.42491207  0.68362128  1
  Si0+  Si101  1  0.82120462  0.57355421  0.34996137  1
  Si0+  Si102  1  0.92778981  0.82038498  0.98522885  1
  Si0+  Si103  1  0.81864238  0.06950241  0.01067194  1
  Si0+  Si104  1  0.92902972  0.32198638  0.32111811  1
  Si0+  Si105  1  0.32194853  0.57221099  0.01547505  1
  Si0+  Si106  1  0.07102077  0.67619720  0.65044140  1
  Si0+  Si107  1  0.42698139  0.82267575  0.31419110  1
  Si0+  Si108  1  0.06899835  0.17877631  0.32168475  1
  Si0+  Si109  1  0.32242485  0.57207370  0.34675002  1
  Si0+  Si110  1  0.57275760  0.67824390  0.98394864  1
  Si0+  Si111  1  0.42748797  0.32522337  0.98008228  1
  Si0+  Si112  1  0.57183274  0.17849235  0.65066986  1
  Si0+  Si113  1  0.82331074  0.07486467  0.68552966  1
  Si0+  Si114  1  0.43077400  0.81769066  0.98559362  1
  Si0+  Si115  1  0.67881480  0.92511624  0.34819445  1
  Si0+  Si116  1  0.07298417  0.68051764  0.98350126  1
  Si0+  Si117  1  0.92947857  0.32211080  0.64911664  1
  Si0+  Si118  1  0.92835758  0.82421825  0.31497535  1
  Si0+  Si119  1  0.57212928  0.67679266  0.65306609  1
  O2-  O120  1  0.24319426  0.00608529  0.06531048  1
  O2-  O121  1  0.25420939  -0.00415950  0.39929270  1
  O2-  O122  1  0.25087378  -0.00252662  0.73198601  1
  O2-  O123  1  0.25416758  0.49841662  0.05763572  1
  O2-  O124  1  0.25371139  0.50291005  0.38968001  1
  O2-  O125  1  0.24932958  0.50200893  0.73166608  1
  O2-  O126  1  0.74609071  0.00120465  0.05536662  1
  O2-  O127  1  0.74383392  -0.00202568  0.39070567  1
  O2-  O128  1  0.75564298  0.00490095  0.72891982  1
  O2-  O129  1  0.75410135  0.49755245  0.06665618  1
  O2-  O130  1  0.74901907  0.50897677  0.39461481  1
  O2-  O131  1  0.74352169  0.49590898  0.72644784  1
  O2-  O132  1  -0.00052269  0.25083260  0.27840971  1
  O2-  O133  1  0.00137187  0.25246529  0.60626890  1
  O2-  O134  1  0.00388319  0.25209395  0.93423664  1
  O2-  O135  1  -0.00129128  0.75711922  0.27111107  1
  O2-  O136  1  0.00575883  0.74884890  0.60693273  1
  O2-  O137  1  0.00057557  0.75092215  0.94307148  1
  O2-  O138  1  0.49778536  0.24805350  0.26889135  1
  O2-  O139  1  0.50146682  0.25071436  0.61011097  1
  O2-  O140  1  0.49398608  0.25307054  0.93716632  1
  O2-  O141  1  0.49695912  0.75385304  0.27088931  1
  O2-  O142  1  0.49900852  0.74019442  0.60794891  1
  O2-  O143  1  0.50282779  0.74894972  0.94042910  1
  O2-  O144  1  0.06878001  0.17859471  0.09954269  1
  O2-  O145  1  0.06706729  0.18057888  0.42689336  1
  O2-  O146  1  0.06927538  0.18208154  0.75508802  1
  O2-  O147  1  0.07374701  0.67981851  0.08855568  1
  O2-  O148  1  0.06602830  0.67623429  0.43287464  1
  O2-  O149  1  0.06894681  0.67500607  0.75646691  1
  O2-  O150  1  0.57189175  0.17983810  0.09696851  1
  O2-  O151  1  0.57352091  0.18244713  0.43369908  1
  O2-  O152  1  0.57277242  0.17910382  0.75596568  1
  O2-  O153  1  0.57105312  0.67946623  0.08897922  1
  O2-  O154  1  0.57164992  0.68116831  0.43243452  1
  O2-  O155  1  0.57272672  0.68061425  0.75903476  1
  O2-  O156  1  0.17562976  0.43079310  0.23026342  1
  O2-  O157  1  0.17764899  0.42944713  0.56957814  1
  O2-  O158  1  0.18132624  0.43359242  0.90937844  1
  O2-  O159  1  0.17793025  0.93071396  0.23712006  1
  O2-  O160  1  0.17810704  0.93082104  0.56814852  1
  O2-  O161  1  0.17856445  0.92514156  0.90324086  1
  O2-  O162  1  0.68142781  0.42782255  0.23537112  1
  O2-  O163  1  0.67716164  0.42482967  0.57796838  1
  O2-  O164  1  0.68075684  0.43161196  0.90165995  1
  O2-  O165  1  0.68269570  0.92214784  0.24221304  1
  O2-  O166  1  0.68229155  0.93198694  0.56510150  1
  O2-  O167  1  0.67803175  0.92554302  0.90973333  1
  O2-  O168  1  0.42699339  0.32848945  0.08520950  1
  O2-  O169  1  0.42677440  0.32151704  0.43290868  1
  O2-  O170  1  0.43047258  0.32242079  0.75692325  1
  O2-  O171  1  0.43305188  0.81460934  0.09054606  1
  O2-  O172  1  0.42743586  0.82129880  0.41986186  1
  O2-  O173  1  0.43175496  0.82013184  0.76666795  1
  O2-  O174  1  0.92937508  0.31835285  0.09868934  1
  O2-  O175  1  0.93053337  0.32238994  0.42655388  1
  O2-  O176  1  0.92764186  0.32089391  0.75382962  1
  O2-  O177  1  0.92594752  0.82151801  0.09008595  1
  O2-  O178  1  0.92507424  0.82193256  0.42035136  1
  O2-  O179  1  0.92633395  0.81785150  0.76580629  1
  O2-  O180  1  0.31941932  0.07178670  0.23607896  1
  O2-  O181  1  0.32314144  0.07079528  0.56966268  1
  O2-  O182  1  0.32448104  0.06507598  0.90434898  1
  O2-  O183  1  0.32067339  0.57138040  0.24052721  1
  O2-  O184  1  0.32382285  0.56875582  0.56613523  1
  O2-  O185  1  0.32016122  0.57483887  0.91061548  1
  O2-  O186  1  0.82134970  0.07261723  0.23204753  1
  O2-  O187  1  0.82037672  0.07720738  0.57989026  1
  O2-  O188  1  0.81835709  0.06593090  0.90567861  1
  O2-  O189  1  0.82225557  0.57069936  0.24473148  1
  O2-  O190  1  0.81669687  0.56882659  0.56496618  1
  O2-  O191  1  0.82091457  0.57594614  0.90540630  1
  O2-  O192  1  0.03886207  0.08720487  0.27531568  1
  O2-  O193  1  0.04297241  0.09043460  0.60135420  1
  O2-  O194  1  0.03999979  0.07986387  0.93179817  1
  O2-  O195  1  0.03576588  0.58491107  0.26265003  1
  O2-  O196  1  0.03994502  0.58301268  0.60595223  1
  O2-  O197  1  0.04706784  0.58918911  0.93436644  1
  O2-  O198  1  0.55286791  0.07813165  0.26753431  1
  O2-  O199  1  0.54508575  0.08690669  0.60337590  1
  O2-  O200  1  0.53927670  0.07983609  0.93208571  1
  O2-  O201  1  0.54005230  0.58461070  0.26144201  1
  O2-  O202  1  0.55265190  0.57988970  0.61105794  1
  O2-  O203  1  0.54585427  0.58639233  0.93657512  1
  O2-  O204  1  0.16060417  0.20554773  0.27456824  1
  O2-  O205  1  0.16514499  0.20949977  0.60552706  1
  O2-  O206  1  0.17211325  0.20454005  0.93276849  1
  O2-  O207  1  0.16707011  0.70551648  0.26311031  1
  O2-  O208  1  0.16589327  0.69640643  0.60537428  1
  O2-  O209  1  0.16528396  0.70871335  0.93668326  1
  O2-  O210  1  0.67106647  0.21306050  0.26947122  1
  O2-  O211  1  0.66539129  0.20450199  0.60494325  1
  O2-  O212  1  0.66433593  0.20816802  0.92597326  1
  O2-  O213  1  0.66716374  0.71055756  0.26175821  1
  O2-  O214  1  0.66319870  0.70793533  0.60578022  1
  O2-  O215  1  0.66610770  0.70663199  0.93990464  1
  O2-  O216  1  0.08972233  0.46061072  0.06088697  1
  O2-  O217  1  0.08179719  0.46325133  0.39918190  1
  O2-  O218  1  0.07970033  0.45466113  0.73738264  1
  O2-  O219  1  0.07483055  0.95038334  0.06660666  1
  O2-  O220  1  0.08051598  0.95587670  0.40312694  1
  O2-  O221  1  0.07820352  0.95899276  0.73247179  1
  O2-  O222  1  0.58168823  0.45761328  0.06741343  1
  O2-  O223  1  0.57973555  0.46073230  0.39933678  1
  O2-  O224  1  0.58300624  0.44484342  0.73039759  1
  O2-  O225  1  0.58515557  0.95160380  0.06217160  1
  O2-  O226  1  0.58333733  0.94482650  0.39146899  1
  O2-  O227  1  0.58717633  0.96232052  0.73475410  1
  O2-  O228  1  0.20507372  0.33724142  0.06003793  1
  O2-  O229  1  0.20445549  0.33398545  0.40035987  1
  O2-  O230  1  0.20982990  0.33257151  0.73825823  1
  O2-  O231  1  0.21092167  0.83174593  0.06980631  1
  O2-  O232  1  0.20358665  0.82611355  0.39926820  1
  O2-  O233  1  0.20014059  0.82781214  0.73159699  1
  O2-  O234  1  0.70887602  0.32737673  0.06493457  1
  O2-  O235  1  0.71215630  0.33828731  0.40709289  1
  O2-  O236  1  0.70685303  0.33208209  0.72871894  1
  O2-  O237  1  0.70814156  0.83762764  0.06405322  1
  O2-  O238  1  0.70924505  0.83348465  0.39568741  1
  O2-  O239  1  0.71200709  0.83548634  0.73488908  1
  O2-  O240  1  0.45194138  0.41882570  0.26505121  1
  O2-  O241  1  0.45548990  0.41295454  0.60402397  1
  O2-  O242  1  0.45680377  0.41808828  0.93258608  1
  O2-  O243  1  0.45374812  0.91537768  0.26704408  1
  O2-  O244  1  0.46573224  0.91418064  0.59826250  1
  O2-  O245  1  0.45767702  0.90959914  0.93863178  1
  O2-  O246  1  0.95543282  0.41306953  0.27237050  1
  O2-  O247  1  0.95575280  0.41477836  0.60262195  1
  O2-  O248  1  0.95819755  0.42194754  0.93337883  1
  O2-  O249  1  0.95298388  0.91942364  0.27127623  1
  O2-  O250  1  0.95307093  0.92045648  0.59904651  1
  O2-  O251  1  0.95137103  0.91187518  0.93538009  1
  O2-  O252  1  0.32645959  0.29201338  0.26641657  1
  O2-  O253  1  0.33623583  0.29241363  0.60664669  1
  O2-  O254  1  0.33320807  0.30340900  0.93382516  1
  O2-  O255  1  0.33457831  0.79545999  0.26671340  1
  O2-  O256  1  0.33104110  0.79167641  0.59846184  1
  O2-  O257  1  0.33900448  0.78725819  0.93948124  1
  O2-  O258  1  0.83724390  0.29187135  0.27613732  1
  O2-  O259  1  0.83768924  0.29284034  0.60074596  1
  O2-  O260  1  0.83350552  0.29211024  0.92794571  1
  O2-  O261  1  0.83630475  0.79853538  0.26533006  1
  O2-  O262  1  0.83278573  0.78723181  0.59751655  1
  O2-  O263  1  0.83563970  0.78995035  0.93842095  1
  O2-  O264  1  0.41814610  0.03660649  0.07107003  1
  O2-  O265  1  0.42407743  0.04606007  0.39864091  1
  O2-  O266  1  0.42199375  0.04092375  0.73408709  1
  O2-  O267  1  0.41565754  0.54776305  0.06041881  1
  O2-  O268  1  0.41632494  0.54975378  0.39210189  1
  O2-  O269  1  0.42005149  0.54182339  0.73622608  1
  O2-  O270  1  0.90916325  0.04010834  0.05964374  1
  O2-  O271  1  0.91338485  0.04146432  0.40458329  1
  O2-  O272  1  0.91762279  0.05117551  0.72891111  1
  O2-  O273  1  0.92534771  0.54905434  0.06800337  1
  O2-  O274  1  0.91283057  0.54410647  0.39712018  1
  O2-  O275  1  0.91267170  0.53945188  0.73496110  1
  O2-  O276  1  0.30191281  0.17485257  0.06514005  1
  O2-  O277  1  0.29073317  0.16756344  0.40352828  1
  O2-  O278  1  0.29566362  0.16725759  0.73714417  1
  O2-  O279  1  0.29174603  0.66164334  0.06567831  1
  O2-  O280  1  0.29671781  0.66589200  0.39118297  1
  O2-  O281  1  0.29536358  0.66913534  0.73449492  1
  O2-  O282  1  0.79232138  0.16242324  0.05555209  1
  O2-  O283  1  0.79028779  0.16678309  0.40573246  1
  O2-  O284  1  0.79656427  0.16814762  0.73180766  1
  O2-  O285  1  0.79297756  0.66941822  0.07426105  1
  O2-  O286  1  0.79844017  0.66964630  0.39161736  1
  O2-  O287  1  0.78804327  0.66542746  0.73484274  1
