# generated using pymatgen
data_Ca2Al2SiO7
_symmetry_space_group_name_H-M   'P 1'
_cell_length_a   15.46170865
_cell_length_b   15.46074416
_cell_length_c   15.28603210
_cell_angle_alpha   90.00012696
_cell_angle_beta   90.00435036
_cell_angle_gamma   90.02051965
_symmetry_Int_Tables_number   1
_chemical_formula_structural   Ca2Al2SiO7
_chemical_formula_sum   'Ca48 Al48 Si24 O168'
_cell_volume   3654.11841820
_cell_formula_units_Z   24
loop_
 _symmetry_equiv_pos_site_id
 _symmetry_equiv_pos_as_xyz
  1  'x, y, z'
loop_
 _atom_type_symbol
 _atom_type_oxidation_number
  Ca2+  2.0
  Al0+  0.0
  Si0+  0.0
  O2-  -2.0
loop_
 _atom_site_type_symbol
 _atom_site_label
 _atom_site_symmetry_multiplicity
 _atom_site_fract_x
 _atom_site_fract_y
 _atom_site_fract_z
 _atom_site_occupancy
  Ca2+  Ca0  1  0.16950371  0.08533721  0.16931916  1
  Ca2+  Ca1  1  0.16070761  0.07315184  0.50767430  1
  Ca2+  Ca2  1  0.16662314  0.08671263  0.83436433  1
  Ca2+  Ca3  1  0.17337797  0.58259930  0.17386386  1
  Ca2+  Ca4  1  0.17965285  0.58038796  0.50939038  1
  Ca2+  Ca5  1  0.17036959  0.57775037  0.82959337  1
  Ca2+  Ca6  1  0.67051447  0.08086653  0.16909679  1
  Ca2+  Ca7  1  0.67952059  0.07960642  0.51034276  1
  Ca2+  Ca8  1  0.66032039  0.07745935  0.83768315  1
  Ca2+  Ca9  1  0.66977074  0.57097609  0.17616768  1
  Ca2+  Ca10  1  0.67062445  0.57825144  0.50365810  1
  Ca2+  Ca11  1  0.67143707  0.57002009  0.83196425  1
  Ca2+  Ca12  1  0.07152689  0.32838144  0.15366300  1
  Ca2+  Ca13  1  0.08687820  0.32924034  0.50171394  1
  Ca2+  Ca14  1  0.08196812  0.32374814  0.82504855  1
  Ca2+  Ca15  1  0.07909669  0.83646543  0.16974971  1
  Ca2+  Ca16  1  0.07355500  0.83971158  0.49588939  1
  Ca2+  Ca17  1  0.07640016  0.83411694  0.82188105  1
  Ca2+  Ca18  1  0.58784018  0.32978043  0.15994483  1
  Ca2+  Ca19  1  0.58733825  0.33740068  0.50139923  1
  Ca2+  Ca20  1  0.58481007  0.32468476  0.82475732  1
  Ca2+  Ca21  1  0.58999284  0.82498048  0.16237774  1
  Ca2+  Ca22  1  0.58756850  0.82538287  0.49521589  1
  Ca2+  Ca23  1  0.58639809  0.83673217  0.82594935  1
  Ca2+  Ca24  1  0.33115590  0.42121135  0.17323496  1
  Ca2+  Ca25  1  0.33431734  0.42510003  0.51008928  1
  Ca2+  Ca26  1  0.33304008  0.41062072  0.82668754  1
  Ca2+  Ca27  1  0.32687840  0.92576391  0.17022235  1
  Ca2+  Ca28  1  0.31828224  0.91274850  0.50560153  1
  Ca2+  Ca29  1  0.32594364  0.92430402  0.83791316  1
  Ca2+  Ca30  1  0.82407939  0.41408771  0.17305300  1
  Ca2+  Ca31  1  0.82395269  0.42868355  0.50725606  1
  Ca2+  Ca32  1  0.82603875  0.41045917  0.83624131  1
  Ca2+  Ca33  1  0.83180949  0.92306457  0.17269126  1
  Ca2+  Ca34  1  0.83556834  0.92202873  0.50854320  1
  Ca2+  Ca35  1  0.82614367  0.92221153  0.82804138  1
  Ca2+  Ca36  1  0.42244156  0.16690564  0.15607749  1
  Ca2+  Ca37  1  0.42457194  0.17283357  0.50304085  1
  Ca2+  Ca38  1  0.42664932  0.16690356  0.82496583  1
  Ca2+  Ca39  1  0.42180028  0.66398101  0.16904420  1
  Ca2+  Ca40  1  0.42100813  0.65969384  0.49324422  1
  Ca2+  Ca41  1  0.41779351  0.66750685  0.82587747  1
  Ca2+  Ca42  1  0.91898024  0.17036451  0.16003378  1
  Ca2+  Ca43  1  0.91846920  0.15732770  0.49922130  1
  Ca2+  Ca44  1  0.92381078  0.16707606  0.82837434  1
  Ca2+  Ca45  1  0.90707332  0.67304885  0.16783497  1
  Ca2+  Ca46  1  0.90452965  0.67727263  0.49607213  1
  Ca2+  Ca47  1  0.91116471  0.67396206  0.82333343  1
  Al0+  Al48  1  -0.00076124  -0.00219898  -0.00379466  1
  Al0+  Al49  1  0.00057952  -0.00062368  0.33230054  1
  Al0+  Al50  1  -0.00123304  -0.00118565  0.66823461  1
  Al0+  Al51  1  0.00027618  0.50325347  -0.00305850  1
  Al0+  Al52  1  -0.00065663  0.49978262  0.33531384  1
  Al0+  Al53  1  0.00360600  0.50124352  0.67229963  1
  Al0+  Al54  1  0.49730953  -0.00202368  0.00677119  1
  Al0+  Al55  1  0.49876460  0.00096937  0.33244896  1
  Al0+  Al56  1  0.49881756  -0.00028887  0.66081356  1
  Al0+  Al57  1  0.50144510  0.50138298  0.00314974  1
  Al0+  Al58  1  0.49846430  0.49911341  0.33343837  1
  Al0+  Al59  1  0.50125491  0.50128182  0.67176345  1
  Al0+  Al60  1  0.25009670  0.25117750  0.00249726  1
  Al0+  Al61  1  0.25230230  0.24899278  0.33136083  1
  Al0+  Al62  1  0.25102510  0.25019948  0.65898547  1
  Al0+  Al63  1  0.24979532  0.75055542  0.00117213  1
  Al0+  Al64  1  0.24931859  0.75102586  0.33843418  1
  Al0+  Al65  1  0.24905263  0.75018621  0.67525277  1
  Al0+  Al66  1  0.74922954  0.24864160  -0.00359100  1
  Al0+  Al67  1  0.75057235  0.24800542  0.34064576  1
  Al0+  Al68  1  0.75378073  0.25002493  0.66814489  1
  Al0+  Al69  1  0.74899627  0.74928294  0.00131817  1
  Al0+  Al70  1  0.74866975  0.74959701  0.32324412  1
  Al0+  Al71  1  0.74916362  0.75149793  0.66922919  1
  Al0+  Al72  1  0.82175849  0.57337298  0.34699343  1
  Al0+  Al73  1  0.82251127  0.07170543  0.68318093  1
  Al0+  Al74  1  0.82195292  0.57330264  0.68113015  1
  Al0+  Al75  1  0.31896255  0.07193458  0.01254484  1
  Al0+  Al76  1  0.43205404  0.32167479  0.65098777  1
  Al0+  Al77  1  0.32295186  0.57112001  0.68376836  1
  Al0+  Al78  1  0.92761065  0.32245054  0.98483999  1
  Al0+  Al79  1  0.18006729  0.42612790  0.68165041  1
  Al0+  Al80  1  0.56851256  0.17743981  0.98839229  1
  Al0+  Al81  1  0.56926996  0.67893060  0.31844866  1
  Al0+  Al82  1  0.18083415  0.93256469  0.34646072  1
  Al0+  Al83  1  0.67796571  0.92822606  0.01539229  1
  Al0+  Al84  1  0.92969536  0.81774361  0.65295696  1
  Al0+  Al85  1  0.67687465  0.93066177  0.67865573  1
  Al0+  Al86  1  0.07225825  0.17859242  0.98504927  1
  Al0+  Al87  1  0.82038642  0.06866578  0.34553087  1
  Al0+  Al88  1  0.17802864  0.93010872  0.68147531  1
  Al0+  Al89  1  0.68034956  0.42861978  0.68302811  1
  Al0+  Al90  1  0.92955066  0.82099279  0.31788878  1
  Al0+  Al91  1  0.57520967  0.17677543  0.64973843  1
  Al0+  Al92  1  0.67861934  0.42767111  0.34886949  1
  Al0+  Al93  1  0.06915379  0.17983951  0.65098269  1
  Al0+  Al94  1  0.31882980  0.56940409  0.34553962  1
  Al0+  Al95  1  0.68071782  0.42770597  0.01421759  1
  Si0+  Si96  1  0.17850114  0.43040494  0.01538287  1
  Si0+  Si97  1  0.07462017  0.67736221  0.65000821  1
  Si0+  Si98  1  0.42515763  0.82181386  0.65233814  1
  Si0+  Si99  1  0.17668695  0.42526959  0.34776171  1
  Si0+  Si100  1  0.07448770  0.68024876  0.98407185  1
  Si0+  Si101  1  0.92869983  0.32144276  0.32076360  1
  Si0+  Si102  1  0.32148362  0.07164278  0.68043047  1
  Si0+  Si103  1  0.92800585  0.81900028  0.98349946  1
  Si0+  Si104  1  0.42811633  0.81940199  0.98568198  1
  Si0+  Si105  1  0.32463260  0.07493725  0.35257437  1
  Si0+  Si106  1  0.82248771  0.06999580  0.01616990  1
  Si0+  Si107  1  0.32071639  0.57316511  0.01698694  1
  Si0+  Si108  1  0.57034916  0.67899749  0.98317007  1
  Si0+  Si109  1  0.42974472  0.31989951  0.31647254  1
  Si0+  Si110  1  0.07105693  0.17919302  0.31828683  1
  Si0+  Si111  1  0.56897274  0.68150408  0.65331779  1
  Si0+  Si112  1  0.92874005  0.32611745  0.64801708  1
  Si0+  Si113  1  0.17641857  0.92676930  0.01753822  1
  Si0+  Si114  1  0.67642197  0.92706935  0.34729813  1
  Si0+  Si115  1  0.57275026  0.17861687  0.31778408  1
  Si0+  Si116  1  0.42798806  0.32500433  0.98504035  1
  Si0+  Si117  1  0.07374815  0.67727289  0.31806797  1
  Si0+  Si118  1  0.42506635  0.82309046  0.31594434  1
  Si0+  Si119  1  0.82300726  0.57253817  0.01716086  1
  O2-  O120  1  0.24020442  0.00090410  0.05996957  1
  O2-  O121  1  0.25633878  0.00544566  0.39485900  1
  O2-  O122  1  0.25292709  0.00439143  0.72705786  1
  O2-  O123  1  0.25058195  0.50059993  0.05822993  1
  O2-  O124  1  0.24256703  0.49662893  0.39090206  1
  O2-  O125  1  0.25222926  0.49764007  0.73308930  1
  O2-  O126  1  0.75281381  0.00274022  0.06165059  1
  O2-  O127  1  0.74545843  -0.00591452  0.39146654  1
  O2-  O128  1  0.74178742  0.00784625  0.73100625  1
  O2-  O129  1  0.75902220  0.49919446  0.06050377  1
  O2-  O130  1  0.74968611  0.50178995  0.39601180  1
  O2-  O131  1  0.75765990  0.49552278  0.73269338  1
  O2-  O132  1  0.00339184  0.25388909  0.27745494  1
  O2-  O133  1  -0.00486399  0.25492165  0.60295773  1
  O2-  O134  1  0.00104203  0.25129850  0.93560855  1
  O2-  O135  1  0.00175503  0.74206825  0.27187385  1
  O2-  O136  1  0.00227813  0.74117510  0.60511648  1
  O2-  O137  1  0.00100596  0.74902623  0.94301176  1
  O2-  O138  1  0.50077255  0.24879564  0.27461752  1
  O2-  O139  1  0.50713050  0.25326983  0.59962662  1
  O2-  O140  1  0.49558385  0.25461132  0.94314776  1
  O2-  O141  1  0.49644376  0.75703403  0.27117952  1
  O2-  O142  1  0.49678017  0.75150592  0.61044819  1
  O2-  O143  1  0.49989590  0.75064323  0.94123110  1
  O2-  O144  1  0.07114406  0.18068323  0.09969352  1
  O2-  O145  1  0.07138912  0.17832146  0.42299026  1
  O2-  O146  1  0.06974033  0.18030997  0.76391575  1
  O2-  O147  1  0.07872263  0.68092246  0.08927013  1
  O2-  O148  1  0.07813587  0.67933158  0.42267873  1
  O2-  O149  1  0.07632373  0.68180374  0.75616602  1
  O2-  O150  1  0.56738869  0.17876993  0.10233685  1
  O2-  O151  1  0.57156641  0.17749573  0.42206574  1
  O2-  O152  1  0.56827417  0.17328428  0.76344358  1
  O2-  O153  1  0.56813725  0.67862705  0.08832734  1
  O2-  O154  1  0.56775411  0.67987585  0.43162053  1
  O2-  O155  1  0.56767575  0.68331607  0.75882728  1
  O2-  O156  1  0.17871516  0.42485369  0.24144686  1
  O2-  O157  1  0.18210957  0.42845452  0.56759692  1
  O2-  O158  1  0.17959997  0.43063861  0.91113024  1
  O2-  O159  1  0.18136852  0.93538216  0.23281612  1
  O2-  O160  1  0.17927676  0.92986985  0.56822382  1
  O2-  O161  1  0.17917250  0.92209926  0.91252562  1
  O2-  O162  1  0.68035781  0.42569563  0.23469539  1
  O2-  O163  1  0.67842408  0.43457161  0.56967248  1
  O2-  O164  1  0.67769572  0.43079320  0.90204862  1
  O2-  O165  1  0.67709238  0.92992445  0.24128798  1
  O2-  O166  1  0.67899701  0.92610936  0.56499692  1
  O2-  O167  1  0.67786350  0.92702035  0.90294484  1
  O2-  O168  1  0.42781152  0.32576544  0.09133162  1
  O2-  O169  1  0.42667147  0.31962603  0.42065937  1
  O2-  O170  1  0.43123200  0.31759441  0.76498201  1
  O2-  O171  1  0.42557970  0.81583542  0.09073410  1
  O2-  O172  1  0.42435787  0.82234350  0.42136836  1
  O2-  O173  1  0.42522446  0.82163170  0.75786007  1
  O2-  O174  1  0.92945617  0.32140727  0.09972342  1
  O2-  O175  1  0.92993712  0.32165370  0.42516774  1
  O2-  O176  1  0.93172528  0.32607023  0.75358642  1
  O2-  O177  1  0.92885318  0.81922533  0.08884745  1
  O2-  O178  1  0.93098006  0.82272418  0.43029028  1
  O2-  O179  1  0.93060129  0.81682610  0.76663494  1
  O2-  O180  1  0.32379662  0.07619771  0.24653714  1
  O2-  O181  1  0.32066966  0.06803941  0.57466983  1
  O2-  O182  1  0.32079644  0.06779778  0.89993721  1
  O2-  O183  1  0.31782840  0.56727228  0.23155108  1
  O2-  O184  1  0.32187172  0.57249277  0.57011535  1
  O2-  O185  1  0.31991380  0.57704021  0.91281730  1
  O2-  O186  1  0.81957867  0.07000506  0.23187448  1
  O2-  O187  1  0.82440698  0.06475507  0.56935245  1
  O2-  O188  1  0.82436313  0.06719782  0.91139914  1
  O2-  O189  1  0.82093533  0.56991539  0.23295612  1
  O2-  O190  1  0.81613566  0.57592466  0.56779732  1
  O2-  O191  1  0.82023118  0.57671839  0.91212809  1
  O2-  O192  1  0.04036568  0.08957874  0.26880064  1
  O2-  O193  1  0.03590783  0.08308148  0.59832185  1
  O2-  O194  1  0.04666865  0.07840239  0.93428514  1
  O2-  O195  1  0.05324690  0.58145600  0.27241553  1
  O2-  O196  1  0.05801324  0.58087467  0.60734975  1
  O2-  O197  1  0.05056194  0.58782824  0.93662249  1
  O2-  O198  1  0.54528987  0.08605184  0.26993083  1
  O2-  O199  1  0.54150312  0.08039679  0.59361423  1
  O2-  O200  1  0.53414373  0.08033789  0.93763009  1
  O2-  O201  1  0.53367215  0.58337863  0.26331515  1
  O2-  O202  1  0.54143349  0.58990461  0.60646620  1
  O2-  O203  1  0.53997784  0.58781531  0.93634468  1
  O2-  O204  1  0.16511021  0.20315769  0.27172779  1
  O2-  O205  1  0.16561679  0.20808307  0.59465987  1
  O2-  O206  1  0.17162814  0.20735468  0.93448975  1
  O2-  O207  1  0.16567584  0.70825938  0.26909679  1
  O2-  O208  1  0.16772895  0.70782407  0.60521177  1
  O2-  O209  1  0.16514450  0.71037446  0.93537218  1
  O2-  O210  1  0.66508768  0.20700614  0.27127668  1
  O2-  O211  1  0.67623786  0.20085478  0.60047956  1
  O2-  O212  1  0.66560023  0.20299709  0.93474368  1
  O2-  O213  1  0.66388173  0.70741712  0.25871963  1
  O2-  O214  1  0.65938414  0.71189915  0.60549060  1
  O2-  O215  1  0.66248716  0.70691116  0.93728043  1
  O2-  O216  1  0.08695927  0.46064711  0.06307405  1
  O2-  O217  1  0.08233729  0.44564586  0.39288230  1
  O2-  O218  1  0.08354889  0.45447048  0.73796302  1
  O2-  O219  1  0.08062357  0.94739531  0.06114928  1
  O2-  O220  1  0.08533989  0.96505376  0.39987727  1
  O2-  O221  1  0.08329194  0.96122394  0.73645972  1
  O2-  O222  1  0.58457858  0.46228732  0.06908601  1
  O2-  O223  1  0.57945117  0.45557422  0.39830494  1
  O2-  O224  1  0.58472355  0.46228087  0.73765007  1
  O2-  O225  1  0.58125684  0.95494876  0.07117268  1
  O2-  O226  1  0.58143697  0.95006312  0.39150549  1
  O2-  O227  1  0.57518159  0.95198485  0.72924821  1
  O2-  O228  1  0.20473254  0.33917278  0.06512951  1
  O2-  O229  1  0.20568856  0.33228056  0.39263838  1
  O2-  O230  1  0.21124652  0.32771661  0.73313419  1
  O2-  O231  1  0.20858287  0.83565641  0.06608441  1
  O2-  O232  1  0.20923751  0.83611384  0.40109243  1
  O2-  O233  1  0.20887797  0.83534463  0.73824283  1
  O2-  O234  1  0.70843158  0.32940175  0.06720597  1
  O2-  O235  1  0.70748538  0.33084021  0.40275508  1
  O2-  O236  1  0.70383545  0.32835339  0.73333440  1
  O2-  O237  1  0.71080798  0.83142812  0.06898429  1
  O2-  O238  1  0.69991226  0.83167149  0.38820380  1
  O2-  O239  1  0.70956237  0.83522789  0.73500370  1
  O2-  O240  1  0.45573237  0.41155660  0.26763973  1
  O2-  O241  1  0.45778762  0.42287133  0.60149878  1
  O2-  O242  1  0.45332220  0.41900908  0.94012324  1
  O2-  O243  1  0.44703380  0.91867888  0.27077149  1
  O2-  O244  1  0.44839851  0.91280707  0.60181636  1
  O2-  O245  1  0.45422826  0.91179919  0.94006626  1
  O2-  O246  1  0.95267970  0.41403354  0.27148563  1
  O2-  O247  1  0.95806952  0.41970277  0.60305083  1
  O2-  O248  1  0.95333279  0.42290826  0.93480717  1
  O2-  O249  1  0.96640547  0.91544683  0.26144225  1
  O2-  O250  1  0.96405345  0.91318416  0.59984843  1
  O2-  O251  1  0.95389017  0.91076000  0.93594634  1
  O2-  O252  1  0.33779446  0.29202327  0.26660243  1
  O2-  O253  1  0.33544145  0.29176852  0.59452388  1
  O2-  O254  1  0.33334146  0.30130217  0.94140272  1
  O2-  O255  1  0.33258510  0.79412545  0.26865534  1
  O2-  O256  1  0.33322725  0.79159295  0.60638686  1
  O2-  O257  1  0.33654477  0.79051471  0.93746045  1
  O2-  O258  1  0.83784442  0.28837394  0.27377884  1
  O2-  O259  1  0.83393795  0.30459516  0.60355228  1
  O2-  O260  1  0.83073684  0.29258708  0.93157939  1
  O2-  O261  1  0.83356332  0.79362926  0.25980480  1
  O2-  O262  1  0.83200311  0.78857971  0.59964982  1
  O2-  O263  1  0.83666503  0.78818512  0.93728559  1
  O2-  O264  1  0.41104440  0.03528970  0.07247061  1
  O2-  O265  1  0.41877226  0.05037533  0.39719413  1
  O2-  O266  1  0.41450428  0.04416805  0.72593969  1
  O2-  O267  1  0.41289190  0.54614042  0.06420757  1
  O2-  O268  1  0.41386067  0.53687206  0.39930410  1
  O2-  O269  1  0.42029999  0.54529753  0.73887851  1
  O2-  O270  1  0.91597794  0.04167038  0.06292309  1
  O2-  O271  1  0.91685734  0.03768344  0.39790157  1
  O2-  O272  1  0.91585423  0.03305984  0.73853841  1
  O2-  O273  1  0.91991815  0.55571774  0.06060686  1
  O2-  O274  1  0.92145820  0.54916210  0.39904565  1
  O2-  O275  1  0.92414392  0.55650565  0.73017872  1
  O2-  O276  1  0.29329904  0.16945132  0.06945178  1
  O2-  O277  1  0.29848714  0.16852380  0.39737736  1
  O2-  O278  1  0.29662578  0.16548545  0.72412203  1
  O2-  O279  1  0.29030093  0.66394470  0.06593312  1
  O2-  O280  1  0.29277338  0.66653270  0.39952239  1
  O2-  O281  1  0.29188527  0.66767589  0.73953394  1
  O2-  O282  1  0.79763981  0.16415513  0.06105641  1
  O2-  O283  1  0.79163092  0.16326592  0.40269940  1
  O2-  O284  1  0.80821793  0.17378122  0.73154619  1
  O2-  O285  1  0.79086158  0.66371012  0.06499227  1
  O2-  O286  1  0.79149404  0.67325745  0.39458384  1
  O2-  O287  1  0.78555538  0.66778101  0.73696103  1
