# generated using pymatgen
data_Ca2Al2SiO7
_symmetry_space_group_name_H-M   'P 1'
_cell_length_a   15.45693038
_cell_length_b   15.45706391
_cell_length_c   15.28342538
_cell_angle_alpha   90.00838767
_cell_angle_beta   89.99637341
_cell_angle_gamma   90.00868373
_symmetry_Int_Tables_number   1
_chemical_formula_structural   Ca2Al2SiO7
_chemical_formula_sum   'Ca48 Al48 Si24 O168'
_cell_volume   3651.49696258
_cell_formula_units_Z   24
loop_
 _symmetry_equiv_pos_site_id
 _symmetry_equiv_pos_as_xyz
  1  'x, y, z'
loop_
 _atom_type_symbol
 _atom_type_oxidation_number
  Ca2+  2.0
  Al0+  0.0
  Si0+  0.0
  O2-  -2.0
loop_
 _atom_site_type_symbol
 _atom_site_label
 _atom_site_symmetry_multiplicity
 _atom_site_fract_x
 _atom_site_fract_y
 _atom_site_fract_z
 _atom_site_occupancy
  Ca2+  Ca0  1  0.15794353  0.07406770  0.17098362  1
  Ca2+  Ca1  1  0.16683356  0.07845437  0.49894859  1
  Ca2+  Ca2  1  0.17071985  0.08030443  0.83968060  1
  Ca2+  Ca3  1  0.16582375  0.58712564  0.16403775  1
  Ca2+  Ca4  1  0.17263984  0.57815458  0.50956490  1
  Ca2+  Ca5  1  0.17070404  0.57756132  0.84115531  1
  Ca2+  Ca6  1  0.67790757  0.07388163  0.17748358  1
  Ca2+  Ca7  1  0.67059612  0.07190215  0.50150437  1
  Ca2+  Ca8  1  0.66801668  0.07535487  0.83376380  1
  Ca2+  Ca9  1  0.67757446  0.59034781  0.17271192  1
  Ca2+  Ca10  1  0.67123592  0.58400891  0.49980557  1
  Ca2+  Ca11  1  0.67250873  0.57839076  0.83712580  1
  Ca2+  Ca12  1  0.08292121  0.32310982  0.16273232  1
  Ca2+  Ca13  1  0.07564908  0.33082427  0.49328271  1
  Ca2+  Ca14  1  0.08545334  0.33553311  0.82882074  1
  Ca2+  Ca15  1  0.07431897  0.83541368  0.15761940  1
  Ca2+  Ca16  1  0.07939292  0.83299942  0.49050404  1
  Ca2+  Ca17  1  0.08403117  0.82929507  0.83788701  1
  Ca2+  Ca18  1  0.58289204  0.33145178  0.16465372  1
  Ca2+  Ca19  1  0.58418016  0.33563360  0.49750514  1
  Ca2+  Ca20  1  0.58533228  0.33279040  0.82635580  1
  Ca2+  Ca21  1  0.57624145  0.83305234  0.16628106  1
  Ca2+  Ca22  1  0.57564639  0.83587449  0.49253000  1
  Ca2+  Ca23  1  0.57224298  0.83174393  0.82542962  1
  Ca2+  Ca24  1  0.32627502  0.42232680  0.16596306  1
  Ca2+  Ca25  1  0.32588192  0.42528593  0.51212458  1
  Ca2+  Ca26  1  0.32315870  0.42884321  0.84084407  1
  Ca2+  Ca27  1  0.32130286  0.90427222  0.16832198  1
  Ca2+  Ca28  1  0.33189417  0.91558484  0.50413055  1
  Ca2+  Ca29  1  0.33188094  0.91681316  0.83818304  1
  Ca2+  Ca30  1  0.84300453  0.42987791  0.17115203  1
  Ca2+  Ca31  1  0.83619191  0.41898549  0.50418229  1
  Ca2+  Ca32  1  0.83244372  0.41799639  0.83559144  1
  Ca2+  Ca33  1  0.83427390  0.91616874  0.18092782  1
  Ca2+  Ca34  1  0.82464423  0.91466798  0.49781962  1
  Ca2+  Ca35  1  0.82737192  0.90926197  0.83778519  1
  Ca2+  Ca36  1  0.41849232  0.16738426  0.16352413  1
  Ca2+  Ca37  1  0.41518480  0.16437686  0.49946644  1
  Ca2+  Ca38  1  0.41583911  0.16514959  0.82679296  1
  Ca2+  Ca39  1  0.41949014  0.67496593  0.16241679  1
  Ca2+  Ca40  1  0.42142172  0.67500920  0.49283275  1
  Ca2+  Ca41  1  0.40296379  0.67570749  0.83035533  1
  Ca2+  Ca42  1  0.92717597  0.16282755  0.16553272  1
  Ca2+  Ca43  1  0.91752280  0.17784535  0.48928586  1
  Ca2+  Ca44  1  0.92772266  0.17245193  0.82762677  1
  Ca2+  Ca45  1  0.91523809  0.67551151  0.15976436  1
  Ca2+  Ca46  1  0.91698316  0.67005990  0.49083066  1
  Ca2+  Ca47  1  0.92071793  0.66339249  0.83784867  1
  Al0+  Al48  1  -0.00058906  0.00254051  -0.00889266  1
  Al0+  Al49  1  0.00103510  0.00086577  0.33801974  1
  Al0+  Al50  1  -0.00017483  0.00014463  0.66503133  1
  Al0+  Al51  1  -0.00152705  0.49961069  0.00464562  1
  Al0+  Al52  1  0.00073020  0.49909337  0.33517129  1
  Al0+  Al53  1  0.00032559  0.50016326  0.66538531  1
  Al0+  Al54  1  0.50121924  0.00026751  -0.00316576  1
  Al0+  Al55  1  0.49838251  0.00153496  0.33073664  1
  Al0+  Al56  1  0.50037638  -0.00066524  0.66996827  1
  Al0+  Al57  1  0.49966016  0.49890895  0.00374236  1
  Al0+  Al58  1  0.50059870  0.50121323  0.32868181  1
  Al0+  Al59  1  0.50234007  0.50125918  0.67421663  1
  Al0+  Al60  1  0.25173681  0.25066491  -0.00032960  1
  Al0+  Al61  1  0.24979461  0.24989550  0.33033200  1
  Al0+  Al62  1  0.25086555  0.24797181  0.67183880  1
  Al0+  Al63  1  0.24905560  0.75087804  -0.00023381  1
  Al0+  Al64  1  0.25078611  0.74965910  0.33641161  1
  Al0+  Al65  1  0.24860691  0.75173907  0.66363640  1
  Al0+  Al66  1  0.74945246  0.24778731  -0.00015205  1
  Al0+  Al67  1  0.74927718  0.25204840  0.33079433  1
  Al0+  Al68  1  0.75176836  0.24968268  0.66619765  1
  Al0+  Al69  1  0.74625305  0.74885175  -0.00108883  1
  Al0+  Al70  1  0.74942790  0.74826188  0.33621628  1
  Al0+  Al71  1  0.74922388  0.75012185  0.67116473  1
  Al0+  Al72  1  0.06972494  0.67825122  0.98571364  1
  Al0+  Al73  1  0.82198075  0.56993125  0.34762323  1
  Al0+  Al74  1  0.68068867  0.42772857  0.67905734  1
  Al0+  Al75  1  0.32084381  0.57317829  0.01816527  1
  Al0+  Al76  1  0.42939121  0.82070714  0.65166675  1
  Al0+  Al77  1  0.17784817  0.42904096  0.68067081  1
  Al0+  Al78  1  0.92679793  0.32320403  0.31606258  1
  Al0+  Al79  1  0.92566880  0.82255988  0.98460886  1
  Al0+  Al80  1  0.81862123  0.57036562  0.01397716  1
  Al0+  Al81  1  0.32059070  0.06864161  0.67960866  1
  Al0+  Al82  1  0.93069447  0.81929272  0.32384384  1
  Al0+  Al83  1  0.17771408  0.42750687  0.01802309  1
  Al0+  Al84  1  0.17979731  0.92819357  0.34639109  1
  Al0+  Al85  1  0.82299506  0.07291997  0.34841908  1
  Al0+  Al86  1  0.07132467  0.17962705  0.31858024  1
  Al0+  Al87  1  0.93035474  0.32063290  0.65278982  1
  Al0+  Al88  1  0.17891217  0.93200099  0.01197961  1
  Al0+  Al89  1  0.68007552  0.92917705  0.68179807  1
  Al0+  Al90  1  0.67743044  0.92812945  0.34740510  1
  Al0+  Al91  1  0.57106271  0.67831078  0.31797002  1
  Al0+  Al92  1  0.32157352  0.57351958  0.68064798  1
  Al0+  Al93  1  0.42763150  0.82330101  0.31720563  1
  Al0+  Al94  1  0.42969880  0.81970441  0.98466986  1
  Al0+  Al95  1  0.07237698  0.17994850  0.98370689  1
  Si0+  Si96  1  0.57162461  0.17956233  0.98339052  1
  Si0+  Si97  1  0.57116062  0.17919696  0.65136666  1
  Si0+  Si98  1  0.67814610  0.92959381  0.01475934  1
  Si0+  Si99  1  0.07480764  0.17685722  0.64851012  1
  Si0+  Si100  1  0.17504086  0.92784555  0.68425153  1
  Si0+  Si101  1  0.43034713  0.32122092  0.98350508  1
  Si0+  Si102  1  0.32209335  0.07464395  0.34871882  1
  Si0+  Si103  1  0.32454121  0.07195251  0.01722128  1
  Si0+  Si104  1  0.32232595  0.57001659  0.34877073  1
  Si0+  Si105  1  0.18107544  0.42754802  0.34891223  1
  Si0+  Si106  1  0.42857667  0.32217315  0.31909719  1
  Si0+  Si107  1  0.07361217  0.67677924  0.31901283  1
  Si0+  Si108  1  0.82011328  0.07068338  0.01307654  1
  Si0+  Si109  1  0.57119220  0.67571411  0.98107318  1
  Si0+  Si110  1  0.82233380  0.07210644  0.68405241  1
  Si0+  Si111  1  0.67575096  0.42833085  0.34879299  1
  Si0+  Si112  1  0.67804748  0.42480122  0.01805405  1
  Si0+  Si113  1  0.82288346  0.57267500  0.68385929  1
  Si0+  Si114  1  0.06942815  0.68026004  0.65122657  1
  Si0+  Si115  1  0.92652737  0.82140659  0.65076365  1
  Si0+  Si116  1  0.57420382  0.67671391  0.65054862  1
  Si0+  Si117  1  0.57087935  0.17923716  0.31858756  1
  Si0+  Si118  1  0.42978846  0.32182932  0.65422184  1
  Si0+  Si119  1  0.92724185  0.32133779  0.98331548  1
  O2-  O120  1  0.25451852  0.00546999  0.06094481  1
  O2-  O121  1  0.25636033  0.00268050  0.39125879  1
  O2-  O122  1  0.24446578  -0.00348365  0.72686514  1
  O2-  O123  1  0.24690133  0.50259956  0.06839425  1
  O2-  O124  1  0.25022314  0.50029368  0.39125734  1
  O2-  O125  1  0.25048124  0.50040765  0.72988344  1
  O2-  O126  1  0.75525931  -0.00579463  0.05576525  1
  O2-  O127  1  0.75059527  0.00003045  0.39699076  1
  O2-  O128  1  0.75800334  0.00011340  0.73010831  1
  O2-  O129  1  0.74504060  0.49432996  0.06146736  1
  O2-  O130  1  0.74762621  0.49338047  0.39257967  1
  O2-  O131  1  0.75467096  0.50225502  0.72624709  1
  O2-  O132  1  -0.00312503  0.24878219  0.26756620  1
  O2-  O133  1  0.00623918  0.24665805  0.60651582  1
  O2-  O134  1  -0.00017614  0.25750689  0.93793462  1
  O2-  O135  1  0.00538960  0.74594211  0.27599308  1
  O2-  O136  1  -0.00171023  0.75118017  0.60890657  1
  O2-  O137  1  -0.00252733  0.75008572  0.93423618  1
  O2-  O138  1  0.49999174  0.25104603  0.27703043  1
  O2-  O139  1  0.50101975  0.25183224  0.60934316  1
  O2-  O140  1  0.50152013  0.25067735  0.94034103  1
  O2-  O141  1  0.50081485  0.75206388  0.26818044  1
  O2-  O142  1  0.50345826  0.74391779  0.60739112  1
  O2-  O143  1  0.50023989  0.74148291  0.93631940  1
  O2-  O144  1  0.06920674  0.17745852  0.09637016  1
  O2-  O145  1  0.07568825  0.18442465  0.43222567  1
  O2-  O146  1  0.07338301  0.17541241  0.75418404  1
  O2-  O147  1  0.06775105  0.68121294  0.09932291  1
  O2-  O148  1  0.07328912  0.67684667  0.42540124  1
  O2-  O149  1  0.06909712  0.67972654  0.75586913  1
  O2-  O150  1  0.57159159  0.18011881  0.08857968  1
  O2-  O151  1  0.56968554  0.17937329  0.42373428  1
  O2-  O152  1  0.57061922  0.17998480  0.75686446  1
  O2-  O153  1  0.57330078  0.67831457  0.08632338  1
  O2-  O154  1  0.56652563  0.67305474  0.43169238  1
  O2-  O155  1  0.57767545  0.67848329  0.75604790  1
  O2-  O156  1  0.18376276  0.42572081  0.24434604  1
  O2-  O157  1  0.17983141  0.43094610  0.56635006  1
  O2-  O158  1  0.18154439  0.42696492  0.90442674  1
  O2-  O159  1  0.17868602  0.92809259  0.23341736  1
  O2-  O160  1  0.17359934  0.92807582  0.57858071  1
  O2-  O161  1  0.18115052  0.93412124  0.89861387  1
  O2-  O162  1  0.67180209  0.42869662  0.24337807  1
  O2-  O163  1  0.67985363  0.42751379  0.56628939  1
  O2-  O164  1  0.67907085  0.42226006  0.91223976  1
  O2-  O165  1  0.67758395  0.93185003  0.23335414  1
  O2-  O166  1  0.67958133  0.93108858  0.56919466  1
  O2-  O167  1  0.67661070  0.93352763  0.90940764  1
  O2-  O168  1  0.43236808  0.31901880  0.08915975  1
  O2-  O169  1  0.42863556  0.32280299  0.42442397  1
  O2-  O170  1  0.43216086  0.31883914  0.75909952  1
  O2-  O171  1  0.43332947  0.82193673  0.09727485  1
  O2-  O172  1  0.42816043  0.82161199  0.43115261  1
  O2-  O173  1  0.43055296  0.82101242  0.76483702  1
  O2-  O174  1  0.92384376  0.31705384  0.08828753  1
  O2-  O175  1  0.92990827  0.32334109  0.43012100  1
  O2-  O176  1  0.92929465  0.31829159  0.76608994  1
  O2-  O177  1  0.92517129  0.82382873  0.09819230  1
  O2-  O178  1  0.93182458  0.81661821  0.43759374  1
  O2-  O179  1  0.92610250  0.82090297  0.75555383  1
  O2-  O180  1  0.32268398  0.07982294  0.24348018  1
  O2-  O181  1  0.32122372  0.06919644  0.56651453  1
  O2-  O182  1  0.32640954  0.07087477  0.91145222  1
  O2-  O183  1  0.32226941  0.56846074  0.24413162  1
  O2-  O184  1  0.32047797  0.57050938  0.56623440  1
  O2-  O185  1  0.32101425  0.56985253  0.90464980  1
  O2-  O186  1  0.82067689  0.07094357  0.23409434  1
  O2-  O187  1  0.81948043  0.07297312  0.57900513  1
  O2-  O188  1  0.81491236  0.07474044  0.90792586  1
  O2-  O189  1  0.82123898  0.57052012  0.23478752  1
  O2-  O190  1  0.82266584  0.57408953  0.57838881  1
  O2-  O191  1  0.81627880  0.56752953  0.90042175  1
  O2-  O192  1  0.04328212  0.08045656  0.26780510  1
  O2-  O193  1  0.04835565  0.08294080  0.60282134  1
  O2-  O194  1  0.03817715  0.08721259  0.92444785  1
  O2-  O195  1  0.04944890  0.58297462  0.27414147  1
  O2-  O196  1  0.04239709  0.58862932  0.60249125  1
  O2-  O197  1  0.04000581  0.57902033  0.93359956  1
  O2-  O198  1  0.54193737  0.08973317  0.26749750  1
  O2-  O199  1  0.53984293  0.08879847  0.60413134  1
  O2-  O200  1  0.54319224  0.08881234  0.93418837  1
  O2-  O201  1  0.54237164  0.58088847  0.26183865  1
  O2-  O202  1  0.55123288  0.58128704  0.60669736  1
  O2-  O203  1  0.55040102  0.57898360  0.93883436  1
  O2-  O204  1  0.16912178  0.20940412  0.26381925  1
  O2-  O205  1  0.16973761  0.20061810  0.60448050  1
  O2-  O206  1  0.17141278  0.20722386  0.93220771  1
  O2-  O207  1  0.16772521  0.70066337  0.27457624  1
  O2-  O208  1  0.16030469  0.70825689  0.60156987  1
  O2-  O209  1  0.16748640  0.70744754  0.93194444  1
  O2-  O210  1  0.66111161  0.20716809  0.26815340  1
  O2-  O211  1  0.66278405  0.20624998  0.60404063  1
  O2-  O212  1  0.66300271  0.20706304  0.93427586  1
  O2-  O213  1  0.66965004  0.70630572  0.26651450  1
  O2-  O214  1  0.66776265  0.70411057  0.60458132  1
  O2-  O215  1  0.66279413  0.70414334  0.93252252  1
  O2-  O216  1  0.07791695  0.45006003  0.06924972  1
  O2-  O217  1  0.08904708  0.45402705  0.39604384  1
  O2-  O218  1  0.07986413  0.45833316  0.73334163  1
  O2-  O219  1  0.08047757  0.96417308  0.06192050  1
  O2-  O220  1  0.08591262  0.96055979  0.40460399  1
  O2-  O221  1  0.08119550  0.95322400  0.73020788  1
  O2-  O222  1  0.58354558  0.44716859  0.06318041  1
  O2-  O223  1  0.58258366  0.45613162  0.39617410  1
  O2-  O224  1  0.58529704  0.45576389  0.73740106  1
  O2-  O225  1  0.58928268  0.96560059  0.06257475  1
  O2-  O226  1  0.57931850  0.96164281  0.39905728  1
  O2-  O227  1  0.58627328  0.96532798  0.73751117  1
  O2-  O228  1  0.21387854  0.33051384  0.07055664  1
  O2-  O229  1  0.21233947  0.33692651  0.39680097  1
  O2-  O230  1  0.20496558  0.33038673  0.73260015  1
  O2-  O231  1  0.20759137  0.83533560  0.06544267  1
  O2-  O232  1  0.20915926  0.83181726  0.40338286  1
  O2-  O233  1  0.20125097  0.83425486  0.72864556  1
  O2-  O234  1  0.70296481  0.33042684  0.06383650  1
  O2-  O235  1  0.69583975  0.33303875  0.39341466  1
  O2-  O236  1  0.71029868  0.33091680  0.73450188  1
  O2-  O237  1  0.69716293  0.83505062  0.05869397  1
  O2-  O238  1  0.70446740  0.83061063  0.40170626  1
  O2-  O239  1  0.70809080  0.83240756  0.73732041  1
  O2-  O240  1  0.45726093  0.41182627  0.26850071  1
  O2-  O241  1  0.45775403  0.41439211  0.60798382  1
  O2-  O242  1  0.45831987  0.41318770  0.93687480  1
  O2-  O243  1  0.45172403  0.92299449  0.26474782  1
  O2-  O244  1  0.46342215  0.91756881  0.59983013  1
  O2-  O245  1  0.46385661  0.91651658  0.93128789  1
  O2-  O246  1  0.96061317  0.42055733  0.26468983  1
  O2-  O247  1  0.95821406  0.41842115  0.59888954  1
  O2-  O248  1  0.94748527  0.41674405  0.93980576  1
  O2-  O249  1  0.95883902  0.91716970  0.27241126  1
  O2-  O250  1  0.95263943  0.91440062  0.60454482  1
  O2-  O251  1  0.95245964  0.91998244  0.92858586  1
  O2-  O252  1  0.33876988  0.29267072  0.26930068  1
  O2-  O253  1  0.33814853  0.29258849  0.60667889  1
  O2-  O254  1  0.33951791  0.29309621  0.93552491  1
  O2-  O255  1  0.32976563  0.78966503  0.26637563  1
  O2-  O256  1  0.33112981  0.79407971  0.59818822  1
  O2-  O257  1  0.33200867  0.79286525  0.93154368  1
  O2-  O258  1  0.82589218  0.30217319  0.26502491  1
  O2-  O259  1  0.83372957  0.28873437  0.59857126  1
  O2-  O260  1  0.83418619  0.29082720  0.93660448  1
  O2-  O261  1  0.83367196  0.79016593  0.27115214  1
  O2-  O262  1  0.83427145  0.79245705  0.60488838  1
  O2-  O263  1  0.82670149  0.79230135  0.93226909  1
  O2-  O264  1  0.41907585  0.04668099  0.06240595  1
  O2-  O265  1  0.41677881  0.05286620  0.39416031  1
  O2-  O266  1  0.41664288  0.03973899  0.73579199  1
  O2-  O267  1  0.41904640  0.54026094  0.07047966  1
  O2-  O268  1  0.41365483  0.53892626  0.39510620  1
  O2-  O269  1  0.41999393  0.54849053  0.73422337  1
  O2-  O270  1  0.91439960  0.04901563  0.05616386  1
  O2-  O271  1  0.92010352  0.04738814  0.40394085  1
  O2-  O272  1  0.91796471  0.04992452  0.72775077  1
  O2-  O273  1  0.91458589  0.54222561  0.06929260  1
  O2-  O274  1  0.91890966  0.54034791  0.40326973  1
  O2-  O275  1  0.91610571  0.54630546  0.72926075  1
  O2-  O276  1  0.30313286  0.16713978  0.06106217  1
  O2-  O277  1  0.29464391  0.16743047  0.39720842  1
  O2-  O278  1  0.29440025  0.16548645  0.73630357  1
  O2-  O279  1  0.29392383  0.67187264  0.06985773  1
  O2-  O280  1  0.29603427  0.66151153  0.39719526  1
  O2-  O281  1  0.28915228  0.67145739  0.73124836  1
  O2-  O282  1  0.78610462  0.15960995  0.06284355  1
  O2-  O283  1  0.79083373  0.17189177  0.39891269  1
  O2-  O284  1  0.79218890  0.16343903  0.73200444  1
  O2-  O285  1  0.78533846  0.66705549  0.06703915  1
  O2-  O286  1  0.78930457  0.66426592  0.40462445  1
  O2-  O287  1  0.79613279  0.66479197  0.73195260  1
