# generated using pymatgen
data_Ca2Al2SiO7
_symmetry_space_group_name_H-M   'P 1'
_cell_length_a   15.46764335
_cell_length_b   15.46849060
_cell_length_c   15.28942473
_cell_angle_alpha   89.96356682
_cell_angle_beta   89.98402797
_cell_angle_gamma   90.01619669
_symmetry_Int_Tables_number   1
_chemical_formula_structural   Ca2Al2SiO7
_chemical_formula_sum   'Ca48 Al48 Si24 O168'
_cell_volume   3658.16348771
_cell_formula_units_Z   24
loop_
 _symmetry_equiv_pos_site_id
 _symmetry_equiv_pos_as_xyz
  1  'x, y, z'
loop_
 _atom_type_symbol
 _atom_type_oxidation_number
  Ca2+  2.0
  Al0+  0.0
  Si0+  0.0
  O2-  -2.0
loop_
 _atom_site_type_symbol
 _atom_site_label
 _atom_site_symmetry_multiplicity
 _atom_site_fract_x
 _atom_site_fract_y
 _atom_site_fract_z
 _atom_site_occupancy
  Ca2+  Ca0  1  0.17788373  0.08229816  0.17673982  1
  Ca2+  Ca1  1  0.17670121  0.07661871  0.50520057  1
  Ca2+  Ca2  1  0.17822138  0.07396875  0.83788726  1
  Ca2+  Ca3  1  0.16983676  0.57887288  0.16978737  1
  Ca2+  Ca4  1  0.17301001  0.59036204  0.50188375  1
  Ca2+  Ca5  1  0.17282028  0.58619538  0.83868384  1
  Ca2+  Ca6  1  0.67507405  0.08705084  0.16866464  1
  Ca2+  Ca7  1  0.66991759  0.08479226  0.50338095  1
  Ca2+  Ca8  1  0.66593197  0.08600391  0.84161702  1
  Ca2+  Ca9  1  0.67704576  0.59484864  0.17376413  1
  Ca2+  Ca10  1  0.67787168  0.59735485  0.50083684  1
  Ca2+  Ca11  1  0.68061731  0.58968585  0.83766034  1
  Ca2+  Ca12  1  0.09227262  0.33203751  0.16560528  1
  Ca2+  Ca13  1  0.08715712  0.32807229  0.49058889  1
  Ca2+  Ca14  1  0.08533105  0.33649780  0.83313903  1
  Ca2+  Ca15  1  0.08496240  0.81816248  0.16278697  1
  Ca2+  Ca16  1  0.08946802  0.82347983  0.49799801  1
  Ca2+  Ca17  1  0.08774605  0.82212715  0.82787770  1
  Ca2+  Ca18  1  0.58019083  0.32747540  0.16063000  1
  Ca2+  Ca19  1  0.58140826  0.32785644  0.49928818  1
  Ca2+  Ca20  1  0.58488466  0.32018454  0.82942596  1
  Ca2+  Ca21  1  0.57255719  0.82813447  0.16758599  1
  Ca2+  Ca22  1  0.56961533  0.82805529  0.49350226  1
  Ca2+  Ca23  1  0.57011689  0.83386864  0.83042243  1
  Ca2+  Ca24  1  0.32251177  0.42568435  0.17399210  1
  Ca2+  Ca25  1  0.32829578  0.42895579  0.50054837  1
  Ca2+  Ca26  1  0.32780221  0.43043522  0.84176835  1
  Ca2+  Ca27  1  0.34388868  0.92357404  0.16812852  1
  Ca2+  Ca28  1  0.33489998  0.91961354  0.50672935  1
  Ca2+  Ca29  1  0.33634804  0.91854265  0.83316827  1
  Ca2+  Ca30  1  0.82974667  0.42616228  0.16943037  1
  Ca2+  Ca31  1  0.83272127  0.42816154  0.50103324  1
  Ca2+  Ca32  1  0.83362592  0.42652368  0.83666457  1
  Ca2+  Ca33  1  0.83449462  0.92715308  0.17246167  1
  Ca2+  Ca34  1  0.83369560  0.92104267  0.50070801  1
  Ca2+  Ca35  1  0.82854745  0.92335009  0.84136071  1
  Ca2+  Ca36  1  0.41738393  0.16428081  0.15826925  1
  Ca2+  Ca37  1  0.41745620  0.15961270  0.49583552  1
  Ca2+  Ca38  1  0.42336944  0.15860890  0.82883260  1
  Ca2+  Ca39  1  0.40530804  0.67624009  0.16249054  1
  Ca2+  Ca40  1  0.41104067  0.67544643  0.49024641  1
  Ca2+  Ca41  1  0.40310277  0.67666457  0.82808508  1
  Ca2+  Ca42  1  0.92136383  0.16332114  0.16383539  1
  Ca2+  Ca43  1  0.92539153  0.16832191  0.48838333  1
  Ca2+  Ca44  1  0.91605867  0.16830793  0.83001829  1
  Ca2+  Ca45  1  0.92653884  0.65349781  0.16359609  1
  Ca2+  Ca46  1  0.92655426  0.66024273  0.49403556  1
  Ca2+  Ca47  1  0.92788700  0.65573145  0.82981143  1
  Al0+  Al48  1  0.00000943  -0.00039612  0.00214366  1
  Al0+  Al49  1  0.00090706  0.00166624  0.33342378  1
  Al0+  Al50  1  0.00030321  -0.00024340  0.67072225  1
  Al0+  Al51  1  -0.00138483  0.49739498  0.00203876  1
  Al0+  Al52  1  -0.00353282  0.49718839  0.33615324  1
  Al0+  Al53  1  -0.00105656  0.49924557  0.66438469  1
  Al0+  Al54  1  0.50092997  -0.00183342  -0.00373824  1
  Al0+  Al55  1  0.50228042  -0.00094326  0.33274085  1
  Al0+  Al56  1  0.50291449  -0.00098065  0.66034623  1
  Al0+  Al57  1  0.50114668  0.50099821  0.00121440  1
  Al0+  Al58  1  0.50144541  0.49814323  0.33254889  1
  Al0+  Al59  1  0.50276266  0.49800394  0.67106815  1
  Al0+  Al60  1  0.25038433  0.24907707  0.00275300  1
  Al0+  Al61  1  0.25114358  0.24898872  0.33717226  1
  Al0+  Al62  1  0.25163882  0.25047086  0.66954000  1
  Al0+  Al63  1  0.24745364  0.75084509  -0.00597732  1
  Al0+  Al64  1  0.24733133  0.75157509  0.32509785  1
  Al0+  Al65  1  0.24785113  0.75062603  0.66463381  1
  Al0+  Al66  1  0.75109322  0.25055422  -0.00051325  1
  Al0+  Al67  1  0.75133443  0.25080543  0.33759706  1
  Al0+  Al68  1  0.75008904  0.25142374  0.66089118  1
  Al0+  Al69  1  0.74933389  0.75263589  0.00480446  1
  Al0+  Al70  1  0.74849897  0.75330378  0.33513930  1
  Al0+  Al71  1  0.75149113  0.75333399  0.67318560  1
  Al0+  Al72  1  0.32038437  0.57352571  0.34708488  1
  Al0+  Al73  1  0.42997980  0.81824771  0.98378025  1
  Al0+  Al74  1  0.56985478  0.18171842  0.98797930  1
  Al0+  Al75  1  0.82125023  0.07231134  0.01314347  1
  Al0+  Al76  1  0.82043870  0.57105204  0.68073444  1
  Al0+  Al77  1  0.81819946  0.57165345  0.34743825  1
  Al0+  Al78  1  0.17802835  0.92830445  0.68227590  1
  Al0+  Al79  1  0.42755395  0.82059004  0.31684715  1
  Al0+  Al80  1  0.32170283  0.06766240  0.01292728  1
  Al0+  Al81  1  0.06805614  0.67733897  0.31833573  1
  Al0+  Al82  1  0.32396292  0.07066074  0.68183460  1
  Al0+  Al83  1  0.07225127  0.17977625  0.31982901  1
  Al0+  Al84  1  0.17858590  0.42858314  0.01429864  1
  Al0+  Al85  1  0.32157840  0.57099649  0.67836635  1
  Al0+  Al86  1  0.06631861  0.67809415  0.98513317  1
  Al0+  Al87  1  0.17828855  0.42899218  0.34948315  1
  Al0+  Al88  1  0.32144878  0.57453942  0.01448259  1
  Al0+  Al89  1  0.42997242  0.81738296  0.65214225  1
  Al0+  Al90  1  0.06795434  0.67968717  0.65191655  1
  Al0+  Al91  1  0.32292691  0.06896619  0.34656341  1
  Al0+  Al92  1  0.81875151  0.57112101  0.01431511  1
  Al0+  Al93  1  0.57185543  0.67680609  0.31964906  1
  Al0+  Al94  1  0.56993429  0.17952575  0.65082784  1
  Al0+  Al95  1  0.82183755  0.07179915  0.34830237  1
  Si0+  Si96  1  0.17738360  0.42723166  0.68225685  1
  Si0+  Si97  1  0.82072032  0.07323368  0.68106599  1
  Si0+  Si98  1  0.57583827  0.67702304  0.65353836  1
  Si0+  Si99  1  0.57545957  0.67691964  0.98268691  1
  Si0+  Si100  1  0.67736077  0.92942216  0.01874830  1
  Si0+  Si101  1  0.07188780  0.17783964  0.65347139  1
  Si0+  Si102  1  0.92697641  0.82335197  0.31746629  1
  Si0+  Si103  1  0.42569151  0.32363736  0.98316951  1
  Si0+  Si104  1  0.67832669  0.42699579  0.01547256  1
  Si0+  Si105  1  0.67977789  0.42494612  0.68475841  1
  Si0+  Si106  1  0.92645842  0.32031881  0.31466017  1
  Si0+  Si107  1  0.93003505  0.31993507  0.65014775  1
  Si0+  Si108  1  0.92638260  0.82476053  0.98383125  1
  Si0+  Si109  1  0.07325368  0.17658106  0.98391245  1
  Si0+  Si110  1  0.67896834  0.93007066  0.35262211  1
  Si0+  Si111  1  0.42893889  0.32016315  0.31842168  1
  Si0+  Si112  1  0.57239177  0.17967276  0.31819264  1
  Si0+  Si113  1  0.17670572  0.92793627  0.01798889  1
  Si0+  Si114  1  0.67660997  0.42553161  0.35116880  1
  Si0+  Si115  1  0.68029338  0.93113080  0.68261959  1
  Si0+  Si116  1  0.17659106  0.92825470  0.34830931  1
  Si0+  Si117  1  0.92987555  0.31818167  0.98433075  1
  Si0+  Si118  1  0.92561177  0.82529065  0.65076138  1
  Si0+  Si119  1  0.42709571  0.32426582  0.64947843  1
  O2-  O120  1  0.24553771  -0.00370953  0.06209689  1
  O2-  O121  1  0.24938123  -0.00692135  0.39191792  1
  O2-  O122  1  0.25140695  -0.00049724  0.73180037  1
  O2-  O123  1  0.25248389  0.49894024  0.06288610  1
  O2-  O124  1  0.24568823  0.50504944  0.39929744  1
  O2-  O125  1  0.24737187  0.49490817  0.72459959  1
  O2-  O126  1  0.74886946  -0.00346577  0.06107317  1
  O2-  O127  1  0.74821153  -0.00172526  0.39747483  1
  O2-  O128  1  0.75033543  0.00337869  0.72500704  1
  O2-  O129  1  0.73799411  0.50277969  0.06055070  1
  O2-  O130  1  0.73918459  0.50080825  0.39377065  1
  O2-  O131  1  0.74293317  0.49916731  0.72785611  1
  O2-  O132  1  -0.00214980  0.25421241  0.27101752  1
  O2-  O133  1  0.00239474  0.24973735  0.60967451  1
  O2-  O134  1  0.00160534  0.24758714  0.94165009  1
  O2-  O135  1  -0.00883810  0.75127504  0.27250550  1
  O2-  O136  1  -0.00732128  0.75539160  0.60692795  1
  O2-  O137  1  -0.00915605  0.75314053  0.93868354  1
  O2-  O138  1  0.50009568  0.24856672  0.27604131  1
  O2-  O139  1  0.49219190  0.25145742  0.60479342  1
  O2-  O140  1  0.49491923  0.25495110  0.93893897  1
  O2-  O141  1  0.49375915  0.74152804  0.26871693  1
  O2-  O142  1  0.50027921  0.73674764  0.60851587  1
  O2-  O143  1  0.50074245  0.73828486  0.93783536  1
  O2-  O144  1  0.07237012  0.17596508  0.08875828  1
  O2-  O145  1  0.06962013  0.18040990  0.43351788  1
  O2-  O146  1  0.06844336  0.17852891  0.75879588  1
  O2-  O147  1  0.06451080  0.67796064  0.09815098  1
  O2-  O148  1  0.06779956  0.67979424  0.43154294  1
  O2-  O149  1  0.06574309  0.67793557  0.76503150  1
  O2-  O150  1  0.57144343  0.18401010  0.10127704  1
  O2-  O151  1  0.57303708  0.18133335  0.42339818  1
  O2-  O152  1  0.57423767  0.18138060  0.76390643  1
  O2-  O153  1  0.58042892  0.68136248  0.08759991  1
  O2-  O154  1  0.57471093  0.68285544  0.43343887  1
  O2-  O155  1  0.58047189  0.68244981  0.75892631  1
  O2-  O156  1  0.18161275  0.42778144  0.23628380  1
  O2-  O157  1  0.17647471  0.42517053  0.57708487  1
  O2-  O158  1  0.17824186  0.42942005  0.90017406  1
  O2-  O159  1  0.17296746  0.93195747  0.24283948  1
  O2-  O160  1  0.17621235  0.93100722  0.56866161  1
  O2-  O161  1  0.17506956  0.93036512  0.91241304  1
  O2-  O162  1  0.68061821  0.41761885  0.24596722  1
  O2-  O163  1  0.68273221  0.41973486  0.57957015  1
  O2-  O164  1  0.68373427  0.42298661  0.91001907  1
  O2-  O165  1  0.67910455  0.93231277  0.24716556  1
  O2-  O166  1  0.68284942  0.93113373  0.57776686  1
  O2-  O167  1  0.67825251  0.93060049  0.91263729  1
  O2-  O168  1  0.42728387  0.32153093  0.08891875  1
  O2-  O169  1  0.43060309  0.31966209  0.42358248  1
  O2-  O170  1  0.42950712  0.32549767  0.75487135  1
  O2-  O171  1  0.43312076  0.82104495  0.09635911  1
  O2-  O172  1  0.43023257  0.82312575  0.43050671  1
  O2-  O173  1  0.43321722  0.81913963  0.76525732  1
  O2-  O174  1  0.92697520  0.31675868  0.08888775  1
  O2-  O175  1  0.92447074  0.31777363  0.42061399  1
  O2-  O176  1  0.92825949  0.31911314  0.75558943  1
  O2-  O177  1  0.92848115  0.82834801  0.08911816  1
  O2-  O178  1  0.92805457  0.82423245  0.42323644  1
  O2-  O179  1  0.92333615  0.82782589  0.75608566  1
  O2-  O180  1  0.32333307  0.06947072  0.23325224  1
  O2-  O181  1  0.32163100  0.06970673  0.56820779  1
  O2-  O182  1  0.32164828  0.06668258  0.90006149  1
  O2-  O183  1  0.31934561  0.57067783  0.23387112  1
  O2-  O184  1  0.32039718  0.57061497  0.56552599  1
  O2-  O185  1  0.31811908  0.57311335  0.90038853  1
  O2-  O186  1  0.81955544  0.07156831  0.23523659  1
  O2-  O187  1  0.82077761  0.07235921  0.57617038  1
  O2-  O188  1  0.81959205  0.07240363  0.89940969  1
  O2-  O189  1  0.81818212  0.56799861  0.23438164  1
  O2-  O190  1  0.81965395  0.56936875  0.56788226  1
  O2-  O191  1  0.81987006  0.56718748  0.90099455  1
  O2-  O192  1  0.03985727  0.08403198  0.26510366  1
  O2-  O193  1  0.04185256  0.08664494  0.60654108  1
  O2-  O194  1  0.04360326  0.08518488  0.93645820  1
  O2-  O195  1  0.03500052  0.57982309  0.26750802  1
  O2-  O196  1  0.03606545  0.58306795  0.59812133  1
  O2-  O197  1  0.03347992  0.58110335  0.93244540  1
  O2-  O198  1  0.54833800  0.08711939  0.27179975  1
  O2-  O199  1  0.54508473  0.08291344  0.59484891  1
  O2-  O200  1  0.54207742  0.08470124  0.93365670  1
  O2-  O201  1  0.55892258  0.57363518  0.27088500  1
  O2-  O202  1  0.56248475  0.57865253  0.61376771  1
  O2-  O203  1  0.56111878  0.57924347  0.94039822  1
  O2-  O204  1  0.16939929  0.21008290  0.26657660  1
  O2-  O205  1  0.16487867  0.20386275  0.60770227  1
  O2-  O206  1  0.16449797  0.20519119  0.93571017  1
  O2-  O207  1  0.16236787  0.70937900  0.26127735  1
  O2-  O208  1  0.16322448  0.71231964  0.59722659  1
  O2-  O209  1  0.16161797  0.71079312  0.92994738  1
  O2-  O210  1  0.66441808  0.21028998  0.27259753  1
  O2-  O211  1  0.66590465  0.21374083  0.59559386  1
  O2-  O212  1  0.66644664  0.21395939  0.93290489  1
  O2-  O213  1  0.66780590  0.71490307  0.26569596  1
  O2-  O214  1  0.66691102  0.71217264  0.60680509  1
  O2-  O215  1  0.66722898  0.71037702  0.93518080  1
  O2-  O216  1  0.08011544  0.45469349  0.06724344  1
  O2-  O217  1  0.07647877  0.44765547  0.39881105  1
  O2-  O218  1  0.08325170  0.45286333  0.72724504  1
  O2-  O219  1  0.08326922  0.95263689  0.06432065  1
  O2-  O220  1  0.08525717  0.95704095  0.39706880  1
  O2-  O221  1  0.07981164  0.95707489  0.73734584  1
  O2-  O222  1  0.58163798  0.44159664  0.05848950  1
  O2-  O223  1  0.58119838  0.44233558  0.39612555  1
  O2-  O224  1  0.58477647  0.44212219  0.73058855  1
  O2-  O225  1  0.58608721  0.95943956  0.06510316  1
  O2-  O226  1  0.58714230  0.95886534  0.39997337  1
  O2-  O227  1  0.58917762  0.96013990  0.72944121  1
  O2-  O228  1  0.20446250  0.32921846  0.06659642  1
  O2-  O229  1  0.21180860  0.33235138  0.40344436  1
  O2-  O230  1  0.20012693  0.33336285  0.72981493  1
  O2-  O231  1  0.20227753  0.83383864  0.06110890  1
  O2-  O232  1  0.19898809  0.83320998  0.39139295  1
  O2-  O233  1  0.20626929  0.83038310  0.73486632  1
  O2-  O234  1  0.71286603  0.33759072  0.06475764  1
  O2-  O235  1  0.71008924  0.33614109  0.40221574  1
  O2-  O236  1  0.71398029  0.33405335  0.73248844  1
  O2-  O237  1  0.70100185  0.83641679  0.06626003  1
  O2-  O238  1  0.70452324  0.83780728  0.40087583  1
  O2-  O239  1  0.70834671  0.84160266  0.73443656  1
  O2-  O240  1  0.45675958  0.41079837  0.26876808  1
  O2-  O241  1  0.45835762  0.41598508  0.60153878  1
  O2-  O242  1  0.45067916  0.41817062  0.93778714  1
  O2-  O243  1  0.46609456  0.91699381  0.26406687  1
  O2-  O244  1  0.46659381  0.91172183  0.59739135  1
  O2-  O245  1  0.46664010  0.91283457  0.92877291  1
  O2-  O246  1  0.94777214  0.41480449  0.26975327  1
  O2-  O247  1  0.95676383  0.41108789  0.60150040  1
  O2-  O248  1  0.95835379  0.40899279  0.93508755  1
  O2-  O249  1  0.95526844  0.91617750  0.27086237  1
  O2-  O250  1  0.95138300  0.91936849  0.60440121  1
  O2-  O251  1  0.95347018  0.91783051  0.93574889  1
  O2-  O252  1  0.33818477  0.29050073  0.27115637  1
  O2-  O253  1  0.33177408  0.30263800  0.60502315  1
  O2-  O254  1  0.33239898  0.29743593  0.93705231  1
  O2-  O255  1  0.32815267  0.80115233  0.26249905  1
  O2-  O256  1  0.33211607  0.79213443  0.59932010  1
  O2-  O257  1  0.33198928  0.79279125  0.92960460  1
  O2-  O258  1  0.83385599  0.29085303  0.26829097  1
  O2-  O259  1  0.83971308  0.29129340  0.60067295  1
  O2-  O260  1  0.83967019  0.28900045  0.93379487  1
  O2-  O261  1  0.83143813  0.80416142  0.27340796  1
  O2-  O262  1  0.83133425  0.80087144  0.60514014  1
  O2-  O263  1  0.83016687  0.80379229  0.94073197  1
  O2-  O264  1  0.41874441  0.03632489  0.06555818  1
  O2-  O265  1  0.42092363  0.04109724  0.39910429  1
  O2-  O266  1  0.42398859  0.04094970  0.73044056  1
  O2-  O267  1  0.42385917  0.55416574  0.06275803  1
  O2-  O268  1  0.42002715  0.54314630  0.39737626  1
  O2-  O269  1  0.41980486  0.54430695  0.73237145  1
  O2-  O270  1  0.91830664  0.04340169  0.06692242  1
  O2-  O271  1  0.91836505  0.04110497  0.40237365  1
  O2-  O272  1  0.91217522  0.04712783  0.72964857  1
  O2-  O273  1  0.91171433  0.53156737  0.06786221  1
  O2-  O274  1  0.91187451  0.53565531  0.40326026  1
  O2-  O275  1  0.91513436  0.53307925  0.73404959  1
  O2-  O276  1  0.29432253  0.16559295  0.06521043  1
  O2-  O277  1  0.29209992  0.16446713  0.40151906  1
  O2-  O278  1  0.29830065  0.17057819  0.73352314  1
  O2-  O279  1  0.28769829  0.67199349  0.06460246  1
  O2-  O280  1  0.29179428  0.67400993  0.39566148  1
  O2-  O281  1  0.28651921  0.66602507  0.73130831  1
  O2-  O282  1  0.78889646  0.16789721  0.06729848  1
  O2-  O283  1  0.79090610  0.16764234  0.40348886  1
  O2-  O284  1  0.79260251  0.16592004  0.72636091  1
  O2-  O285  1  0.79516819  0.67003719  0.06684964  1
  O2-  O286  1  0.79129379  0.67002785  0.40033653  1
  O2-  O287  1  0.79396956  0.66859155  0.73547529  1
