# generated using pymatgen
data_Ca2Al2SiO7
_symmetry_space_group_name_H-M   'P 1'
_cell_length_a   15.45497360
_cell_length_b   15.45558572
_cell_length_c   15.28190385
_cell_angle_alpha   89.99631583
_cell_angle_beta   90.00417021
_cell_angle_gamma   89.98750487
_symmetry_Int_Tables_number   1
_chemical_formula_structural   Ca2Al2SiO7
_chemical_formula_sum   'Ca48 Al48 Si24 O168'
_cell_volume   3650.32208776
_cell_formula_units_Z   24
loop_
 _symmetry_equiv_pos_site_id
 _symmetry_equiv_pos_as_xyz
  1  'x, y, z'
loop_
 _atom_type_symbol
 _atom_type_oxidation_number
  Ca2+  2.0
  Al0+  0.0
  Si0+  0.0
  O2-  -2.0
loop_
 _atom_site_type_symbol
 _atom_site_label
 _atom_site_symmetry_multiplicity
 _atom_site_fract_x
 _atom_site_fract_y
 _atom_site_fract_z
 _atom_site_occupancy
  Ca2+  Ca0  1  0.15650975  0.07452634  0.17108168  1
  Ca2+  Ca1  1  0.16820599  0.07939076  0.50242177  1
  Ca2+  Ca2  1  0.17426163  0.07982424  0.84257537  1
  Ca2+  Ca3  1  0.17014152  0.57806493  0.16802695  1
  Ca2+  Ca4  1  0.17316109  0.58572562  0.50392064  1
  Ca2+  Ca5  1  0.16478055  0.57999093  0.84354495  1
  Ca2+  Ca6  1  0.67298646  0.08818065  0.17026212  1
  Ca2+  Ca7  1  0.67019621  0.08633192  0.50418705  1
  Ca2+  Ca8  1  0.66180799  0.09038652  0.83823539  1
  Ca2+  Ca9  1  0.66619418  0.57270920  0.17317671  1
  Ca2+  Ca10  1  0.67522545  0.58135549  0.50385123  1
  Ca2+  Ca11  1  0.66818460  0.58331474  0.83930819  1
  Ca2+  Ca12  1  0.08006240  0.32252168  0.15587091  1
  Ca2+  Ca13  1  0.08179184  0.32391803  0.49274228  1
  Ca2+  Ca14  1  0.08147695  0.33616218  0.83532051  1
  Ca2+  Ca15  1  0.08260422  0.83163370  0.16219392  1
  Ca2+  Ca16  1  0.07988590  0.82995751  0.49260797  1
  Ca2+  Ca17  1  0.09052735  0.82151233  0.83449030  1
  Ca2+  Ca18  1  0.57804480  0.33771266  0.15896440  1
  Ca2+  Ca19  1  0.57348775  0.33620237  0.49586457  1
  Ca2+  Ca20  1  0.57580460  0.32920337  0.83183738  1
  Ca2+  Ca21  1  0.57496084  0.82442731  0.15574221  1
  Ca2+  Ca22  1  0.58489427  0.82636442  0.49937109  1
  Ca2+  Ca23  1  0.57998682  0.82448309  0.83192508  1
  Ca2+  Ca24  1  0.33512616  0.41761840  0.16980429  1
  Ca2+  Ca25  1  0.33716879  0.41508530  0.49916476  1
  Ca2+  Ca26  1  0.33197034  0.41347017  0.83989717  1
  Ca2+  Ca27  1  0.32181585  0.91242518  0.16934714  1
  Ca2+  Ca28  1  0.32675485  0.92393830  0.50589022  1
  Ca2+  Ca29  1  0.33428467  0.92214441  0.84180778  1
  Ca2+  Ca30  1  0.82187373  0.41509247  0.17125491  1
  Ca2+  Ca31  1  0.82840885  0.42578389  0.50370584  1
  Ca2+  Ca32  1  0.82812874  0.42027051  0.84308863  1
  Ca2+  Ca33  1  0.83578685  0.92151515  0.17547533  1
  Ca2+  Ca34  1  0.83771821  0.91986540  0.49734626  1
  Ca2+  Ca35  1  0.83059824  0.91986354  0.83648365  1
  Ca2+  Ca36  1  0.42313004  0.17997821  0.15775194  1
  Ca2+  Ca37  1  0.41523474  0.17525391  0.49845004  1
  Ca2+  Ca38  1  0.42130013  0.17525227  0.82592423  1
  Ca2+  Ca39  1  0.41812462  0.66866434  0.15934559  1
  Ca2+  Ca40  1  0.42336956  0.65863834  0.49542904  1
  Ca2+  Ca41  1  0.42780992  0.66800638  0.83387355  1
  Ca2+  Ca42  1  0.92384732  0.16748532  0.16174780  1
  Ca2+  Ca43  1  0.92205629  0.16333600  0.48901759  1
  Ca2+  Ca44  1  0.92058611  0.17501064  0.83806581  1
  Ca2+  Ca45  1  0.91693267  0.67001174  0.16385135  1
  Ca2+  Ca46  1  0.91695506  0.66743612  0.49570677  1
  Ca2+  Ca47  1  0.92904665  0.65852292  0.82870571  1
  Al0+  Al48  1  0.00050251  0.00059731  -0.00213283  1
  Al0+  Al49  1  -0.00088034  -0.00309245  0.33508109  1
  Al0+  Al50  1  -0.00138250  -0.00097246  0.67108858  1
  Al0+  Al51  1  0.00083671  0.50100941  -0.00000360  1
  Al0+  Al52  1  0.00064851  0.49880638  0.33624036  1
  Al0+  Al53  1  0.00001213  0.50081726  0.66365842  1
  Al0+  Al54  1  0.50044859  0.00013509  -0.00288576  1
  Al0+  Al55  1  0.49916567  -0.00060581  0.33283551  1
  Al0+  Al56  1  0.50006603  0.00081258  0.66668499  1
  Al0+  Al57  1  0.50162908  0.50075340  -0.00399917  1
  Al0+  Al58  1  0.49900085  0.49883450  0.33689380  1
  Al0+  Al59  1  0.49969230  0.50035964  0.66025019  1
  Al0+  Al60  1  0.25020086  0.24946935  -0.00143929  1
  Al0+  Al61  1  0.25099510  0.24860930  0.32365111  1
  Al0+  Al62  1  0.24915104  0.24877255  0.66722882  1
  Al0+  Al63  1  0.24961700  0.75220564  -0.00314439  1
  Al0+  Al64  1  0.25011081  0.74927714  0.34330990  1
  Al0+  Al65  1  0.24939673  0.74862328  0.66367472  1
  Al0+  Al66  1  0.75128412  0.25198849  -0.00203708  1
  Al0+  Al67  1  0.74932183  0.24935929  0.34436258  1
  Al0+  Al68  1  0.74967939  0.25087608  0.66462837  1
  Al0+  Al69  1  0.75096668  0.75237388  -0.00219130  1
  Al0+  Al70  1  0.75046505  0.75006952  0.33136243  1
  Al0+  Al71  1  0.75115121  0.75123806  0.66783480  1
  Al0+  Al72  1  0.67772563  0.42853693  0.35106216  1
  Al0+  Al73  1  0.06940638  0.17842126  0.32031549  1
  Al0+  Al74  1  0.42657900  0.32028216  0.64924866  1
  Al0+  Al75  1  0.07124279  0.67816842  0.65083562  1
  Al0+  Al76  1  0.07161377  0.17686695  0.98350826  1
  Al0+  Al77  1  0.92990975  0.81816346  0.31974098  1
  Al0+  Al78  1  0.92951669  0.32212678  0.98693033  1
  Al0+  Al79  1  0.42735215  0.82125334  0.98618592  1
  Al0+  Al80  1  0.57306746  0.67832517  0.98666398  1
  Al0+  Al81  1  0.31993326  0.07054903  0.68070411  1
  Al0+  Al82  1  0.57199270  0.17781770  0.64894019  1
  Al0+  Al83  1  0.67973582  0.43062592  0.01191794  1
  Al0+  Al84  1  0.17829778  0.42763607  0.01363168  1
  Al0+  Al85  1  0.82097877  0.57139646  0.68249287  1
  Al0+  Al86  1  0.57180057  0.68039113  0.65092487  1
  Al0+  Al87  1  0.06931561  0.68029347  0.98969593  1
  Al0+  Al88  1  0.17901925  0.92955511  0.34853973  1
  Al0+  Al89  1  0.31889007  0.56946047  0.34656337  1
  Al0+  Al90  1  0.18019100  0.92984612  0.01393005  1
  Al0+  Al91  1  0.57257568  0.17994249  0.98717147  1
  Al0+  Al92  1  0.82241711  0.57285725  0.34780125  1
  Al0+  Al93  1  0.43118636  0.32091107  0.31663601  1
  Al0+  Al94  1  0.81950076  0.06882022  0.34603206  1
  Al0+  Al95  1  0.42816752  0.32282735  0.98460794  1
  Si0+  Si96  1  0.42812326  0.82211008  0.64847632  1
  Si0+  Si97  1  0.57384995  0.17639481  0.31767921  1
  Si0+  Si98  1  0.67956401  0.93011977  0.68222418  1
  Si0+  Si99  1  0.57000431  0.68009793  0.31911437  1
  Si0+  Si100  1  0.07493601  0.67674517  0.31740914  1
  Si0+  Si101  1  0.32165195  0.57159506  0.01367372  1
  Si0+  Si102  1  0.67508487  0.92707131  0.34914812  1
  Si0+  Si103  1  0.17823860  0.42453145  0.34863835  1
  Si0+  Si104  1  0.67807376  0.92768995  0.01500803  1
  Si0+  Si105  1  0.67758101  0.42920176  0.68499906  1
  Si0+  Si106  1  0.82196845  0.07329357  0.68399773  1
  Si0+  Si107  1  0.92909380  0.32125550  0.65064322  1
  Si0+  Si108  1  0.42715126  0.82167834  0.32069578  1
  Si0+  Si109  1  0.82344126  0.57442227  0.01641551  1
  Si0+  Si110  1  0.81983677  0.07031505  0.01392437  1
  Si0+  Si111  1  0.06884403  0.17809901  0.65268287  1
  Si0+  Si112  1  0.92861836  0.82336101  0.64985896  1
  Si0+  Si113  1  0.32232594  0.57161357  0.68268765  1
  Si0+  Si114  1  0.92619419  0.32291107  0.31925108  1
  Si0+  Si115  1  0.92735539  0.82406501  0.98209744  1
  Si0+  Si116  1  0.32311964  0.07278404  0.34833395  1
  Si0+  Si117  1  0.32424883  0.07243383  0.01852409  1
  Si0+  Si118  1  0.17937711  0.42956268  0.68009224  1
  Si0+  Si119  1  0.17725573  0.92678491  0.68499603  1
  O2-  O120  1  0.25318688  0.00555310  0.06259752  1
  O2-  O121  1  0.25420217  0.00455973  0.39366076  1
  O2-  O122  1  0.24735113  -0.00609046  0.72821903  1
  O2-  O123  1  0.25579309  0.50049197  0.05874604  1
  O2-  O124  1  0.24344374  0.49558425  0.39457386  1
  O2-  O125  1  0.25097548  0.50019797  0.72295942  1
  O2-  O126  1  0.74831438  -0.00035332  0.05641318  1
  O2-  O127  1  0.74159791  -0.00236487  0.39398691  1
  O2-  O128  1  0.74747882  0.00493233  0.72445415  1
  O2-  O129  1  0.75261430  0.50754122  0.05918368  1
  O2-  O130  1  0.75227795  0.49967061  0.39895998  1
  O2-  O131  1  0.74556817  0.49827001  0.72995090  1
  O2-  O132  1  -0.00413988  0.25525380  0.27542425  1
  O2-  O133  1  -0.00338640  0.24664955  0.60845605  1
  O2-  O134  1  0.00468021  0.25416584  0.93443527  1
  O2-  O135  1  0.00223768  0.74118723  0.27338618  1
  O2-  O136  1  -0.00205723  0.75515492  0.60648704  1
  O2-  O137  1  -0.00624311  0.75283577  0.93959588  1
  O2-  O138  1  0.50740169  0.24615658  0.27295524  1
  O2-  O139  1  0.50033258  0.24969826  0.59919677  1
  O2-  O140  1  0.49820951  0.24825217  0.93621418  1
  O2-  O141  1  0.49883891  0.75171443  0.27819600  1
  O2-  O142  1  0.49458109  0.75213762  0.60242795  1
  O2-  O143  1  0.50139404  0.75108011  0.93701818  1
  O2-  O144  1  0.06539923  0.17328741  0.09698751  1
  O2-  O145  1  0.06878633  0.17965273  0.43453955  1
  O2-  O146  1  0.06786987  0.17898021  0.75725034  1
  O2-  O147  1  0.06931011  0.68157713  0.10268828  1
  O2-  O148  1  0.07560708  0.67986581  0.42316901  1
  O2-  O149  1  0.07153472  0.67798163  0.76400501  1
  O2-  O150  1  0.57388187  0.18036065  0.10103191  1
  O2-  O151  1  0.57112030  0.17381827  0.42294684  1
  O2-  O152  1  0.57176443  0.17967533  0.76218881  1
  O2-  O153  1  0.57174913  0.67985716  0.10079331  1
  O2-  O154  1  0.57010769  0.68274550  0.42451797  1
  O2-  O155  1  0.57134830  0.68268484  0.76363435  1
  O2-  O156  1  0.17865620  0.42574098  0.24338017  1
  O2-  O157  1  0.17897342  0.42937995  0.57474886  1
  O2-  O158  1  0.17697685  0.43231068  0.89993366  1
  O2-  O159  1  0.17987039  0.92811135  0.23551990  1
  O2-  O160  1  0.17543713  0.92925091  0.57923101  1
  O2-  O161  1  0.18186210  0.92995168  0.90072672  1
  O2-  O162  1  0.67753546  0.42961666  0.23714143  1
  O2-  O163  1  0.68028108  0.43023530  0.57941473  1
  O2-  O164  1  0.68158906  0.43066698  0.89881128  1
  O2-  O165  1  0.67440730  0.92688064  0.24365067  1
  O2-  O166  1  0.68187163  0.92862422  0.57701655  1
  O2-  O167  1  0.68057500  0.92570136  0.90972789  1
  O2-  O168  1  0.43133292  0.32376921  0.09833716  1
  O2-  O169  1  0.42931623  0.31881691  0.42955817  1
  O2-  O170  1  0.42527162  0.31994383  0.76226033  1
  O2-  O171  1  0.42755301  0.81839878  0.10059259  1
  O2-  O172  1  0.42912663  0.82264583  0.42582674  1
  O2-  O173  1  0.42981744  0.82129686  0.75381956  1
  O2-  O174  1  0.92736242  0.31765614  0.10053327  1
  O2-  O175  1  0.92922086  0.32120675  0.42550753  1
  O2-  O176  1  0.93043338  0.32133776  0.75550283  1
  O2-  O177  1  0.92635434  0.82529367  0.08768510  1
  O2-  O178  1  0.93169510  0.81955582  0.43297866  1
  O2-  O179  1  0.92853162  0.82649834  0.75530492  1
  O2-  O180  1  0.32590085  0.06990583  0.24327197  1
  O2-  O181  1  0.31521618  0.06978482  0.56707686  1
  O2-  O182  1  0.32386531  0.06951469  0.91264921  1
  O2-  O183  1  0.31871882  0.57206746  0.23351368  1
  O2-  O184  1  0.32095248  0.57219844  0.57740174  1
  O2-  O185  1  0.31993147  0.57232709  0.90777481  1
  O2-  O186  1  0.81928566  0.06753898  0.23279373  1
  O2-  O187  1  0.82640095  0.07052915  0.57910100  1
  O2-  O188  1  0.81968917  0.06838709  0.90837692  1
  O2-  O189  1  0.81910896  0.57435957  0.23428135  1
  O2-  O190  1  0.82065108  0.56967694  0.56951887  1
  O2-  O191  1  0.82358750  0.57347999  0.91058122  1
  O2-  O192  1  0.03461005  0.08263667  0.26856835  1
  O2-  O193  1  0.04139464  0.08474500  0.60728597  1
  O2-  O194  1  0.03743620  0.08140216  0.92768632  1
  O2-  O195  1  0.05509224  0.58012415  0.27527360  1
  O2-  O196  1  0.04005064  0.58248233  0.59542193  1
  O2-  O197  1  0.04039148  0.58469821  0.93289674  1
  O2-  O198  1  0.54927748  0.08190313  0.27147462  1
  O2-  O199  1  0.54595870  0.07785594  0.59764015  1
  O2-  O200  1  0.54970041  0.07975839  0.93528629  1
  O2-  O201  1  0.53992529  0.58856516  0.27415591  1
  O2-  O202  1  0.54211221  0.58440118  0.59593446  1
  O2-  O203  1  0.54407029  0.58289092  0.92994076  1
  O2-  O204  1  0.16541763  0.20465567  0.26411028  1
  O2-  O205  1  0.15949051  0.20734966  0.60455331  1
  O2-  O206  1  0.17148218  0.20003293  0.93322851  1
  O2-  O207  1  0.16774313  0.70755085  0.27330412  1
  O2-  O208  1  0.16842473  0.70741070  0.59643992  1
  O2-  O209  1  0.16411893  0.71223976  0.93288328  1
  O2-  O210  1  0.67000518  0.19973650  0.27628230  1
  O2-  O211  1  0.67268234  0.20350160  0.59810903  1
  O2-  O212  1  0.66981335  0.20847324  0.93255067  1
  O2-  O213  1  0.66100087  0.70763306  0.27102028  1
  O2-  O214  1  0.66771958  0.71598120  0.59801896  1
  O2-  O215  1  0.67075859  0.70881546  0.93286616  1
  O2-  O216  1  0.08283739  0.46100857  0.06898960  1
  O2-  O217  1  0.08353628  0.44483735  0.39550289  1
  O2-  O218  1  0.08767212  0.45864208  0.72670753  1
  O2-  O219  1  0.08154999  0.95920307  0.06596409  1
  O2-  O220  1  0.08375624  0.96119368  0.40410503  1
  O2-  O221  1  0.08369290  0.95256951  0.73126901  1
  O2-  O222  1  0.58290462  0.46140138  0.06605233  1
  O2-  O223  1  0.58136701  0.46110922  0.40489468  1
  O2-  O224  1  0.58242933  0.45501382  0.72699589  1
  O2-  O225  1  0.58551024  0.95255167  0.06223567  1
  O2-  O226  1  0.58086911  0.94936322  0.39663003  1
  O2-  O227  1  0.58680084  0.95382107  0.72921596  1
  O2-  O228  1  0.20415670  0.32917225  0.06636546  1
  O2-  O229  1  0.20759055  0.33117946  0.39391884  1
  O2-  O230  1  0.20484099  0.33734530  0.72760090  1
  O2-  O231  1  0.21163169  0.83331005  0.06858197  1
  O2-  O232  1  0.21044675  0.83508350  0.40621527  1
  O2-  O233  1  0.20256994  0.83156684  0.72792270  1
  O2-  O234  1  0.71341340  0.33486868  0.06687783  1
  O2-  O235  1  0.70247700  0.33052715  0.40672453  1
  O2-  O236  1  0.70495024  0.33480689  0.72871438  1
  O2-  O237  1  0.70736466  0.83687039  0.06444917  1
  O2-  O238  1  0.70445586  0.83493814  0.39608559  1
  O2-  O239  1  0.71205051  0.84088053  0.73203068  1
  O2-  O240  1  0.46133391  0.41886129  0.26504962  1
  O2-  O241  1  0.45352409  0.41931379  0.59661087  1
  O2-  O242  1  0.45676782  0.42010338  0.93050998  1
  O2-  O243  1  0.45252692  0.91348484  0.27179918  1
  O2-  O244  1  0.45591443  0.91486903  0.60217923  1
  O2-  O245  1  0.45635442  0.91874348  0.93257078  1
  O2-  O246  1  0.94857264  0.41739258  0.27389526  1
  O2-  O247  1  0.96074096  0.41078375  0.60152020  1
  O2-  O248  1  0.95492851  0.42088077  0.93363863  1
  O2-  O249  1  0.96251726  0.91355974  0.26520214  1
  O2-  O250  1  0.95472300  0.91766866  0.60369429  1
  O2-  O251  1  0.95446739  0.91604004  0.93415015  1
  O2-  O252  1  0.33531510  0.29082572  0.26117421  1
  O2-  O253  1  0.32787251  0.28924600  0.59648231  1
  O2-  O254  1  0.32904239  0.29697460  0.93302569  1
  O2-  O255  1  0.33521215  0.79111931  0.27575387  1
  O2-  O256  1  0.33334337  0.79882815  0.60376522  1
  O2-  O257  1  0.33124395  0.79338874  0.92966997  1
  O2-  O258  1  0.83147284  0.29550616  0.27737125  1
  O2-  O259  1  0.83655528  0.29638235  0.60389517  1
  O2-  O260  1  0.83502591  0.28829457  0.92953940  1
  O2-  O261  1  0.83185792  0.79295658  0.26432318  1
  O2-  O262  1  0.83531072  0.79819275  0.60370986  1
  O2-  O263  1  0.83320607  0.80226006  0.93549536  1
  O2-  O264  1  0.41789262  0.04532457  0.06435901  1
  O2-  O265  1  0.41623018  0.04627819  0.39630737  1
  O2-  O266  1  0.41763141  0.04133378  0.73345350  1
  O2-  O267  1  0.41625925  0.54905434  0.05887486  1
  O2-  O268  1  0.41408671  0.53782361  0.40256853  1
  O2-  O269  1  0.41510425  0.54470977  0.72814377  1
  O2-  O270  1  0.91117682  0.04067630  0.06085752  1
  O2-  O271  1  0.91321418  0.03275130  0.40305732  1
  O2-  O272  1  0.91164799  0.04160414  0.73434412  1
  O2-  O273  1  0.91627374  0.54897550  0.06309258  1
  O2-  O274  1  0.92252169  0.54788715  0.40065408  1
  O2-  O275  1  0.91840171  0.53768617  0.73386466  1
  O2-  O276  1  0.30116827  0.16709980  0.06247847  1
  O2-  O277  1  0.29521365  0.16647578  0.39266496  1
  O2-  O278  1  0.28620289  0.16583625  0.73548905  1
  O2-  O279  1  0.29305693  0.66449064  0.05957006  1
  O2-  O280  1  0.29093126  0.66429808  0.40648128  1
  O2-  O281  1  0.29469655  0.66427767  0.72867454  1
  O2-  O282  1  0.79284879  0.16185328  0.06136491  1
  O2-  O283  1  0.79478914  0.16441881  0.40517630  1
  O2-  O284  1  0.79706093  0.16651531  0.72989176  1
  O2-  O285  1  0.80047701  0.67026774  0.05993675  1
  O2-  O286  1  0.79175204  0.67118379  0.40091505  1
  O2-  O287  1  0.79384436  0.66986993  0.73470695  1
