# generated using pymatgen
data_Ca2Al2SiO7
_symmetry_space_group_name_H-M   'P 1'
_cell_length_a   15.45559390
_cell_length_b   15.45481478
_cell_length_c   15.28189383
_cell_angle_alpha   89.99329755
_cell_angle_beta   90.00875511
_cell_angle_gamma   89.99851647
_symmetry_Int_Tables_number   1
_chemical_formula_structural   Ca2Al2SiO7
_chemical_formula_sum   'Ca48 Al48 Si24 O168'
_cell_volume   3650.28414885
_cell_formula_units_Z   24
loop_
 _symmetry_equiv_pos_site_id
 _symmetry_equiv_pos_as_xyz
  1  'x, y, z'
loop_
 _atom_type_symbol
 _atom_type_oxidation_number
  Ca2+  2.0
  Al0+  0.0
  Si0+  0.0
  O2-  -2.0
loop_
 _atom_site_type_symbol
 _atom_site_label
 _atom_site_symmetry_multiplicity
 _atom_site_fract_x
 _atom_site_fract_y
 _atom_site_fract_z
 _atom_site_occupancy
  Ca2+  Ca0  1  0.16624624  0.07801676  0.16975959  1
  Ca2+  Ca1  1  0.17506624  0.08265543  0.50195985  1
  Ca2+  Ca2  1  0.16679460  0.07799276  0.84395558  1
  Ca2+  Ca3  1  0.16729502  0.59108595  0.16693409  1
  Ca2+  Ca4  1  0.17058159  0.59059326  0.50660349  1
  Ca2+  Ca5  1  0.17842627  0.59325624  0.83910037  1
  Ca2+  Ca6  1  0.67367297  0.07738031  0.16942927  1
  Ca2+  Ca7  1  0.66689202  0.07128424  0.50338610  1
  Ca2+  Ca8  1  0.66329837  0.07602492  0.84216202  1
  Ca2+  Ca9  1  0.66938891  0.57947947  0.16725554  1
  Ca2+  Ca10  1  0.67247105  0.58492093  0.50814933  1
  Ca2+  Ca11  1  0.65399244  0.57241612  0.83885217  1
  Ca2+  Ca12  1  0.07323156  0.32391584  0.15563788  1
  Ca2+  Ca13  1  0.08185244  0.33250402  0.49513607  1
  Ca2+  Ca14  1  0.07663318  0.33010821  0.83571546  1
  Ca2+  Ca15  1  0.07853982  0.82857576  0.16123706  1
  Ca2+  Ca16  1  0.07602759  0.82165303  0.49142559  1
  Ca2+  Ca17  1  0.08536778  0.82760023  0.83260114  1
  Ca2+  Ca18  1  0.58730988  0.32593408  0.15574785  1
  Ca2+  Ca19  1  0.58272288  0.33304172  0.50540831  1
  Ca2+  Ca20  1  0.58883761  0.32418656  0.82639428  1
  Ca2+  Ca21  1  0.58200615  0.83628747  0.16220271  1
  Ca2+  Ca22  1  0.58512413  0.83332841  0.49518052  1
  Ca2+  Ca23  1  0.59100123  0.82417505  0.83001949  1
  Ca2+  Ca24  1  0.33259966  0.42515816  0.16655374  1
  Ca2+  Ca25  1  0.33283007  0.42294796  0.51102993  1
  Ca2+  Ca26  1  0.34325262  0.42809364  0.83509391  1
  Ca2+  Ca27  1  0.32930349  0.91826137  0.17116747  1
  Ca2+  Ca28  1  0.34053734  0.91886321  0.49737503  1
  Ca2+  Ca29  1  0.32575612  0.91612854  0.84029705  1
  Ca2+  Ca30  1  0.83127997  0.41830094  0.16699195  1
  Ca2+  Ca31  1  0.82834286  0.42548094  0.50330132  1
  Ca2+  Ca32  1  0.82300279  0.41496085  0.83968925  1
  Ca2+  Ca33  1  0.82538829  0.92155338  0.17343855  1
  Ca2+  Ca34  1  0.82561650  0.91312962  0.50049548  1
  Ca2+  Ca35  1  0.82121819  0.92181210  0.84156535  1
  Ca2+  Ca36  1  0.42164029  0.16537024  0.16124074  1
  Ca2+  Ca37  1  0.42209032  0.16709111  0.49737989  1
  Ca2+  Ca38  1  0.43098690  0.17214243  0.82581134  1
  Ca2+  Ca39  1  0.42113464  0.67348018  0.15946343  1
  Ca2+  Ca40  1  0.42346747  0.66991662  0.49866062  1
  Ca2+  Ca41  1  0.42406627  0.66172798  0.83032722  1
  Ca2+  Ca42  1  0.91219919  0.16747277  0.15471144  1
  Ca2+  Ca43  1  0.91327990  0.16656716  0.49561636  1
  Ca2+  Ca44  1  0.91210808  0.16730078  0.83912290  1
  Ca2+  Ca45  1  0.92181640  0.66848436  0.16476751  1
  Ca2+  Ca46  1  0.92411193  0.66795440  0.48828621  1
  Ca2+  Ca47  1  0.93054444  0.66389051  0.82893074  1
  Al0+  Al48  1  0.00011176  -0.00069990  0.00298702  1
  Al0+  Al49  1  0.00070958  -0.00147835  0.33550702  1
  Al0+  Al50  1  0.00007083  0.00072986  0.66576871  1
  Al0+  Al51  1  0.00110278  0.49965091  -0.00991272  1
  Al0+  Al52  1  -0.00026938  0.49702337  0.33270901  1
  Al0+  Al53  1  0.00187332  0.49845143  0.66270253  1
  Al0+  Al54  1  0.49766897  0.00021851  -0.00168100  1
  Al0+  Al55  1  0.49916986  0.00048196  0.33592818  1
  Al0+  Al56  1  0.50050564  0.00052196  0.66878391  1
  Al0+  Al57  1  0.49939591  0.50236900  0.00967443  1
  Al0+  Al58  1  0.49736719  0.49829538  0.33331944  1
  Al0+  Al59  1  0.50016140  0.50087574  0.66450735  1
  Al0+  Al60  1  0.24905966  0.25307637  -0.00448468  1
  Al0+  Al61  1  0.25038636  0.25081700  0.33663738  1
  Al0+  Al62  1  0.24935098  0.25095571  0.66526589  1
  Al0+  Al63  1  0.25034550  0.75218000  0.00597061  1
  Al0+  Al64  1  0.25295264  0.74963357  0.32748518  1
  Al0+  Al65  1  0.24985229  0.75066563  0.66587336  1
  Al0+  Al66  1  0.74818931  0.25075899  -0.00149967  1
  Al0+  Al67  1  0.74863942  0.24901446  0.33780729  1
  Al0+  Al68  1  0.75174874  0.25017604  0.66301230  1
  Al0+  Al69  1  0.74920247  0.74859913  -0.00119500  1
  Al0+  Al70  1  0.75173713  0.74701842  0.33655944  1
  Al0+  Al71  1  0.75215625  0.75148888  0.66870600  1
  Al0+  Al72  1  0.82085424  0.56792123  0.34548047  1
  Al0+  Al73  1  0.43260846  0.82158994  0.31902607  1
  Al0+  Al74  1  0.92698110  0.82181384  0.31707229  1
  Al0+  Al75  1  0.07116681  0.67705650  0.31634834  1
  Al0+  Al76  1  0.68106228  0.43173390  0.67962343  1
  Al0+  Al77  1  0.57093361  0.67947602  0.98811800  1
  Al0+  Al78  1  0.92698520  0.32109948  0.98398097  1
  Al0+  Al79  1  0.31900098  0.57093187  0.67942127  1
  Al0+  Al80  1  0.57169909  0.67966242  0.65377559  1
  Al0+  Al81  1  0.57319968  0.17692523  0.64864683  1
  Al0+  Al82  1  0.31992873  0.57078521  0.01611628  1
  Al0+  Al83  1  0.07177467  0.68108414  0.98504263  1
  Al0+  Al84  1  0.56894694  0.17917055  0.98796019  1
  Al0+  Al85  1  0.31954248  0.07156868  0.34701483  1
  Al0+  Al86  1  0.67607760  0.92571134  0.01548943  1
  Al0+  Al87  1  0.07173128  0.17620468  0.98589886  1
  Al0+  Al88  1  0.42944202  0.32115184  0.65168185  1
  Al0+  Al89  1  0.67851649  0.92879527  0.68277022  1
  Al0+  Al90  1  0.81854166  0.07022035  0.01364442  1
  Al0+  Al91  1  0.07157869  0.67998164  0.65254159  1
  Al0+  Al92  1  0.82315983  0.07233150  0.34960674  1
  Al0+  Al93  1  0.67894517  0.92817133  0.34857052  1
  Al0+  Al94  1  0.67958663  0.42989343  0.01334649  1
  Al0+  Al95  1  0.17898886  0.93005187  0.01447516  1
  Si0+  Si96  1  0.82608575  0.57158829  0.01378469  1
  Si0+  Si97  1  0.17904582  0.93108270  0.67997032  1
  Si0+  Si98  1  0.57286991  0.67473983  0.31722034  1
  Si0+  Si99  1  0.92973848  0.32044020  0.64848500  1
  Si0+  Si100  1  0.18030615  0.42938966  0.34772295  1
  Si0+  Si101  1  0.42787120  0.82212554  0.98304434  1
  Si0+  Si102  1  0.17595753  0.42562353  0.68520535  1
  Si0+  Si103  1  0.32066199  0.07313699  0.68270358  1
  Si0+  Si104  1  0.07285532  0.17948437  0.32107464  1
  Si0+  Si105  1  0.56933640  0.18095837  0.31836100  1
  Si0+  Si106  1  0.32117993  0.07511241  0.01402680  1
  Si0+  Si107  1  0.92930264  0.82333166  0.65034524  1
  Si0+  Si108  1  0.17912913  0.92576470  0.35152878  1
  Si0+  Si109  1  0.82361735  0.07216926  0.68421884  1
  Si0+  Si110  1  0.92675443  0.82227377  0.98255057  1
  Si0+  Si111  1  0.92819776  0.31818942  0.31970362  1
  Si0+  Si112  1  0.67510258  0.42687400  0.35126933  1
  Si0+  Si113  1  0.42636956  0.32182603  0.31686569  1
  Si0+  Si114  1  0.42745940  0.32478899  0.98543676  1
  Si0+  Si115  1  0.32104506  0.57191179  0.34957422  1
  Si0+  Si116  1  0.17602494  0.42764015  0.01615812  1
  Si0+  Si117  1  0.82511548  0.57277988  0.68377730  1
  Si0+  Si118  1  0.07149088  0.17757279  0.64993540  1
  Si0+  Si119  1  0.42707180  0.82257953  0.65154498  1
  O2-  O120  1  0.24982564  0.00977303  0.05886589  1
  O2-  O121  1  0.24624066  -0.00381661  0.39616716  1
  O2-  O122  1  0.24970465  0.00180009  0.72376679  1
  O2-  O123  1  0.24300289  0.49715210  0.06200638  1
  O2-  O124  1  0.24762852  0.50314907  0.39104067  1
  O2-  O125  1  0.24455277  0.49549052  0.72696299  1
  O2-  O126  1  0.74867454  -0.00285272  0.06446551  1
  O2-  O127  1  0.75400959  -0.00249218  0.39906000  1
  O2-  O128  1  0.75193545  0.00625357  0.72694155  1
  O2-  O129  1  0.75607199  0.50379629  0.05797879  1
  O2-  O130  1  0.74143464  0.49862267  0.39363348  1
  O2-  O131  1  0.75323412  0.50799305  0.72836660  1
  O2-  O132  1  -0.00597237  0.24157766  0.27916241  1
  O2-  O133  1  0.00148003  0.24917189  0.60695284  1
  O2-  O134  1  -0.00112482  0.24723684  0.93533744  1
  O2-  O135  1  0.00017215  0.75035886  0.26741055  1
  O2-  O136  1  -0.00600194  0.75074314  0.60592460  1
  O2-  O137  1  -0.00504117  0.75301569  0.93731816  1
  O2-  O138  1  0.50051300  0.25435457  0.27532374  1
  O2-  O139  1  0.49916464  0.24812539  0.59911999  1
  O2-  O140  1  0.49364543  0.25388431  0.94189115  1
  O2-  O141  1  0.50833909  0.74752410  0.27343073  1
  O2-  O142  1  0.49959231  0.75740272  0.60791148  1
  O2-  O143  1  0.49986955  0.75695905  0.93952742  1
  O2-  O144  1  0.07359509  0.17945987  0.09996433  1
  O2-  O145  1  0.07628020  0.18547768  0.42660272  1
  O2-  O146  1  0.07211785  0.17570577  0.75435874  1
  O2-  O147  1  0.07014801  0.68166454  0.09772684  1
  O2-  O148  1  0.07071475  0.67741077  0.43041053  1
  O2-  O149  1  0.07345351  0.68362943  0.76547049  1
  O2-  O150  1  0.56722417  0.18039419  0.10170382  1
  O2-  O151  1  0.56781361  0.18210346  0.42329718  1
  O2-  O152  1  0.57173648  0.17732471  0.76227097  1
  O2-  O153  1  0.56798210  0.67765287  0.10130570  1
  O2-  O154  1  0.56911065  0.67167417  0.42303522  1
  O2-  O155  1  0.56789332  0.67781636  0.76667646  1
  O2-  O156  1  0.18274104  0.42581894  0.24304797  1
  O2-  O157  1  0.17549219  0.42449176  0.57889876  1
  O2-  O158  1  0.17715819  0.42637919  0.91082002  1
  O2-  O159  1  0.18004869  0.92770486  0.24616525  1
  O2-  O160  1  0.17885400  0.93327324  0.57497597  1
  O2-  O161  1  0.18250998  0.92897973  0.90045355  1
  O2-  O162  1  0.67564667  0.42460583  0.24572232  1
  O2-  O163  1  0.68451816  0.43340553  0.56610125  1
  O2-  O164  1  0.67820566  0.43018432  0.90025673  1
  O2-  O165  1  0.67655724  0.93253399  0.23549245  1
  O2-  O166  1  0.67975910  0.92800286  0.56976842  1
  O2-  O167  1  0.67759978  0.92668665  0.90168729  1
  O2-  O168  1  0.42725809  0.32288277  0.09174605  1
  O2-  O169  1  0.42429651  0.32278266  0.42157199  1
  O2-  O170  1  0.42981585  0.31908140  0.76515050  1
  O2-  O171  1  0.42719364  0.82145735  0.08879093  1
  O2-  O172  1  0.43149687  0.81845934  0.43253330  1
  O2-  O173  1  0.42242927  0.82132736  0.75685692  1
  O2-  O174  1  0.92901780  0.32140338  0.09827165  1
  O2-  O175  1  0.93187774  0.32005612  0.42515056  1
  O2-  O176  1  0.92966027  0.32083725  0.75295568  1
  O2-  O177  1  0.92760325  0.82102224  0.08788642  1
  O2-  O178  1  0.92984116  0.81924458  0.43131135  1
  O2-  O179  1  0.93302958  0.82587281  0.75581317  1
  O2-  O180  1  0.31619404  0.07422392  0.23419368  1
  O2-  O181  1  0.31890780  0.07332698  0.57733817  1
  O2-  O182  1  0.32117494  0.07235373  0.90814544  1
  O2-  O183  1  0.32304650  0.56917654  0.24469049  1
  O2-  O184  1  0.31644279  0.57106832  0.56581795  1
  O2-  O185  1  0.32087165  0.56969096  0.90288566  1
  O2-  O186  1  0.81916624  0.07790603  0.23687735  1
  O2-  O187  1  0.82706952  0.06949503  0.57865737  1
  O2-  O188  1  0.81673298  0.06887983  0.89967945  1
  O2-  O189  1  0.82296799  0.56328966  0.23251687  1
  O2-  O190  1  0.82596182  0.56952685  0.57778396  1
  O2-  O191  1  0.82784459  0.57002323  0.90816636  1
  O2-  O192  1  0.05609068  0.08369704  0.27888599  1
  O2-  O193  1  0.04368704  0.08626572  0.60078896  1
  O2-  O194  1  0.04574791  0.07733013  0.93270442  1
  O2-  O195  1  0.04271280  0.57721028  0.26587002  1
  O2-  O196  1  0.04662588  0.58084983  0.59998174  1
  O2-  O197  1  0.04648363  0.58410255  0.92905255  1
  O2-  O198  1  0.53786174  0.09044488  0.27200117  1
  O2-  O199  1  0.54096124  0.07874458  0.59708301  1
  O2-  O200  1  0.53702718  0.08355465  0.93209154  1
  O2-  O201  1  0.54192035  0.58221240  0.27071336  1
  O2-  O202  1  0.53870125  0.58559956  0.59687073  1
  O2-  O203  1  0.53355680  0.58329590  0.93666398  1
  O2-  O204  1  0.16130514  0.21541447  0.27236605  1
  O2-  O205  1  0.16313914  0.20556375  0.60162600  1
  O2-  O206  1  0.16941152  0.20652492  0.93046020  1
  O2-  O207  1  0.17071296  0.70386939  0.26590380  1
  O2-  O208  1  0.16650697  0.71479015  0.59734093  1
  O2-  O209  1  0.16849920  0.71687599  0.93408629  1
  O2-  O210  1  0.66200742  0.20872238  0.27263294  1
  O2-  O211  1  0.67140489  0.20651118  0.59597261  1
  O2-  O212  1  0.66344486  0.21139780  0.93255211  1
  O2-  O213  1  0.66885983  0.69318191  0.27504288  1
  O2-  O214  1  0.67086208  0.70714083  0.60238885  1
  O2-  O215  1  0.66878677  0.70232532  0.93260566  1
  O2-  O216  1  0.08126248  0.45214686  0.06017597  1
  O2-  O217  1  0.08734704  0.45232515  0.39544066  1
  O2-  O218  1  0.08159184  0.45000256  0.72952956  1
  O2-  O219  1  0.08256475  0.95672586  0.06983455  1
  O2-  O220  1  0.08562181  0.94960218  0.39841079  1
  O2-  O221  1  0.08764092  0.95938601  0.72797944  1
  O2-  O222  1  0.58559898  0.46131683  0.07218010  1
  O2-  O223  1  0.57957174  0.44931892  0.39532008  1
  O2-  O224  1  0.58343335  0.45987224  0.73176658  1
  O2-  O225  1  0.57625136  0.95476667  0.06498607  1
  O2-  O226  1  0.58197231  0.96092380  0.40260810  1
  O2-  O227  1  0.58038295  0.95638935  0.73573982  1
  O2-  O228  1  0.20275608  0.33439205  0.06382488  1
  O2-  O229  1  0.21118271  0.33999352  0.39907272  1
  O2-  O230  1  0.20025394  0.33139987  0.73061374  1
  O2-  O231  1  0.21450248  0.83756418  0.07230147  1
  O2-  O232  1  0.20914392  0.83254699  0.39621876  1
  O2-  O233  1  0.20806079  0.83988354  0.72760306  1
  O2-  O234  1  0.71069563  0.33437333  0.06853697  1
  O2-  O235  1  0.70379149  0.33527618  0.39920324  1
  O2-  O236  1  0.71421529  0.33391516  0.73020634  1
  O2-  O237  1  0.70285024  0.82616691  0.06691624  1
  O2-  O238  1  0.70306185  0.82777091  0.40006042  1
  O2-  O239  1  0.71187622  0.83267070  0.73716862  1
  O2-  O240  1  0.45052547  0.41485065  0.26942430  1
  O2-  O241  1  0.45903646  0.41824541  0.59646712  1
  O2-  O242  1  0.45654975  0.41826465  0.94275001  1
  O2-  O243  1  0.45883051  0.91980584  0.26561692  1
  O2-  O244  1  0.44926862  0.91760355  0.60717092  1
  O2-  O245  1  0.44644554  0.91701941  0.93682751  1
  O2-  O246  1  0.96151844  0.40674898  0.27030208  1
  O2-  O247  1  0.95905736  0.41135507  0.59907262  1
  O2-  O248  1  0.95730662  0.41679583  0.92635413  1
  O2-  O249  1  0.95516351  0.92171436  0.26635462  1
  O2-  O250  1  0.95899171  0.91538549  0.60239794  1
  O2-  O251  1  0.95470051  0.91507108  0.93671092  1
  O2-  O252  1  0.33562237  0.29059866  0.26913722  1
  O2-  O253  1  0.32897527  0.29516122  0.59924197  1
  O2-  O254  1  0.33311141  0.30579728  0.93853888  1
  O2-  O255  1  0.33701430  0.79033386  0.26338951  1
  O2-  O256  1  0.33549706  0.79424704  0.60229408  1
  O2-  O257  1  0.33550584  0.79194835  0.93735522  1
  O2-  O258  1  0.83375039  0.29629420  0.27508821  1
  O2-  O259  1  0.83959528  0.29273770  0.59805222  1
  O2-  O260  1  0.82988593  0.29188553  0.92951752  1
  O2-  O261  1  0.82854418  0.79181511  0.26557339  1
  O2-  O262  1  0.83481918  0.80074876  0.60576129  1
  O2-  O263  1  0.83328169  0.79727982  0.93594247  1
  O2-  O264  1  0.41268692  0.04605249  0.06212503  1
  O2-  O265  1  0.41477339  0.04051407  0.40295369  1
  O2-  O266  1  0.41216230  0.04602771  0.73014177  1
  O2-  O267  1  0.41284355  0.53775811  0.07579261  1
  O2-  O268  1  0.41188088  0.54078646  0.39758240  1
  O2-  O269  1  0.41540986  0.53900938  0.73252839  1
  O2-  O270  1  0.91851528  0.04656839  0.06504314  1
  O2-  O271  1  0.92444991  0.05039053  0.40123097  1
  O2-  O272  1  0.91714763  0.04475472  0.73066821  1
  O2-  O273  1  0.91939506  0.54375118  0.05933895  1
  O2-  O274  1  0.91569028  0.53124966  0.40165706  1
  O2-  O275  1  0.91822607  0.54175445  0.72819003  1
  O2-  O276  1  0.30049116  0.17095888  0.05778250  1
  O2-  O277  1  0.28661002  0.16705388  0.40377255  1
  O2-  O278  1  0.29135646  0.16458227  0.72939599  1
  O2-  O279  1  0.28936290  0.66672650  0.07072037  1
  O2-  O280  1  0.29578133  0.66484012  0.39553969  1
  O2-  O281  1  0.28759441  0.66761023  0.73357148  1
  O2-  O282  1  0.78961969  0.16879257  0.06534725  1
  O2-  O283  1  0.79207797  0.16994638  0.40490515  1
  O2-  O284  1  0.80215447  0.16804359  0.72602922  1
  O2-  O285  1  0.80057261  0.66489387  0.05964994  1
  O2-  O286  1  0.79635001  0.66441090  0.40239127  1
  O2-  O287  1  0.80720593  0.66842207  0.72718328  1
