# generated using pymatgen
data_Ca2Al2SiO7
_symmetry_space_group_name_H-M   'P 1'
_cell_length_a   15.46570195
_cell_length_b   15.46772060
_cell_length_c   15.28947620
_cell_angle_alpha   90.00173897
_cell_angle_beta   90.00525756
_cell_angle_gamma   90.02227130
_symmetry_Int_Tables_number   1
_chemical_formula_structural   Ca2Al2SiO7
_chemical_formula_sum   'Ca48 Al48 Si24 O168'
_cell_volume   3657.53530845
_cell_formula_units_Z   24
loop_
 _symmetry_equiv_pos_site_id
 _symmetry_equiv_pos_as_xyz
  1  'x, y, z'
loop_
 _atom_type_symbol
 _atom_type_oxidation_number
  Ca2+  2.0
  Al0+  0.0
  Si0+  0.0
  O2-  -2.0
loop_
 _atom_site_type_symbol
 _atom_site_label
 _atom_site_symmetry_multiplicity
 _atom_site_fract_x
 _atom_site_fract_y
 _atom_site_fract_z
 _atom_site_occupancy
  Ca2+  Ca0  1  0.17364849  0.08596249  0.16792439  1
  Ca2+  Ca1  1  0.17011572  0.07559737  0.51440236  1
  Ca2+  Ca2  1  0.17110919  0.08616392  0.83079870  1
  Ca2+  Ca3  1  0.17756112  0.57903197  0.17339792  1
  Ca2+  Ca4  1  0.17517198  0.58211026  0.51041446  1
  Ca2+  Ca5  1  0.17358051  0.58483868  0.83236511  1
  Ca2+  Ca6  1  0.66499663  0.06860504  0.17037654  1
  Ca2+  Ca7  1  0.66254080  0.07606474  0.50495916  1
  Ca2+  Ca8  1  0.66208007  0.07759868  0.83653694  1
  Ca2+  Ca9  1  0.66607001  0.57584980  0.16579157  1
  Ca2+  Ca10  1  0.66943909  0.57382524  0.51067319  1
  Ca2+  Ca11  1  0.67269515  0.57769823  0.83848031  1
  Ca2+  Ca12  1  0.07934788  0.33854184  0.16008744  1
  Ca2+  Ca13  1  0.08390986  0.34031685  0.50040702  1
  Ca2+  Ca14  1  0.07248947  0.33651935  0.82112460  1
  Ca2+  Ca15  1  0.07479857  0.83241449  0.16552879  1
  Ca2+  Ca16  1  0.08418805  0.82698464  0.49787448  1
  Ca2+  Ca17  1  0.08313000  0.82774924  0.82353414  1
  Ca2+  Ca18  1  0.58778026  0.33670571  0.16169679  1
  Ca2+  Ca19  1  0.58920998  0.33169293  0.49953324  1
  Ca2+  Ca20  1  0.58614229  0.33166606  0.82266377  1
  Ca2+  Ca21  1  0.58192056  0.82900205  0.16086156  1
  Ca2+  Ca22  1  0.57711319  0.82524343  0.49396866  1
  Ca2+  Ca23  1  0.58662922  0.81914340  0.82998623  1
  Ca2+  Ca24  1  0.33279356  0.43143658  0.17387654  1
  Ca2+  Ca25  1  0.32286477  0.42743018  0.50531107  1
  Ca2+  Ca26  1  0.33133727  0.42783474  0.83212907  1
  Ca2+  Ca27  1  0.33907558  0.92118139  0.17011959  1
  Ca2+  Ca28  1  0.33217309  0.91980650  0.50957149  1
  Ca2+  Ca29  1  0.33001238  0.92719081  0.83185601  1
  Ca2+  Ca30  1  0.82630264  0.41820055  0.16581763  1
  Ca2+  Ca31  1  0.82546174  0.41917849  0.51020035  1
  Ca2+  Ca32  1  0.83032990  0.42163984  0.83609645  1
  Ca2+  Ca33  1  0.82103745  0.90976261  0.17256531  1
  Ca2+  Ca34  1  0.83046004  0.91116584  0.50055793  1
  Ca2+  Ca35  1  0.82571572  0.91826711  0.83965370  1
  Ca2+  Ca36  1  0.41668494  0.16992973  0.15996080  1
  Ca2+  Ca37  1  0.41937572  0.16482211  0.50172741  1
  Ca2+  Ca38  1  0.41898531  0.16422769  0.82583896  1
  Ca2+  Ca39  1  0.41876362  0.66714830  0.16142842  1
  Ca2+  Ca40  1  0.41866019  0.66302875  0.49606766  1
  Ca2+  Ca41  1  0.42642353  0.65661327  0.82823364  1
  Ca2+  Ca42  1  0.91944039  0.17622057  0.15812968  1
  Ca2+  Ca43  1  0.92234533  0.17335887  0.50261476  1
  Ca2+  Ca44  1  0.91899730  0.18193998  0.82304727  1
  Ca2+  Ca45  1  0.91229084  0.66773948  0.16312718  1
  Ca2+  Ca46  1  0.92196528  0.66414029  0.50182483  1
  Ca2+  Ca47  1  0.91816210  0.66155236  0.82461211  1
  Al0+  Al48  1  0.00083536  0.00007139  -0.00074349  1
  Al0+  Al49  1  0.00098199  0.00105182  0.32612786  1
  Al0+  Al50  1  -0.00278713  0.00172572  0.66803926  1
  Al0+  Al51  1  -0.00099149  0.50144360  -0.00038247  1
  Al0+  Al52  1  -0.00043547  0.49827768  0.33194555  1
  Al0+  Al53  1  -0.00121129  0.50301542  0.66217767  1
  Al0+  Al54  1  0.49768326  0.00024862  0.00724565  1
  Al0+  Al55  1  0.50223407  -0.00160791  0.33349676  1
  Al0+  Al56  1  0.49953665  -0.00013888  0.66632630  1
  Al0+  Al57  1  0.49883333  0.49985462  0.00336682  1
  Al0+  Al58  1  0.50096291  0.49764260  0.34000615  1
  Al0+  Al59  1  0.50000424  0.49785039  0.66647101  1
  Al0+  Al60  1  0.25086846  0.24865188  0.00319286  1
  Al0+  Al61  1  0.25232829  0.25031364  0.33466128  1
  Al0+  Al62  1  0.25059376  0.25034850  0.66997789  1
  Al0+  Al63  1  0.24887583  0.75285257  0.00406530  1
  Al0+  Al64  1  0.25140471  0.75229113  0.32964222  1
  Al0+  Al65  1  0.24941172  0.75280542  0.67174338  1
  Al0+  Al66  1  0.75107269  0.24869454  -0.00184188  1
  Al0+  Al67  1  0.75251081  0.24774281  0.33413111  1
  Al0+  Al68  1  0.74927500  0.24739609  0.65939572  1
  Al0+  Al69  1  0.74846117  0.74962756  0.00333267  1
  Al0+  Al70  1  0.74992114  0.74955655  0.33446087  1
  Al0+  Al71  1  0.74740233  0.74865312  0.66418505  1
  Al0+  Al72  1  0.32203963  0.07164956  0.68047672  1
  Al0+  Al73  1  0.67973335  0.42596534  0.68122077  1
  Al0+  Al74  1  0.07180335  0.68154895  0.65422623  1
  Al0+  Al75  1  0.56983082  0.17763616  0.65283197  1
  Al0+  Al76  1  0.32042048  0.57417242  0.34895402  1
  Al0+  Al77  1  0.92953059  0.82059331  0.31933876  1
  Al0+  Al78  1  0.57024562  0.67666860  0.65245117  1
  Al0+  Al79  1  0.42933860  0.82133078  0.31958766  1
  Al0+  Al80  1  0.92986613  0.32284017  0.64864587  1
  Al0+  Al81  1  0.32187886  0.57323713  0.68206776  1
  Al0+  Al82  1  0.31891767  0.07056666  0.01570754  1
  Al0+  Al83  1  0.56908235  0.67900756  0.98684719  1
  Al0+  Al84  1  0.81963777  0.57243118  0.68035606  1
  Al0+  Al85  1  0.07267426  0.17882394  0.65194634  1
  Al0+  Al86  1  0.67979853  0.92942145  0.01271458  1
  Al0+  Al87  1  0.67882188  0.42652939  0.01369998  1
  Al0+  Al88  1  0.68126758  0.42716029  0.34821636  1
  Al0+  Al89  1  0.67963227  0.92833471  0.34966826  1
  Al0+  Al90  1  0.17835112  0.42813251  0.34711394  1
  Al0+  Al91  1  0.92955913  0.32152293  0.98553034  1
  Al0+  Al92  1  0.32128408  0.57231732  0.01421482  1
  Al0+  Al93  1  0.17528033  0.92914589  0.68105627  1
  Al0+  Al94  1  0.17713303  0.42995009  0.68169529  1
  Al0+  Al95  1  0.82247964  0.57135602  0.01599579  1
  Si0+  Si96  1  0.67865953  0.92894544  0.68091795  1
  Si0+  Si97  1  0.43050989  0.31903363  0.31781959  1
  Si0+  Si98  1  0.42851881  0.32078716  0.98612480  1
  Si0+  Si99  1  0.17764773  0.93152125  0.34598447  1
  Si0+  Si100  1  0.82403222  0.07057993  0.34997466  1
  Si0+  Si101  1  0.42728601  0.32256930  0.64870146  1
  Si0+  Si102  1  0.82347535  0.07146489  0.01586725  1
  Si0+  Si103  1  0.82259266  0.57243945  0.35051258  1
  Si0+  Si104  1  0.17553292  0.92811385  0.02021824  1
  Si0+  Si105  1  0.42978764  0.82159211  0.65275837  1
  Si0+  Si106  1  0.07390507  0.17794438  0.98268957  1
  Si0+  Si107  1  0.56947257  0.17773114  0.98730146  1
  Si0+  Si108  1  0.07333258  0.17985948  0.31682167  1
  Si0+  Si109  1  0.42659711  0.82432004  0.98220135  1
  Si0+  Si110  1  0.32207469  0.07059913  0.34843806  1
  Si0+  Si111  1  0.82014922  0.07086444  0.68116276  1
  Si0+  Si112  1  0.07147729  0.68103376  0.98599774  1
  Si0+  Si113  1  0.92841306  0.32032148  0.31587060  1
  Si0+  Si114  1  0.92521224  0.82360945  0.65202691  1
  Si0+  Si115  1  0.07225547  0.67719760  0.31526367  1
  Si0+  Si116  1  0.92779892  0.82125711  0.98538440  1
  Si0+  Si117  1  0.17841405  0.42939552  0.01462357  1
  Si0+  Si118  1  0.57263375  0.17826117  0.31648621  1
  Si0+  Si119  1  0.57088144  0.67554215  0.31668993  1
  O2-  O120  1  0.24456287  -0.00332279  0.06414286  1
  O2-  O121  1  0.25162110  -0.00119135  0.38891000  1
  O2-  O122  1  0.24558041  0.00382349  0.72946597  1
  O2-  O123  1  0.24697938  0.49700038  0.06023058  1
  O2-  O124  1  0.24398566  0.50578270  0.39636513  1
  O2-  O125  1  0.24853539  0.50221635  0.73185992  1
  O2-  O126  1  0.75613442  0.00230749  0.06098809  1
  O2-  O127  1  0.75647298  0.00140015  0.39548865  1
  O2-  O128  1  0.75044730  -0.00131257  0.72358838  1
  O2-  O129  1  0.75015593  0.49884347  0.06459288  1
  O2-  O130  1  0.75447403  0.50315232  0.39355710  1
  O2-  O131  1  0.74985165  0.49904902  0.73093117  1
  O2-  O132  1  0.00417774  0.25300784  0.27450925  1
  O2-  O133  1  0.00656721  0.25454861  0.59881653  1
  O2-  O134  1  0.00524343  0.24679047  0.94047741  1
  O2-  O135  1  0.00127970  0.74384534  0.27044070  1
  O2-  O136  1  -0.00266058  0.75797343  0.60909479  1
  O2-  O137  1  -0.00109753  0.75102678  0.94365344  1
  O2-  O138  1  0.50357223  0.25050759  0.27342477  1
  O2-  O139  1  0.49654613  0.25304593  0.60524704  1
  O2-  O140  1  0.50340076  0.25287664  0.94493875  1
  O2-  O141  1  0.50140343  0.74402567  0.27271586  1
  O2-  O142  1  0.49202511  0.74820253  0.60686112  1
  O2-  O143  1  0.49233597  0.75264297  0.93917481  1
  O2-  O144  1  0.07339463  0.17800541  0.08909987  1
  O2-  O145  1  0.07257533  0.17625323  0.42103690  1
  O2-  O146  1  0.06641813  0.17768990  0.76551632  1
  O2-  O147  1  0.07172487  0.68319410  0.09133189  1
  O2-  O148  1  0.07296729  0.67962510  0.42048307  1
  O2-  O149  1  0.07098013  0.68359589  0.76774006  1
  O2-  O150  1  0.56728160  0.17657672  0.09277983  1
  O2-  O151  1  0.57086131  0.17668118  0.42127638  1
  O2-  O152  1  0.56838250  0.17466870  0.76635856  1
  O2-  O153  1  0.56852039  0.68068285  0.10028007  1
  O2-  O154  1  0.57009822  0.67734530  0.42223218  1
  O2-  O155  1  0.57270637  0.68017821  0.76565596  1
  O2-  O156  1  0.18148184  0.42773226  0.23278823  1
  O2-  O157  1  0.18018415  0.43242634  0.56813054  1
  O2-  O158  1  0.17903466  0.42978058  0.90967938  1
  O2-  O159  1  0.17647785  0.93527868  0.24078122  1
  O2-  O160  1  0.17718666  0.92864297  0.56670471  1
  O2-  O161  1  0.17305077  0.92755318  0.91535872  1
  O2-  O162  1  0.68262959  0.42596410  0.23508502  1
  O2-  O163  1  0.68219124  0.42716640  0.56731830  1
  O2-  O164  1  0.67886893  0.42419890  0.90111289  1
  O2-  O165  1  0.67936082  0.93086426  0.23638512  1
  O2-  O166  1  0.67934710  0.93017267  0.57581011  1
  O2-  O167  1  0.68095401  0.93126771  0.89939696  1
  O2-  O168  1  0.42741290  0.31807370  0.09173250  1
  O2-  O169  1  0.42881761  0.31511416  0.42225090  1
  O2-  O170  1  0.42869641  0.32261540  0.75469561  1
  O2-  O171  1  0.42922918  0.82520736  0.08813435  1
  O2-  O172  1  0.43126660  0.82552170  0.43234131  1
  O2-  O173  1  0.43514731  0.82611443  0.75812069  1
  O2-  O174  1  0.93155757  0.31852072  0.09958537  1
  O2-  O175  1  0.92582198  0.31820723  0.42016750  1
  O2-  O176  1  0.92784052  0.31946377  0.76230707  1
  O2-  O177  1  0.92961234  0.82220355  0.09059145  1
  O2-  O178  1  0.93339584  0.82333351  0.43195334  1
  O2-  O179  1  0.92308855  0.82356800  0.75793124  1
  O2-  O180  1  0.32047915  0.07183781  0.24306976  1
  O2-  O181  1  0.32518094  0.06582278  0.56647233  1
  O2-  O182  1  0.32003376  0.07019671  0.90352375  1
  O2-  O183  1  0.32072406  0.57151747  0.23486261  1
  O2-  O184  1  0.32061743  0.57288382  0.56863983  1
  O2-  O185  1  0.32073630  0.57060466  0.90182968  1
  O2-  O186  1  0.82156048  0.07141237  0.24414598  1
  O2-  O187  1  0.82047216  0.06935583  0.57596682  1
  O2-  O188  1  0.82272157  0.06986295  0.91035047  1
  O2-  O189  1  0.82259023  0.57162562  0.24477540  1
  O2-  O190  1  0.81714600  0.57400983  0.56646558  1
  O2-  O191  1  0.82342767  0.57222906  0.90323448  1
  O2-  O192  1  0.04392804  0.09024135  0.26497297  1
  O2-  O193  1  0.03784754  0.08156970  0.59827429  1
  O2-  O194  1  0.04957269  0.08315611  0.93870028  1
  O2-  O195  1  0.04823280  0.58272801  0.26940364  1
  O2-  O196  1  0.04048415  0.58788289  0.59583831  1
  O2-  O197  1  0.04590420  0.58881598  0.93960193  1
  O2-  O198  1  0.54228938  0.08719383  0.26885642  1
  O2-  O199  1  0.53676711  0.08196127  0.59653403  1
  O2-  O200  1  0.53654530  0.08716654  0.94043906  1
  O2-  O201  1  0.54553286  0.58083901  0.27235317  1
  O2-  O202  1  0.54246200  0.57949193  0.59864197  1
  O2-  O203  1  0.53886333  0.58146081  0.93463466  1
  O2-  O204  1  0.16626092  0.20643955  0.26954100  1
  O2-  O205  1  0.17478146  0.19747929  0.60298612  1
  O2-  O206  1  0.16845467  0.20203594  0.93879972  1
  O2-  O207  1  0.16446494  0.70618339  0.26776857  1
  O2-  O208  1  0.16818900  0.71435313  0.60001321  1
  O2-  O209  1  0.16279705  0.71154485  0.93903842  1
  O2-  O210  1  0.66588206  0.20338144  0.27011282  1
  O2-  O211  1  0.66551911  0.20344966  0.59478121  1
  O2-  O212  1  0.66361042  0.19747057  0.94143192  1
  O2-  O213  1  0.66474614  0.70264857  0.27222195  1
  O2-  O214  1  0.66412652  0.71243943  0.59593238  1
  O2-  O215  1  0.66559628  0.71329945  0.93421002  1
  O2-  O216  1  0.08567928  0.45650088  0.06168062  1
  O2-  O217  1  0.07639251  0.44774777  0.39504560  1
  O2-  O218  1  0.07831624  0.45907745  0.73152486  1
  O2-  O219  1  0.08184507  0.95516908  0.06700029  1
  O2-  O220  1  0.08698056  0.96261007  0.39274821  1
  O2-  O221  1  0.07607791  0.95499130  0.73420553  1
  O2-  O222  1  0.58059578  0.45445075  0.06791846  1
  O2-  O223  1  0.58398508  0.45299226  0.40213315  1
  O2-  O224  1  0.57994201  0.45053232  0.73099352  1
  O2-  O225  1  0.58502128  0.96240573  0.06881172  1
  O2-  O226  1  0.58449879  0.96320091  0.40356797  1
  O2-  O227  1  0.58865978  0.95958064  0.72877888  1
  O2-  O228  1  0.20224279  0.33495969  0.06027477  1
  O2-  O229  1  0.21160909  0.33123309  0.39996234  1
  O2-  O230  1  0.20309603  0.33099217  0.73405403  1
  O2-  O231  1  0.20064689  0.83564607  0.06855253  1
  O2-  O232  1  0.20115470  0.83770197  0.38986784  1
  O2-  O233  1  0.20620341  0.83435442  0.73852671  1
  O2-  O234  1  0.70729867  0.32716212  0.06677791  1
  O2-  O235  1  0.71215864  0.32934262  0.39974064  1
  O2-  O236  1  0.70668984  0.32528306  0.72964228  1
  O2-  O237  1  0.71045766  0.83477041  0.06939033  1
  O2-  O238  1  0.70892181  0.83128969  0.40265428  1
  O2-  O239  1  0.70662255  0.83752596  0.72786984  1
  O2-  O240  1  0.45771621  0.41203617  0.27203716  1
  O2-  O241  1  0.45345907  0.41447389  0.60017332  1
  O2-  O242  1  0.45205500  0.41341993  0.93993503  1
  O2-  O243  1  0.46355680  0.91734899  0.26414938  1
  O2-  O244  1  0.46133748  0.91200233  0.60304460  1
  O2-  O245  1  0.45556166  0.91794050  0.93827640  1
  O2-  O246  1  0.95158255  0.41340910  0.26820635  1
  O2-  O247  1  0.95333049  0.42172098  0.59529935  1
  O2-  O248  1  0.95932839  0.41866475  0.93302828  1
  O2-  O249  1  0.96187217  0.91602805  0.26169958  1
  O2-  O250  1  0.94600117  0.91835543  0.60683664  1
  O2-  O251  1  0.95447179  0.91411035  0.93839571  1
  O2-  O252  1  0.34008611  0.28830585  0.26805269  1
  O2-  O253  1  0.33417032  0.29596345  0.60266833  1
  O2-  O254  1  0.33792221  0.28858730  0.93915793  1
  O2-  O255  1  0.33158295  0.79779584  0.26282694  1
  O2-  O256  1  0.33337825  0.80374799  0.61035314  1
  O2-  O257  1  0.33003991  0.80398771  0.94057782  1
  O2-  O258  1  0.83901726  0.28580350  0.26664775  1
  O2-  O259  1  0.83454599  0.28538124  0.59438712  1
  O2-  O260  1  0.83374588  0.28810057  0.93155551  1
  O2-  O261  1  0.83149407  0.79133015  0.26604273  1
  O2-  O262  1  0.83372368  0.79492098  0.60312837  1
  O2-  O263  1  0.83536284  0.79587193  0.93924024  1
  O2-  O264  1  0.41418724  0.04052973  0.07331928  1
  O2-  O265  1  0.41442673  0.04336259  0.39365144  1
  O2-  O266  1  0.41827959  0.03701747  0.73545336  1
  O2-  O267  1  0.41558410  0.53937814  0.07085302  1
  O2-  O268  1  0.41722062  0.54121536  0.40100016  1
  O2-  O269  1  0.41884558  0.53949535  0.73418743  1
  O2-  O270  1  0.91798419  0.04811995  0.06182830  1
  O2-  O271  1  0.91873607  0.04517253  0.39304503  1
  O2-  O272  1  0.91050979  0.04556611  0.73190591  1
  O2-  O273  1  0.92096640  0.54364337  0.07038466  1
  O2-  O274  1  0.91733947  0.54756934  0.39389490  1
  O2-  O275  1  0.91934293  0.54776600  0.73029601  1
  O2-  O276  1  0.28831851  0.16671433  0.07300015  1
  O2-  O277  1  0.29493216  0.16208763  0.39519863  1
  O2-  O278  1  0.30070499  0.17067344  0.73393365  1
  O2-  O279  1  0.29119067  0.66968986  0.06750243  1
  O2-  O280  1  0.29658723  0.67519028  0.39817780  1
  O2-  O281  1  0.29677674  0.67176218  0.73522647  1
  O2-  O282  1  0.79711772  0.16414737  0.06280204  1
  O2-  O283  1  0.79767925  0.16309076  0.39680669  1
  O2-  O284  1  0.78894944  0.16118615  0.72810015  1
  O2-  O285  1  0.79346757  0.66939612  0.06950689  1
  O2-  O286  1  0.79889617  0.66619935  0.39591502  1
  O2-  O287  1  0.79044429  0.67103930  0.73333474  1
