# generated using pymatgen
data_Ca2Al2SiO7
_symmetry_space_group_name_H-M   'P 1'
_cell_length_a   15.45848186
_cell_length_b   15.45823119
_cell_length_c   15.28405188
_cell_angle_alpha   89.99936231
_cell_angle_beta   89.99755070
_cell_angle_gamma   90.01422186
_symmetry_Int_Tables_number   1
_chemical_formula_structural   Ca2Al2SiO7
_chemical_formula_sum   'Ca48 Al48 Si24 O168'
_cell_volume   3652.28894163
_cell_formula_units_Z   24
loop_
 _symmetry_equiv_pos_site_id
 _symmetry_equiv_pos_as_xyz
  1  'x, y, z'
loop_
 _atom_type_symbol
 _atom_type_oxidation_number
  Ca2+  2.0
  Al0+  0.0
  Si0+  0.0
  O2-  -2.0
loop_
 _atom_site_type_symbol
 _atom_site_label
 _atom_site_symmetry_multiplicity
 _atom_site_fract_x
 _atom_site_fract_y
 _atom_site_fract_z
 _atom_site_occupancy
  Ca2+  Ca0  1  0.16681119  0.08462036  0.16529473  1
  Ca2+  Ca1  1  0.16923290  0.08745944  0.50702442  1
  Ca2+  Ca2  1  0.17059797  0.08387684  0.84319235  1
  Ca2+  Ca3  1  0.16147211  0.57263711  0.17323262  1
  Ca2+  Ca4  1  0.16555568  0.58369212  0.49329232  1
  Ca2+  Ca5  1  0.16329262  0.57728857  0.84403169  1
  Ca2+  Ca6  1  0.67487745  0.08798294  0.16463457  1
  Ca2+  Ca7  1  0.67586244  0.07567107  0.51140907  1
  Ca2+  Ca8  1  0.67994457  0.07911802  0.83635822  1
  Ca2+  Ca9  1  0.67706172  0.57424858  0.17034323  1
  Ca2+  Ca10  1  0.66828353  0.57429233  0.50198338  1
  Ca2+  Ca11  1  0.67497907  0.57484298  0.84116110  1
  Ca2+  Ca12  1  0.08483796  0.32852851  0.15579781  1
  Ca2+  Ca13  1  0.08658189  0.32162855  0.49316673  1
  Ca2+  Ca14  1  0.07875934  0.32530732  0.83555821  1
  Ca2+  Ca15  1  0.08993584  0.81829872  0.15935820  1
  Ca2+  Ca16  1  0.07443539  0.82964976  0.49480126  1
  Ca2+  Ca17  1  0.08221464  0.83034208  0.83361573  1
  Ca2+  Ca18  1  0.57863742  0.34276093  0.15936688  1
  Ca2+  Ca19  1  0.58774855  0.33623869  0.49731651  1
  Ca2+  Ca20  1  0.58001674  0.34076740  0.83223306  1
  Ca2+  Ca21  1  0.57005350  0.83131729  0.15984789  1
  Ca2+  Ca22  1  0.57819800  0.83640269  0.49273262  1
  Ca2+  Ca23  1  0.58147496  0.83822536  0.83105933  1
  Ca2+  Ca24  1  0.32151684  0.41619931  0.16970581  1
  Ca2+  Ca25  1  0.32715032  0.42173791  0.49809400  1
  Ca2+  Ca26  1  0.32657088  0.41592221  0.84318503  1
  Ca2+  Ca27  1  0.33088827  0.91491913  0.16457136  1
  Ca2+  Ca28  1  0.33203251  0.92188859  0.50506814  1
  Ca2+  Ca29  1  0.32864463  0.92880037  0.84425127  1
  Ca2+  Ca30  1  0.83314166  0.42343048  0.16944828  1
  Ca2+  Ca31  1  0.82595453  0.42100281  0.50186144  1
  Ca2+  Ca32  1  0.82569421  0.41536765  0.84582679  1
  Ca2+  Ca33  1  0.84030835  0.92611336  0.16589728  1
  Ca2+  Ca34  1  0.83057779  0.91930270  0.51281834  1
  Ca2+  Ca35  1  0.84026360  0.92469152  0.83467012  1
  Ca2+  Ca36  1  0.41952900  0.17345478  0.15486458  1
  Ca2+  Ca37  1  0.41831885  0.16584190  0.49751871  1
  Ca2+  Ca38  1  0.40917052  0.17002707  0.83357116  1
  Ca2+  Ca39  1  0.40661111  0.67523010  0.16209122  1
  Ca2+  Ca40  1  0.41641630  0.67308729  0.48828498  1
  Ca2+  Ca41  1  0.41598718  0.67540738  0.83273371  1
  Ca2+  Ca42  1  0.92611718  0.17503757  0.15636353  1
  Ca2+  Ca43  1  0.92727989  0.16177052  0.49674708  1
  Ca2+  Ca44  1  0.92407981  0.16154836  0.83083586  1
  Ca2+  Ca45  1  0.92256207  0.65783205  0.16088924  1
  Ca2+  Ca46  1  0.91517600  0.67236073  0.49381172  1
  Ca2+  Ca47  1  0.91945064  0.66752360  0.83304072  1
  Al0+  Al48  1  0.00141906  -0.00237527  0.00695293  1
  Al0+  Al49  1  0.00214737  0.00041360  0.32943390  1
  Al0+  Al50  1  0.00171259  -0.00253075  0.66058922  1
  Al0+  Al51  1  0.00013845  0.49839235  -0.00272666  1
  Al0+  Al52  1  -0.00201206  0.49884122  0.34218231  1
  Al0+  Al53  1  0.00073247  0.49839839  0.66401845  1
  Al0+  Al54  1  0.49982096  0.00110794  -0.00135876  1
  Al0+  Al55  1  0.49989441  0.00116007  0.32765601  1
  Al0+  Al56  1  0.49939639  0.00259490  0.67315666  1
  Al0+  Al57  1  0.50036553  0.50232794  -0.00279628  1
  Al0+  Al58  1  0.49991785  0.50110479  0.33982829  1
  Al0+  Al59  1  0.49868863  0.50151358  0.66877074  1
  Al0+  Al60  1  0.25249961  0.25016968  -0.00025050  1
  Al0+  Al61  1  0.25270586  0.24896189  0.33360260  1
  Al0+  Al62  1  0.25022390  0.25234295  0.66472750  1
  Al0+  Al63  1  0.24984698  0.75212494  -0.00952708  1
  Al0+  Al64  1  0.24731228  0.75192412  0.33118558  1
  Al0+  Al65  1  0.25123557  0.74947449  0.66419465  1
  Al0+  Al66  1  0.74816660  0.24840258  0.00508412  1
  Al0+  Al67  1  0.75150797  0.24766940  0.33813880  1
  Al0+  Al68  1  0.74896755  0.25011200  0.67295337  1
  Al0+  Al69  1  0.74958296  0.74982378  0.00374781  1
  Al0+  Al70  1  0.74749732  0.75168317  0.33361676  1
  Al0+  Al71  1  0.74832606  0.74772728  0.66550917  1
  Al0+  Al72  1  0.82237132  0.57132049  0.01414578  1
  Al0+  Al73  1  0.18027443  0.42943268  0.01074014  1
  Al0+  Al74  1  0.17801473  0.42548832  0.34948754  1
  Al0+  Al75  1  0.06699477  0.67894303  0.32032237  1
  Al0+  Al76  1  0.31915956  0.07239044  0.67968170  1
  Al0+  Al77  1  0.07349691  0.17954528  0.31741956  1
  Al0+  Al78  1  0.31855821  0.57365815  0.34635898  1
  Al0+  Al79  1  0.82237189  0.07033217  0.01517183  1
  Al0+  Al80  1  0.67873180  0.42771491  0.34963000  1
  Al0+  Al81  1  0.82448872  0.06917739  0.68093009  1
  Al0+  Al82  1  0.42882656  0.82159476  0.31915092  1
  Al0+  Al83  1  0.92978761  0.81819639  0.65430948  1
  Al0+  Al84  1  0.42916726  0.82176159  0.98284449  1
  Al0+  Al85  1  0.92710245  0.32057408  0.98630659  1
  Al0+  Al86  1  0.43079404  0.32221852  0.98679430  1
  Al0+  Al87  1  0.07060482  0.18051417  0.65295441  1
  Al0+  Al88  1  0.07123543  0.17752156  0.98552510  1
  Al0+  Al89  1  0.67881751  0.42991680  0.68286358  1
  Al0+  Al90  1  0.67797382  0.92620780  0.68118065  1
  Al0+  Al91  1  0.82169045  0.57356603  0.35086323  1
  Al0+  Al92  1  0.32128540  0.07174811  0.01722469  1
  Al0+  Al93  1  0.06978766  0.67766810  0.98666486  1
  Al0+  Al94  1  0.67683447  0.42844076  0.01512423  1
  Al0+  Al95  1  0.17900073  0.92740695  0.01582780  1
  Si0+  Si96  1  0.17913088  0.92947084  0.34960456  1
  Si0+  Si97  1  0.92600083  0.82196741  0.98535956  1
  Si0+  Si98  1  0.56870436  0.67791861  0.65048195  1
  Si0+  Si99  1  0.57235988  0.17893249  0.31989316  1
  Si0+  Si100  1  0.57170962  0.67700023  0.31600137  1
  Si0+  Si101  1  0.32057234  0.57235981  0.68199051  1
  Si0+  Si102  1  0.67699588  0.93193850  0.34587768  1
  Si0+  Si103  1  0.17974777  0.42994486  0.68176359  1
  Si0+  Si104  1  0.32160758  0.57400487  0.01258079  1
  Si0+  Si105  1  0.17890562  0.92586042  0.68129562  1
  Si0+  Si106  1  0.07420258  0.67500818  0.64772508  1
  Si0+  Si107  1  0.43048767  0.82290026  0.65118734  1
  Si0+  Si108  1  0.82334642  0.57134040  0.68346428  1
  Si0+  Si109  1  0.67719298  0.92796621  0.01839573  1
  Si0+  Si110  1  0.32266819  0.07009257  0.34822972  1
  Si0+  Si111  1  0.43153408  0.32191592  0.32039334  1
  Si0+  Si112  1  0.92498398  0.82262492  0.31561981  1
  Si0+  Si113  1  0.92693312  0.31965365  0.31941462  1
  Si0+  Si114  1  0.57351201  0.67981427  0.98191059  1
  Si0+  Si115  1  0.57096260  0.17967136  0.65259416  1
  Si0+  Si116  1  0.42937605  0.32269397  0.64947319  1
  Si0+  Si117  1  0.92501247  0.32227028  0.64907877  1
  Si0+  Si118  1  0.82287079  0.06851974  0.34929628  1
  Si0+  Si119  1  0.57300592  0.17717232  0.98118994  1
  O2-  O120  1  0.24925195  0.00044289  0.06780187  1
  O2-  O121  1  0.24935870  0.00199285  0.39137305  1
  O2-  O122  1  0.24523315  -0.00323121  0.72460724  1
  O2-  O123  1  0.25423733  0.50507027  0.05707944  1
  O2-  O124  1  0.24803679  0.50100152  0.39877994  1
  O2-  O125  1  0.24552356  0.50609875  0.72340072  1
  O2-  O126  1  0.74743968  -0.00497983  0.06281412  1
  O2-  O127  1  0.75299378  -0.00415162  0.39045612  1
  O2-  O128  1  0.75386885  -0.00536703  0.72973991  1
  O2-  O129  1  0.75200246  0.49732912  0.06367620  1
  O2-  O130  1  0.74915912  0.50112908  0.39988001  1
  O2-  O131  1  0.75844928  0.49949441  0.72771082  1
  O2-  O132  1  0.00107287  0.25752372  0.27443729  1
  O2-  O133  1  -0.00687738  0.25243803  0.60497334  1
  O2-  O134  1  -0.00405967  0.24580510  0.93507601  1
  O2-  O135  1  -0.01149953  0.74924241  0.27254747  1
  O2-  O136  1  0.00342458  0.74279202  0.60599980  1
  O2-  O137  1  -0.00646415  0.75192151  0.94166057  1
  O2-  O138  1  0.50676890  0.25506025  0.27911013  1
  O2-  O139  1  0.50148169  0.25184010  0.60824375  1
  O2-  O140  1  0.50611792  0.24860632  0.93820108  1
  O2-  O141  1  0.49992234  0.74311843  0.27260174  1
  O2-  O142  1  0.50172236  0.75307795  0.60742731  1
  O2-  O143  1  0.50586116  0.74910411  0.93599291  1
  O2-  O144  1  0.07069091  0.18096011  0.09924298  1
  O2-  O145  1  0.07170061  0.17716936  0.43125661  1
  O2-  O146  1  0.07280238  0.18217000  0.76519175  1
  O2-  O147  1  0.07103842  0.67728776  0.09970121  1
  O2-  O148  1  0.06782477  0.68591333  0.43379469  1
  O2-  O149  1  0.07648516  0.67398438  0.75302289  1
  O2-  O150  1  0.57115422  0.17548888  0.08750162  1
  O2-  O151  1  0.56965967  0.17457630  0.42519670  1
  O2-  O152  1  0.56987467  0.17949675  0.75695227  1
  O2-  O153  1  0.57289734  0.68104120  0.08736623  1
  O2-  O154  1  0.57151106  0.68058242  0.42220100  1
  O2-  O155  1  0.56483774  0.67593140  0.75520034  1
  O2-  O156  1  0.18079990  0.42353541  0.23627510  1
  O2-  O157  1  0.18287270  0.42842997  0.57681470  1
  O2-  O158  1  0.18184262  0.43068835  0.89694120  1
  O2-  O159  1  0.17979181  0.92791566  0.24519488  1
  O2-  O160  1  0.18209893  0.92393260  0.57511047  1
  O2-  O161  1  0.18088363  0.92679946  0.90170180  1
  O2-  O162  1  0.67837953  0.42763450  0.23697173  1
  O2-  O163  1  0.67746109  0.43248786  0.56979400  1
  O2-  O164  1  0.67625528  0.43291314  0.90131950  1
  O2-  O165  1  0.67495376  0.93607139  0.24122349  1
  O2-  O166  1  0.67599385  0.93002225  0.56665090  1
  O2-  O167  1  0.67737144  0.92890038  0.91293532  1
  O2-  O168  1  0.43145426  0.32175634  0.10032154  1
  O2-  O169  1  0.43017211  0.31838331  0.42599595  1
  O2-  O170  1  0.42805004  0.32359041  0.75427134  1
  O2-  O171  1  0.42993518  0.81886005  0.09618498  1
  O2-  O172  1  0.43288980  0.82489188  0.43305335  1
  O2-  O173  1  0.42981640  0.82027798  0.75575983  1
  O2-  O174  1  0.92967819  0.32097477  0.10024841  1
  O2-  O175  1  0.92400067  0.31312711  0.42525399  1
  O2-  O176  1  0.92691743  0.32476957  0.75408468  1
  O2-  O177  1  0.92532890  0.82149216  0.09099718  1
  O2-  O178  1  0.92645491  0.82527483  0.42153701  1
  O2-  O179  1  0.93243055  0.81747661  0.76713082  1
  O2-  O180  1  0.32540593  0.07012156  0.24403831  1
  O2-  O181  1  0.32066558  0.07019015  0.56558317  1
  O2-  O182  1  0.31958286  0.07096277  0.90335244  1
  O2-  O183  1  0.31775562  0.57232120  0.23316932  1
  O2-  O184  1  0.32255153  0.57276884  0.57716723  1
  O2-  O185  1  0.32040734  0.57207066  0.90613690  1
  O2-  O186  1  0.82122962  0.06938278  0.24443216  1
  O2-  O187  1  0.82205011  0.06756266  0.56646767  1
  O2-  O188  1  0.82256075  0.06733954  0.90227515  1
  O2-  O189  1  0.82099975  0.57270460  0.23782476  1
  O2-  O190  1  0.82063514  0.57203949  0.57791177  1
  O2-  O191  1  0.81944247  0.57366890  0.90020940  1
  O2-  O192  1  0.04142227  0.08306465  0.26443631  1
  O2-  O193  1  0.04517644  0.08249794  0.59767299  1
  O2-  O194  1  0.04549045  0.07618582  0.93730045  1
  O2-  O195  1  0.04221119  0.57801842  0.27242125  1
  O2-  O196  1  0.05108319  0.58063478  0.60167639  1
  O2-  O197  1  0.03962976  0.58290746  0.92919113  1
  O2-  O198  1  0.53981797  0.09105631  0.26800544  1
  O2-  O199  1  0.54048955  0.08821273  0.60409956  1
  O2-  O200  1  0.54582861  0.08473538  0.93409166  1
  O2-  O201  1  0.54911430  0.58169163  0.27329079  1
  O2-  O202  1  0.53492608  0.58839250  0.60120110  1
  O2-  O203  1  0.54628860  0.58767166  0.93376991  1
  O2-  O204  1  0.17254970  0.20601167  0.26694129  1
  O2-  O205  1  0.16629207  0.21579136  0.59732746  1
  O2-  O206  1  0.16920355  0.20861847  0.93393157  1
  O2-  O207  1  0.16211375  0.71366829  0.26655570  1
  O2-  O208  1  0.16774960  0.70289996  0.60134488  1
  O2-  O209  1  0.16408829  0.70986325  0.92809468  1
  O2-  O210  1  0.66659867  0.20098700  0.27472317  1
  O2-  O211  1  0.66355977  0.20564040  0.60462957  1
  O2-  O212  1  0.66763033  0.19913714  0.93686143  1
  O2-  O213  1  0.66364878  0.70656542  0.26885949  1
  O2-  O214  1  0.66182121  0.69993455  0.60314914  1
  O2-  O215  1  0.66706939  0.70601977  0.93539017  1
  O2-  O216  1  0.08423563  0.45886549  0.06440711  1
  O2-  O217  1  0.07983038  0.44930582  0.40449307  1
  O2-  O218  1  0.08554373  0.45251578  0.72663140  1
  O2-  O219  1  0.08079543  0.94844938  0.07144864  1
  O2-  O220  1  0.08658900  0.95762335  0.39651519  1
  O2-  O221  1  0.08428505  0.94794988  0.72426573  1
  O2-  O222  1  0.57927843  0.46243983  0.06733480  1
  O2-  O223  1  0.58044299  0.45501253  0.40480772  1
  O2-  O224  1  0.58213706  0.46480799  0.73467148  1
  O2-  O225  1  0.58446737  0.95663810  0.06433483  1
  O2-  O226  1  0.58718279  0.96543186  0.39490394  1
  O2-  O227  1  0.58214674  0.95920552  0.73574659  1
  O2-  O228  1  0.21436085  0.33526052  0.06583742  1
  O2-  O229  1  0.21469333  0.32932956  0.40424724  1
  O2-  O230  1  0.21405775  0.34095366  0.72937902  1
  O2-  O231  1  0.21372460  0.82917478  0.06621589  1
  O2-  O232  1  0.20800504  0.83951983  0.39942984  1
  O2-  O233  1  0.20617295  0.83238624  0.72719751  1
  O2-  O234  1  0.69542205  0.32773208  0.06610795  1
  O2-  O235  1  0.70756310  0.32846714  0.40336244  1
  O2-  O236  1  0.70161969  0.33149671  0.73553791  1
  O2-  O237  1  0.69905133  0.83382564  0.06460142  1
  O2-  O238  1  0.69636144  0.83773839  0.39189484  1
  O2-  O239  1  0.69914602  0.82532538  0.73127845  1
  O2-  O240  1  0.45496505  0.41556329  0.27530569  1
  O2-  O241  1  0.45754462  0.41506134  0.60272680  1
  O2-  O242  1  0.45835995  0.41949416  0.93057233  1
  O2-  O243  1  0.46382501  0.91607909  0.26332978  1
  O2-  O244  1  0.45712090  0.91618480  0.60565850  1
  O2-  O245  1  0.46031292  0.91890830  0.93033286  1
  O2-  O246  1  0.94480714  0.41699424  0.28015619  1
  O2-  O247  1  0.95193994  0.41567379  0.60171984  1
  O2-  O248  1  0.95752291  0.41659816  0.92995996  1
  O2-  O249  1  0.95631476  0.91444613  0.26930129  1
  O2-  O250  1  0.96051664  0.91280302  0.59498723  1
  O2-  O251  1  0.95461524  0.91466705  0.93988925  1
  O2-  O252  1  0.34190217  0.28965620  0.27222440  1
  O2-  O253  1  0.33900439  0.29324371  0.60011938  1
  O2-  O254  1  0.33600914  0.28956893  0.93019885  1
  O2-  O255  1  0.33148562  0.79378896  0.26655653  1
  O2-  O256  1  0.33860225  0.79411504  0.60311943  1
  O2-  O257  1  0.33565050  0.78973398  0.92413843  1
  O2-  O258  1  0.83553538  0.28776276  0.27194994  1
  O2-  O259  1  0.82996417  0.29794320  0.60497370  1
  O2-  O260  1  0.82621048  0.29475580  0.93734033  1
  O2-  O261  1  0.82851612  0.80539743  0.27208572  1
  O2-  O262  1  0.83159697  0.78980098  0.59963317  1
  O2-  O263  1  0.83144244  0.79922365  0.93943988  1
  O2-  O264  1  0.42099454  0.04352465  0.06790998  1
  O2-  O265  1  0.41420668  0.03923355  0.39602977  1
  O2-  O266  1  0.41492795  0.04403392  0.73493828  1
  O2-  O267  1  0.41611879  0.55227348  0.05719695  1
  O2-  O268  1  0.41703389  0.54742134  0.40163609  1
  O2-  O269  1  0.41017327  0.54129915  0.73104185  1
  O2-  O270  1  0.91663568  0.03864197  0.07263759  1
  O2-  O271  1  0.91547501  0.04057702  0.39512687  1
  O2-  O272  1  0.92332478  0.03909750  0.73142755  1
  O2-  O273  1  0.92038481  0.54206680  0.06586989  1
  O2-  O274  1  0.91818696  0.54656466  0.40818254  1
  O2-  O275  1  0.91984672  0.55043199  0.72555270  1
  O2-  O276  1  0.29539809  0.17046685  0.06961503  1
  O2-  O277  1  0.29825835  0.16221409  0.39676952  1
  O2-  O278  1  0.28999208  0.17022481  0.73115818  1
  O2-  O279  1  0.29581593  0.66810511  0.05510231  1
  O2-  O280  1  0.28885925  0.67180338  0.40138400  1
  O2-  O281  1  0.29729510  0.66619826  0.72825583  1
  O2-  O282  1  0.78878197  0.16446103  0.07220681  1
  O2-  O283  1  0.79370786  0.15856060  0.39877124  1
  O2-  O284  1  0.79434445  0.16650664  0.73337336  1
  O2-  O285  1  0.79400966  0.66948696  0.06847508  1
  O2-  O286  1  0.79140860  0.67352349  0.40200879  1
  O2-  O287  1  0.79392018  0.66341579  0.72943900  1
