# generated using pymatgen
data_Ca2Al2SiO7
_symmetry_space_group_name_H-M   'P 1'
_cell_length_a   15.46094707
_cell_length_b   15.46162964
_cell_length_c   15.28657994
_cell_angle_alpha   89.99107522
_cell_angle_beta   90.00894302
_cell_angle_gamma   90.00986416
_symmetry_Int_Tables_number   1
_chemical_formula_structural   Ca2Al2SiO7
_chemical_formula_sum   'Ca48 Al48 Si24 O168'
_cell_volume   3654.27876673
_cell_formula_units_Z   24
loop_
 _symmetry_equiv_pos_site_id
 _symmetry_equiv_pos_as_xyz
  1  'x, y, z'
loop_
 _atom_type_symbol
 _atom_type_oxidation_number
  Ca2+  2.0
  Al0+  0.0
  Si0+  0.0
  O2-  -2.0
loop_
 _atom_site_type_symbol
 _atom_site_label
 _atom_site_symmetry_multiplicity
 _atom_site_fract_x
 _atom_site_fract_y
 _atom_site_fract_z
 _atom_site_occupancy
  Ca2+  Ca0  1  0.17533979  0.07698798  0.16966019  1
  Ca2+  Ca1  1  0.17179610  0.07097655  0.50316633  1
  Ca2+  Ca2  1  0.17000422  0.07270913  0.84537209  1
  Ca2+  Ca3  1  0.17349631  0.58073038  0.16339411  1
  Ca2+  Ca4  1  0.17488221  0.58059749  0.51272598  1
  Ca2+  Ca5  1  0.17507872  0.58153054  0.83957587  1
  Ca2+  Ca6  1  0.65970142  0.07990526  0.17491852  1
  Ca2+  Ca7  1  0.66305233  0.07571110  0.50022045  1
  Ca2+  Ca8  1  0.67154014  0.08678515  0.83837720  1
  Ca2+  Ca9  1  0.67396761  0.58857551  0.17403014  1
  Ca2+  Ca10  1  0.66357592  0.58559191  0.50033201  1
  Ca2+  Ca11  1  0.66948044  0.58985172  0.84214581  1
  Ca2+  Ca12  1  0.07930762  0.32891967  0.15250865  1
  Ca2+  Ca13  1  0.08366695  0.33451719  0.49602514  1
  Ca2+  Ca14  1  0.08673400  0.33605682  0.83375642  1
  Ca2+  Ca15  1  0.08434001  0.83861120  0.16349777  1
  Ca2+  Ca16  1  0.09012100  0.83164147  0.49917245  1
  Ca2+  Ca17  1  0.08973581  0.83046134  0.82683745  1
  Ca2+  Ca18  1  0.58987878  0.32230310  0.16386246  1
  Ca2+  Ca19  1  0.58428947  0.32781182  0.49118327  1
  Ca2+  Ca20  1  0.58212473  0.32846709  0.83348265  1
  Ca2+  Ca21  1  0.57264818  0.83165199  0.16193568  1
  Ca2+  Ca22  1  0.57802534  0.82446612  0.48851455  1
  Ca2+  Ca23  1  0.57337153  0.82120471  0.83284294  1
  Ca2+  Ca24  1  0.33320842  0.41949153  0.16429807  1
  Ca2+  Ca25  1  0.32861489  0.42348022  0.50990376  1
  Ca2+  Ca26  1  0.32437405  0.42796369  0.83834146  1
  Ca2+  Ca27  1  0.33251952  0.91992250  0.17017165  1
  Ca2+  Ca28  1  0.33099378  0.91552846  0.49784968  1
  Ca2+  Ca29  1  0.32387677  0.91521453  0.84311078  1
  Ca2+  Ca30  1  0.83025686  0.42537343  0.16965395  1
  Ca2+  Ca31  1  0.82528126  0.42081864  0.49619573  1
  Ca2+  Ca32  1  0.83373519  0.42326172  0.84279441  1
  Ca2+  Ca33  1  0.82244083  0.91828907  0.17356856  1
  Ca2+  Ca34  1  0.82468025  0.92072502  0.50284269  1
  Ca2+  Ca35  1  0.83336388  0.92280545  0.83514618  1
  Ca2+  Ca36  1  0.42319335  0.15729414  0.16130606  1
  Ca2+  Ca37  1  0.41765188  0.16909918  0.48928341  1
  Ca2+  Ca38  1  0.41704649  0.16210298  0.83703791  1
  Ca2+  Ca39  1  0.42350593  0.67677607  0.15812416  1
  Ca2+  Ca40  1  0.42329180  0.66968437  0.49292497  1
  Ca2+  Ca41  1  0.41704286  0.66388430  0.82937290  1
  Ca2+  Ca42  1  0.92458910  0.17561299  0.15399538  1
  Ca2+  Ca43  1  0.91566975  0.16427848  0.49752307  1
  Ca2+  Ca44  1  0.92204368  0.17131876  0.83215011  1
  Ca2+  Ca45  1  0.91324878  0.66382471  0.16196724  1
  Ca2+  Ca46  1  0.92563489  0.66119456  0.49666596  1
  Ca2+  Ca47  1  0.92345438  0.66598829  0.83011660  1
  Al0+  Al48  1  -0.00177492  0.00166200  -0.00006013  1
  Al0+  Al49  1  0.00193059  -0.00096177  0.33573346  1
  Al0+  Al50  1  -0.00145451  0.00181108  0.67266554  1
  Al0+  Al51  1  -0.00220129  0.50155314  0.00382333  1
  Al0+  Al52  1  -0.00039025  0.50028080  0.33567512  1
  Al0+  Al53  1  -0.00313598  0.49870176  0.66304324  1
  Al0+  Al54  1  0.50006445  -0.00247379  -0.00929812  1
  Al0+  Al55  1  0.49954821  0.00039209  0.33632560  1
  Al0+  Al56  1  0.50117290  -0.00176782  0.66662452  1
  Al0+  Al57  1  0.50200417  0.49695486  0.00124892  1
  Al0+  Al58  1  0.50074799  0.49827792  0.33276927  1
  Al0+  Al59  1  0.50022866  0.49728650  0.66603318  1
  Al0+  Al60  1  0.25103892  0.24790926  0.00196453  1
  Al0+  Al61  1  0.24966256  0.24949247  0.33579961  1
  Al0+  Al62  1  0.24945171  0.24916625  0.66798011  1
  Al0+  Al63  1  0.24875724  0.74977175  0.00557887  1
  Al0+  Al64  1  0.24901929  0.74874844  0.33189388  1
  Al0+  Al65  1  0.25066315  0.75057370  0.66800548  1
  Al0+  Al66  1  0.75176053  0.25145702  -0.00868797  1
  Al0+  Al67  1  0.75146463  0.25358967  0.33199387  1
  Al0+  Al68  1  0.75122693  0.25026124  0.66893046  1
  Al0+  Al69  1  0.75032649  0.75139563  -0.00065294  1
  Al0+  Al70  1  0.75462318  0.75146284  0.34089517  1
  Al0+  Al71  1  0.74895154  0.75089157  0.66330068  1
  Al0+  Al72  1  0.93103959  0.32327417  0.98333838  1
  Al0+  Al73  1  0.81871425  0.07129285  0.68121422  1
  Al0+  Al74  1  0.17871802  0.42939499  0.01501346  1
  Al0+  Al75  1  0.32443571  0.57151680  0.01700730  1
  Al0+  Al76  1  0.42647277  0.81887430  0.98325352  1
  Al0+  Al77  1  0.17576798  0.42753371  0.68083948  1
  Al0+  Al78  1  0.07288131  0.17837840  0.98416621  1
  Al0+  Al79  1  0.81849132  0.57239813  0.01210663  1
  Al0+  Al80  1  0.82195741  0.57248084  0.35116934  1
  Al0+  Al81  1  0.67831180  0.92994266  0.34599655  1
  Al0+  Al82  1  0.32157507  0.07140770  0.34940676  1
  Al0+  Al83  1  0.18062049  0.93038948  0.68077732  1
  Al0+  Al84  1  0.17786978  0.92743707  0.35054031  1
  Al0+  Al85  1  0.57406323  0.67755618  0.31817227  1
  Al0+  Al86  1  0.42793165  0.82022955  0.31779302  1
  Al0+  Al87  1  0.67818327  0.42887950  0.34778658  1
  Al0+  Al88  1  0.57076995  0.67728383  0.65160229  1
  Al0+  Al89  1  0.57058006  0.17811682  0.98517731  1
  Al0+  Al90  1  0.32365725  0.06935053  0.01430400  1
  Al0+  Al91  1  0.57220817  0.67755709  0.98681850  1
  Al0+  Al92  1  0.17613600  0.92814030  0.01635243  1
  Al0+  Al93  1  0.57046093  0.18072722  0.32209106  1
  Al0+  Al94  1  0.07017486  0.67955860  0.65440948  1
  Al0+  Al95  1  0.32215683  0.57048085  0.68020518  1
  Si0+  Si96  1  0.32415223  0.07279809  0.68357671  1
  Si0+  Si97  1  0.92813778  0.82446473  0.64946275  1
  Si0+  Si98  1  0.82272801  0.07327124  0.34653215  1
  Si0+  Si99  1  0.67709254  0.92643671  0.68591438  1
  Si0+  Si100  1  0.42691774  0.32258868  0.98203187  1
  Si0+  Si101  1  0.81934543  0.57171451  0.68141143  1
  Si0+  Si102  1  0.06889910  0.68056209  0.98763166  1
  Si0+  Si103  1  0.68107146  0.93103593  0.01264064  1
  Si0+  Si104  1  0.67950328  0.42826577  0.68248750  1
  Si0+  Si105  1  0.57279852  0.17952413  0.65135740  1
  Si0+  Si106  1  0.07104990  0.17860552  0.31962982  1
  Si0+  Si107  1  0.67861871  0.42531460  0.01539091  1
  Si0+  Si108  1  0.93080305  0.82258709  0.31932770  1
  Si0+  Si109  1  0.42886632  0.31822560  0.65210779  1
  Si0+  Si110  1  0.07020586  0.67739924  0.31725787  1
  Si0+  Si111  1  0.92700924  0.82286616  0.98586277  1
  Si0+  Si112  1  0.93098939  0.32187559  0.31770895  1
  Si0+  Si113  1  0.42495097  0.32232728  0.31653132  1
  Si0+  Si114  1  0.81979605  0.07359673  0.01512049  1
  Si0+  Si115  1  0.32079309  0.57011134  0.34727061  1
  Si0+  Si116  1  0.07037388  0.17863241  0.65024848  1
  Si0+  Si117  1  0.92719009  0.32065326  0.64771373  1
  Si0+  Si118  1  0.42777553  0.82210618  0.64844994  1
  Si0+  Si119  1  0.17897449  0.42922465  0.34768406  1
  O2-  O120  1  0.24994254  -0.00080559  0.06424433  1
  O2-  O121  1  0.25129618  -0.00188200  0.39979114  1
  O2-  O122  1  0.25638896  0.00353060  0.72685034  1
  O2-  O123  1  0.25300441  0.49791452  0.06670312  1
  O2-  O124  1  0.25141573  0.49763575  0.39041886  1
  O2-  O125  1  0.24488157  0.50288752  0.72856221  1
  O2-  O126  1  0.74742062  0.00534882  0.05784037  1
  O2-  O127  1  0.75154859  0.00781429  0.39135489  1
  O2-  O128  1  0.74462430  -0.00318463  0.72954720  1
  O2-  O129  1  0.74136184  0.50005116  0.05780907  1
  O2-  O130  1  0.74424079  0.50564958  0.40013725  1
  O2-  O131  1  0.74539481  0.50423810  0.72387989  1
  O2-  O132  1  0.00064957  0.24957941  0.27683684  1
  O2-  O133  1  0.00147041  0.25186912  0.60619497  1
  O2-  O134  1  0.00482672  0.25367065  0.93227267  1
  O2-  O135  1  0.00009744  0.75020443  0.27640256  1
  O2-  O136  1  -0.00318722  0.75546445  0.60545907  1
  O2-  O137  1  0.00231908  0.75598531  0.94522499  1
  O2-  O138  1  0.49488933  0.25386853  0.27423918  1
  O2-  O139  1  0.49740499  0.24504555  0.60892556  1
  O2-  O140  1  0.49530196  0.25234813  0.93824915  1
  O2-  O141  1  0.50183374  0.74923123  0.26883055  1
  O2-  O142  1  0.49641984  0.75250205  0.60570354  1
  O2-  O143  1  0.49343076  0.74074341  0.93471615  1
  O2-  O144  1  0.06708931  0.17778726  0.09837632  1
  O2-  O145  1  0.06894423  0.18016455  0.42527551  1
  O2-  O146  1  0.06891449  0.17851309  0.75461369  1
  O2-  O147  1  0.06567034  0.67908615  0.09300543  1
  O2-  O148  1  0.06966930  0.67525464  0.42253884  1
  O2-  O149  1  0.06706669  0.67956904  0.76753423  1
  O2-  O150  1  0.57346003  0.17892581  0.09815544  1
  O2-  O151  1  0.57064503  0.18290055  0.43585414  1
  O2-  O152  1  0.57425855  0.18241983  0.75628006  1
  O2-  O153  1  0.57707495  0.68482887  0.09962121  1
  O2-  O154  1  0.56898437  0.67905159  0.43225971  1
  O2-  O155  1  0.57239925  0.67869828  0.76438928  1
  O2-  O156  1  0.17703583  0.42947446  0.24316457  1
  O2-  O157  1  0.17931456  0.42711097  0.56631497  1
  O2-  O158  1  0.17797631  0.43471091  0.90165827  1
  O2-  O159  1  0.17214704  0.93206809  0.23808522  1
  O2-  O160  1  0.18029436  0.93208060  0.56789145  1
  O2-  O161  1  0.17531432  0.92874551  0.90248307  1
  O2-  O162  1  0.68487688  0.42182429  0.23513511  1
  O2-  O163  1  0.68171792  0.42459756  0.57767373  1
  O2-  O164  1  0.68147192  0.42328554  0.90920048  1
  O2-  O165  1  0.68092416  0.93119469  0.23259475  1
  O2-  O166  1  0.67734044  0.92807798  0.58022620  1
  O2-  O167  1  0.68642272  0.93146055  0.90748017  1
  O2-  O168  1  0.42871945  0.32384537  0.08751260  1
  O2-  O169  1  0.42304567  0.32108769  0.42269004  1
  O2-  O170  1  0.43089637  0.31835247  0.75678414  1
  O2-  O171  1  0.43072031  0.82231425  0.09650319  1
  O2-  O172  1  0.42764536  0.81696430  0.43196014  1
  O2-  O173  1  0.42890709  0.82405086  0.75366984  1
  O2-  O174  1  0.92967940  0.32008405  0.09739838  1
  O2-  O175  1  0.93193863  0.32174331  0.42329248  1
  O2-  O176  1  0.92398192  0.32064242  0.75207116  1
  O2-  O177  1  0.92333723  0.82231799  0.09102796  1
  O2-  O178  1  0.93219675  0.82510978  0.42427084  1
  O2-  O179  1  0.92691728  0.82308941  0.75532797  1
  O2-  O180  1  0.31961756  0.07395895  0.23668889  1
  O2-  O181  1  0.32343513  0.07496411  0.57809252  1
  O2-  O182  1  0.32280397  0.06611820  0.90014812  1
  O2-  O183  1  0.31813466  0.56901871  0.24264809  1
  O2-  O184  1  0.32204341  0.56698882  0.56586297  1
  O2-  O185  1  0.32120912  0.57087822  0.90342145  1
  O2-  O186  1  0.82430899  0.07103983  0.24097085  1
  O2-  O187  1  0.81689204  0.07120196  0.56767480  1
  O2-  O188  1  0.81955369  0.07158104  0.90987693  1
  O2-  O189  1  0.82573007  0.56874420  0.23788790  1
  O2-  O190  1  0.82096175  0.56898237  0.57665796  1
  O2-  O191  1  0.81906188  0.57280084  0.89838238  1
  O2-  O192  1  0.04277566  0.08686093  0.27327221  1
  O2-  O193  1  0.03741112  0.08796490  0.60300604  1
  O2-  O194  1  0.03704572  0.08196118  0.93040837  1
  O2-  O195  1  0.03959761  0.58625004  0.26986265  1
  O2-  O196  1  0.03707510  0.58361914  0.59829619  1
  O2-  O197  1  0.03564703  0.59136965  0.93932226  1
  O2-  O198  1  0.54245176  0.08349864  0.26940964  1
  O2-  O199  1  0.55091887  0.08437677  0.60767264  1
  O2-  O200  1  0.54289945  0.08298365  0.92672223  1
  O2-  O201  1  0.55011154  0.57664667  0.26862821  1
  O2-  O202  1  0.54272989  0.57865003  0.59947000  1
  O2-  O203  1  0.55569501  0.57446161  0.93868171  1
  O2-  O204  1  0.16263835  0.20727660  0.27331985  1
  O2-  O205  1  0.16330647  0.20416409  0.60306124  1
  O2-  O206  1  0.17319744  0.20053765  0.93306179  1
  O2-  O207  1  0.16167920  0.70321050  0.26932760  1
  O2-  O208  1  0.16750309  0.70862204  0.60012520  1
  O2-  O209  1  0.16186226  0.70390403  0.94152607  1
  O2-  O210  1  0.66803740  0.21080773  0.26817932  1
  O2-  O211  1  0.66302297  0.21240150  0.60398171  1
  O2-  O212  1  0.66588693  0.21109100  0.92868350  1
  O2-  O213  1  0.67637810  0.70502281  0.27384371  1
  O2-  O214  1  0.66803577  0.70818073  0.59781852  1
  O2-  O215  1  0.66781031  0.71510862  0.93134660  1
  O2-  O216  1  0.08162699  0.46118917  0.06903748  1
  O2-  O217  1  0.08817649  0.45849527  0.39640100  1
  O2-  O218  1  0.07428882  0.45053170  0.72853609  1
  O2-  O219  1  0.07646843  0.95740649  0.06751541  1
  O2-  O220  1  0.08033165  0.95867601  0.40566611  1
  O2-  O221  1  0.08342758  0.95982595  0.73376692  1
  O2-  O222  1  0.58316645  0.43987125  0.06006107  1
  O2-  O223  1  0.57729662  0.44852141  0.40070982  1
  O2-  O224  1  0.58596975  0.44947977  0.72846211  1
  O2-  O225  1  0.58784273  0.95626556  0.05616523  1
  O2-  O226  1  0.58415373  0.96039184  0.40392257  1
  O2-  O227  1  0.58323258  0.95132778  0.73131266  1
  O2-  O228  1  0.20329064  0.32934303  0.06594226  1
  O2-  O229  1  0.20359696  0.33690131  0.39599272  1
  O2-  O230  1  0.20654884  0.32973763  0.73297355  1
  O2-  O231  1  0.19978114  0.82944651  0.06941778  1
  O2-  O232  1  0.20414391  0.82695247  0.40069310  1
  O2-  O233  1  0.20866389  0.83320945  0.73393109  1
  O2-  O234  1  0.71232501  0.33379936  0.06120627  1
  O2-  O235  1  0.71464729  0.33302179  0.40453542  1
  O2-  O236  1  0.71255237  0.33895471  0.73141540  1
  O2-  O237  1  0.71444316  0.84217779  0.06143670  1
  O2-  O238  1  0.71412075  0.83740929  0.40434464  1
  O2-  O239  1  0.70613574  0.83359587  0.73139636  1
  O2-  O240  1  0.44925418  0.41574976  0.27062486  1
  O2-  O241  1  0.45885258  0.40838734  0.60253821  1
  O2-  O242  1  0.45499990  0.41466418  0.93360574  1
  O2-  O243  1  0.45633826  0.91987156  0.26879771  1
  O2-  O244  1  0.45504126  0.91607753  0.60218079  1
  O2-  O245  1  0.46122454  0.91301023  0.92553756  1
  O2-  O246  1  0.96128172  0.41309889  0.27104575  1
  O2-  O247  1  0.95135897  0.41245983  0.59822908  1
  O2-  O248  1  0.95672417  0.42319639  0.93191330  1
  O2-  O249  1  0.95863911  0.91395730  0.26982110  1
  O2-  O250  1  0.95314574  0.91896220  0.60496080  1
  O2-  O251  1  0.94969145  0.91586016  0.93841068  1
  O2-  O252  1  0.33107539  0.29701227  0.27052860  1
  O2-  O253  1  0.33625502  0.29283009  0.60372381  1
  O2-  O254  1  0.33365875  0.29743074  0.93569708  1
  O2-  O255  1  0.32926032  0.79130669  0.26564270  1
  O2-  O256  1  0.33415459  0.79755346  0.60265750  1
  O2-  O257  1  0.32531898  0.79415615  0.93418131  1
  O2-  O258  1  0.83951143  0.29595939  0.26984346  1
  O2-  O259  1  0.83685631  0.28721104  0.59952023  1
  O2-  O260  1  0.83496238  0.29234662  0.92681886  1
  O2-  O261  1  0.83869176  0.79637049  0.27200804  1
  O2-  O262  1  0.83430907  0.79943508  0.60339785  1
  O2-  O263  1  0.83870160  0.79105633  0.93413080  1
  O2-  O264  1  0.42352488  0.03907879  0.06358802  1
  O2-  O265  1  0.41959517  0.04582694  0.40414548  1
  O2-  O266  1  0.41952524  0.04933757  0.72727983  1
  O2-  O267  1  0.42343329  0.54298854  0.06879980  1
  O2-  O268  1  0.41311606  0.54406828  0.39410559  1
  O2-  O269  1  0.41855560  0.53580474  0.73344987  1
  O2-  O270  1  0.91020955  0.04421803  0.06338526  1
  O2-  O271  1  0.91419259  0.04392688  0.39528609  1
  O2-  O272  1  0.91414241  0.04167730  0.73751342  1
  O2-  O273  1  0.91300920  0.54108031  0.06894640  1
  O2-  O274  1  0.91828238  0.53532781  0.40552267  1
  O2-  O275  1  0.90999526  0.54009029  0.72837607  1
  O2-  O276  1  0.30140348  0.16919473  0.06607049  1
  O2-  O277  1  0.29048384  0.16970597  0.40393626  1
  O2-  O278  1  0.29852371  0.16615047  0.72938903  1
  O2-  O279  1  0.29137393  0.66735828  0.07135027  1
  O2-  O280  1  0.28994624  0.66036743  0.39520029  1
  O2-  O281  1  0.29783750  0.66974857  0.73130254  1
  O2-  O282  1  0.79438200  0.16705565  0.05935975  1
  O2-  O283  1  0.80150933  0.16803231  0.39151525  1
  O2-  O284  1  0.78721083  0.16721649  0.73626066  1
  O2-  O285  1  0.79086712  0.66983556  0.06695086  1
  O2-  O286  1  0.80497709  0.67233179  0.40509582  1
  O2-  O287  1  0.79613579  0.66586731  0.72629702  1
