# generated using pymatgen
data_Ca2Al2SiO7
_symmetry_space_group_name_H-M   'P 1'
_cell_length_a   15.46089207
_cell_length_b   15.46050447
_cell_length_c   15.28604436
_cell_angle_alpha   90.00512838
_cell_angle_beta   90.00246801
_cell_angle_gamma   89.99673594
_symmetry_Int_Tables_number   1
_chemical_formula_structural   Ca2Al2SiO7
_chemical_formula_sum   'Ca48 Al48 Si24 O168'
_cell_volume   3653.87193684
_cell_formula_units_Z   24
loop_
 _symmetry_equiv_pos_site_id
 _symmetry_equiv_pos_as_xyz
  1  'x, y, z'
loop_
 _atom_type_symbol
 _atom_type_oxidation_number
  Ca2+  2.0
  Al0+  0.0
  Si0+  0.0
  O2-  -2.0
loop_
 _atom_site_type_symbol
 _atom_site_label
 _atom_site_symmetry_multiplicity
 _atom_site_fract_x
 _atom_site_fract_y
 _atom_site_fract_z
 _atom_site_occupancy
  Ca2+  Ca0  1  0.17289976  0.06885258  0.17719820  1
  Ca2+  Ca1  1  0.16946063  0.08429337  0.50056357  1
  Ca2+  Ca2  1  0.16413690  0.08021487  0.83852754  1
  Ca2+  Ca3  1  0.16759882  0.58378260  0.17365455  1
  Ca2+  Ca4  1  0.17302506  0.57976850  0.50682347  1
  Ca2+  Ca5  1  0.17005920  0.57837696  0.83208522  1
  Ca2+  Ca6  1  0.66574548  0.07897222  0.17660697  1
  Ca2+  Ca7  1  0.66777861  0.07135423  0.50017991  1
  Ca2+  Ca8  1  0.66102444  0.07813679  0.83717662  1
  Ca2+  Ca9  1  0.67510973  0.59212783  0.17072264  1
  Ca2+  Ca10  1  0.67346751  0.58306565  0.50911845  1
  Ca2+  Ca11  1  0.67195162  0.58205795  0.83448579  1
  Ca2+  Ca12  1  0.06945542  0.33093436  0.16337432  1
  Ca2+  Ca13  1  0.07405892  0.33673966  0.49695482  1
  Ca2+  Ca14  1  0.07448355  0.33322195  0.82266549  1
  Ca2+  Ca15  1  0.09168821  0.82986710  0.16641669  1
  Ca2+  Ca16  1  0.08268852  0.82515184  0.49071059  1
  Ca2+  Ca17  1  0.08121935  0.83527442  0.83080827  1
  Ca2+  Ca18  1  0.57859491  0.32598070  0.16426484  1
  Ca2+  Ca19  1  0.57784088  0.33969705  0.49434510  1
  Ca2+  Ca20  1  0.58968658  0.32852054  0.82855212  1
  Ca2+  Ca21  1  0.57894152  0.83082963  0.16360774  1
  Ca2+  Ca22  1  0.58553571  0.82438871  0.49268793  1
  Ca2+  Ca23  1  0.58413820  0.82186245  0.82743924  1
  Ca2+  Ca24  1  0.33229209  0.41545081  0.17375050  1
  Ca2+  Ca25  1  0.33038402  0.42253011  0.51063574  1
  Ca2+  Ca26  1  0.33119526  0.42239533  0.83023480  1
  Ca2+  Ca27  1  0.33098932  0.91298597  0.17519272  1
  Ca2+  Ca28  1  0.33378860  0.91596751  0.49635777  1
  Ca2+  Ca29  1  0.32740866  0.91370270  0.84170251  1
  Ca2+  Ca30  1  0.83591937  0.42291803  0.17151827  1
  Ca2+  Ca31  1  0.83339247  0.42434098  0.50569761  1
  Ca2+  Ca32  1  0.83787335  0.42431626  0.83516850  1
  Ca2+  Ca33  1  0.82436984  0.92683642  0.17997516  1
  Ca2+  Ca34  1  0.82003004  0.91479188  0.50140743  1
  Ca2+  Ca35  1  0.82529919  0.91625229  0.83440865  1
  Ca2+  Ca36  1  0.41709575  0.16649783  0.16768836  1
  Ca2+  Ca37  1  0.41438180  0.17364715  0.49155723  1
  Ca2+  Ca38  1  0.42303009  0.16516546  0.83276382  1
  Ca2+  Ca39  1  0.43105630  0.67795720  0.16278495  1
  Ca2+  Ca40  1  0.42944887  0.66603377  0.49154356  1
  Ca2+  Ca41  1  0.42523235  0.66836094  0.82782678  1
  Ca2+  Ca42  1  0.90430409  0.17902880  0.16375788  1
  Ca2+  Ca43  1  0.91634902  0.17771203  0.49520580  1
  Ca2+  Ca44  1  0.92203420  0.18048995  0.82240992  1
  Ca2+  Ca45  1  0.91858625  0.66202857  0.16700522  1
  Ca2+  Ca46  1  0.92041843  0.65821092  0.49240887  1
  Ca2+  Ca47  1  0.91109353  0.66330574  0.83011033  1
  Al0+  Al48  1  0.00018508  -0.00072720  0.00606730  1
  Al0+  Al49  1  0.00075614  0.00054153  0.34197217  1
  Al0+  Al50  1  0.00033933  0.00037278  0.66172339  1
  Al0+  Al51  1  -0.00017758  0.50059663  0.00003870  1
  Al0+  Al52  1  -0.00017320  0.49910139  0.32747165  1
  Al0+  Al53  1  0.00131120  0.50071734  0.67016380  1
  Al0+  Al54  1  0.49755118  0.00090718  -0.00674828  1
  Al0+  Al55  1  0.49832701  -0.00000072  0.33949213  1
  Al0+  Al56  1  0.49858905  -0.00076371  0.67106435  1
  Al0+  Al57  1  0.50012401  0.49938079  -0.00181660  1
  Al0+  Al58  1  0.50026775  0.49985517  0.32135221  1
  Al0+  Al59  1  0.50202739  0.50061881  0.67184888  1
  Al0+  Al60  1  0.24935655  0.24983429  0.00098140  1
  Al0+  Al61  1  0.24726583  0.24884526  0.33097010  1
  Al0+  Al62  1  0.25078175  0.24811196  0.66962772  1
  Al0+  Al63  1  0.24967565  0.74827915  -0.00065668  1
  Al0+  Al64  1  0.25096798  0.74785478  0.33060358  1
  Al0+  Al65  1  0.25030107  0.75255642  0.67082414  1
  Al0+  Al66  1  0.74875406  0.25227517  -0.01007388  1
  Al0+  Al67  1  0.74868965  0.25167967  0.33363237  1
  Al0+  Al68  1  0.75102811  0.24871109  0.66261505  1
  Al0+  Al69  1  0.75133014  0.75020601  0.00140077  1
  Al0+  Al70  1  0.75431660  0.74946724  0.33707044  1
  Al0+  Al71  1  0.74880148  0.75147122  0.67090129  1
  Al0+  Al72  1  0.93005823  0.32185040  0.98386716  1
  Al0+  Al73  1  0.82144220  0.07620908  0.34879717  1
  Al0+  Al74  1  0.67839613  0.93063903  0.68307559  1
  Al0+  Al75  1  0.32278226  0.57356899  0.68105628  1
  Al0+  Al76  1  0.82152167  0.56873870  0.34602937  1
  Al0+  Al77  1  0.92958011  0.32336595  0.64865738  1
  Al0+  Al78  1  0.82015122  0.57010050  0.01663082  1
  Al0+  Al79  1  0.67847784  0.42617146  0.68077197  1
  Al0+  Al80  1  0.56924997  0.18046084  0.98669442  1
  Al0+  Al81  1  0.17882567  0.92839298  0.01437090  1
  Al0+  Al82  1  0.07326724  0.17755784  0.65030355  1
  Al0+  Al83  1  0.67851791  0.92815836  0.34757647  1
  Al0+  Al84  1  0.17992153  0.92493843  0.35129858  1
  Al0+  Al85  1  0.17991821  0.42804597  0.68080667  1
  Al0+  Al86  1  0.57029443  0.67926773  0.65234564  1
  Al0+  Al87  1  0.57629455  0.67861718  0.31811432  1
  Al0+  Al88  1  0.32006040  0.07203716  0.34943033  1
  Al0+  Al89  1  0.42585070  0.32175671  0.32131054  1
  Al0+  Al90  1  0.43046048  0.82149553  0.32014921  1
  Al0+  Al91  1  0.57432922  0.67943058  0.98214118  1
  Al0+  Al92  1  0.42770228  0.81997814  0.98324649  1
  Al0+  Al93  1  0.92838503  0.31941005  0.31837622  1
  Al0+  Al94  1  0.82146909  0.57085182  0.68168937  1
  Al0+  Al95  1  0.07044564  0.67929549  0.32063620  1
  Si0+  Si96  1  0.07053604  0.67928350  0.98374802  1
  Si0+  Si97  1  0.92981239  0.82321200  0.98678784  1
  Si0+  Si98  1  0.57092003  0.17563403  0.65032010  1
  Si0+  Si99  1  0.81959243  0.07249690  0.01172405  1
  Si0+  Si100  1  0.92924245  0.82420941  0.31780193  1
  Si0+  Si101  1  0.07168031  0.17608822  0.31494068  1
  Si0+  Si102  1  0.57002185  0.17872596  0.32053126  1
  Si0+  Si103  1  0.42444891  0.32269409  0.98116949  1
  Si0+  Si104  1  0.67835148  0.93077297  0.01399445  1
  Si0+  Si105  1  0.17771519  0.92977464  0.68222068  1
  Si0+  Si106  1  0.32088695  0.07128644  0.68432810  1
  Si0+  Si107  1  0.32224865  0.56840946  0.34480995  1
  Si0+  Si108  1  0.43113364  0.31965769  0.65428547  1
  Si0+  Si109  1  0.07215273  0.68093901  0.65396239  1
  Si0+  Si110  1  0.42636479  0.82290255  0.64927026  1
  Si0+  Si111  1  0.17861860  0.42926930  0.34555475  1
  Si0+  Si112  1  0.32259266  0.07253175  0.01702288  1
  Si0+  Si113  1  0.67563320  0.42919676  0.34654880  1
  Si0+  Si114  1  0.07107063  0.17713739  0.98597104  1
  Si0+  Si115  1  0.92853041  0.82124163  0.65224535  1
  Si0+  Si116  1  0.32152301  0.57000643  0.01707208  1
  Si0+  Si117  1  0.67701383  0.42568841  0.01786765  1
  Si0+  Si118  1  0.82294431  0.07045658  0.68362528  1
  Si0+  Si119  1  0.17917897  0.42931999  0.01651424  1
  O2-  O120  1  0.25480427  0.00242003  0.05935995  1
  O2-  O121  1  0.24971315  -0.00080121  0.40127552  1
  O2-  O122  1  0.24796253  0.00119249  0.72478864  1
  O2-  O123  1  0.25284444  0.49661176  0.06015418  1
  O2-  O124  1  0.25383176  0.49540256  0.38789745  1
  O2-  O125  1  0.25048052  0.50143246  0.73168457  1
  O2-  O126  1  0.74725219  0.00394951  0.05589401  1
  O2-  O127  1  0.75212325  0.00020389  0.39646171  1
  O2-  O128  1  0.75179472  0.00637955  0.73130135  1
  O2-  O129  1  0.74279115  0.49702384  0.06216635  1
  O2-  O130  1  0.74244240  0.49879254  0.39121283  1
  O2-  O131  1  0.75197055  0.49631193  0.73162881  1
  O2-  O132  1  -0.00229690  0.23924675  0.27072044  1
  O2-  O133  1  0.00293412  0.25112336  0.60053198  1
  O2-  O134  1  0.00472496  0.24595876  0.93943175  1
  O2-  O135  1  -0.00016203  0.75771833  0.27272241  1
  O2-  O136  1  -0.00195459  0.74805126  0.61149244  1
  O2-  O137  1  -0.00001454  0.75157416  0.94313107  1
  O2-  O138  1  0.49945268  0.24540029  0.27579267  1
  O2-  O139  1  0.50424346  0.25165438  0.61013190  1
  O2-  O140  1  0.49513300  0.25554959  0.93829327  1
  O2-  O141  1  0.50666478  0.75424828  0.27017280  1
  O2-  O142  1  0.49359752  0.75268938  0.60653285  1
  O2-  O143  1  0.50074478  0.75013208  0.93200681  1
  O2-  O144  1  0.07027803  0.17843888  0.09118587  1
  O2-  O145  1  0.07556212  0.18181310  0.42002916  1
  O2-  O146  1  0.06989826  0.17521169  0.76471606  1
  O2-  O147  1  0.07135258  0.67832205  0.08875387  1
  O2-  O148  1  0.06997281  0.67691501  0.43403675  1
  O2-  O149  1  0.07383153  0.68450907  0.75941418  1
  O2-  O150  1  0.56899085  0.18028386  0.09984578  1
  O2-  O151  1  0.56982244  0.18138170  0.42614141  1
  O2-  O152  1  0.56710043  0.17412711  0.75567810  1
  O2-  O153  1  0.57503608  0.68362530  0.09550683  1
  O2-  O154  1  0.57292093  0.67521577  0.43175434  1
  O2-  O155  1  0.57049375  0.68131781  0.76534853  1
  O2-  O156  1  0.17905785  0.43170448  0.23988089  1
  O2-  O157  1  0.18216068  0.43029177  0.56680631  1
  O2-  O158  1  0.17970553  0.43046487  0.91170169  1
  O2-  O159  1  0.18262616  0.92553578  0.23743087  1
  O2-  O160  1  0.17875160  0.92623057  0.57795173  1
  O2-  O161  1  0.17643819  0.93161398  0.90062590  1
  O2-  O162  1  0.67673883  0.42614041  0.24096966  1
  O2-  O163  1  0.67514633  0.42942816  0.56709310  1
  O2-  O164  1  0.67913134  0.42372469  0.91259658  1
  O2-  O165  1  0.67888915  0.93136272  0.23308972  1
  O2-  O166  1  0.67893283  0.93085120  0.57056184  1
  O2-  O167  1  0.68135579  0.93128452  0.90875567  1
  O2-  O168  1  0.42204776  0.32110084  0.08669016  1
  O2-  O169  1  0.42693666  0.32412757  0.43468661  1
  O2-  O170  1  0.42998945  0.31602281  0.75948061  1
  O2-  O171  1  0.42909808  0.82010617  0.09650257  1
  O2-  O172  1  0.42901964  0.81649168  0.43375096  1
  O2-  O173  1  0.42572287  0.82335585  0.75493865  1
  O2-  O174  1  0.93015672  0.32038298  0.09718497  1
  O2-  O175  1  0.93181733  0.32283503  0.43060295  1
  O2-  O176  1  0.93176220  0.32181014  0.76266297  1
  O2-  O177  1  0.92988704  0.82521768  0.09134938  1
  O2-  O178  1  0.92878363  0.82086135  0.42351871  1
  O2-  O179  1  0.93142615  0.82404215  0.75804744  1
  O2-  O180  1  0.31803435  0.07399616  0.23574585  1
  O2-  O181  1  0.32319747  0.07257191  0.57981715  1
  O2-  O182  1  0.32034305  0.07461999  0.91114666  1
  O2-  O183  1  0.31953836  0.56641842  0.23941772  1
  O2-  O184  1  0.32138861  0.57181205  0.56692904  1
  O2-  O185  1  0.31863323  0.56933764  0.91204060  1
  O2-  O186  1  0.81593701  0.07610259  0.23392252  1
  O2-  O187  1  0.82177800  0.06670930  0.57853327  1
  O2-  O188  1  0.82092010  0.06830338  0.90672987  1
  O2-  O189  1  0.82320489  0.56621747  0.23280192  1
  O2-  O190  1  0.82217243  0.57110487  0.56819727  1
  O2-  O191  1  0.82238290  0.56931158  0.90402121  1
  O2-  O192  1  0.05291301  0.07884382  0.27407210  1
  O2-  O193  1  0.04504881  0.07949257  0.59618579  1
  O2-  O194  1  0.04487955  0.08289110  0.94100962  1
  O2-  O195  1  0.03760223  0.58530478  0.26224521  1
  O2-  O196  1  0.04923383  0.58772997  0.60832847  1
  O2-  O197  1  0.04162169  0.58824805  0.93605082  1
  O2-  O198  1  0.54564697  0.08486764  0.27505030  1
  O2-  O199  1  0.53644544  0.08570028  0.60377194  1
  O2-  O200  1  0.53746752  0.08579045  0.92855436  1
  O2-  O201  1  0.54456437  0.58329992  0.26039303  1
  O2-  O202  1  0.54088871  0.58113093  0.60080957  1
  O2-  O203  1  0.54702576  0.57848857  0.93397712  1
  O2-  O204  1  0.16211478  0.20684344  0.26494419  1
  O2-  O205  1  0.17409357  0.20251810  0.60087288  1
  O2-  O206  1  0.16598684  0.20070090  0.94064709  1
  O2-  O207  1  0.16700411  0.70651030  0.26434911  1
  O2-  O208  1  0.16306032  0.71221321  0.60630094  1
  O2-  O209  1  0.16180124  0.70616437  0.93527322  1
  O2-  O210  1  0.66184951  0.20614054  0.27185380  1
  O2-  O211  1  0.66476503  0.19542567  0.60486076  1
  O2-  O212  1  0.66412304  0.20885725  0.92768182  1
  O2-  O213  1  0.67599225  0.70590311  0.26783675  1
  O2-  O214  1  0.66714985  0.71376320  0.60111106  1
  O2-  O215  1  0.67282151  0.71066056  0.93047772  1
  O2-  O216  1  0.08900216  0.46106338  0.06427524  1
  O2-  O217  1  0.08926113  0.46283799  0.39275430  1
  O2-  O218  1  0.08377617  0.45868697  0.73637578  1
  O2-  O219  1  0.08293763  0.95810779  0.07106585  1
  O2-  O220  1  0.08042149  0.94901868  0.40350018  1
  O2-  O221  1  0.08509858  0.95707733  0.72910590  1
  O2-  O222  1  0.58042175  0.44554456  0.06105421  1
  O2-  O223  1  0.58018208  0.45327380  0.38988040  1
  O2-  O224  1  0.58144558  0.45319916  0.73738043  1
  O2-  O225  1  0.58493039  0.95872782  0.05737031  1
  O2-  O226  1  0.58168395  0.95610433  0.40279714  1
  O2-  O227  1  0.58184941  0.96141015  0.73786892  1
  O2-  O228  1  0.20375137  0.33580834  0.06308797  1
  O2-  O229  1  0.20052254  0.33597827  0.39094316  1
  O2-  O230  1  0.20966797  0.33053541  0.73562645  1
  O2-  O231  1  0.20740339  0.82995368  0.06549076  1
  O2-  O232  1  0.20999626  0.82601380  0.40297305  1
  O2-  O233  1  0.20521929  0.83930639  0.73309234  1
  O2-  O234  1  0.70573692  0.33195548  0.06276825  1
  O2-  O235  1  0.69965582  0.33615653  0.39385980  1
  O2-  O236  1  0.70246099  0.32461785  0.73053639  1
  O2-  O237  1  0.70889646  0.84045699  0.06122911  1
  O2-  O238  1  0.71098479  0.83176169  0.40209609  1
  O2-  O239  1  0.71335702  0.83669657  0.73910768  1
  O2-  O240  1  0.45693815  0.41435932  0.25990265  1
  O2-  O241  1  0.45561337  0.41276012  0.60856920  1
  O2-  O242  1  0.44749321  0.41710257  0.93660356  1
  O2-  O243  1  0.45273277  0.92277637  0.26983825  1
  O2-  O244  1  0.45317821  0.91716645  0.60554810  1
  O2-  O245  1  0.44978690  0.92017753  0.93113111  1
  O2-  O246  1  0.96626616  0.41219865  0.26137451  1
  O2-  O247  1  0.96024492  0.42272293  0.59856724  1
  O2-  O248  1  0.96523596  0.41761771  0.93158819  1
  O2-  O249  1  0.95070629  0.92020203  0.27431877  1
  O2-  O250  1  0.95805396  0.91100889  0.60280189  1
  O2-  O251  1  0.95907571  0.91442627  0.93764102  1
  O2-  O252  1  0.32973416  0.29182315  0.26500466  1
  O2-  O253  1  0.33995072  0.28948522  0.60738604  1
  O2-  O254  1  0.33129704  0.29486094  0.93430876  1
  O2-  O255  1  0.33423671  0.78831636  0.26564829  1
  O2-  O256  1  0.33096332  0.80037806  0.60540138  1
  O2-  O257  1  0.32921170  0.78886826  0.93047241  1
  O2-  O258  1  0.83002616  0.29237286  0.26454502  1
  O2-  O259  1  0.83083378  0.29415531  0.59654501  1
  O2-  O260  1  0.83438377  0.29303767  0.92842643  1
  O2-  O261  1  0.83716186  0.79689352  0.26998776  1
  O2-  O262  1  0.83601911  0.79552173  0.60689880  1
  O2-  O263  1  0.83859691  0.79572726  0.93814104  1
  O2-  O264  1  0.41720573  0.04866508  0.06135104  1
  O2-  O265  1  0.41840815  0.04866251  0.40443271  1
  O2-  O266  1  0.41105292  0.04140544  0.73417107  1
  O2-  O267  1  0.41451717  0.54431918  0.06318831  1
  O2-  O268  1  0.41530343  0.54117018  0.38944487  1
  O2-  O269  1  0.41815013  0.54187874  0.73710514  1
  O2-  O270  1  0.91000676  0.04449701  0.06161488  1
  O2-  O271  1  0.92127651  0.05456926  0.40031406  1
  O2-  O272  1  0.91592076  0.04077433  0.72952354  1
  O2-  O273  1  0.91798762  0.53824898  0.06885291  1
  O2-  O274  1  0.91774624  0.53334363  0.39834077  1
  O2-  O275  1  0.92100125  0.54700460  0.73515672  1
  O2-  O276  1  0.29734557  0.16669136  0.06297287  1
  O2-  O277  1  0.28866127  0.17079262  0.40204035  1
  O2-  O278  1  0.29539525  0.16220858  0.73475785  1
  O2-  O279  1  0.28903745  0.66017184  0.06388715  1
  O2-  O280  1  0.29256186  0.65840929  0.39278841  1
  O2-  O281  1  0.29239700  0.67095832  0.73576728  1
  O2-  O282  1  0.79198520  0.16600880  0.05514157  1
  O2-  O283  1  0.78941902  0.17267131  0.40332595  1
  O2-  O284  1  0.80089756  0.16584937  0.72663966  1
  O2-  O285  1  0.79375665  0.66926073  0.06899814  1
  O2-  O286  1  0.80071019  0.66708707  0.39979884  1
  O2-  O287  1  0.79272808  0.66912580  0.73515763  1
