# generated using pymatgen
data_Ca2Al2SiO7
_symmetry_space_group_name_H-M   'P 1'
_cell_length_a   15.46404815
_cell_length_b   15.46484823
_cell_length_c   15.28856756
_cell_angle_alpha   89.99200307
_cell_angle_beta   90.01888568
_cell_angle_gamma   89.98314019
_symmetry_Int_Tables_number   1
_chemical_formula_structural   Ca2Al2SiO7
_chemical_formula_sum   'Ca48 Al48 Si24 O168'
_cell_volume   3656.24765900
_cell_formula_units_Z   24
loop_
 _symmetry_equiv_pos_site_id
 _symmetry_equiv_pos_as_xyz
  1  'x, y, z'
loop_
 _atom_type_symbol
 _atom_type_oxidation_number
  Ca2+  2.0
  Al0+  0.0
  Si0+  0.0
  O2-  -2.0
loop_
 _atom_site_type_symbol
 _atom_site_label
 _atom_site_symmetry_multiplicity
 _atom_site_fract_x
 _atom_site_fract_y
 _atom_site_fract_z
 _atom_site_occupancy
  Ca2+  Ca0  1  0.17234093  0.08284105  0.17438815  1
  Ca2+  Ca1  1  0.16885495  0.07974747  0.50441084  1
  Ca2+  Ca2  1  0.16956896  0.07020538  0.84423910  1
  Ca2+  Ca3  1  0.16552717  0.58298280  0.16897161  1
  Ca2+  Ca4  1  0.16264377  0.57447928  0.51193345  1
  Ca2+  Ca5  1  0.15453598  0.57906630  0.83352282  1
  Ca2+  Ca6  1  0.66266371  0.08139282  0.17341624  1
  Ca2+  Ca7  1  0.66589918  0.07953351  0.50900872  1
  Ca2+  Ca8  1  0.66974520  0.08600799  0.83175519  1
  Ca2+  Ca9  1  0.66576636  0.58180396  0.17179339  1
  Ca2+  Ca10  1  0.67314261  0.57902974  0.51211794  1
  Ca2+  Ca11  1  0.67159372  0.59360928  0.83418337  1
  Ca2+  Ca12  1  0.08357954  0.31830631  0.16778326  1
  Ca2+  Ca13  1  0.07515935  0.32990137  0.49710035  1
  Ca2+  Ca14  1  0.08203789  0.32605135  0.82623912  1
  Ca2+  Ca15  1  0.09017835  0.83321444  0.16018448  1
  Ca2+  Ca16  1  0.08194482  0.83933312  0.50053089  1
  Ca2+  Ca17  1  0.08697174  0.82671063  0.82275551  1
  Ca2+  Ca18  1  0.57663273  0.31969275  0.16510839  1
  Ca2+  Ca19  1  0.58070429  0.31832829  0.49428073  1
  Ca2+  Ca20  1  0.58212031  0.32107949  0.82812551  1
  Ca2+  Ca21  1  0.58311995  0.83237852  0.16103866  1
  Ca2+  Ca22  1  0.58572326  0.83684141  0.50148268  1
  Ca2+  Ca23  1  0.57701925  0.82979577  0.81968099  1
  Ca2+  Ca24  1  0.33768443  0.41806103  0.17282524  1
  Ca2+  Ca25  1  0.32938543  0.41444447  0.50520489  1
  Ca2+  Ca26  1  0.32770350  0.41771065  0.83314743  1
  Ca2+  Ca27  1  0.32299696  0.92846765  0.17082075  1
  Ca2+  Ca28  1  0.32530336  0.91976725  0.50367472  1
  Ca2+  Ca29  1  0.32628171  0.91515035  0.83516201  1
  Ca2+  Ca30  1  0.83630881  0.41784800  0.17098886  1
  Ca2+  Ca31  1  0.84133736  0.41988945  0.51087730  1
  Ca2+  Ca32  1  0.83807954  0.42128188  0.83076066  1
  Ca2+  Ca33  1  0.82505625  0.91915065  0.17329499  1
  Ca2+  Ca34  1  0.82467979  0.92395453  0.51131287  1
  Ca2+  Ca35  1  0.83100998  0.91535761  0.82680577  1
  Ca2+  Ca36  1  0.42079566  0.15704731  0.16552558  1
  Ca2+  Ca37  1  0.42491086  0.16366580  0.49305190  1
  Ca2+  Ca38  1  0.42653648  0.15399469  0.83191188  1
  Ca2+  Ca39  1  0.42359636  0.67146759  0.15834829  1
  Ca2+  Ca40  1  0.41762248  0.67581731  0.50330834  1
  Ca2+  Ca41  1  0.42729617  0.67347096  0.82398561  1
  Ca2+  Ca42  1  0.93081181  0.16308918  0.16623802  1
  Ca2+  Ca43  1  0.91607623  0.17495466  0.49565876  1
  Ca2+  Ca44  1  0.92030455  0.16848626  0.82529291  1
  Ca2+  Ca45  1  0.92462742  0.67305402  0.16005594  1
  Ca2+  Ca46  1  0.91680187  0.67131957  0.50701115  1
  Ca2+  Ca47  1  0.92365006  0.67468280  0.82292046  1
  Al0+  Al48  1  -0.00377584  0.00019084  0.00000364  1
  Al0+  Al49  1  -0.00325427  -0.00116849  0.33232502  1
  Al0+  Al50  1  0.00079252  -0.00100526  0.67134640  1
  Al0+  Al51  1  -0.00135178  0.50208851  0.00090482  1
  Al0+  Al52  1  0.00074980  0.50267183  0.32904362  1
  Al0+  Al53  1  -0.00049344  0.49859672  0.66994870  1
  Al0+  Al54  1  0.49907645  -0.00063028  -0.00102131  1
  Al0+  Al55  1  0.49750140  -0.00338356  0.33581691  1
  Al0+  Al56  1  0.49948826  -0.00147259  0.66178182  1
  Al0+  Al57  1  0.50123606  0.49857152  -0.00324950  1
  Al0+  Al58  1  0.50211934  0.50013697  0.33278907  1
  Al0+  Al59  1  0.49971613  0.49894665  0.66455701  1
  Al0+  Al60  1  0.24920099  0.25129307  0.00004768  1
  Al0+  Al61  1  0.24969581  0.25287447  0.33201608  1
  Al0+  Al62  1  0.25096632  0.25078464  0.67358305  1
  Al0+  Al63  1  0.25048632  0.74731803  -0.00055952  1
  Al0+  Al64  1  0.25159053  0.74963965  0.33533974  1
  Al0+  Al65  1  0.25334151  0.74773701  0.66206013  1
  Al0+  Al66  1  0.74772978  0.25177998  -0.00102908  1
  Al0+  Al67  1  0.74800308  0.25264207  0.32470647  1
  Al0+  Al68  1  0.75025083  0.25079429  0.66316276  1
  Al0+  Al69  1  0.75222356  0.74909223  -0.00003599  1
  Al0+  Al70  1  0.75196968  0.74920552  0.33619241  1
  Al0+  Al71  1  0.75214497  0.74943888  0.66755086  1
  Al0+  Al72  1  0.82001484  0.56995480  0.68174872  1
  Al0+  Al73  1  0.07140294  0.17824307  0.98521714  1
  Al0+  Al74  1  0.32084392  0.07149139  0.01508741  1
  Al0+  Al75  1  0.57240201  0.67801467  0.98756652  1
  Al0+  Al76  1  0.93099514  0.31881609  0.65573089  1
  Al0+  Al77  1  0.56989847  0.17992687  0.65327810  1
  Al0+  Al78  1  0.42867716  0.32287499  0.31948087  1
  Al0+  Al79  1  0.07136266  0.68067046  0.98658874  1
  Al0+  Al80  1  0.17997904  0.92815922  0.68010661  1
  Al0+  Al81  1  0.92844923  0.32499111  0.31745753  1
  Al0+  Al82  1  0.82118626  0.07427507  0.68107653  1
  Al0+  Al83  1  0.07122028  0.67821762  0.65127826  1
  Al0+  Al84  1  0.93050966  0.82340265  0.65060370  1
  Al0+  Al85  1  0.56834881  0.17521323  0.31760635  1
  Al0+  Al86  1  0.67817145  0.93007023  0.68251211  1
  Al0+  Al87  1  0.67910431  0.92839022  0.34597633  1
  Al0+  Al88  1  0.17910852  0.42928510  0.68126079  1
  Al0+  Al89  1  0.56970525  0.17798934  0.98450967  1
  Al0+  Al90  1  0.17678225  0.92671007  0.01389002  1
  Al0+  Al91  1  0.17677209  0.92802585  0.34962541  1
  Al0+  Al92  1  0.31932660  0.07380371  0.35002554  1
  Al0+  Al93  1  0.06967929  0.17712739  0.32098289  1
  Al0+  Al94  1  0.42897907  0.82160596  0.64905134  1
  Al0+  Al95  1  0.57342978  0.67801633  0.65012567  1
  Si0+  Si96  1  0.81902283  0.07504828  0.01635094  1
  Si0+  Si97  1  0.57259561  0.68051975  0.31879563  1
  Si0+  Si98  1  0.92744343  0.81960450  0.31815706  1
  Si0+  Si99  1  0.07452015  0.17673468  0.65317319  1
  Si0+  Si100  1  0.82232731  0.56963559  0.34862298  1
  Si0+  Si101  1  0.67817477  0.42844242  0.01684229  1
  Si0+  Si102  1  0.92835959  0.32183445  0.98338586  1
  Si0+  Si103  1  0.42718510  0.81886017  0.31549852  1
  Si0+  Si104  1  0.67897613  0.42988337  0.34795877  1
  Si0+  Si105  1  0.32394616  0.57099008  0.34812659  1
  Si0+  Si106  1  0.42731546  0.32352947  0.98172708  1
  Si0+  Si107  1  0.32202534  0.07251710  0.68357291  1
  Si0+  Si108  1  0.42587903  0.32212559  0.65131379  1
  Si0+  Si109  1  0.17838707  0.43218137  0.34713072  1
  Si0+  Si110  1  0.07229882  0.68061243  0.31842347  1
  Si0+  Si111  1  0.67636111  0.42755814  0.68375304  1
  Si0+  Si112  1  0.17703026  0.43026045  0.01759449  1
  Si0+  Si113  1  0.42956834  0.82023251  0.98393868  1
  Si0+  Si114  1  0.32393739  0.57111375  0.68402535  1
  Si0+  Si115  1  0.68076352  0.92871595  0.01312144  1
  Si0+  Si116  1  0.82000351  0.07437312  0.34743805  1
  Si0+  Si117  1  0.92652525  0.82288996  0.98381437  1
  Si0+  Si118  1  0.82020379  0.57073763  0.01772158  1
  Si0+  Si119  1  0.32326177  0.56836154  0.01467054  1
  O2-  O120  1  0.24376867  0.00358350  0.06383136  1
  O2-  O121  1  0.24455135  0.00405413  0.39905750  1
  O2-  O122  1  0.25161944  0.00544259  0.72703871  1
  O2-  O123  1  0.25071619  0.49966731  0.05898357  1
  O2-  O124  1  0.25283597  0.49980952  0.38906521  1
  O2-  O125  1  0.25270896  0.50524501  0.72879972  1
  O2-  O126  1  0.74842019  0.00221397  0.05700249  1
  O2-  O127  1  0.74729914  0.00971079  0.39037398  1
  O2-  O128  1  0.74954508  0.00238574  0.73316259  1
  O2-  O129  1  0.74833283  0.50071718  0.06018738  1
  O2-  O130  1  0.75544508  0.49481945  0.39005919  1
  O2-  O131  1  0.74102082  0.49959419  0.72922203  1
  O2-  O132  1  -0.00347593  0.24858240  0.26957727  1
  O2-  O133  1  0.00302843  0.24226939  0.60886186  1
  O2-  O134  1  -0.00382380  0.25302522  0.93919320  1
  O2-  O135  1  0.00493955  0.75514646  0.27607554  1
  O2-  O136  1  0.00484433  0.75395529  0.59909862  1
  O2-  O137  1  0.00346923  0.76200436  0.94289127  1
  O2-  O138  1  0.49384963  0.24561230  0.26776923  1
  O2-  O139  1  0.49373063  0.25334452  0.60764032  1
  O2-  O140  1  0.49086259  0.24946296  0.93918339  1
  O2-  O141  1  0.50245515  0.75091488  0.27430091  1
  O2-  O142  1  0.50431422  0.75177913  0.59911214  1
  O2-  O143  1  0.49976573  0.75284993  0.94057205  1
  O2-  O144  1  0.07054501  0.17994688  0.09835926  1
  O2-  O145  1  0.06811848  0.17926843  0.43441019  1
  O2-  O146  1  0.07484873  0.18033314  0.75894145  1
  O2-  O147  1  0.06815398  0.67768947  0.10049986  1
  O2-  O148  1  0.07092930  0.67531256  0.42247312  1
  O2-  O149  1  0.06776166  0.67846871  0.76501766  1
  O2-  O150  1  0.57153751  0.17886358  0.09727232  1
  O2-  O151  1  0.57058128  0.17886579  0.43077412  1
  O2-  O152  1  0.56915768  0.18172568  0.76673496  1
  O2-  O153  1  0.57079870  0.67938001  0.10159177  1
  O2-  O154  1  0.57283193  0.67947431  0.42298675  1
  O2-  O155  1  0.56962898  0.67866712  0.76406321  1
  O2-  O156  1  0.17668675  0.43690724  0.24172926  1
  O2-  O157  1  0.18058411  0.42895374  0.56774154  1
  O2-  O158  1  0.17544380  0.43179666  0.91272919  1
  O2-  O159  1  0.18057055  0.92396572  0.23604194  1
  O2-  O160  1  0.18084328  0.93126699  0.56721919  1
  O2-  O161  1  0.18111676  0.92427199  0.90066907  1
  O2-  O162  1  0.67638893  0.43503639  0.24259265  1
  O2-  O163  1  0.67800124  0.42818190  0.57791825  1
  O2-  O164  1  0.67922646  0.42707683  0.91230239  1
  O2-  O165  1  0.68296577  0.92420235  0.23178067  1
  O2-  O166  1  0.67998489  0.93258766  0.56881719  1
  O2-  O167  1  0.68268828  0.92657544  0.90902791  1
  O2-  O168  1  0.43165496  0.32982075  0.08693895  1
  O2-  O169  1  0.43409252  0.32823551  0.43253764  1
  O2-  O170  1  0.42651907  0.32356413  0.75700809  1
  O2-  O171  1  0.43123235  0.81808075  0.09009808  1
  O2-  O172  1  0.42430020  0.81533206  0.41976149  1
  O2-  O173  1  0.42891757  0.81898205  0.76323802  1
  O2-  O174  1  0.92967446  0.32237295  0.08903564  1
  O2-  O175  1  0.93230481  0.32910628  0.43057524  1
  O2-  O176  1  0.93299186  0.31944672  0.76904675  1
  O2-  O177  1  0.92011370  0.81784579  0.08995374  1
  O2-  O178  1  0.92369331  0.81633675  0.42219342  1
  O2-  O179  1  0.93065219  0.82037400  0.76440382  1
  O2-  O180  1  0.31960726  0.06969358  0.23632005  1
  O2-  O181  1  0.32016416  0.07576352  0.57820239  1
  O2-  O182  1  0.32308491  0.06691946  0.90168141  1
  O2-  O183  1  0.32393522  0.57167282  0.24243958  1
  O2-  O184  1  0.32525355  0.56736822  0.57814578  1
  O2-  O185  1  0.32581724  0.56606552  0.91027017  1
  O2-  O186  1  0.82157653  0.06973920  0.24114617  1
  O2-  O187  1  0.81859610  0.07630782  0.56725186  1
  O2-  O188  1  0.81875423  0.07829011  0.91197222  1
  O2-  O189  1  0.82014791  0.57162477  0.24292911  1
  O2-  O190  1  0.82124360  0.56575781  0.56812064  1
  O2-  O191  1  0.82105686  0.57062184  0.91341325  1
  O2-  O192  1  0.04015147  0.07937436  0.26522718  1
  O2-  O193  1  0.05314045  0.08216384  0.60982293  1
  O2-  O194  1  0.03960030  0.08117303  0.93323344  1
  O2-  O195  1  0.04020389  0.59180604  0.26680459  1
  O2-  O196  1  0.03641869  0.58110694  0.59974280  1
  O2-  O197  1  0.03423291  0.58533535  0.93423238  1
  O2-  O198  1  0.54193671  0.07528993  0.26585157  1
  O2-  O199  1  0.54074673  0.08402326  0.59924170  1
  O2-  O200  1  0.54207854  0.08016689  0.93145533  1
  O2-  O201  1  0.54372750  0.58910220  0.27070435  1
  O2-  O202  1  0.54351734  0.57889861  0.59832542  1
  O2-  O203  1  0.54310471  0.58162989  0.93380103  1
  O2-  O204  1  0.16651607  0.20995703  0.26714901  1
  O2-  O205  1  0.16729522  0.20723695  0.60841818  1
  O2-  O206  1  0.16783487  0.21013850  0.93213903  1
  O2-  O207  1  0.16590270  0.70386028  0.27136561  1
  O2-  O208  1  0.17266036  0.69547743  0.60158080  1
  O2-  O209  1  0.17090452  0.70009999  0.93416229  1
  O2-  O210  1  0.66551984  0.20659668  0.26265407  1
  O2-  O211  1  0.66460103  0.21330191  0.59819182  1
  O2-  O212  1  0.66495118  0.21465481  0.93146580  1
  O2-  O213  1  0.66515190  0.70723125  0.27109272  1
  O2-  O214  1  0.67330637  0.70136199  0.59978726  1
  O2-  O215  1  0.67037312  0.70622136  0.93676629  1
  O2-  O216  1  0.08654380  0.46241543  0.06564904  1
  O2-  O217  1  0.08819216  0.46600516  0.39439328  1
  O2-  O218  1  0.08438291  0.46076000  0.73786751  1
  O2-  O219  1  0.07427828  0.94773280  0.06269740  1
  O2-  O220  1  0.07464674  0.95007299  0.39736913  1
  O2-  O221  1  0.08313669  0.95338717  0.73572032  1
  O2-  O222  1  0.58641483  0.45738049  0.06423321  1
  O2-  O223  1  0.59033794  0.46365717  0.39760445  1
  O2-  O224  1  0.58094260  0.44807489  0.72856125  1
  O2-  O225  1  0.58761546  0.95304556  0.05970207  1
  O2-  O226  1  0.58000951  0.94910456  0.39739234  1
  O2-  O227  1  0.57826367  0.95666508  0.73308339  1
  O2-  O228  1  0.20366304  0.33834297  0.06470771  1
  O2-  O229  1  0.20063431  0.33967555  0.39417712  1
  O2-  O230  1  0.21147411  0.33466310  0.73953162  1
  O2-  O231  1  0.20887435  0.82809056  0.06676184  1
  O2-  O232  1  0.20928689  0.82961879  0.40117205  1
  O2-  O233  1  0.21369505  0.83012669  0.73018181  1
  O2-  O234  1  0.70751012  0.33784635  0.06640311  1
  O2-  O235  1  0.70036888  0.33519631  0.39172871  1
  O2-  O236  1  0.70710415  0.33618426  0.73056727  1
  O2-  O237  1  0.71163579  0.83775173  0.06263000  1
  O2-  O238  1  0.71543338  0.83360442  0.40008275  1
  O2-  O239  1  0.70721190  0.83112797  0.73391425  1
  O2-  O240  1  0.46368437  0.41977379  0.26382297  1
  O2-  O241  1  0.44943232  0.41558361  0.60462302  1
  O2-  O242  1  0.45903476  0.41386640  0.93223286  1
  O2-  O243  1  0.45316267  0.91068558  0.26853917  1
  O2-  O244  1  0.45420438  0.91926656  0.59449559  1
  O2-  O245  1  0.45441709  0.91305959  0.93775569  1
  O2-  O246  1  0.96115576  0.42183716  0.26164142  1
  O2-  O247  1  0.96489380  0.41378482  0.60155316  1
  O2-  O248  1  0.95449717  0.41633230  0.93977947  1
  O2-  O249  1  0.94659636  0.91303303  0.27037423  1
  O2-  O250  1  0.95575943  0.92311603  0.59872862  1
  O2-  O251  1  0.93950198  0.91943777  0.94119711  1
  O2-  O252  1  0.32722389  0.30665734  0.26855350  1
  O2-  O253  1  0.33160395  0.29729613  0.60632057  1
  O2-  O254  1  0.33099537  0.30575243  0.93926171  1
  O2-  O255  1  0.33792838  0.78522972  0.26586234  1
  O2-  O256  1  0.33426931  0.78710773  0.59239255  1
  O2-  O257  1  0.33726354  0.79098416  0.93842932  1
  O2-  O258  1  0.82828295  0.30459460  0.26470852  1
  O2-  O259  1  0.83427405  0.29375167  0.59949276  1
  O2-  O260  1  0.83365195  0.29871411  0.93940106  1
  O2-  O261  1  0.83929029  0.78323111  0.26718211  1
  O2-  O262  1  0.83341818  0.79053204  0.59821099  1
  O2-  O263  1  0.83765629  0.78702274  0.93518277  1
  O2-  O264  1  0.41859651  0.03793554  0.06854483  1
  O2-  O265  1  0.41661263  0.04052759  0.40186832  1
  O2-  O266  1  0.41490814  0.04252920  0.72782013  1
  O2-  O267  1  0.41470510  0.53913828  0.06392380  1
  O2-  O268  1  0.41564899  0.54369291  0.39567165  1
  O2-  O269  1  0.41632355  0.54193348  0.73194547  1
  O2-  O270  1  0.91022037  0.04611532  0.06484203  1
  O2-  O271  1  0.91165739  0.04559490  0.39442932  1
  O2-  O272  1  0.91934051  0.04654580  0.73519209  1
  O2-  O273  1  0.91118976  0.54124637  0.06740071  1
  O2-  O274  1  0.91579885  0.54545358  0.39388957  1
  O2-  O275  1  0.91368571  0.53393269  0.73793577  1
  O2-  O276  1  0.29864844  0.17320071  0.06484470  1
  O2-  O277  1  0.29676441  0.17511595  0.40022530  1
  O2-  O278  1  0.30136238  0.16634257  0.73176957  1
  O2-  O279  1  0.29716343  0.66035576  0.06303815  1
  O2-  O280  1  0.29566678  0.66183698  0.39571472  1
  O2-  O281  1  0.30294517  0.66564214  0.72852404  1
  O2-  O282  1  0.78987742  0.16611471  0.06470129  1
  O2-  O283  1  0.79929942  0.17138067  0.38806473  1
  O2-  O284  1  0.79110044  0.17233327  0.73505088  1
  O2-  O285  1  0.79319864  0.66251003  0.06697815  1
  O2-  O286  1  0.79108647  0.65949615  0.39665214  1
  O2-  O287  1  0.79326631  0.66665814  0.73698592  1
