# generated using pymatgen
data_Ca2Al2SiO7
_symmetry_space_group_name_H-M   'P 1'
_cell_length_a   15.46932869
_cell_length_b   15.47193493
_cell_length_c   15.29298775
_cell_angle_alpha   90.00797091
_cell_angle_beta   90.03692328
_cell_angle_gamma   89.99399028
_symmetry_Int_Tables_number   1
_chemical_formula_structural   Ca2Al2SiO7
_chemical_formula_sum   'Ca48 Al48 Si24 O168'
_cell_volume   3660.22970765
_cell_formula_units_Z   24
loop_
 _symmetry_equiv_pos_site_id
 _symmetry_equiv_pos_as_xyz
  1  'x, y, z'
loop_
 _atom_type_symbol
 _atom_type_oxidation_number
  Ca2+  2.0
  Al0+  0.0
  Si0+  0.0
  O2-  -2.0
loop_
 _atom_site_type_symbol
 _atom_site_label
 _atom_site_symmetry_multiplicity
 _atom_site_fract_x
 _atom_site_fract_y
 _atom_site_fract_z
 _atom_site_occupancy
  Ca2+  Ca0  1  0.16749085  0.06489363  0.16983093  1
  Ca2+  Ca1  1  0.17251576  0.07593454  0.50712138  1
  Ca2+  Ca2  1  0.17214902  0.07810396  0.83482072  1
  Ca2+  Ca3  1  0.16591736  0.58605817  0.17553660  1
  Ca2+  Ca4  1  0.15516885  0.57593827  0.50577290  1
  Ca2+  Ca5  1  0.15566776  0.58307025  0.83531519  1
  Ca2+  Ca6  1  0.66237502  0.07170524  0.16677310  1
  Ca2+  Ca7  1  0.66732527  0.06905213  0.50417033  1
  Ca2+  Ca8  1  0.66417763  0.06909294  0.83830132  1
  Ca2+  Ca9  1  0.66359976  0.58581006  0.17436122  1
  Ca2+  Ca10  1  0.66460928  0.58138580  0.51202274  1
  Ca2+  Ca11  1  0.66823899  0.59304769  0.83363486  1
  Ca2+  Ca12  1  0.08421464  0.33398702  0.16544550  1
  Ca2+  Ca13  1  0.09336698  0.32922409  0.49864978  1
  Ca2+  Ca14  1  0.08534122  0.32705548  0.82164973  1
  Ca2+  Ca15  1  0.08442198  0.82649799  0.15621220  1
  Ca2+  Ca16  1  0.08167007  0.82262959  0.49200311  1
  Ca2+  Ca17  1  0.07361123  0.83001930  0.82535413  1
  Ca2+  Ca18  1  0.58845833  0.32683822  0.16083857  1
  Ca2+  Ca19  1  0.58947891  0.33481752  0.49479854  1
  Ca2+  Ca20  1  0.58837536  0.32481265  0.82883155  1
  Ca2+  Ca21  1  0.57646521  0.83255252  0.15903883  1
  Ca2+  Ca22  1  0.57833771  0.83029513  0.49509842  1
  Ca2+  Ca23  1  0.58045634  0.83107074  0.82314023  1
  Ca2+  Ca24  1  0.32763005  0.42379055  0.17438721  1
  Ca2+  Ca25  1  0.32455460  0.42379719  0.50706187  1
  Ca2+  Ca26  1  0.32876986  0.42215753  0.83321868  1
  Ca2+  Ca27  1  0.32700615  0.90359437  0.16796283  1
  Ca2+  Ca28  1  0.33342530  0.91395847  0.50377439  1
  Ca2+  Ca29  1  0.33276097  0.91220321  0.83646503  1
  Ca2+  Ca30  1  0.82634758  0.42280851  0.17515548  1
  Ca2+  Ca31  1  0.82184003  0.42712494  0.50883531  1
  Ca2+  Ca32  1  0.83053862  0.42652899  0.83062561  1
  Ca2+  Ca33  1  0.82162421  0.90653105  0.16539720  1
  Ca2+  Ca34  1  0.82140127  0.90350562  0.50444540  1
  Ca2+  Ca35  1  0.82340792  0.89974054  0.83504901  1
  Ca2+  Ca36  1  0.42298736  0.17080579  0.16213136  1
  Ca2+  Ca37  1  0.41215837  0.16696384  0.50066619  1
  Ca2+  Ca38  1  0.41988074  0.16234145  0.82834843  1
  Ca2+  Ca39  1  0.42703086  0.67671893  0.16493937  1
  Ca2+  Ca40  1  0.42607919  0.67625847  0.49621393  1
  Ca2+  Ca41  1  0.42618824  0.68037435  0.83054835  1
  Ca2+  Ca42  1  0.91488500  0.17045401  0.16321065  1
  Ca2+  Ca43  1  0.92254767  0.16690862  0.50036068  1
  Ca2+  Ca44  1  0.92402372  0.16817756  0.82530607  1
  Ca2+  Ca45  1  0.92808958  0.67218382  0.16249093  1
  Ca2+  Ca46  1  0.92085406  0.66397838  0.50661479  1
  Ca2+  Ca47  1  0.92177838  0.67472666  0.82885908  1
  Al0+  Al48  1  -0.00003010  0.00217518  0.00082081  1
  Al0+  Al49  1  0.00153768  0.00149232  0.33563078  1
  Al0+  Al50  1  -0.00081580  0.00136125  0.65576459  1
  Al0+  Al51  1  -0.00331386  0.49834134  -0.00037008  1
  Al0+  Al52  1  -0.00153268  0.49827860  0.33335598  1
  Al0+  Al53  1  -0.00438059  0.49833597  0.67288978  1
  Al0+  Al54  1  0.49932201  0.00374688  -0.00198677  1
  Al0+  Al55  1  0.50060248  0.00294888  0.33241250  1
  Al0+  Al56  1  0.49987540  0.00231317  0.66958079  1
  Al0+  Al57  1  0.49725043  0.49917760  -0.00172072  1
  Al0+  Al58  1  0.49772511  0.49912129  0.33367326  1
  Al0+  Al59  1  0.49645772  0.49693103  0.66997943  1
  Al0+  Al60  1  0.24967931  0.25094856  0.00269687  1
  Al0+  Al61  1  0.25020566  0.24985250  0.33266124  1
  Al0+  Al62  1  0.25061555  0.24884910  0.67091944  1
  Al0+  Al63  1  0.25296194  0.74558330  -0.00288435  1
  Al0+  Al64  1  0.25180751  0.74928719  0.33204309  1
  Al0+  Al65  1  0.25035746  0.74822578  0.65974110  1
  Al0+  Al66  1  0.74985024  0.25005168  -0.00462200  1
  Al0+  Al67  1  0.75205464  0.25144546  0.33628305  1
  Al0+  Al68  1  0.75059074  0.24910259  0.66858036  1
  Al0+  Al69  1  0.75315671  0.74740444  0.00319184  1
  Al0+  Al70  1  0.75356628  0.74906472  0.33521339  1
  Al0+  Al71  1  0.75097322  0.74733268  0.66776092  1
  Al0+  Al72  1  0.93078955  0.82341224  0.98662424  1
  Al0+  Al73  1  0.57340517  0.67789365  0.32010999  1
  Al0+  Al74  1  0.17948183  0.43101939  0.68120338  1
  Al0+  Al75  1  0.18038953  0.92824626  0.00986547  1
  Al0+  Al76  1  0.42956902  0.82256645  0.98480806  1
  Al0+  Al77  1  0.68166194  0.93032447  0.67938131  1
  Al0+  Al78  1  0.81842719  0.57106517  0.68536970  1
  Al0+  Al79  1  0.07289042  0.18018318  0.65180327  1
  Al0+  Al80  1  0.57008313  0.67806296  0.65282592  1
  Al0+  Al81  1  0.57234757  0.67827204  0.98622251  1
  Al0+  Al82  1  0.67492638  0.42702125  0.68418222  1
  Al0+  Al83  1  0.67789958  0.43020454  0.34486445  1
  Al0+  Al84  1  0.92805415  0.82171841  0.64958940  1
  Al0+  Al85  1  0.07043830  0.67735704  0.65162842  1
  Al0+  Al86  1  0.17849655  0.42972828  0.34661243  1
  Al0+  Al87  1  0.57034416  0.18063919  0.98532715  1
  Al0+  Al88  1  0.67956578  0.92842622  0.01295018  1
  Al0+  Al89  1  0.06904963  0.67850187  0.32040997  1
  Al0+  Al90  1  0.43122699  0.82446960  0.31707550  1
  Al0+  Al91  1  0.31949062  0.06905205  0.68026374  1
  Al0+  Al92  1  0.68005388  0.92938385  0.34600377  1
  Al0+  Al93  1  0.07218739  0.67708464  0.98630021  1
  Al0+  Al94  1  0.42962314  0.82501485  0.65043674  1
  Al0+  Al95  1  0.17996985  0.92658576  0.34683967  1
  Si0+  Si96  1  0.17706904  0.42880396  0.01580230  1
  Si0+  Si97  1  0.17645953  0.92592612  0.68008724  1
  Si0+  Si98  1  0.92834804  0.32059574  0.98423493  1
  Si0+  Si99  1  0.82139241  0.56911604  0.01921753  1
  Si0+  Si100  1  0.82212547  0.07573078  0.01606488  1
  Si0+  Si101  1  0.32175068  0.56897827  0.01713598  1
  Si0+  Si102  1  0.32141963  0.07303851  0.34813356  1
  Si0+  Si103  1  0.42781487  0.31933531  0.65175986  1
  Si0+  Si104  1  0.92963569  0.31862899  0.31817095  1
  Si0+  Si105  1  0.42689188  0.32063924  0.31898643  1
  Si0+  Si106  1  0.32155442  0.07517973  0.01860186  1
  Si0+  Si107  1  0.32155524  0.57171622  0.35162299  1
  Si0+  Si108  1  0.42560101  0.32185264  0.98243977  1
  Si0+  Si109  1  0.07161754  0.18048166  0.98634408  1
  Si0+  Si110  1  0.92710063  0.32063392  0.64867284  1
  Si0+  Si111  1  0.67902470  0.42788458  0.01457760  1
  Si0+  Si112  1  0.92939457  0.82583632  0.31525309  1
  Si0+  Si113  1  0.57332254  0.18205733  0.31915833  1
  Si0+  Si114  1  0.82235383  0.57103980  0.35007230  1
  Si0+  Si115  1  0.07341922  0.17876055  0.31557852  1
  Si0+  Si116  1  0.57181190  0.18031701  0.64984369  1
  Si0+  Si117  1  0.32198155  0.57366700  0.68541385  1
  Si0+  Si118  1  0.82422258  0.07281107  0.68245538  1
  Si0+  Si119  1  0.82292713  0.07444644  0.35010867  1
  O2-  O120  1  0.25716493  0.00114856  0.05975773  1
  O2-  O121  1  0.25704108  0.00029798  0.39124607  1
  O2-  O122  1  0.24728037  -0.00823665  0.72580506  1
  O2-  O123  1  0.24527921  0.50157174  0.05824507  1
  O2-  O124  1  0.24851721  0.50681825  0.39507915  1
  O2-  O125  1  0.24722222  0.51050397  0.73003416  1
  O2-  O126  1  0.75608053  0.00382381  0.05865900  1
  O2-  O127  1  0.75857034  0.00132668  0.39236757  1
  O2-  O128  1  0.76018508  0.00110636  0.72727295  1
  O2-  O129  1  0.74486336  0.50207320  0.05930078  1
  O2-  O130  1  0.74399614  0.51157516  0.39155589  1
  O2-  O131  1  0.74173441  0.50270974  0.73531872  1
  O2-  O132  1  0.00057012  0.24836665  0.27368613  1
  O2-  O133  1  -0.00159990  0.25494894  0.60374709  1
  O2-  O134  1  0.00115486  0.25127885  0.94322134  1
  O2-  O135  1  0.00081540  0.75876720  0.27294079  1
  O2-  O136  1  0.00425860  0.75371461  0.60015154  1
  O2-  O137  1  0.00696174  0.75537361  0.93786170  1
  O2-  O138  1  0.50258280  0.25417335  0.27734828  1
  O2-  O139  1  0.50374572  0.25433155  0.60769204  1
  O2-  O140  1  0.49390356  0.25334580  0.93824182  1
  O2-  O141  1  0.50734886  0.75505101  0.26951296  1
  O2-  O142  1  0.50144041  0.75227192  0.60190992  1
  O2-  O143  1  0.50902457  0.75803206  0.93648170  1
  O2-  O144  1  0.07109821  0.18284184  0.09169061  1
  O2-  O145  1  0.07517025  0.18071622  0.42029748  1
  O2-  O146  1  0.07169479  0.18211856  0.76553301  1
  O2-  O147  1  0.06908661  0.67460694  0.10033794  1
  O2-  O148  1  0.06430817  0.67461088  0.43267813  1
  O2-  O149  1  0.06826093  0.67850835  0.76501171  1
  O2-  O150  1  0.57108545  0.18416545  0.09917973  1
  O2-  O151  1  0.57374616  0.18265728  0.42416327  1
  O2-  O152  1  0.57070806  0.18060958  0.75489690  1
  O2-  O153  1  0.56892074  0.67495084  0.09982775  1
  O2-  O154  1  0.56965560  0.67497154  0.43304485  1
  O2-  O155  1  0.56826833  0.68105967  0.76631205  1
  O2-  O156  1  0.18096626  0.42824172  0.23297234  1
  O2-  O157  1  0.18291685  0.42885676  0.56807224  1
  O2-  O158  1  0.17802981  0.42532149  0.91103990  1
  O2-  O159  1  0.17821916  0.92880465  0.23330544  1
  O2-  O160  1  0.17752618  0.92936221  0.57441642  1
  O2-  O161  1  0.17869468  0.93384453  0.89715629  1
  O2-  O162  1  0.68275227  0.42477546  0.23141040  1
  O2-  O163  1  0.67866431  0.42529305  0.57031934  1
  O2-  O164  1  0.68274435  0.42449580  0.91029885  1
  O2-  O165  1  0.67941234  0.93281661  0.23273289  1
  O2-  O166  1  0.68041004  0.93350958  0.56610402  1
  O2-  O167  1  0.68051588  0.93024158  0.90027805  1
  O2-  O168  1  0.42490812  0.32105830  0.08847996  1
  O2-  O169  1  0.42340517  0.31749642  0.42374109  1
  O2-  O170  1  0.42556624  0.31543355  0.75677708  1
  O2-  O171  1  0.42885574  0.81866672  0.09831569  1
  O2-  O172  1  0.43239447  0.82511722  0.43018544  1
  O2-  O173  1  0.43141712  0.82553784  0.76391902  1
  O2-  O174  1  0.92799362  0.32037599  0.08981527  1
  O2-  O175  1  0.92847536  0.31591619  0.42249928  1
  O2-  O176  1  0.92787693  0.31703682  0.75475016  1
  O2-  O177  1  0.93051332  0.82041295  0.10063408  1
  O2-  O178  1  0.92925391  0.82636284  0.42039742  1
  O2-  O179  1  0.92986387  0.82177394  0.76313788  1
  O2-  O180  1  0.31843568  0.07914044  0.24283242  1
  O2-  O181  1  0.31757779  0.07258121  0.56706657  1
  O2-  O182  1  0.31710077  0.08298441  0.91367092  1
  O2-  O183  1  0.32212386  0.56714254  0.24561334  1
  O2-  O184  1  0.32557730  0.56789507  0.58008431  1
  O2-  O185  1  0.32474196  0.56456276  0.91251734  1
  O2-  O186  1  0.82077755  0.08041228  0.24459419  1
  O2-  O187  1  0.81925822  0.07823449  0.57697043  1
  O2-  O188  1  0.82166251  0.08335546  0.91129004  1
  O2-  O189  1  0.82603592  0.56565327  0.24417602  1
  O2-  O190  1  0.81994261  0.56646737  0.57151218  1
  O2-  O191  1  0.82560497  0.56585189  0.91494443  1
  O2-  O192  1  0.04513984  0.08704614  0.26825261  1
  O2-  O193  1  0.04333868  0.08606434  0.59292657  1
  O2-  O194  1  0.04465753  0.08977411  0.93806893  1
  O2-  O195  1  0.03538687  0.58195426  0.26597018  1
  O2-  O196  1  0.03549429  0.57827883  0.60268826  1
  O2-  O197  1  0.03708583  0.57958187  0.93498074  1
  O2-  O198  1  0.54370704  0.09217491  0.26980438  1
  O2-  O199  1  0.53961745  0.09079618  0.60175054  1
  O2-  O200  1  0.54071470  0.08549724  0.92949861  1
  O2-  O201  1  0.54038791  0.57952201  0.26705810  1
  O2-  O202  1  0.54008457  0.57744528  0.60445493  1
  O2-  O203  1  0.53824886  0.58094846  0.93405934  1
  O2-  O204  1  0.16330929  0.21021348  0.26659277  1
  O2-  O205  1  0.16854435  0.21477272  0.59853540  1
  O2-  O206  1  0.16321349  0.21011339  0.93985245  1
  O2-  O207  1  0.16844641  0.70290875  0.26932690  1
  O2-  O208  1  0.17085738  0.69576396  0.59905647  1
  O2-  O209  1  0.17341592  0.69294296  0.93680364  1
  O2-  O210  1  0.66474104  0.21135222  0.27150755  1
  O2-  O211  1  0.66475607  0.20556873  0.60341266  1
  O2-  O212  1  0.66552900  0.21357225  0.93018025  1
  O2-  O213  1  0.67580034  0.69798126  0.27152049  1
  O2-  O214  1  0.67015297  0.70089635  0.60291156  1
  O2-  O215  1  0.67496043  0.69650454  0.94034057  1
  O2-  O216  1  0.08312909  0.45180823  0.06173758  1
  O2-  O217  1  0.08003352  0.45424722  0.39899479  1
  O2-  O218  1  0.08056477  0.45215166  0.73445288  1
  O2-  O219  1  0.08508168  0.96323524  0.06616823  1
  O2-  O220  1  0.08432244  0.96100300  0.40056693  1
  O2-  O221  1  0.08274109  0.95687669  0.72261656  1
  O2-  O222  1  0.58367399  0.44840393  0.05822412  1
  O2-  O223  1  0.57734674  0.44793069  0.39567866  1
  O2-  O224  1  0.57311872  0.44354020  0.73418465  1
  O2-  O225  1  0.58334497  0.96474133  0.06547840  1
  O2-  O226  1  0.58510279  0.96661663  0.39918561  1
  O2-  O227  1  0.58748952  0.96753152  0.73341422  1
  O2-  O228  1  0.20697817  0.33783877  0.06516873  1
  O2-  O229  1  0.21260372  0.33317244  0.39856739  1
  O2-  O230  1  0.21626225  0.33657641  0.73614354  1
  O2-  O231  1  0.20964731  0.82985586  0.06210194  1
  O2-  O232  1  0.20844981  0.82979215  0.40039147  1
  O2-  O233  1  0.19822866  0.83055797  0.72331246  1
  O2-  O234  1  0.71236705  0.33735562  0.06260644  1
  O2-  O235  1  0.71528856  0.33619456  0.40045137  1
  O2-  O236  1  0.71022527  0.32945043  0.73621892  1
  O2-  O237  1  0.71138647  0.83240735  0.06834459  1
  O2-  O238  1  0.70970377  0.83218499  0.39940840  1
  O2-  O239  1  0.70974138  0.83315933  0.73186894  1
  O2-  O240  1  0.44919422  0.41305281  0.27089778  1
  O2-  O241  1  0.44796304  0.41264067  0.60481935  1
  O2-  O242  1  0.45047517  0.41449079  0.93586192  1
  O2-  O243  1  0.45428103  0.92520493  0.26507680  1
  O2-  O244  1  0.45814518  0.92428847  0.59910972  1
  O2-  O245  1  0.44519968  0.92569219  0.93799580  1
  O2-  O246  1  0.95776893  0.40911256  0.26849152  1
  O2-  O247  1  0.94955543  0.41501885  0.60545017  1
  O2-  O248  1  0.95562296  0.41146044  0.93628811  1
  O2-  O249  1  0.95063289  0.92144949  0.27111973  1
  O2-  O250  1  0.94635713  0.92210730  0.59616277  1
  O2-  O251  1  0.95102951  0.92463861  0.93571874  1
  O2-  O252  1  0.33802009  0.28801734  0.26729530  1
  O2-  O253  1  0.33885129  0.28511491  0.60286698  1
  O2-  O254  1  0.33127802  0.29639627  0.93740484  1
  O2-  O255  1  0.33368558  0.79073894  0.26511301  1
  O2-  O256  1  0.33085542  0.79752758  0.59812777  1
  O2-  O257  1  0.33478835  0.78622548  0.93014715  1
  O2-  O258  1  0.83874037  0.28913012  0.26817921  1
  O2-  O259  1  0.83475568  0.29099306  0.60176479  1
  O2-  O260  1  0.83840176  0.29180728  0.93515178  1
  O2-  O261  1  0.83675770  0.79594113  0.26954679  1
  O2-  O262  1  0.83215786  0.78579413  0.59679065  1
  O2-  O263  1  0.83436765  0.78794020  0.93551540  1
  O2-  O264  1  0.41746617  0.05698905  0.06213305  1
  O2-  O265  1  0.41711752  0.05511557  0.39271025  1
  O2-  O266  1  0.41684949  0.04450300  0.73545645  1
  O2-  O267  1  0.41036172  0.53419876  0.06773503  1
  O2-  O268  1  0.41202567  0.53897699  0.39943584  1
  O2-  O269  1  0.41073678  0.53881449  0.73550502  1
  O2-  O270  1  0.91690465  0.05544230  0.06266283  1
  O2-  O271  1  0.91885007  0.05550874  0.39382716  1
  O2-  O272  1  0.92118312  0.05357476  0.72392558  1
  O2-  O273  1  0.91032199  0.53293662  0.06875253  1
  O2-  O274  1  0.91026575  0.53236752  0.39835501  1
  O2-  O275  1  0.91337442  0.53556549  0.74176921  1
  O2-  O276  1  0.29112909  0.16694309  0.06821641  1
  O2-  O277  1  0.29046637  0.16430801  0.39670678  1
  O2-  O278  1  0.28602796  0.16347636  0.73731928  1
  O2-  O279  1  0.29788598  0.66079928  0.06556948  1
  O2-  O280  1  0.30135108  0.66626711  0.39551348  1
  O2-  O281  1  0.30206672  0.66962928  0.72803133  1
  O2-  O282  1  0.79185348  0.16796293  0.06497504  1
  O2-  O283  1  0.79325202  0.16546771  0.39944737  1
  O2-  O284  1  0.79668659  0.16482817  0.73099341  1
  O2-  O285  1  0.79946673  0.66088426  0.06870670  1
  O2-  O286  1  0.80961833  0.66725888  0.39367923  1
  O2-  O287  1  0.79414525  0.66925898  0.73955574  1
