# generated using pymatgen
data_Ca2Al2SiO7
_symmetry_space_group_name_H-M   'P 1'
_cell_length_a   15.46248942
_cell_length_b   15.46120360
_cell_length_c   15.28608008
_cell_angle_alpha   89.99331121
_cell_angle_beta   90.00788203
_cell_angle_gamma   90.02295500
_symmetry_Int_Tables_number   1
_chemical_formula_structural   Ca2Al2SiO7
_chemical_formula_sum   'Ca48 Al48 Si24 O168'
_cell_volume   3654.42289685
_cell_formula_units_Z   24
loop_
 _symmetry_equiv_pos_site_id
 _symmetry_equiv_pos_as_xyz
  1  'x, y, z'
loop_
 _atom_type_symbol
 _atom_type_oxidation_number
  Ca2+  2.0
  Al0+  0.0
  Si0+  0.0
  O2-  -2.0
loop_
 _atom_site_type_symbol
 _atom_site_label
 _atom_site_symmetry_multiplicity
 _atom_site_fract_x
 _atom_site_fract_y
 _atom_site_fract_z
 _atom_site_occupancy
  Ca2+  Ca0  1  0.16712698  0.08159070  0.16913502  1
  Ca2+  Ca1  1  0.17494490  0.08095634  0.51159556  1
  Ca2+  Ca2  1  0.15822757  0.07702718  0.83578091  1
  Ca2+  Ca3  1  0.16426735  0.57337919  0.17253088  1
  Ca2+  Ca4  1  0.15915775  0.57482010  0.50335084  1
  Ca2+  Ca5  1  0.15826168  0.57193977  0.83837047  1
  Ca2+  Ca6  1  0.67400689  0.07874879  0.17814167  1
  Ca2+  Ca7  1  0.67832673  0.08103087  0.50156999  1
  Ca2+  Ca8  1  0.67318449  0.08677048  0.83298726  1
  Ca2+  Ca9  1  0.67042801  0.57370373  0.17129087  1
  Ca2+  Ca10  1  0.66871705  0.58195867  0.50261542  1
  Ca2+  Ca11  1  0.68118073  0.57916952  0.84089689  1
  Ca2+  Ca12  1  0.08103965  0.33133958  0.15632742  1
  Ca2+  Ca13  1  0.08797063  0.33156450  0.49998165  1
  Ca2+  Ca14  1  0.08786092  0.32567155  0.82957028  1
  Ca2+  Ca15  1  0.08981448  0.82137906  0.16085168  1
  Ca2+  Ca16  1  0.08992404  0.82227851  0.49728552  1
  Ca2+  Ca17  1  0.09321426  0.82249138  0.82881705  1
  Ca2+  Ca18  1  0.57793493  0.34182268  0.15986785  1
  Ca2+  Ca19  1  0.57513116  0.33808306  0.49526723  1
  Ca2+  Ca20  1  0.57075820  0.34327009  0.83199503  1
  Ca2+  Ca21  1  0.58612146  0.82964095  0.16717720  1
  Ca2+  Ca22  1  0.58401151  0.82873531  0.48932786  1
  Ca2+  Ca23  1  0.58036033  0.83234966  0.82868879  1
  Ca2+  Ca24  1  0.32105765  0.41575836  0.17117410  1
  Ca2+  Ca25  1  0.32301726  0.42101724  0.50258352  1
  Ca2+  Ca26  1  0.32418831  0.40772945  0.83498909  1
  Ca2+  Ca27  1  0.32799548  0.92471348  0.17077715  1
  Ca2+  Ca28  1  0.32990655  0.92857803  0.50633813  1
  Ca2+  Ca29  1  0.32068433  0.92242697  0.83458634  1
  Ca2+  Ca30  1  0.82831292  0.41584680  0.16696078  1
  Ca2+  Ca31  1  0.82620735  0.42180742  0.50477442  1
  Ca2+  Ca32  1  0.83585079  0.42601083  0.84246360  1
  Ca2+  Ca33  1  0.82999970  0.92451119  0.17439275  1
  Ca2+  Ca34  1  0.83238365  0.92341320  0.50082956  1
  Ca2+  Ca35  1  0.84186622  0.92515853  0.83278943  1
  Ca2+  Ca36  1  0.41739096  0.17192541  0.16096106  1
  Ca2+  Ca37  1  0.40683055  0.17085215  0.49843560  1
  Ca2+  Ca38  1  0.41242649  0.17822168  0.82655416  1
  Ca2+  Ca39  1  0.42195114  0.65592231  0.16816768  1
  Ca2+  Ca40  1  0.42037855  0.66619550  0.48855275  1
  Ca2+  Ca41  1  0.41804081  0.66766656  0.82892626  1
  Ca2+  Ca42  1  0.92013947  0.17344261  0.15727912  1
  Ca2+  Ca43  1  0.92075637  0.15926670  0.49789547  1
  Ca2+  Ca44  1  0.92515789  0.17261487  0.82908629  1
  Ca2+  Ca45  1  0.92705166  0.66340565  0.16081079  1
  Ca2+  Ca46  1  0.92591474  0.66161182  0.49814411  1
  Ca2+  Ca47  1  0.92514070  0.65923981  0.82938802  1
  Al0+  Al48  1  0.00047017  -0.00240575  0.00374853  1
  Al0+  Al49  1  0.00110162  -0.00104435  0.33459900  1
  Al0+  Al50  1  -0.00147323  -0.00131740  0.66955006  1
  Al0+  Al51  1  0.00049536  0.50060848  0.00224287  1
  Al0+  Al52  1  -0.00169216  0.49775319  0.33211031  1
  Al0+  Al53  1  -0.00105411  0.49900381  0.66923680  1
  Al0+  Al54  1  0.50010460  -0.00020704  -0.00188184  1
  Al0+  Al55  1  0.50009950  0.00087648  0.33931772  1
  Al0+  Al56  1  0.50040023  0.00109752  0.66981229  1
  Al0+  Al57  1  0.50168614  0.50123216  -0.00432287  1
  Al0+  Al58  1  0.49872106  0.50043323  0.33496449  1
  Al0+  Al59  1  0.49851015  0.50008827  0.66100823  1
  Al0+  Al60  1  0.25217433  0.24924762  -0.00324278  1
  Al0+  Al61  1  0.24864989  0.25059193  0.33812066  1
  Al0+  Al62  1  0.25033495  0.25175730  0.66354956  1
  Al0+  Al63  1  0.25199522  0.75185550  0.00015343  1
  Al0+  Al64  1  0.25214750  0.75022230  0.32902142  1
  Al0+  Al65  1  0.25207150  0.75001245  0.66296222  1
  Al0+  Al66  1  0.74949935  0.25011858  -0.00116950  1
  Al0+  Al67  1  0.74941589  0.25086900  0.34164520  1
  Al0+  Al68  1  0.74713928  0.24962779  0.67132282  1
  Al0+  Al69  1  0.75151662  0.75099329  0.00271766  1
  Al0+  Al70  1  0.75009452  0.75002105  0.33061293  1
  Al0+  Al71  1  0.75075866  0.74926978  0.67019334  1
  Al0+  Al72  1  0.17883383  0.92824656  0.01575516  1
  Al0+  Al73  1  0.06838006  0.17846257  0.65189121  1
  Al0+  Al74  1  0.18105320  0.42782652  0.01229774  1
  Al0+  Al75  1  0.07128164  0.67805946  0.31832134  1
  Al0+  Al76  1  0.17569351  0.42954120  0.34907001  1
  Al0+  Al77  1  0.07195541  0.68013142  0.98636943  1
  Al0+  Al78  1  0.31977149  0.07145326  0.34602242  1
  Al0+  Al79  1  0.57126489  0.67833056  0.31818307  1
  Al0+  Al80  1  0.82316728  0.07206114  0.34766739  1
  Al0+  Al81  1  0.67821004  0.42906427  0.01417015  1
  Al0+  Al82  1  0.81973499  0.56986150  0.67977055  1
  Al0+  Al83  1  0.32016265  0.57123313  0.34646663  1
  Al0+  Al84  1  0.67770097  0.42971404  0.34813239  1
  Al0+  Al85  1  0.82120696  0.07181466  0.68292344  1
  Al0+  Al86  1  0.92738231  0.32160350  0.98514792  1
  Al0+  Al87  1  0.32135459  0.07281726  0.68382100  1
  Al0+  Al88  1  0.07061270  0.67818938  0.65256601  1
  Al0+  Al89  1  0.17891495  0.92734705  0.68089318  1
  Al0+  Al90  1  0.42902495  0.32062522  0.64871715  1
  Al0+  Al91  1  0.17988694  0.43110196  0.68154308  1
  Al0+  Al92  1  0.82302278  0.57227932  0.01782061  1
  Al0+  Al93  1  0.43061333  0.32147375  0.98738670  1
  Al0+  Al94  1  0.07136832  0.17747079  0.98608690  1
  Al0+  Al95  1  0.67937497  0.92747898  0.34761105  1
  Si0+  Si96  1  0.92556154  0.32172982  0.64974719  1
  Si0+  Si97  1  0.57243614  0.17498814  0.98367394  1
  Si0+  Si98  1  0.92642778  0.31930566  0.31997083  1
  Si0+  Si99  1  0.42867563  0.31975222  0.31762493  1
  Si0+  Si100  1  0.43025089  0.82230505  0.65072518  1
  Si0+  Si101  1  0.43049391  0.82344324  0.98351016  1
  Si0+  Si102  1  0.67878509  0.92739440  0.68450245  1
  Si0+  Si103  1  0.92893308  0.82303695  0.31596308  1
  Si0+  Si104  1  0.57214279  0.68070582  0.98377892  1
  Si0+  Si105  1  0.32408942  0.57271310  0.68249338  1
  Si0+  Si106  1  0.82165016  0.57181014  0.34968947  1
  Si0+  Si107  1  0.67480525  0.42885055  0.68350271  1
  Si0+  Si108  1  0.42948148  0.82503118  0.31501644  1
  Si0+  Si109  1  0.32292755  0.07120068  0.01616052  1
  Si0+  Si110  1  0.57171577  0.17950049  0.32035125  1
  Si0+  Si111  1  0.57289071  0.17652149  0.64764783  1
  Si0+  Si112  1  0.82045743  0.07017567  0.01459843  1
  Si0+  Si113  1  0.67663360  0.92940198  0.01460393  1
  Si0+  Si114  1  0.92596827  0.82134933  0.64929168  1
  Si0+  Si115  1  0.57160530  0.68115552  0.65204490  1
  Si0+  Si116  1  0.17842964  0.92683160  0.34933325  1
  Si0+  Si117  1  0.32327424  0.57390452  0.01410554  1
  Si0+  Si118  1  0.07163648  0.17882874  0.31972307  1
  Si0+  Si119  1  0.92653420  0.82178045  0.98339350  1
  O2-  O120  1  0.25112009  0.00620782  0.06088027  1
  O2-  O121  1  0.24543862  -0.00312535  0.39293814  1
  O2-  O122  1  0.24616711  0.00350242  0.73251627  1
  O2-  O123  1  0.25450526  0.50501230  0.05712813  1
  O2-  O124  1  0.24385934  0.50584607  0.39822010  1
  O2-  O125  1  0.25388380  0.50717198  0.72771130  1
  O2-  O126  1  0.74714440  0.00086029  0.05592032  1
  O2-  O127  1  0.75235169  -0.00181863  0.39685846  1
  O2-  O128  1  0.74642008  -0.00359158  0.72962654  1
  O2-  O129  1  0.75177813  0.49826212  0.06582988  1
  O2-  O130  1  0.75050871  0.50608337  0.39450420  1
  O2-  O131  1  0.74691105  0.49362314  0.72679603  1
  O2-  O132  1  -0.00198729  0.24773422  0.27896081  1
  O2-  O133  1  -0.00880378  0.25080329  0.60395489  1
  O2-  O134  1  0.00173125  0.25166333  0.93564348  1
  O2-  O135  1  -0.00241607  0.75446714  0.27179785  1
  O2-  O136  1  -0.00287375  0.75482319  0.60575585  1
  O2-  O137  1  -0.00519471  0.75288445  0.93960467  1
  O2-  O138  1  0.50092872  0.24938052  0.27576450  1
  O2-  O139  1  0.50380644  0.24457856  0.60303116  1
  O2-  O140  1  0.50637249  0.24679046  0.94114364  1
  O2-  O141  1  0.49654512  0.75391362  0.27084903  1
  O2-  O142  1  0.50148941  0.75182773  0.60855914  1
  O2-  O143  1  0.50078742  0.75133269  0.94117225  1
  O2-  O144  1  0.06883806  0.17718217  0.10057947  1
  O2-  O145  1  0.07162078  0.17849526  0.42476029  1
  O2-  O146  1  0.06722891  0.17895375  0.76470314  1
  O2-  O147  1  0.07242294  0.68207068  0.09963779  1
  O2-  O148  1  0.06814782  0.67889649  0.43156510  1
  O2-  O149  1  0.06995778  0.67842069  0.76550162  1
  O2-  O150  1  0.57010673  0.16888995  0.08931288  1
  O2-  O151  1  0.57148327  0.18085117  0.42518713  1
  O2-  O152  1  0.57348515  0.17613226  0.75341060  1
  O2-  O153  1  0.57076723  0.68118450  0.08877577  1
  O2-  O154  1  0.56997269  0.68031712  0.43172976  1
  O2-  O155  1  0.57020988  0.68309010  0.75751251  1
  O2-  O156  1  0.17761267  0.42573925  0.23534525  1
  O2-  O157  1  0.17941860  0.43274549  0.56861912  1
  O2-  O158  1  0.18307211  0.42723301  0.89933174  1
  O2-  O159  1  0.17938783  0.92891665  0.24347817  1
  O2-  O160  1  0.18359002  0.92592796  0.56709262  1
  O2-  O161  1  0.18190481  0.92603811  0.90317143  1
  O2-  O162  1  0.67863756  0.42852810  0.23536947  1
  O2-  O163  1  0.67422534  0.43153300  0.57765008  1
  O2-  O164  1  0.67497449  0.43466220  0.90078278  1
  O2-  O165  1  0.67958898  0.93097155  0.23339248  1
  O2-  O166  1  0.67897268  0.92544657  0.57938239  1
  O2-  O167  1  0.67452919  0.92931338  0.90952025  1
  O2-  O168  1  0.43073069  0.31934189  0.10094824  1
  O2-  O169  1  0.42924346  0.31849430  0.42259710  1
  O2-  O170  1  0.43266789  0.32256658  0.76189239  1
  O2-  O171  1  0.43333634  0.82767581  0.08824621  1
  O2-  O172  1  0.43124353  0.82553088  0.42066635  1
  O2-  O173  1  0.43189794  0.82059116  0.75630107  1
  O2-  O174  1  0.92527495  0.31643473  0.09944379  1
  O2-  O175  1  0.92505401  0.32032425  0.42503523  1
  O2-  O176  1  0.92681403  0.32161754  0.75510047  1
  O2-  O177  1  0.92489567  0.82292216  0.08893859  1
  O2-  O178  1  0.92890836  0.82418127  0.42143495  1
  O2-  O179  1  0.92218318  0.81936872  0.75479178  1
  O2-  O180  1  0.31949097  0.07192066  0.23254959  1
  O2-  O181  1  0.32097032  0.06871816  0.56995165  1
  O2-  O182  1  0.32739441  0.06786606  0.91127106  1
  O2-  O183  1  0.32204722  0.56532430  0.23272048  1
  O2-  O184  1  0.32689417  0.57184453  0.57727746  1
  O2-  O185  1  0.32426981  0.57602408  0.90842684  1
  O2-  O186  1  0.82070225  0.07220037  0.23356239  1
  O2-  O187  1  0.81938025  0.06943920  0.57014470  1
  O2-  O188  1  0.81981087  0.06793307  0.90948902  1
  O2-  O189  1  0.82207870  0.56944423  0.24438522  1
  O2-  O190  1  0.81655841  0.57004493  0.56636425  1
  O2-  O191  1  0.81914122  0.57450139  0.90404284  1
  O2-  O192  1  0.04760831  0.08519347  0.27322084  1
  O2-  O193  1  0.03918533  0.08005102  0.59948579  1
  O2-  O194  1  0.04001265  0.07847610  0.93583210  1
  O2-  O195  1  0.03839151  0.58102589  0.26573078  1
  O2-  O196  1  0.03486857  0.58249610  0.59920552  1
  O2-  O197  1  0.04183811  0.58314340  0.93401947  1
  O2-  O198  1  0.54430734  0.08702268  0.27335820  1
  O2-  O199  1  0.54926733  0.08141847  0.60341886  1
  O2-  O200  1  0.54539999  0.08279410  0.93417615  1
  O2-  O201  1  0.53747163  0.58224446  0.26377618  1
  O2-  O202  1  0.54453072  0.58957949  0.60429955  1
  O2-  O203  1  0.54452967  0.59059336  0.93356775  1
  O2-  O204  1  0.16256490  0.20898551  0.27175524  1
  O2-  O205  1  0.16456735  0.21115158  0.59844694  1
  O2-  O206  1  0.17096441  0.20113396  0.93446594  1
  O2-  O207  1  0.16882271  0.70733089  0.26461834  1
  O2-  O208  1  0.16852750  0.70699310  0.59890285  1
  O2-  O209  1  0.16895192  0.71259685  0.93351049  1
  O2-  O210  1  0.66440859  0.20676558  0.27407701  1
  O2-  O211  1  0.66698926  0.20279667  0.60244661  1
  O2-  O212  1  0.66661477  0.19758603  0.93817752  1
  O2-  O213  1  0.66787685  0.70818844  0.26306709  1
  O2-  O214  1  0.66358472  0.70895952  0.60517785  1
  O2-  O215  1  0.66354702  0.71153826  0.93699410  1
  O2-  O216  1  0.08451449  0.45667624  0.06638344  1
  O2-  O217  1  0.07619166  0.45421228  0.40142213  1
  O2-  O218  1  0.08305784  0.45992491  0.73497327  1
  O2-  O219  1  0.08170552  0.95474752  0.07105421  1
  O2-  O220  1  0.08421446  0.94871724  0.39454565  1
  O2-  O221  1  0.07872562  0.94873196  0.73231657  1
  O2-  O222  1  0.58059555  0.46262364  0.06698750  1
  O2-  O223  1  0.58175497  0.46055323  0.40211113  1
  O2-  O224  1  0.58255052  0.46056243  0.72851589  1
  O2-  O225  1  0.58498333  0.95644261  0.06270332  1
  O2-  O226  1  0.58242877  0.95601019  0.40219632  1
  O2-  O227  1  0.58540945  0.95298763  0.73143747  1
  O2-  O228  1  0.21362206  0.33132968  0.06644282  1
  O2-  O229  1  0.20878909  0.33337174  0.40292566  1
  O2-  O230  1  0.21342401  0.33490245  0.73318486  1
  O2-  O231  1  0.21637003  0.83412120  0.07072852  1
  O2-  O232  1  0.20578835  0.83348950  0.39369797  1
  O2-  O233  1  0.21463873  0.83033233  0.73351329  1
  O2-  O234  1  0.70041123  0.32781458  0.06491285  1
  O2-  O235  1  0.70815819  0.33511613  0.40545661  1
  O2-  O236  1  0.69290775  0.33338024  0.72761337  1
  O2-  O237  1  0.70460351  0.83822942  0.06255258  1
  O2-  O238  1  0.70639715  0.82847408  0.39983297  1
  O2-  O239  1  0.70403857  0.83441493  0.73237096  1
  O2-  O240  1  0.45701412  0.41138703  0.27128539  1
  O2-  O241  1  0.46118888  0.41713725  0.59365672  1
  O2-  O242  1  0.46099123  0.41755693  0.93082112  1
  O2-  O243  1  0.45859778  0.91805430  0.26846181  1
  O2-  O244  1  0.45879778  0.91456970  0.60466165  1
  O2-  O245  1  0.46097967  0.91313415  0.93276547  1
  O2-  O246  1  0.95314814  0.41043242  0.27087363  1
  O2-  O247  1  0.95376463  0.41420222  0.60298791  1
  O2-  O248  1  0.95246795  0.42163776  0.93606375  1
  O2-  O249  1  0.95423381  0.91697858  0.26867813  1
  O2-  O250  1  0.94836404  0.91593684  0.60464763  1
  O2-  O251  1  0.95346286  0.91524192  0.93800342  1
  O2-  O252  1  0.33664242  0.28947536  0.27165786  1
  O2-  O253  1  0.33327170  0.29073507  0.59339103  1
  O2-  O254  1  0.33651680  0.28844263  0.93064568  1
  O2-  O255  1  0.33558999  0.80293163  0.26798415  1
  O2-  O256  1  0.34002141  0.79503413  0.60084484  1
  O2-  O257  1  0.33968156  0.79486256  0.93549029  1
  O2-  O258  1  0.83441764  0.29039871  0.27290837  1
  O2-  O259  1  0.82905906  0.29938008  0.60723290  1
  O2-  O260  1  0.82916456  0.29260370  0.93109193  1
  O2-  O261  1  0.83489602  0.79926073  0.26948795  1
  O2-  O262  1  0.83282139  0.79289362  0.60240775  1
  O2-  O263  1  0.83192720  0.79969875  0.93654761  1
  O2-  O264  1  0.41553224  0.04071020  0.06339606  1
  O2-  O265  1  0.41577677  0.04279851  0.40155377  1
  O2-  O266  1  0.41984149  0.04282243  0.73609014  1
  O2-  O267  1  0.41755500  0.54780740  0.05819573  1
  O2-  O268  1  0.41649229  0.54015833  0.40166811  1
  O2-  O269  1  0.41775099  0.54577535  0.72892726  1
  O2-  O270  1  0.91022302  0.04004601  0.06403084  1
  O2-  O271  1  0.92145034  0.04288814  0.40051479  1
  O2-  O272  1  0.91584823  0.03919677  0.73854558  1
  O2-  O273  1  0.92093024  0.54526274  0.07088785  1
  O2-  O274  1  0.91312475  0.54156662  0.39666001  1
  O2-  O275  1  0.91496379  0.53894757  0.73484281  1
  O2-  O276  1  0.30090641  0.16550281  0.06130607  1
  O2-  O277  1  0.28821917  0.16616028  0.40174020  1
  O2-  O278  1  0.29680360  0.17310817  0.73177309  1
  O2-  O279  1  0.30142529  0.66775691  0.06104774  1
  O2-  O280  1  0.30242761  0.67396123  0.39476083  1
  O2-  O281  1  0.30343809  0.66820086  0.72623031  1
  O2-  O282  1  0.79393497  0.16221700  0.06130427  1
  O2-  O283  1  0.79261330  0.16743099  0.40416139  1
  O2-  O284  1  0.78862711  0.16760214  0.73808926  1
  O2-  O285  1  0.79254083  0.67095591  0.06995681  1
  O2-  O286  1  0.79920212  0.66671030  0.39338669  1
  O2-  O287  1  0.78805477  0.66544573  0.73551934  1
