# generated using pymatgen
data_Ca2Al2SiO7
_symmetry_space_group_name_H-M   'P 1'
_cell_length_a   15.45706449
_cell_length_b   15.45839251
_cell_length_c   15.28365770
_cell_angle_alpha   90.01660487
_cell_angle_beta   89.99098343
_cell_angle_gamma   90.00842922
_symmetry_Int_Tables_number   1
_chemical_formula_structural   Ca2Al2SiO7
_chemical_formula_sum   'Ca48 Al48 Si24 O168'
_cell_volume   3651.89786981
_cell_formula_units_Z   24
loop_
 _symmetry_equiv_pos_site_id
 _symmetry_equiv_pos_as_xyz
  1  'x, y, z'
loop_
 _atom_type_symbol
 _atom_type_oxidation_number
  Ca2+  2.0
  Al0+  0.0
  Si0+  0.0
  O2-  -2.0
loop_
 _atom_site_type_symbol
 _atom_site_label
 _atom_site_symmetry_multiplicity
 _atom_site_fract_x
 _atom_site_fract_y
 _atom_site_fract_z
 _atom_site_occupancy
  Ca2+  Ca0  1  0.17442290  0.08706632  0.17072534  1
  Ca2+  Ca1  1  0.17105675  0.09121594  0.49831249  1
  Ca2+  Ca2  1  0.17442560  0.07405908  0.84451315  1
  Ca2+  Ca3  1  0.16931511  0.57469467  0.17239016  1
  Ca2+  Ca4  1  0.16778765  0.57162936  0.50922277  1
  Ca2+  Ca5  1  0.16699652  0.58432060  0.82924789  1
  Ca2+  Ca6  1  0.67169176  0.07189979  0.17286865  1
  Ca2+  Ca7  1  0.67130927  0.08283484  0.49695602  1
  Ca2+  Ca8  1  0.66743555  0.07492321  0.84108315  1
  Ca2+  Ca9  1  0.67831290  0.57411725  0.17006649  1
  Ca2+  Ca10  1  0.66969615  0.58001616  0.49909375  1
  Ca2+  Ca11  1  0.67064446  0.58113572  0.84123985  1
  Ca2+  Ca12  1  0.07464522  0.33083548  0.16822043  1
  Ca2+  Ca13  1  0.07741574  0.33625991  0.49031061  1
  Ca2+  Ca14  1  0.07112035  0.33987999  0.82872223  1
  Ca2+  Ca15  1  0.07699550  0.83271980  0.15744570  1
  Ca2+  Ca16  1  0.08742389  0.82215514  0.49777624  1
  Ca2+  Ca17  1  0.08141751  0.82995569  0.83123716  1
  Ca2+  Ca18  1  0.57687553  0.34018407  0.16149926  1
  Ca2+  Ca19  1  0.57538249  0.33674742  0.49040561  1
  Ca2+  Ca20  1  0.57945265  0.33807261  0.83495514  1
  Ca2+  Ca21  1  0.58399728  0.83718947  0.15919091  1
  Ca2+  Ca22  1  0.58297861  0.82843283  0.49871068  1
  Ca2+  Ca23  1  0.57532167  0.82991213  0.82809797  1
  Ca2+  Ca24  1  0.32955689  0.40873191  0.17502296  1
  Ca2+  Ca25  1  0.32048468  0.41457252  0.50484363  1
  Ca2+  Ca26  1  0.32990919  0.42188751  0.83692332  1
  Ca2+  Ca27  1  0.33348204  0.92746433  0.16677960  1
  Ca2+  Ca28  1  0.33736926  0.92220162  0.50268365  1
  Ca2+  Ca29  1  0.33312271  0.91692774  0.84449054  1
  Ca2+  Ca30  1  0.83132520  0.42093579  0.17338473  1
  Ca2+  Ca31  1  0.83656599  0.41548017  0.50075644  1
  Ca2+  Ca32  1  0.83046760  0.42090092  0.84426739  1
  Ca2+  Ca33  1  0.82475320  0.91565327  0.17396171  1
  Ca2+  Ca34  1  0.83147412  0.92268691  0.49729148  1
  Ca2+  Ca35  1  0.82734249  0.91374001  0.84509522  1
  Ca2+  Ca36  1  0.41078209  0.17408565  0.16345313  1
  Ca2+  Ca37  1  0.41656694  0.17178428  0.48902075  1
  Ca2+  Ca38  1  0.41400735  0.16924102  0.83746397  1
  Ca2+  Ca39  1  0.42194804  0.67462230  0.15747398  1
  Ca2+  Ca40  1  0.41713796  0.66626521  0.50135782  1
  Ca2+  Ca41  1  0.41944134  0.67703261  0.82164598  1
  Ca2+  Ca42  1  0.91282428  0.17441015  0.16441575  1
  Ca2+  Ca43  1  0.92306849  0.17739846  0.48766814  1
  Ca2+  Ca44  1  0.91361588  0.18042684  0.82908911  1
  Ca2+  Ca45  1  0.91243197  0.66601502  0.16101271  1
  Ca2+  Ca46  1  0.92148651  0.66101009  0.49614395  1
  Ca2+  Ca47  1  0.91837598  0.66953906  0.83281915  1
  Al0+  Al48  1  0.00064216  -0.00087337  -0.00265219  1
  Al0+  Al49  1  0.00132777  -0.00268974  0.33448491  1
  Al0+  Al50  1  -0.00018817  0.00327778  0.66799298  1
  Al0+  Al51  1  0.00218573  0.49977892  -0.00056530  1
  Al0+  Al52  1  0.00191199  0.49984043  0.33495487  1
  Al0+  Al53  1  -0.00196749  0.50155752  0.66413568  1
  Al0+  Al54  1  0.50017538  0.00143296  0.00362794  1
  Al0+  Al55  1  0.49847393  -0.00047857  0.34130544  1
  Al0+  Al56  1  0.50105258  0.00064013  0.66374322  1
  Al0+  Al57  1  0.49987356  0.50005177  -0.00214337  1
  Al0+  Al58  1  0.50162566  0.50335087  0.33065107  1
  Al0+  Al59  1  0.49989832  0.50070898  0.66613382  1
  Al0+  Al60  1  0.25073775  0.25022236  -0.00344884  1
  Al0+  Al61  1  0.24954757  0.24942417  0.33474342  1
  Al0+  Al62  1  0.24828257  0.24923114  0.67473396  1
  Al0+  Al63  1  0.25018125  0.74974872  0.00083969  1
  Al0+  Al64  1  0.25107275  0.75097127  0.33010021  1
  Al0+  Al65  1  0.24899273  0.75137535  0.66074026  1
  Al0+  Al66  1  0.74761186  0.24929525  -0.00231746  1
  Al0+  Al67  1  0.74810600  0.24870195  0.33605894  1
  Al0+  Al68  1  0.74947091  0.25029796  0.66348630  1
  Al0+  Al69  1  0.75174448  0.74863836  0.00258892  1
  Al0+  Al70  1  0.74978156  0.74801513  0.34200744  1
  Al0+  Al71  1  0.74799811  0.75096657  0.66314873  1
  Al0+  Al72  1  0.17724630  0.92626945  0.01526358  1
  Al0+  Al73  1  0.32045316  0.07162829  0.01594620  1
  Al0+  Al74  1  0.06860623  0.68146265  0.65269342  1
  Al0+  Al75  1  0.92741882  0.32148079  0.31675862  1
  Al0+  Al76  1  0.17638946  0.42854473  0.68447117  1
  Al0+  Al77  1  0.67774402  0.92777287  0.35129692  1
  Al0+  Al78  1  0.43019172  0.82192700  0.98836179  1
  Al0+  Al79  1  0.82349941  0.07120001  0.34776748  1
  Al0+  Al80  1  0.57197947  0.67710851  0.64977247  1
  Al0+  Al81  1  0.42839493  0.82252176  0.64970105  1
  Al0+  Al82  1  0.43073470  0.32127551  0.32183659  1
  Al0+  Al83  1  0.07178525  0.17664035  0.31801294  1
  Al0+  Al84  1  0.82334653  0.56930568  0.01353403  1
  Al0+  Al85  1  0.68030610  0.92860691  0.01114845  1
  Al0+  Al86  1  0.92903431  0.32071640  0.65220690  1
  Al0+  Al87  1  0.32125900  0.57145779  0.68133977  1
  Al0+  Al88  1  0.82196796  0.56863571  0.35084227  1
  Al0+  Al89  1  0.92862181  0.32016782  0.98654503  1
  Al0+  Al90  1  0.31789185  0.06999080  0.34830283  1
  Al0+  Al91  1  0.42786232  0.32241276  0.98455752  1
  Al0+  Al92  1  0.92858913  0.82082873  0.98870978  1
  Al0+  Al93  1  0.67691543  0.42787482  0.34869902  1
  Al0+  Al94  1  0.18204099  0.42991039  0.34503852  1
  Al0+  Al95  1  0.67723534  0.42734434  0.01388607  1
  Si0+  Si96  1  0.67998952  0.93019706  0.68306827  1
  Si0+  Si97  1  0.18020856  0.42930825  0.01525293  1
  Si0+  Si98  1  0.17773299  0.92482777  0.35150802  1
  Si0+  Si99  1  0.57219315  0.67874494  0.98432013  1
  Si0+  Si100  1  0.57041541  0.17917311  0.65119425  1
  Si0+  Si101  1  0.57285400  0.68076688  0.31563602  1
  Si0+  Si102  1  0.57128383  0.17533641  0.31686549  1
  Si0+  Si103  1  0.32173500  0.57161192  0.01419287  1
  Si0+  Si104  1  0.81975293  0.57228556  0.68219851  1
  Si0+  Si105  1  0.07361197  0.67709623  0.98353002  1
  Si0+  Si106  1  0.82057222  0.07227472  0.68266201  1
  Si0+  Si107  1  0.92635481  0.82544494  0.64938689  1
  Si0+  Si108  1  0.17823856  0.92949621  0.68047598  1
  Si0+  Si109  1  0.07234957  0.67877444  0.31723981  1
  Si0+  Si110  1  0.92884610  0.81865156  0.32016190  1
  Si0+  Si111  1  0.32305530  0.07051649  0.68309863  1
  Si0+  Si112  1  0.82287566  0.07284067  0.01375266  1
  Si0+  Si113  1  0.42944575  0.82209402  0.31639258  1
  Si0+  Si114  1  0.67870978  0.42758966  0.68181710  1
  Si0+  Si115  1  0.57139360  0.17797540  0.98335964  1
  Si0+  Si116  1  0.32314636  0.57570047  0.34771403  1
  Si0+  Si117  1  0.07269455  0.17791688  0.98162240  1
  Si0+  Si118  1  0.07244929  0.17744002  0.65119489  1
  Si0+  Si119  1  0.42770633  0.31980785  0.65325512  1
  O2-  O120  1  0.24713666  0.00022758  0.06494277  1
  O2-  O121  1  0.24315869  -0.00399534  0.39671147  1
  O2-  O122  1  0.25174985  -0.00158003  0.72255436  1
  O2-  O123  1  0.25370512  0.49822859  0.05704489  1
  O2-  O124  1  0.25754820  0.50419709  0.39103297  1
  O2-  O125  1  0.25026571  0.49956268  0.73396692  1
  O2-  O126  1  0.75873612  -0.00039211  0.05697245  1
  O2-  O127  1  0.74964681  0.00123461  0.39967731  1
  O2-  O128  1  0.75356673  -0.00192612  0.72619698  1
  O2-  O129  1  0.75397276  0.49451358  0.06253660  1
  O2-  O130  1  0.75320490  0.49368799  0.40159971  1
  O2-  O131  1  0.74834687  0.50074168  0.72302931  1
  O2-  O132  1  -0.00428279  0.24462354  0.26814591  1
  O2-  O133  1  0.00706681  0.24890273  0.60754573  1
  O2-  O134  1  0.00184596  0.24463075  0.93749318  1
  O2-  O135  1  0.00012708  0.74869677  0.27639127  1
  O2-  O136  1  -0.00559113  0.75657628  0.60467401  1
  O2-  O137  1  0.00496851  0.74769350  0.94183920  1
  O2-  O138  1  0.50726371  0.24878169  0.27357942  1
  O2-  O139  1  0.49792836  0.24888891  0.60995307  1
  O2-  O140  1  0.50435263  0.24877167  0.93868319  1
  O2-  O141  1  0.50181723  0.75254199  0.27421661  1
  O2-  O142  1  0.49814667  0.74800067  0.59989612  1
  O2-  O143  1  0.50365677  0.74738117  0.93987636  1
  O2-  O144  1  0.07397378  0.17989478  0.08683330  1
  O2-  O145  1  0.07244987  0.18077101  0.43215130  1
  O2-  O146  1  0.06933278  0.17323909  0.75659623  1
  O2-  O147  1  0.07488873  0.67554788  0.08924813  1
  O2-  O148  1  0.07421975  0.68068902  0.42234978  1
  O2-  O149  1  0.06707311  0.68388682  0.76587056  1
  O2-  O150  1  0.57196826  0.17585363  0.08832262  1
  O2-  O151  1  0.56700918  0.17417059  0.42321683  1
  O2-  O152  1  0.57129284  0.17731474  0.75624193  1
  O2-  O153  1  0.57005229  0.67908057  0.09005949  1
  O2-  O154  1  0.57141288  0.68021953  0.42068560  1
  O2-  O155  1  0.57473804  0.68097950  0.76356856  1
  O2-  O156  1  0.18252154  0.43199075  0.23140799  1
  O2-  O157  1  0.17865592  0.42733199  0.57096508  1
  O2-  O158  1  0.17873264  0.43161359  0.91021612  1
  O2-  O159  1  0.18032670  0.92038611  0.24647704  1
  O2-  O160  1  0.17638161  0.93169646  0.57547335  1
  O2-  O161  1  0.17931108  0.92676862  0.90079927  1
  O2-  O162  1  0.67421845  0.43348871  0.23571525  1
  O2-  O163  1  0.67873662  0.42515307  0.57714058  1
  O2-  O164  1  0.67781755  0.43070523  0.89935974  1
  O2-  O165  1  0.67910395  0.92741687  0.23743946  1
  O2-  O166  1  0.68001415  0.93252775  0.57836036  1
  O2-  O167  1  0.68036720  0.93043303  0.89740755  1
  O2-  O168  1  0.42677863  0.32180312  0.09738656  1
  O2-  O169  1  0.42958931  0.31848510  0.43561973  1
  O2-  O170  1  0.42967678  0.31842776  0.75842863  1
  O2-  O171  1  0.43192315  0.81971153  0.10167703  1
  O2-  O172  1  0.42736557  0.81989189  0.42135014  1
  O2-  O173  1  0.43143344  0.82501086  0.76353622  1
  O2-  O174  1  0.92981089  0.32010990  0.09890715  1
  O2-  O175  1  0.93208028  0.32237363  0.43055294  1
  O2-  O176  1  0.92664667  0.31871836  0.76573945  1
  O2-  O177  1  0.92780602  0.81837433  0.10185198  1
  O2-  O178  1  0.93140879  0.81774368  0.42560455  1
  O2-  O179  1  0.92613556  0.82513321  0.75503872  1
  O2-  O180  1  0.31906211  0.06893742  0.23587155  1
  O2-  O181  1  0.32297818  0.07274200  0.57811169  1
  O2-  O182  1  0.31974421  0.06993895  0.90154338  1
  O2-  O183  1  0.31994244  0.57906918  0.24173935  1
  O2-  O184  1  0.32007054  0.56754112  0.56764800  1
  O2-  O185  1  0.32039362  0.57237123  0.90930652  1
  O2-  O186  1  0.82245455  0.06698028  0.23392238  1
  O2-  O187  1  0.81933916  0.07155079  0.57805965  1
  O2-  O188  1  0.81911939  0.07322204  0.90743050  1
  O2-  O189  1  0.82033630  0.57197484  0.23760529  1
  O2-  O190  1  0.82007529  0.57166620  0.57740549  1
  O2-  O191  1  0.82199602  0.57027038  0.89921149  1
  O2-  O192  1  0.05144227  0.07444109  0.26889898  1
  O2-  O193  1  0.04531898  0.08501246  0.60276685  1
  O2-  O194  1  0.05053939  0.08315858  0.93570258  1
  O2-  O195  1  0.04580287  0.58726860  0.26965346  1
  O2-  O196  1  0.03703843  0.58587955  0.59762915  1
  O2-  O197  1  0.04712735  0.58487068  0.93526820  1
  O2-  O198  1  0.54044222  0.08233002  0.27241141  1
  O2-  O199  1  0.54361894  0.08812796  0.60213228  1
  O2-  O200  1  0.54173765  0.08613307  0.93455697  1
  O2-  O201  1  0.54453978  0.59045438  0.26593552  1
  O2-  O202  1  0.54527866  0.57793835  0.59678372  1
  O2-  O203  1  0.54657249  0.58582118  0.93720361  1
  O2-  O204  1  0.16822056  0.21050996  0.26485960  1
  O2-  O205  1  0.16866770  0.19987233  0.60884210  1
  O2-  O206  1  0.16503173  0.20542866  0.93371546  1
  O2-  O207  1  0.16368843  0.70759026  0.26853721  1
  O2-  O208  1  0.16377783  0.71145682  0.59562822  1
  O2-  O209  1  0.16652940  0.70315229  0.93626310  1
  O2-  O210  1  0.66707434  0.19288318  0.27349806  1
  O2-  O211  1  0.66116414  0.20800267  0.60262415  1
  O2-  O212  1  0.66419108  0.20065313  0.93308524  1
  O2-  O213  1  0.66540826  0.70977258  0.27086459  1
  O2-  O214  1  0.66893327  0.70917552  0.59499213  1
  O2-  O215  1  0.66576069  0.70433317  0.93878303  1
  O2-  O216  1  0.09013852  0.45970022  0.06383041  1
  O2-  O217  1  0.08744713  0.46290568  0.40029919  1
  O2-  O218  1  0.07818077  0.46229810  0.73541742  1
  O2-  O219  1  0.07693091  0.95155184  0.06569707  1
  O2-  O220  1  0.08313109  0.94397439  0.39749248  1
  O2-  O221  1  0.08665262  0.95864577  0.72916947  1
  O2-  O222  1  0.57932826  0.45882310  0.06596519  1
  O2-  O223  1  0.57994579  0.46368505  0.40250418  1
  O2-  O224  1  0.58618842  0.45368833  0.72858927  1
  O2-  O225  1  0.58620548  0.96215373  0.06709659  1
  O2-  O226  1  0.58023429  0.95562046  0.40584029  1
  O2-  O227  1  0.58864683  0.96232733  0.72942083  1
  O2-  O228  1  0.20734060  0.33682888  0.05994948  1
  O2-  O229  1  0.21244697  0.33490896  0.40119599  1
  O2-  O230  1  0.20242925  0.32974610  0.73874869  1
  O2-  O231  1  0.20508138  0.82796262  0.06869170  1
  O2-  O232  1  0.20905205  0.83253662  0.39870667  1
  O2-  O233  1  0.20308838  0.83682600  0.72635548  1
  O2-  O234  1  0.69795470  0.32613209  0.06291359  1
  O2-  O235  1  0.69343239  0.32609563  0.39889464  1
  O2-  O236  1  0.70753184  0.33569540  0.72927425  1
  O2-  O237  1  0.70839134  0.83243628  0.06608617  1
  O2-  O238  1  0.70889604  0.83164000  0.40642430  1
  O2-  O239  1  0.70504985  0.83689086  0.72869100  1
  O2-  O240  1  0.45595328  0.41997751  0.26825050  1
  O2-  O241  1  0.45482822  0.41143857  0.60657809  1
  O2-  O242  1  0.45807904  0.41903132  0.92912090  1
  O2-  O243  1  0.45692256  0.91521183  0.27239659  1
  O2-  O244  1  0.46113564  0.92012255  0.59640736  1
  O2-  O245  1  0.46019757  0.91897668  0.93513825  1
  O2-  O246  1  0.96251467  0.41908588  0.26537667  1
  O2-  O247  1  0.95573572  0.41833760  0.59984048  1
  O2-  O248  1  0.96272449  0.41638971  0.93261959  1
  O2-  O249  1  0.95479078  0.91031395  0.27256522  1
  O2-  O250  1  0.95288536  0.91981296  0.60511783  1
  O2-  O251  1  0.95472881  0.91785297  0.93145515  1
  O2-  O252  1  0.33539762  0.28686793  0.26833403  1
  O2-  O253  1  0.33443891  0.29091935  0.60938236  1
  O2-  O254  1  0.33283133  0.28977931  0.92770160  1
  O2-  O255  1  0.33805085  0.79349483  0.26801891  1
  O2-  O256  1  0.32945145  0.79909116  0.59612790  1
  O2-  O257  1  0.33309337  0.79092195  0.93519180  1
  O2-  O258  1  0.82599940  0.29686467  0.26833994  1
  O2-  O259  1  0.83326828  0.28698352  0.59828281  1
  O2-  O260  1  0.83140477  0.29037688  0.93172389  1
  O2-  O261  1  0.83599597  0.78971782  0.27582897  1
  O2-  O262  1  0.83279455  0.80089756  0.60362948  1
  O2-  O263  1  0.83331190  0.78785957  0.93183307  1
  O2-  O264  1  0.41819647  0.04417099  0.06918021  1
  O2-  O265  1  0.41301571  0.03899944  0.40522549  1
  O2-  O266  1  0.41573110  0.04322684  0.72924129  1
  O2-  O267  1  0.41454003  0.54725674  0.06062998  1
  O2-  O268  1  0.41821279  0.55486803  0.39086443  1
  O2-  O269  1  0.42057161  0.54457742  0.73422401  1
  O2-  O270  1  0.91844448  0.05340544  0.05626329  1
  O2-  O271  1  0.92065042  0.03917394  0.40274788  1
  O2-  O272  1  0.91393453  0.04956029  0.72985225  1
  O2-  O273  1  0.92310860  0.54489426  0.06561161  1
  O2-  O274  1  0.92206031  0.54450252  0.40211685  1
  O2-  O275  1  0.91129889  0.54517139  0.72942709  1
  O2-  O276  1  0.29137044  0.17114904  0.06635006  1
  O2-  O277  1  0.28710052  0.16546149  0.40453160  1
  O2-  O278  1  0.29537925  0.16113950  0.73302541  1
  O2-  O279  1  0.29233304  0.66167400  0.06402055  1
  O2-  O280  1  0.29455089  0.66803275  0.39498246  1
  O2-  O281  1  0.29157203  0.67183466  0.73054383  1
  O2-  O282  1  0.79207440  0.16390738  0.06081716  1
  O2-  O283  1  0.79573007  0.16892018  0.40244152  1
  O2-  O284  1  0.78720890  0.16270982  0.73010798  1
  O2-  O285  1  0.79273761  0.66604920  0.06794559  1
  O2-  O286  1  0.79119317  0.66511285  0.40659169  1
  O2-  O287  1  0.79238516  0.66562647  0.72779212  1
