# generated using pymatgen
data_Ca2Al2SiO7
_symmetry_space_group_name_H-M   'P 1'
_cell_length_a   15.47126467
_cell_length_b   15.47213188
_cell_length_c   15.29535322
_cell_angle_alpha   89.98509251
_cell_angle_beta   89.98728754
_cell_angle_gamma   90.02166051
_symmetry_Int_Tables_number   1
_chemical_formula_structural   Ca2Al2SiO7
_chemical_formula_sum   'Ca48 Al48 Si24 O168'
_cell_volume   3661.30095456
_cell_formula_units_Z   24
loop_
 _symmetry_equiv_pos_site_id
 _symmetry_equiv_pos_as_xyz
  1  'x, y, z'
loop_
 _atom_type_symbol
 _atom_type_oxidation_number
  Ca2+  2.0
  Al0+  0.0
  Si0+  0.0
  O2-  -2.0
loop_
 _atom_site_type_symbol
 _atom_site_label
 _atom_site_symmetry_multiplicity
 _atom_site_fract_x
 _atom_site_fract_y
 _atom_site_fract_z
 _atom_site_occupancy
  Ca2+  Ca0  1  0.17594675  0.07356402  0.17791316  1
  Ca2+  Ca1  1  0.17693582  0.07472948  0.50182505  1
  Ca2+  Ca2  1  0.17363041  0.08024016  0.83166459  1
  Ca2+  Ca3  1  0.18174103  0.58336694  0.17325651  1
  Ca2+  Ca4  1  0.17412374  0.57963833  0.50674454  1
  Ca2+  Ca5  1  0.17803610  0.59525687  0.83033558  1
  Ca2+  Ca6  1  0.66278344  0.08336588  0.16896861  1
  Ca2+  Ca7  1  0.67240594  0.07256109  0.51081367  1
  Ca2+  Ca8  1  0.66655260  0.07622582  0.83239744  1
  Ca2+  Ca9  1  0.66150147  0.57840516  0.16989238  1
  Ca2+  Ca10  1  0.66449889  0.58272112  0.50633804  1
  Ca2+  Ca11  1  0.67262642  0.59031881  0.84033735  1
  Ca2+  Ca12  1  0.07799648  0.34460203  0.16833264  1
  Ca2+  Ca13  1  0.08218447  0.33968164  0.49220061  1
  Ca2+  Ca14  1  0.08479019  0.33520075  0.82279849  1
  Ca2+  Ca15  1  0.08554584  0.83554589  0.16617787  1
  Ca2+  Ca16  1  0.07939927  0.83375638  0.50043368  1
  Ca2+  Ca17  1  0.07249567  0.82488495  0.82263417  1
  Ca2+  Ca18  1  0.58934807  0.33072743  0.16130035  1
  Ca2+  Ca19  1  0.58484361  0.33115888  0.49371351  1
  Ca2+  Ca20  1  0.59201839  0.32852038  0.83505633  1
  Ca2+  Ca21  1  0.57042586  0.81960658  0.16407626  1
  Ca2+  Ca22  1  0.57792901  0.82211572  0.50040043  1
  Ca2+  Ca23  1  0.57624770  0.82278724  0.82638000  1
  Ca2+  Ca24  1  0.33378593  0.43052959  0.17404879  1
  Ca2+  Ca25  1  0.32766258  0.43156880  0.50444796  1
  Ca2+  Ca26  1  0.32925886  0.43151222  0.83275800  1
  Ca2+  Ca27  1  0.33824833  0.91876512  0.17666484  1
  Ca2+  Ca28  1  0.34528100  0.92305168  0.50319626  1
  Ca2+  Ca29  1  0.34532028  0.91588797  0.83378258  1
  Ca2+  Ca30  1  0.82301362  0.42038812  0.16918172  1
  Ca2+  Ca31  1  0.82910042  0.41980743  0.50176865  1
  Ca2+  Ca32  1  0.82799857  0.43254085  0.83759280  1
  Ca2+  Ca33  1  0.82909925  0.91903494  0.17211840  1
  Ca2+  Ca34  1  0.82704446  0.91811813  0.51438332  1
  Ca2+  Ca35  1  0.82414097  0.90793620  0.82963163  1
  Ca2+  Ca36  1  0.42014103  0.16857897  0.16119103  1
  Ca2+  Ca37  1  0.41122331  0.16522391  0.49698447  1
  Ca2+  Ca38  1  0.42089745  0.16726190  0.82804286  1
  Ca2+  Ca39  1  0.41882656  0.66882447  0.15918881  1
  Ca2+  Ca40  1  0.42213939  0.66771612  0.49312526  1
  Ca2+  Ca41  1  0.42268732  0.66992084  0.82464760  1
  Ca2+  Ca42  1  0.91774477  0.17638848  0.16460483  1
  Ca2+  Ca43  1  0.91621815  0.17268002  0.49284682  1
  Ca2+  Ca44  1  0.91568737  0.16910713  0.82545976  1
  Ca2+  Ca45  1  0.91977676  0.66285010  0.16312237  1
  Ca2+  Ca46  1  0.92030553  0.66279155  0.50437001  1
  Ca2+  Ca47  1  0.91875132  0.66337396  0.81996973  1
  Al0+  Al48  1  0.00078205  0.00206130  -0.00042733  1
  Al0+  Al49  1  0.00172881  0.00261278  0.33439661  1
  Al0+  Al50  1  0.00178086  0.00321937  0.66630122  1
  Al0+  Al51  1  -0.00141268  0.50039349  0.00059298  1
  Al0+  Al52  1  -0.00240192  0.50106063  0.32826490  1
  Al0+  Al53  1  -0.00344143  0.49724694  0.66750204  1
  Al0+  Al54  1  0.50182349  0.00214465  -0.00537081  1
  Al0+  Al55  1  0.50337474  -0.00154076  0.33405419  1
  Al0+  Al56  1  0.50288837  0.00059503  0.67218655  1
  Al0+  Al57  1  0.49915256  0.49800576  0.00327058  1
  Al0+  Al58  1  0.50227656  0.49601619  0.33809952  1
  Al0+  Al59  1  0.49730834  0.49529430  0.66747336  1
  Al0+  Al60  1  0.24906806  0.24758422  0.00024475  1
  Al0+  Al61  1  0.24982347  0.24787414  0.33598571  1
  Al0+  Al62  1  0.25010656  0.24801696  0.67298589  1
  Al0+  Al63  1  0.24639401  0.75219940  0.00044793  1
  Al0+  Al64  1  0.24750265  0.75233157  0.33737753  1
  Al0+  Al65  1  0.24866514  0.75184677  0.66218866  1
  Al0+  Al66  1  0.75233233  0.25044234  -0.00246665  1
  Al0+  Al67  1  0.75188892  0.25253783  0.33111267  1
  Al0+  Al68  1  0.75107659  0.24865126  0.66861964  1
  Al0+  Al69  1  0.74968014  0.75340352  0.00563618  1
  Al0+  Al70  1  0.75077997  0.75004488  0.32826354  1
  Al0+  Al71  1  0.74840504  0.74964380  0.66686035  1
  Al0+  Al72  1  0.17806026  0.42965196  0.68017677  1
  Al0+  Al73  1  0.17686838  0.43043303  0.34553279  1
  Al0+  Al74  1  0.57109580  0.67635721  0.98581292  1
  Al0+  Al75  1  0.31915272  0.57210193  0.01291826  1
  Al0+  Al76  1  0.67986452  0.92797453  0.68312618  1
  Al0+  Al77  1  0.57212701  0.18109262  0.98517010  1
  Al0+  Al78  1  0.07018034  0.67652792  0.65056179  1
  Al0+  Al79  1  0.32133577  0.57439747  0.68165613  1
  Al0+  Al80  1  0.92951414  0.32199198  0.31734111  1
  Al0+  Al81  1  0.42821084  0.82065092  0.31980834  1
  Al0+  Al82  1  0.57137065  0.67525791  0.31777336  1
  Al0+  Al83  1  0.32122363  0.06844564  0.68263668  1
  Al0+  Al84  1  0.32479875  0.06869015  0.34759271  1
  Al0+  Al85  1  0.56987628  0.67460658  0.65272543  1
  Al0+  Al86  1  0.81690556  0.56922891  0.67728526  1
  Al0+  Al87  1  0.17661297  0.92797953  0.34996252  1
  Al0+  Al88  1  0.42674715  0.82026291  0.98531018  1
  Al0+  Al89  1  0.82328334  0.07227769  0.68121964  1
  Al0+  Al90  1  0.42917826  0.82293725  0.65124118  1
  Al0+  Al91  1  0.82183384  0.57483477  0.01658348  1
  Al0+  Al92  1  0.32285723  0.57250432  0.34801054  1
  Al0+  Al93  1  0.68052884  0.42861382  0.34784598  1
  Al0+  Al94  1  0.67985375  0.42850975  0.01448587  1
  Al0+  Al95  1  0.92827116  0.82180919  0.65238910  1
  Si0+  Si96  1  0.93158613  0.32083620  0.98197908  1
  Si0+  Si97  1  0.67785961  0.93127367  0.01856129  1
  Si0+  Si98  1  0.06952636  0.67939067  0.31737052  1
  Si0+  Si99  1  0.68206676  0.92847385  0.34749221  1
  Si0+  Si100  1  0.57212701  0.18080371  0.65100963  1
  Si0+  Si101  1  0.82057193  0.07200154  0.34561268  1
  Si0+  Si102  1  0.42443993  0.32114047  0.98272429  1
  Si0+  Si103  1  0.07392628  0.18006501  0.64970868  1
  Si0+  Si104  1  0.57220669  0.17943621  0.32033753  1
  Si0+  Si105  1  0.67587720  0.42517933  0.68299572  1
  Si0+  Si106  1  0.82254500  0.07055476  0.01622764  1
  Si0+  Si107  1  0.92945668  0.82436068  0.31787134  1
  Si0+  Si108  1  0.32241138  0.07007302  0.01480552  1
  Si0+  Si109  1  0.92919599  0.82473277  0.98777071  1
  Si0+  Si110  1  0.06813229  0.67958748  0.98640879  1
  Si0+  Si111  1  0.42685009  0.31762806  0.65123996  1
  Si0+  Si112  1  0.42784373  0.31880011  0.31974095  1
  Si0+  Si113  1  0.82137064  0.57384728  0.35006162  1
  Si0+  Si114  1  0.17622084  0.92807259  0.68516744  1
  Si0+  Si115  1  0.92861288  0.31872872  0.65055047  1
  Si0+  Si116  1  0.17722508  0.93172568  0.01391973  1
  Si0+  Si117  1  0.17804787  0.42511225  0.01571104  1
  Si0+  Si118  1  0.07080412  0.17790684  0.98344368  1
  Si0+  Si119  1  0.07231304  0.17805148  0.31471681  1
  O2-  O120  1  0.25421815  -0.00354861  0.05592207  1
  O2-  O121  1  0.25553198  -0.00606626  0.39735606  1
  O2-  O122  1  0.25101698  -0.01005593  0.73037067  1
  O2-  O123  1  0.24711046  0.49333696  0.05865254  1
  O2-  O124  1  0.24802123  0.50173434  0.39588664  1
  O2-  O125  1  0.24443784  0.50591427  0.73085535  1
  O2-  O126  1  0.75087050  0.00167973  0.06049123  1
  O2-  O127  1  0.75500467  -0.00208954  0.38899708  1
  O2-  O128  1  0.75567289  -0.00232537  0.73272825  1
  O2-  O129  1  0.74603868  0.50586548  0.06515455  1
  O2-  O130  1  0.74969279  0.50819613  0.39351332  1
  O2-  O131  1  0.73701503  0.50091587  0.72530244  1
  O2-  O132  1  0.00748682  0.25028327  0.26961421  1
  O2-  O133  1  0.00129714  0.24957256  0.60821383  1
  O2-  O134  1  0.00606981  0.25353248  0.93969473  1
  O2-  O135  1  0.00066983  0.75385813  0.27512660  1
  O2-  O136  1  -0.00029492  0.75065572  0.60048800  1
  O2-  O137  1  -0.00819544  0.74631699  0.94663998  1
  O2-  O138  1  0.49853043  0.24692607  0.27759568  1
  O2-  O139  1  0.50122961  0.25030854  0.60759296  1
  O2-  O140  1  0.49756142  0.25619236  0.93893011  1
  O2-  O141  1  0.49289448  0.74192793  0.26961353  1
  O2-  O142  1  0.49435990  0.74362827  0.60333676  1
  O2-  O143  1  0.49518785  0.74453684  0.93648711  1
  O2-  O144  1  0.06784829  0.17465269  0.08805945  1
  O2-  O145  1  0.06861415  0.17537980  0.41988241  1
  O2-  O146  1  0.07437388  0.18162603  0.75542885  1
  O2-  O147  1  0.06981271  0.68172016  0.09175028  1
  O2-  O148  1  0.06495701  0.67556372  0.42152409  1
  O2-  O149  1  0.06688308  0.67843033  0.76502396  1
  O2-  O150  1  0.57005336  0.17934840  0.09892855  1
  O2-  O151  1  0.57518820  0.18062284  0.42524664  1
  O2-  O152  1  0.57292683  0.18326023  0.75610455  1
  O2-  O153  1  0.57023570  0.67947625  0.09937884  1
  O2-  O154  1  0.57571629  0.67872381  0.43082790  1
  O2-  O155  1  0.57144488  0.67596736  0.76627882  1
  O2-  O156  1  0.17861602  0.43385786  0.23136217  1
  O2-  O157  1  0.18086833  0.42768891  0.56695322  1
  O2-  O158  1  0.17811240  0.42245344  0.91055978  1
  O2-  O159  1  0.17146561  0.93397083  0.23570015  1
  O2-  O160  1  0.17049391  0.93452436  0.58041945  1
  O2-  O161  1  0.17105925  0.93589483  0.90967370  1
  O2-  O162  1  0.68370192  0.42271483  0.23536211  1
  O2-  O163  1  0.68043132  0.41956067  0.57752255  1
  O2-  O164  1  0.68693788  0.42302662  0.90134461  1
  O2-  O165  1  0.68339725  0.93209730  0.24195665  1
  O2-  O166  1  0.68083035  0.93228771  0.56900331  1
  O2-  O167  1  0.67982682  0.93107646  0.91408381  1
  O2-  O168  1  0.41995724  0.31596039  0.08845868  1
  O2-  O169  1  0.42894564  0.31687265  0.42477624  1
  O2-  O170  1  0.42658749  0.31548040  0.75631508  1
  O2-  O171  1  0.42751969  0.82218091  0.09886543  1
  O2-  O172  1  0.43639472  0.82561214  0.43223339  1
  O2-  O173  1  0.43379740  0.82292542  0.76491610  1
  O2-  O174  1  0.93174088  0.31864277  0.08706612  1
  O2-  O175  1  0.92708069  0.31740645  0.43022983  1
  O2-  O176  1  0.92833872  0.31640971  0.75587017  1
  O2-  O177  1  0.93424797  0.83057619  0.09304982  1
  O2-  O178  1  0.92768221  0.82668948  0.42208203  1
  O2-  O179  1  0.93001171  0.82063791  0.76668038  1
  O2-  O180  1  0.32423846  0.07021040  0.23323454  1
  O2-  O181  1  0.31924520  0.07112034  0.57001525  1
  O2-  O182  1  0.32027475  0.07237134  0.91005191  1
  O2-  O183  1  0.32146814  0.57024214  0.23373842  1
  O2-  O184  1  0.32339373  0.56971614  0.56873683  1
  O2-  O185  1  0.31576519  0.57367852  0.90042175  1
  O2-  O186  1  0.81918039  0.07131858  0.23989849  1
  O2-  O187  1  0.81862757  0.07598951  0.56723869  1
  O2-  O188  1  0.82503889  0.06910821  0.91191433  1
  O2-  O189  1  0.82273967  0.57246237  0.24444070  1
  O2-  O190  1  0.81960594  0.56420005  0.56436687  1
  O2-  O191  1  0.82635586  0.57171318  0.90323327  1
  O2-  O192  1  0.04094900  0.08686940  0.26541657  1
  O2-  O193  1  0.04775741  0.08861519  0.60191479  1
  O2-  O194  1  0.03736160  0.08893399  0.93352458  1
  O2-  O195  1  0.03793257  0.59068416  0.26545361  1
  O2-  O196  1  0.03639843  0.57875510  0.59892439  1
  O2-  O197  1  0.04524560  0.58635716  0.93995547  1
  O2-  O198  1  0.54790359  0.08708607  0.27226487  1
  O2-  O199  1  0.54522151  0.08841322  0.60584493  1
  O2-  O200  1  0.54075820  0.08636135  0.92900972  1
  O2-  O201  1  0.54991392  0.57286787  0.26994051  1
  O2-  O202  1  0.54659925  0.57312790  0.60260019  1
  O2-  O203  1  0.55127382  0.57423295  0.93742826  1
  O2-  O204  1  0.16760621  0.19863048  0.26969660  1
  O2-  O205  1  0.16519378  0.20940221  0.60297564  1
  O2-  O206  1  0.16488039  0.19976436  0.93753571  1
  O2-  O207  1  0.16178227  0.70563543  0.26981731  1
  O2-  O208  1  0.16872796  0.70213413  0.59822980  1
  O2-  O209  1  0.15675679  0.71330534  0.93710966  1
  O2-  O210  1  0.66230284  0.21001872  0.27052120  1
  O2-  O211  1  0.66392629  0.20905367  0.60311016  1
  O2-  O212  1  0.66950916  0.20998323  0.93116904  1
  O2-  O213  1  0.66861781  0.70930721  0.26339433  1
  O2-  O214  1  0.66730555  0.70615590  0.59980161  1
  O2-  O215  1  0.67078006  0.71068080  0.93757015  1
  O2-  O216  1  0.08389662  0.45190141  0.05953804  1
  O2-  O217  1  0.07672996  0.45719125  0.39513217  1
  O2-  O218  1  0.07702702  0.44936249  0.73106114  1
  O2-  O219  1  0.08857278  0.96667170  0.06455401  1
  O2-  O220  1  0.08080297  0.96498891  0.40408097  1
  O2-  O221  1  0.08621209  0.96218800  0.73446407  1
  O2-  O222  1  0.57820107  0.44480820  0.06562788  1
  O2-  O223  1  0.58320537  0.44955698  0.40365026  1
  O2-  O224  1  0.57942658  0.43877444  0.72607079  1
  O2-  O225  1  0.58763968  0.96545780  0.06490661  1
  O2-  O226  1  0.59286054  0.95978921  0.39573632  1
  O2-  O227  1  0.58632639  0.96400771  0.73987379  1
  O2-  O228  1  0.20022121  0.33024962  0.06199598  1
  O2-  O229  1  0.19985218  0.32949164  0.39449421  1
  O2-  O230  1  0.21056879  0.33316540  0.73557027  1
  O2-  O231  1  0.19731026  0.83845126  0.06116004  1
  O2-  O232  1  0.19074318  0.82710877  0.40025104  1
  O2-  O233  1  0.19282881  0.83169326  0.72753566  1
  O2-  O234  1  0.71600233  0.33096438  0.06778354  1
  O2-  O235  1  0.71673610  0.33325805  0.40244456  1
  O2-  O236  1  0.71031044  0.33513512  0.73096277  1
  O2-  O237  1  0.70561398  0.84130253  0.06907992  1
  O2-  O238  1  0.71061228  0.83668492  0.39289379  1
  O2-  O239  1  0.70763463  0.83055562  0.73746859  1
  O2-  O240  1  0.45786909  0.40935602  0.27187473  1
  O2-  O241  1  0.45123991  0.40944211  0.60307170  1
  O2-  O242  1  0.44587805  0.41595575  0.93908155  1
  O2-  O243  1  0.46510895  0.91750973  0.26521100  1
  O2-  O244  1  0.46569358  0.92089261  0.60131199  1
  O2-  O245  1  0.45929118  0.91827710  0.93408404  1
  O2-  O246  1  0.95725303  0.41822539  0.26021346  1
  O2-  O247  1  0.95339339  0.41008126  0.60223920  1
  O2-  O248  1  0.95629477  0.41387236  0.93545815  1
  O2-  O249  1  0.95684873  0.91679508  0.26964242  1
  O2-  O250  1  0.95631200  0.92220352  0.60172547  1
  O2-  O251  1  0.96388320  0.91317015  0.93793170  1
  O2-  O252  1  0.33640249  0.29178973  0.27081339  1
  O2-  O253  1  0.33704788  0.28346741  0.60451818  1
  O2-  O254  1  0.33297243  0.28928349  0.93503247  1
  O2-  O255  1  0.32442197  0.80503488  0.27214263  1
  O2-  O256  1  0.32636658  0.80894362  0.60344588  1
  O2-  O257  1  0.32466469  0.80049968  0.93561735  1
  O2-  O258  1  0.83584615  0.28431432  0.26070348  1
  O2-  O259  1  0.83752493  0.28773692  0.60290089  1
  O2-  O260  1  0.84241683  0.28743540  0.93425889  1
  O2-  O261  1  0.83881886  0.79680063  0.26726088  1
  O2-  O262  1  0.82987051  0.79514220  0.60010446  1
  O2-  O263  1  0.83378888  0.80626569  0.94558873  1
  O2-  O264  1  0.41589365  0.04620985  0.06036299  1
  O2-  O265  1  0.42453376  0.04464215  0.40053554  1
  O2-  O266  1  0.41910438  0.04431362  0.73664665  1
  O2-  O267  1  0.41552178  0.54237173  0.06723490  1
  O2-  O268  1  0.41889834  0.53863934  0.40092562  1
  O2-  O269  1  0.41692820  0.53676710  0.73570838  1
  O2-  O270  1  0.91374421  0.04110505  0.06503626  1
  O2-  O271  1  0.91390379  0.04992085  0.39107759  1
  O2-  O272  1  0.92433979  0.05311826  0.73199629  1
  O2-  O273  1  0.91945261  0.54083476  0.06981169  1
  O2-  O274  1  0.91352824  0.54312398  0.39473504  1
  O2-  O275  1  0.91063979  0.53275596  0.73366566  1
  O2-  O276  1  0.29140890  0.16073698  0.06323584  1
  O2-  O277  1  0.29409672  0.16635842  0.40032878  1
  O2-  O278  1  0.28518552  0.16208449  0.73939351  1
  O2-  O279  1  0.28260378  0.66747233  0.06709101  1
  O2-  O280  1  0.29689500  0.67141929  0.39835023  1
  O2-  O281  1  0.29429939  0.67417817  0.73271635  1
  O2-  O282  1  0.79540473  0.16287961  0.06255987  1
  O2-  O283  1  0.78974889  0.16224693  0.39265237  1
  O2-  O284  1  0.78984731  0.16827041  0.73700537  1
  O2-  O285  1  0.80272432  0.67587659  0.06873560  1
  O2-  O286  1  0.80118006  0.66979124  0.39295993  1
  O2-  O287  1  0.79449613  0.66705970  0.73136894  1
