# generated using pymatgen
data_Ca2Al2SiO7
_symmetry_space_group_name_H-M   'P 1'
_cell_length_a   15.46174102
_cell_length_b   15.46085359
_cell_length_c   15.28576906
_cell_angle_alpha   89.99978555
_cell_angle_beta   90.00810134
_cell_angle_gamma   90.00036366
_symmetry_Int_Tables_number   1
_chemical_formula_structural   Ca2Al2SiO7
_chemical_formula_sum   'Ca48 Al48 Si24 O168'
_cell_volume   3654.08926050
_cell_formula_units_Z   24
loop_
 _symmetry_equiv_pos_site_id
 _symmetry_equiv_pos_as_xyz
  1  'x, y, z'
loop_
 _atom_type_symbol
 _atom_type_oxidation_number
  Ca2+  2.0
  Al0+  0.0
  Si0+  0.0
  O2-  -2.0
loop_
 _atom_site_type_symbol
 _atom_site_label
 _atom_site_symmetry_multiplicity
 _atom_site_fract_x
 _atom_site_fract_y
 _atom_site_fract_z
 _atom_site_occupancy
  Ca2+  Ca0  1  0.17423682  0.07778195  0.17386058  1
  Ca2+  Ca1  1  0.16149068  0.07929859  0.49899396  1
  Ca2+  Ca2  1  0.17702627  0.08105780  0.84375356  1
  Ca2+  Ca3  1  0.16644495  0.58689665  0.16710383  1
  Ca2+  Ca4  1  0.16625517  0.58680598  0.49799698  1
  Ca2+  Ca5  1  0.17258861  0.57731723  0.84737188  1
  Ca2+  Ca6  1  0.66024103  0.07628400  0.16877932  1
  Ca2+  Ca7  1  0.65710616  0.07652676  0.50185770  1
  Ca2+  Ca8  1  0.66276753  0.07596106  0.84133036  1
  Ca2+  Ca9  1  0.67676840  0.58523939  0.17368974  1
  Ca2+  Ca10  1  0.67048620  0.57174584  0.50318272  1
  Ca2+  Ca11  1  0.66781051  0.57839716  0.84278907  1
  Ca2+  Ca12  1  0.07752407  0.33565236  0.16427107  1
  Ca2+  Ca13  1  0.07473613  0.32573794  0.48710824  1
  Ca2+  Ca14  1  0.08405202  0.33573981  0.83293536  1
  Ca2+  Ca15  1  0.08640076  0.82325985  0.16307252  1
  Ca2+  Ca16  1  0.07420893  0.83190341  0.48961311  1
  Ca2+  Ca17  1  0.07527607  0.82687111  0.82995410  1
  Ca2+  Ca18  1  0.59389830  0.32200029  0.16404881  1
  Ca2+  Ca19  1  0.59143264  0.32589901  0.49552924  1
  Ca2+  Ca20  1  0.58239630  0.32193250  0.82386902  1
  Ca2+  Ca21  1  0.57773165  0.83608335  0.15825826  1
  Ca2+  Ca22  1  0.57933202  0.84009209  0.49304424  1
  Ca2+  Ca23  1  0.58698319  0.83344660  0.83711648  1
  Ca2+  Ca24  1  0.32978763  0.42305135  0.16543574  1
  Ca2+  Ca25  1  0.33488058  0.41546587  0.50617168  1
  Ca2+  Ca26  1  0.32892445  0.41844314  0.84239924  1
  Ca2+  Ca27  1  0.33737191  0.91708256  0.17162367  1
  Ca2+  Ca28  1  0.32850187  0.91361767  0.49623176  1
  Ca2+  Ca29  1  0.33716875  0.92301839  0.84325622  1
  Ca2+  Ca30  1  0.83063716  0.42622834  0.17418322  1
  Ca2+  Ca31  1  0.82642981  0.41490269  0.49569923  1
  Ca2+  Ca32  1  0.82595697  0.42163202  0.83925348  1
  Ca2+  Ca33  1  0.81920424  0.91926692  0.16973092  1
  Ca2+  Ca34  1  0.82146432  0.91418622  0.50697648  1
  Ca2+  Ca35  1  0.82457478  0.92039275  0.84019646  1
  Ca2+  Ca36  1  0.42745595  0.16274856  0.16017941  1
  Ca2+  Ca37  1  0.42857821  0.17311701  0.49764713  1
  Ca2+  Ca38  1  0.42620634  0.16811213  0.83132570  1
  Ca2+  Ca39  1  0.42128392  0.67860863  0.15638809  1
  Ca2+  Ca40  1  0.42177339  0.67384570  0.49165730  1
  Ca2+  Ca41  1  0.41923213  0.66760601  0.83853243  1
  Ca2+  Ca42  1  0.91489570  0.17050252  0.16464053  1
  Ca2+  Ca43  1  0.92010762  0.17354571  0.48813434  1
  Ca2+  Ca44  1  0.91562530  0.16287106  0.83328307  1
  Ca2+  Ca45  1  0.92313563  0.65759253  0.16087926  1
  Ca2+  Ca46  1  0.91906713  0.66915149  0.49378243  1
  Ca2+  Ca47  1  0.91681774  0.66823804  0.83404920  1
  Al0+  Al48  1  -0.00054810  0.00139554  0.00231979  1
  Al0+  Al49  1  0.00062497  -0.00078103  0.33241648  1
  Al0+  Al50  1  -0.00060954  -0.00280255  0.66334670  1
  Al0+  Al51  1  -0.00173671  0.49842478  -0.00023908  1
  Al0+  Al52  1  0.00139926  0.50050365  0.33200808  1
  Al0+  Al53  1  0.00195803  0.49966837  0.66593382  1
  Al0+  Al54  1  0.49892926  0.00125259  -0.00126248  1
  Al0+  Al55  1  0.49810005  0.00276107  0.33212782  1
  Al0+  Al56  1  0.49875638  -0.00033824  0.66682573  1
  Al0+  Al57  1  0.49746075  0.49926018  0.00231133  1
  Al0+  Al58  1  0.50001204  0.50030651  0.33757502  1
  Al0+  Al59  1  0.49932563  0.50069395  0.66846147  1
  Al0+  Al60  1  0.24865765  0.24817607  0.00905699  1
  Al0+  Al61  1  0.25196589  0.25052989  0.33160872  1
  Al0+  Al62  1  0.25077862  0.24961218  0.66363263  1
  Al0+  Al63  1  0.24931145  0.74871741  -0.00783372  1
  Al0+  Al64  1  0.24964576  0.75219294  0.33159747  1
  Al0+  Al65  1  0.25020276  0.74907585  0.66762355  1
  Al0+  Al66  1  0.75221486  0.24974979  -0.00400582  1
  Al0+  Al67  1  0.75086688  0.25035250  0.32747669  1
  Al0+  Al68  1  0.75221910  0.24931952  0.66626556  1
  Al0+  Al69  1  0.74971902  0.75010253  0.00392741  1
  Al0+  Al70  1  0.75048891  0.75062818  0.34361524  1
  Al0+  Al71  1  0.75058314  0.75023734  0.66680016  1
  Al0+  Al72  1  0.67849941  0.42773228  0.34728286  1
  Al0+  Al73  1  0.57178405  0.18123442  0.98525939  1
  Al0+  Al74  1  0.17955406  0.92913529  0.34636380  1
  Al0+  Al75  1  0.57229487  0.17860742  0.65089594  1
  Al0+  Al76  1  0.67947147  0.42789958  0.68163975  1
  Al0+  Al77  1  0.67737942  0.93131311  0.34824456  1
  Al0+  Al78  1  0.07321706  0.17608776  0.31629006  1
  Al0+  Al79  1  0.06939302  0.68128303  0.31964527  1
  Al0+  Al80  1  0.42863589  0.32255532  0.65305110  1
  Al0+  Al81  1  0.56925953  0.18158813  0.31827726  1
  Al0+  Al82  1  0.43103627  0.81984175  0.32125036  1
  Al0+  Al83  1  0.82424218  0.57155626  0.35056577  1
  Al0+  Al84  1  0.92990744  0.32036811  0.31601121  1
  Al0+  Al85  1  0.06923299  0.67750474  0.98472643  1
  Al0+  Al86  1  0.17775301  0.42861280  0.01635462  1
  Al0+  Al87  1  0.81859557  0.57075258  0.01181088  1
  Al0+  Al88  1  0.82304829  0.07354491  0.01579956  1
  Al0+  Al89  1  0.32185278  0.57282372  0.01645478  1
  Al0+  Al90  1  0.67905754  0.93078858  0.01535113  1
  Al0+  Al91  1  0.32080510  0.06931019  0.01376884  1
  Al0+  Al92  1  0.57345597  0.67709758  0.98671626  1
  Al0+  Al93  1  0.42954996  0.82159722  0.98357726  1
  Al0+  Al94  1  0.67749596  0.92933353  0.68195526  1
  Al0+  Al95  1  0.92864038  0.81995756  0.65267118  1
  Si0+  Si96  1  0.82205566  0.07150252  0.34966764  1
  Si0+  Si97  1  0.18064107  0.42867335  0.34990412  1
  Si0+  Si98  1  0.07258259  0.67783307  0.64932532  1
  Si0+  Si99  1  0.17687424  0.92690038  0.01409063  1
  Si0+  Si100  1  0.18006966  0.42851340  0.67939378  1
  Si0+  Si101  1  0.57110372  0.67848292  0.65202171  1
  Si0+  Si102  1  0.57339403  0.67700512  0.32026233  1
  Si0+  Si103  1  0.42767524  0.82072619  0.65077182  1
  Si0+  Si104  1  0.07201602  0.17830904  0.98461768  1
  Si0+  Si105  1  0.92797323  0.82384849  0.98475177  1
  Si0+  Si106  1  0.93056444  0.32222714  0.65194238  1
  Si0+  Si107  1  0.93041249  0.32070128  0.98169384  1
  Si0+  Si108  1  0.07181775  0.17856581  0.65340102  1
  Si0+  Si109  1  0.67652217  0.42693512  0.01413988  1
  Si0+  Si110  1  0.82317108  0.57082112  0.68407717  1
  Si0+  Si111  1  0.32127087  0.57280759  0.68183174  1
  Si0+  Si112  1  0.82482667  0.07106989  0.68157524  1
  Si0+  Si113  1  0.42696856  0.32626955  0.31495096  1
  Si0+  Si114  1  0.32007159  0.57226210  0.34917226  1
  Si0+  Si115  1  0.31804955  0.07012776  0.68071827  1
  Si0+  Si116  1  0.32196803  0.07388821  0.35326898  1
  Si0+  Si117  1  0.17731240  0.92779212  0.68184042  1
  Si0+  Si118  1  0.92449362  0.82238471  0.31586465  1
  Si0+  Si119  1  0.42497054  0.32092933  0.98581292  1
  O2-  O120  1  0.24896432  -0.00879918  0.05840026  1
  O2-  O121  1  0.24970051  0.00742738  0.39619871  1
  O2-  O122  1  0.24795643  -0.00163021  0.72431669  1
  O2-  O123  1  0.24792371  0.50249327  0.06616741  1
  O2-  O124  1  0.25267546  0.49815967  0.39349324  1
  O2-  O125  1  0.25139698  0.49889894  0.72133238  1
  O2-  O126  1  0.74980418  0.00381535  0.06574919  1
  O2-  O127  1  0.75416336  0.00365475  0.39630523  1
  O2-  O128  1  0.75216260  0.00634790  0.72474091  1
  O2-  O129  1  0.73831553  0.50182781  0.05739654  1
  O2-  O130  1  0.74951239  0.50079232  0.39828728  1
  O2-  O131  1  0.75372158  0.50317838  0.72840120  1
  O2-  O132  1  0.00151517  0.24763663  0.26570600  1
  O2-  O133  1  -0.00037314  0.24819333  0.61137497  1
  O2-  O134  1  0.00100682  0.24815945  0.93989904  1
  O2-  O135  1  -0.00835063  0.75218550  0.27211668  1
  O2-  O136  1  0.00374859  0.74560667  0.60548205  1
  O2-  O137  1  -0.00448842  0.75385081  0.93935712  1
  O2-  O138  1  0.49730153  0.25951042  0.27184720  1
  O2-  O139  1  0.50489634  0.25607894  0.60193633  1
  O2-  O140  1  0.49821914  0.25824885  0.94018489  1
  O2-  O141  1  0.50852008  0.74838730  0.27590656  1
  O2-  O142  1  0.50124119  0.75154309  0.60989677  1
  O2-  O143  1  0.50181175  0.74892302  0.93412669  1
  O2-  O144  1  0.07207270  0.17834957  0.08883018  1
  O2-  O145  1  0.07094999  0.17951272  0.43136771  1
  O2-  O146  1  0.07378869  0.17969220  0.75861827  1
  O2-  O147  1  0.06827002  0.67866541  0.09759116  1
  O2-  O148  1  0.07102515  0.68365731  0.43342481  1
  O2-  O149  1  0.07315001  0.67689153  0.75456754  1
  O2-  O150  1  0.57073770  0.18183924  0.09823896  1
  O2-  O151  1  0.56710557  0.18047195  0.43150913  1
  O2-  O152  1  0.56836738  0.17749101  0.76434174  1
  O2-  O153  1  0.57345113  0.67859502  0.10022816  1
  O2-  O154  1  0.56850624  0.67586609  0.42658020  1
  O2-  O155  1  0.56953595  0.67702751  0.75678250  1
  O2-  O156  1  0.18099908  0.42898952  0.24542273  1
  O2-  O157  1  0.17893986  0.42880446  0.57439320  1
  O2-  O158  1  0.17970975  0.42751095  0.90143528  1
  O2-  O159  1  0.18420588  0.92666527  0.23375119  1
  O2-  O160  1  0.17780561  0.92799104  0.57688357  1
  O2-  O161  1  0.17472091  0.93205379  0.90763706  1
  O2-  O162  1  0.67887016  0.42984405  0.23381985  1
  O2-  O163  1  0.68233689  0.42890472  0.56891423  1
  O2-  O164  1  0.68062432  0.42580968  0.90805773  1
  O2-  O165  1  0.67647572  0.93123171  0.23591709  1
  O2-  O166  1  0.67688895  0.93078438  0.56871040  1
  O2-  O167  1  0.68139148  0.93165162  0.90136013  1
  O2-  O168  1  0.42362730  0.31857424  0.09120293  1
  O2-  O169  1  0.42435970  0.32480396  0.42073181  1
  O2-  O170  1  0.42347998  0.31865875  0.76629833  1
  O2-  O171  1  0.42994342  0.82150075  0.09708736  1
  O2-  O172  1  0.42999674  0.81725364  0.43545538  1
  O2-  O173  1  0.42327534  0.82032339  0.75507901  1
  O2-  O174  1  0.93077857  0.32197468  0.08616908  1
  O2-  O175  1  0.93244037  0.31859705  0.43080074  1
  O2-  O176  1  0.93341304  0.32475771  0.75699060  1
  O2-  O177  1  0.93023965  0.82505841  0.08997692  1
  O2-  O178  1  0.92719677  0.82212333  0.42203358  1
  O2-  O179  1  0.93211164  0.82033709  0.76571348  1
  O2-  O180  1  0.32317747  0.07214464  0.24792142  1
  O2-  O181  1  0.31554573  0.07010478  0.57591917  1
  O2-  O182  1  0.31737009  0.07088724  0.89963164  1
  O2-  O183  1  0.31875665  0.57218264  0.24481374  1
  O2-  O184  1  0.31880717  0.57646819  0.57652276  1
  O2-  O185  1  0.31963797  0.56966584  0.90198821  1
  O2-  O186  1  0.82133873  0.06960677  0.24451480  1
  O2-  O187  1  0.83036843  0.06968274  0.57633370  1
  O2-  O188  1  0.82504719  0.07042890  0.90162405  1
  O2-  O189  1  0.82365605  0.57052847  0.23701005  1
  O2-  O190  1  0.82505967  0.56905742  0.57888010  1
  O2-  O191  1  0.82027705  0.56657503  0.89808623  1
  O2-  O192  1  0.04846135  0.07650151  0.26527818  1
  O2-  O193  1  0.04608983  0.08603356  0.60648425  1
  O2-  O194  1  0.04511784  0.08642478  0.93540248  1
  O2-  O195  1  0.04499532  0.58307398  0.26731840  1
  O2-  O196  1  0.04830075  0.58338870  0.60317636  1
  O2-  O197  1  0.03647326  0.58127404  0.93007689  1
  O2-  O198  1  0.53352063  0.08689850  0.26453625  1
  O2-  O199  1  0.53602593  0.08181897  0.59838324  1
  O2-  O200  1  0.53667305  0.08636488  0.93139466  1
  O2-  O201  1  0.54614278  0.58403302  0.27473260  1
  O2-  O202  1  0.54029578  0.58816219  0.60323946  1
  O2-  O203  1  0.54367544  0.57766574  0.93389312  1
  O2-  O204  1  0.17301625  0.20385687  0.26719575  1
  O2-  O205  1  0.16178789  0.20740511  0.60356376  1
  O2-  O206  1  0.16375849  0.20801563  0.93708763  1
  O2-  O207  1  0.16468059  0.71525465  0.26586790  1
  O2-  O208  1  0.16670256  0.70393788  0.60385466  1
  O2-  O209  1  0.16482311  0.70597638  0.92742161  1
  O2-  O210  1  0.66632750  0.20814047  0.26414976  1
  O2-  O211  1  0.67340717  0.20175676  0.60048896  1
  O2-  O212  1  0.66889446  0.20937278  0.93018121  1
  O2-  O213  1  0.66952638  0.69957545  0.27986036  1
  O2-  O214  1  0.66384445  0.70310262  0.60567280  1
  O2-  O215  1  0.67211379  0.70513092  0.93259170  1
  O2-  O216  1  0.07922675  0.45664581  0.06700164  1
  O2-  O217  1  0.08993553  0.45831549  0.39827860  1
  O2-  O218  1  0.08862395  0.45643989  0.72833246  1
  O2-  O219  1  0.08552110  0.95546637  0.06182725  1
  O2-  O220  1  0.08176501  0.95687817  0.40161036  1
  O2-  O221  1  0.08559798  0.95562683  0.72913124  1
  O2-  O222  1  0.58020865  0.44127451  0.05719611  1
  O2-  O223  1  0.57951196  0.45375123  0.40252936  1
  O2-  O224  1  0.58164974  0.45766208  0.73389727  1
  O2-  O225  1  0.58066308  0.96015497  0.06591420  1
  O2-  O226  1  0.58094836  0.96553512  0.40184048  1
  O2-  O227  1  0.57943938  0.95787239  0.73451179  1
  O2-  O228  1  0.20501719  0.33149553  0.07117400  1
  O2-  O229  1  0.20713784  0.33598499  0.39751451  1
  O2-  O230  1  0.20607368  0.33595209  0.72690949  1
  O2-  O231  1  0.19803022  0.83102211  0.05497803  1
  O2-  O232  1  0.21485410  0.83483659  0.40387246  1
  O2-  O233  1  0.20462587  0.83525808  0.72823183  1
  O2-  O234  1  0.71129970  0.33635737  0.05959740  1
  O2-  O235  1  0.71155607  0.32972611  0.39957882  1
  O2-  O236  1  0.71193888  0.33102541  0.73480474  1
  O2-  O237  1  0.70662243  0.83270860  0.06844327  1
  O2-  O238  1  0.70434024  0.83456108  0.40471452  1
  O2-  O239  1  0.70940263  0.83199917  0.73388561  1
  O2-  O240  1  0.44920543  0.42165347  0.27132377  1
  O2-  O241  1  0.44887122  0.42405541  0.60249416  1
  O2-  O242  1  0.44302267  0.41692334  0.94186969  1
  O2-  O243  1  0.45660457  0.91788772  0.26963947  1
  O2-  O244  1  0.45318005  0.91288482  0.60346989  1
  O2-  O245  1  0.45824389  0.91953642  0.92963744  1
  O2-  O246  1  0.96180704  0.41800126  0.26491352  1
  O2-  O247  1  0.96196438  0.41241039  0.60308255  1
  O2-  O248  1  0.96076053  0.41024919  0.93124488  1
  O2-  O249  1  0.95089065  0.91564764  0.27108835  1
  O2-  O250  1  0.96063255  0.91542134  0.59608095  1
  O2-  O251  1  0.95601046  0.91677637  0.93695865  1
  O2-  O252  1  0.33371292  0.30014861  0.26897244  1
  O2-  O253  1  0.33152552  0.29021438  0.59695395  1
  O2-  O254  1  0.33222150  0.28957356  0.94019765  1
  O2-  O255  1  0.33614278  0.78685729  0.26725492  1
  O2-  O256  1  0.33596917  0.79010398  0.60278177  1
  O2-  O257  1  0.33106584  0.79524048  0.92816319  1
  O2-  O258  1  0.83256333  0.29406584  0.26158034  1
  O2-  O259  1  0.83907878  0.29595149  0.60426243  1
  O2-  O260  1  0.83984659  0.29301441  0.93140679  1
  O2-  O261  1  0.82918081  0.79842349  0.27362937  1
  O2-  O262  1  0.83213017  0.78993170  0.59803313  1
  O2-  O263  1  0.83463442  0.79761150  0.93913416  1
  O2-  O264  1  0.41665766  0.04052657  0.06806479  1
  O2-  O265  1  0.41271632  0.04295748  0.40153227  1
  O2-  O266  1  0.40923418  0.04141603  0.72797958  1
  O2-  O267  1  0.41932579  0.54446196  0.07143223  1
  O2-  O268  1  0.41233537  0.54788127  0.39825796  1
  O2-  O269  1  0.41295767  0.54819826  0.72981825  1
  O2-  O270  1  0.92188640  0.04715023  0.06884025  1
  O2-  O271  1  0.91681580  0.04821137  0.39530233  1
  O2-  O272  1  0.91732118  0.04157775  0.72994855  1
  O2-  O273  1  0.91270305  0.53360590  0.06518430  1
  O2-  O274  1  0.92244956  0.54060835  0.40377115  1
  O2-  O275  1  0.91764108  0.54356147  0.72916503  1
  O2-  O276  1  0.28774834  0.16243488  0.07139960  1
  O2-  O277  1  0.29917749  0.16893952  0.39855049  1
  O2-  O278  1  0.28815267  0.16149054  0.72837105  1
  O2-  O279  1  0.29278255  0.67273833  0.06494264  1
  O2-  O280  1  0.28764231  0.66206950  0.39818947  1
  O2-  O281  1  0.29089749  0.66316851  0.73116860  1
  O2-  O282  1  0.79828075  0.17391723  0.06516155  1
  O2-  O283  1  0.79742185  0.16624579  0.39345964  1
  O2-  O284  1  0.80568730  0.16669733  0.72618395  1
  O2-  O285  1  0.79688292  0.66811132  0.06714126  1
  O2-  O286  1  0.79798349  0.66933821  0.40625445  1
  O2-  O287  1  0.79863982  0.66500683  0.72845180  1
