# generated using pymatgen
data_Ca2Al2SiO7
_symmetry_space_group_name_H-M   'P 1'
_cell_length_a   15.45451376
_cell_length_b   15.45529063
_cell_length_c   15.28117488
_cell_angle_alpha   90.00497531
_cell_angle_beta   90.00772944
_cell_angle_gamma   89.99189442
_symmetry_Int_Tables_number   1
_chemical_formula_structural   Ca2Al2SiO7
_chemical_formula_sum   'Ca48 Al48 Si24 O168'
_cell_volume   3649.96968656
_cell_formula_units_Z   24
loop_
 _symmetry_equiv_pos_site_id
 _symmetry_equiv_pos_as_xyz
  1  'x, y, z'
loop_
 _atom_type_symbol
 _atom_type_oxidation_number
  Ca2+  2.0
  Al0+  0.0
  Si0+  0.0
  O2-  -2.0
loop_
 _atom_site_type_symbol
 _atom_site_label
 _atom_site_symmetry_multiplicity
 _atom_site_fract_x
 _atom_site_fract_y
 _atom_site_fract_z
 _atom_site_occupancy
  Ca2+  Ca0  1  0.16349623  0.06943311  0.17009568  1
  Ca2+  Ca1  1  0.17072967  0.08163018  0.50642863  1
  Ca2+  Ca2  1  0.16841956  0.08033978  0.83627573  1
  Ca2+  Ca3  1  0.17987792  0.58506528  0.17314069  1
  Ca2+  Ca4  1  0.16708108  0.58214528  0.50236587  1
  Ca2+  Ca5  1  0.17006789  0.59150142  0.84095983  1
  Ca2+  Ca6  1  0.66990766  0.08053458  0.16881373  1
  Ca2+  Ca7  1  0.66445254  0.06782784  0.50735508  1
  Ca2+  Ca8  1  0.67251457  0.07578320  0.83958675  1
  Ca2+  Ca9  1  0.66306906  0.58060800  0.17435523  1
  Ca2+  Ca10  1  0.66026374  0.57554138  0.50582196  1
  Ca2+  Ca11  1  0.65988587  0.58234417  0.83390468  1
  Ca2+  Ca12  1  0.08035931  0.33824335  0.16750650  1
  Ca2+  Ca13  1  0.07540194  0.33185259  0.49448664  1
  Ca2+  Ca14  1  0.07537603  0.32608776  0.82013040  1
  Ca2+  Ca15  1  0.08373545  0.83215721  0.15591971  1
  Ca2+  Ca16  1  0.08163298  0.83249351  0.49920227  1
  Ca2+  Ca17  1  0.07816455  0.83003899  0.83015318  1
  Ca2+  Ca18  1  0.57959020  0.33084613  0.15819824  1
  Ca2+  Ca19  1  0.58809987  0.33544394  0.49517379  1
  Ca2+  Ca20  1  0.57953279  0.32957308  0.83317860  1
  Ca2+  Ca21  1  0.58670052  0.82190431  0.16336327  1
  Ca2+  Ca22  1  0.58391219  0.82764043  0.49562947  1
  Ca2+  Ca23  1  0.58199834  0.82265601  0.82223890  1
  Ca2+  Ca24  1  0.33379158  0.42632353  0.17142491  1
  Ca2+  Ca25  1  0.33054591  0.42479499  0.50057795  1
  Ca2+  Ca26  1  0.33229621  0.42373037  0.84218212  1
  Ca2+  Ca27  1  0.31980199  0.91115312  0.16993688  1
  Ca2+  Ca28  1  0.33128315  0.91976425  0.50821072  1
  Ca2+  Ca29  1  0.33087157  0.91731527  0.83441943  1
  Ca2+  Ca30  1  0.82779496  0.41957063  0.17586479  1
  Ca2+  Ca31  1  0.82633957  0.41148027  0.50589137  1
  Ca2+  Ca32  1  0.82892929  0.41303432  0.83271783  1
  Ca2+  Ca33  1  0.83246593  0.92147108  0.16878722  1
  Ca2+  Ca34  1  0.82231112  0.90844556  0.50598573  1
  Ca2+  Ca35  1  0.83490958  0.91445606  0.83817221  1
  Ca2+  Ca36  1  0.42435109  0.17594370  0.15681276  1
  Ca2+  Ca37  1  0.41486763  0.16556706  0.49843027  1
  Ca2+  Ca38  1  0.41651457  0.16914969  0.82946297  1
  Ca2+  Ca39  1  0.42451778  0.65677833  0.16278995  1
  Ca2+  Ca40  1  0.42520680  0.66816042  0.49814492  1
  Ca2+  Ca41  1  0.42219922  0.67130693  0.82968090  1
  Ca2+  Ca42  1  0.91170475  0.17146764  0.16367243  1
  Ca2+  Ca43  1  0.91723438  0.17642678  0.49989692  1
  Ca2+  Ca44  1  0.92061251  0.16674328  0.82651269  1
  Ca2+  Ca45  1  0.92561827  0.67600751  0.15613136  1
  Ca2+  Ca46  1  0.91942765  0.66969194  0.50266108  1
  Ca2+  Ca47  1  0.92776037  0.67679078  0.82754851  1
  Al0+  Al48  1  -0.00220208  0.00236913  0.00602223  1
  Al0+  Al49  1  0.00038058  0.00201301  0.33854825  1
  Al0+  Al50  1  0.00006289  0.00006474  0.65732486  1
  Al0+  Al51  1  -0.00148851  0.50028063  -0.00342153  1
  Al0+  Al52  1  0.00047238  0.50098905  0.33059994  1
  Al0+  Al53  1  -0.00205882  0.49984234  0.66064829  1
  Al0+  Al54  1  0.50101576  0.00001656  -0.00078085  1
  Al0+  Al55  1  0.49992158  -0.00082891  0.33322207  1
  Al0+  Al56  1  0.49949652  0.00031471  0.67375312  1
  Al0+  Al57  1  0.49846591  0.49875054  -0.00419730  1
  Al0+  Al58  1  0.50043285  0.50019957  0.33790972  1
  Al0+  Al59  1  0.49883868  0.49882126  0.66942795  1
  Al0+  Al60  1  0.24893519  0.25108090  -0.00183590  1
  Al0+  Al61  1  0.24911294  0.24996833  0.33285568  1
  Al0+  Al62  1  0.25081271  0.25026645  0.66707551  1
  Al0+  Al63  1  0.25232426  0.74873366  0.00636108  1
  Al0+  Al64  1  0.25144222  0.75172606  0.34306020  1
  Al0+  Al65  1  0.25119930  0.75057317  0.66018942  1
  Al0+  Al66  1  0.74895760  0.24832588  0.00066667  1
  Al0+  Al67  1  0.75153541  0.25067654  0.33219026  1
  Al0+  Al68  1  0.74786593  0.24899382  0.66879291  1
  Al0+  Al69  1  0.75036176  0.74869143  -0.00674427  1
  Al0+  Al70  1  0.75064084  0.75040115  0.33085679  1
  Al0+  Al71  1  0.75088549  0.74552266  0.66499128  1
  Al0+  Al72  1  0.18105082  0.93146830  0.01122338  1
  Al0+  Al73  1  0.92916870  0.32139053  0.31729395  1
  Al0+  Al74  1  0.07309088  0.67890600  0.65006807  1
  Al0+  Al75  1  0.92841044  0.82162929  0.65012990  1
  Al0+  Al76  1  0.32054798  0.56924391  0.01289580  1
  Al0+  Al77  1  0.81956051  0.07081994  0.01406457  1
  Al0+  Al78  1  0.57253609  0.17743145  0.98401067  1
  Al0+  Al79  1  0.68095651  0.42981476  0.34503193  1
  Al0+  Al80  1  0.67810533  0.42810882  0.68353996  1
  Al0+  Al81  1  0.92637542  0.31965758  0.65177061  1
  Al0+  Al82  1  0.07378986  0.17882596  0.65084040  1
  Al0+  Al83  1  0.42799428  0.32029591  0.98448998  1
  Al0+  Al84  1  0.68015473  0.92562020  0.68158962  1
  Al0+  Al85  1  0.57062801  0.67885728  0.98608726  1
  Al0+  Al86  1  0.32263443  0.57098525  0.35194928  1
  Al0+  Al87  1  0.68002717  0.92895691  0.34541638  1
  Al0+  Al88  1  0.07380763  0.67909445  0.98794034  1
  Al0+  Al89  1  0.32030926  0.07207242  0.68170487  1
  Al0+  Al90  1  0.17773118  0.92947898  0.34979082  1
  Al0+  Al91  1  0.56977037  0.67942289  0.31904572  1
  Al0+  Al92  1  0.43060830  0.82382399  0.65166887  1
  Al0+  Al93  1  0.57003091  0.67689541  0.65053806  1
  Al0+  Al94  1  0.93011207  0.82397221  0.98670150  1
  Al0+  Al95  1  0.17748744  0.42876749  0.34852656  1
  Si0+  Si96  1  0.31912649  0.57096200  0.68305111  1
  Si0+  Si97  1  0.07294598  0.68084153  0.31786109  1
  Si0+  Si98  1  0.92787940  0.32170697  0.98562334  1
  Si0+  Si99  1  0.32366058  0.07519054  0.01739055  1
  Si0+  Si100  1  0.57115174  0.17713068  0.31976322  1
  Si0+  Si101  1  0.68061768  0.43057185  0.01445582  1
  Si0+  Si102  1  0.42709165  0.82273045  0.98593770  1
  Si0+  Si103  1  0.82143251  0.07046531  0.68151723  1
  Si0+  Si104  1  0.17715180  0.92772775  0.68314872  1
  Si0+  Si105  1  0.82368505  0.57031217  0.68581778  1
  Si0+  Si106  1  0.82129149  0.07321436  0.35238459  1
  Si0+  Si107  1  0.67726192  0.92475531  0.01621554  1
  Si0+  Si108  1  0.92945120  0.82228121  0.31746392  1
  Si0+  Si109  1  0.17434628  0.42610620  0.01487217  1
  Si0+  Si110  1  0.82239217  0.57188572  0.01410649  1
  Si0+  Si111  1  0.07242459  0.17807556  0.31382998  1
  Si0+  Si112  1  0.17746564  0.42986111  0.68104159  1
  Si0+  Si113  1  0.32212177  0.07195922  0.34762375  1
  Si0+  Si114  1  0.42745804  0.82375072  0.31559155  1
  Si0+  Si115  1  0.56983487  0.17937434  0.65176641  1
  Si0+  Si116  1  0.42904730  0.32106419  0.65028677  1
  Si0+  Si117  1  0.06966902  0.17938907  0.98754778  1
  Si0+  Si118  1  0.42900936  0.32040631  0.32008419  1
  Si0+  Si119  1  0.82318113  0.57353304  0.34842255  1
  O2-  O120  1  0.25680517  0.00471918  0.06129494  1
  O2-  O121  1  0.25389554  0.00396736  0.39290514  1
  O2-  O122  1  0.24458465  -0.00220854  0.72751206  1
  O2-  O123  1  0.24302730  0.49561824  0.05752129  1
  O2-  O124  1  0.24742634  0.50123101  0.40085980  1
  O2-  O125  1  0.24383675  0.50405126  0.72514245  1
  O2-  O126  1  0.74470885  -0.00466120  0.06003719  1
  O2-  O127  1  0.75370668  0.00304141  0.39518010  1
  O2-  O128  1  0.75888958  -0.00298119  0.72711148  1
  O2-  O129  1  0.75019823  0.50236673  0.05765359  1
  O2-  O130  1  0.75537041  0.50386353  0.39261592  1
  O2-  O131  1  0.75345645  0.50227858  0.73001372  1
  O2-  O132  1  0.00453247  0.24764580  0.26909201  1
  O2-  O133  1  0.00116008  0.25071251  0.60178051  1
  O2-  O134  1  0.00294788  0.25443302  0.94538166  1
  O2-  O135  1  0.00347718  0.75388783  0.27543751  1
  O2-  O136  1  0.00244109  0.75193592  0.59931710  1
  O2-  O137  1  0.00284129  0.75193584  0.93857006  1
  O2-  O138  1  0.50067387  0.24939196  0.27853706  1
  O2-  O139  1  0.49997979  0.25044718  0.60714748  1
  O2-  O140  1  0.49611828  0.24478208  0.93388031  1
  O2-  O141  1  0.49480087  0.75366899  0.27117556  1
  O2-  O142  1  0.50339515  0.75347205  0.60030006  1
  O2-  O143  1  0.50026907  0.75867559  0.94225780  1
  O2-  O144  1  0.06869505  0.17917267  0.09268494  1
  O2-  O145  1  0.07293864  0.17841851  0.41892715  1
  O2-  O146  1  0.07279407  0.18055283  0.76541541  1
  O2-  O147  1  0.07228206  0.67980476  0.10206468  1
  O2-  O148  1  0.06995502  0.68049481  0.42264962  1
  O2-  O149  1  0.07380354  0.67999730  0.76376032  1
  O2-  O150  1  0.57306372  0.18176157  0.09854827  1
  O2-  O151  1  0.56964379  0.17584597  0.42498468  1
  O2-  O152  1  0.56956956  0.18127646  0.75653619  1
  O2-  O153  1  0.57088172  0.67704267  0.09962573  1
  O2-  O154  1  0.56976931  0.67915692  0.43136162  1
  O2-  O155  1  0.56506150  0.67607864  0.76433801  1
  O2-  O156  1  0.17995031  0.43003466  0.23453822  1
  O2-  O157  1  0.18089960  0.42903684  0.57620772  1
  O2-  O158  1  0.17376190  0.42424026  0.90914766  1
  O2-  O159  1  0.17704600  0.92979097  0.23607563  1
  O2-  O160  1  0.17958298  0.92933863  0.57750035  1
  O2-  O161  1  0.18090332  0.93377520  0.89843074  1
  O2-  O162  1  0.68057907  0.42960655  0.23134601  1
  O2-  O163  1  0.67858309  0.42752341  0.57025998  1
  O2-  O164  1  0.68246082  0.42972045  0.90948866  1
  O2-  O165  1  0.68190065  0.93008731  0.23216265  1
  O2-  O166  1  0.67905723  0.92918450  0.56799640  1
  O2-  O167  1  0.67842799  0.92487293  0.91089730  1
  O2-  O168  1  0.43167051  0.32128000  0.09882004  1
  O2-  O169  1  0.42893047  0.31825033  0.42539336  1
  O2-  O170  1  0.42879438  0.32068674  0.75516225  1
  O2-  O171  1  0.42613712  0.82161574  0.09173968  1
  O2-  O172  1  0.43066651  0.82741591  0.42072176  1
  O2-  O173  1  0.42907042  0.82082323  0.76578159  1
  O2-  O174  1  0.92685558  0.32216648  0.09073641  1
  O2-  O175  1  0.92691969  0.31757507  0.42966094  1
  O2-  O176  1  0.92804425  0.31718255  0.76622319  1
  O2-  O177  1  0.93106149  0.82256718  0.10110396  1
  O2-  O178  1  0.92795273  0.81944551  0.42213055  1
  O2-  O179  1  0.93121349  0.82201388  0.76367403  1
  O2-  O180  1  0.32204883  0.07221933  0.24195614  1
  O2-  O181  1  0.32009587  0.07277601  0.56825552  1
  O2-  O182  1  0.32049037  0.07636735  0.91206174  1
  O2-  O183  1  0.32385526  0.56809594  0.23797882  1
  O2-  O184  1  0.32094277  0.56687499  0.57823511  1
  O2-  O185  1  0.31984161  0.56887553  0.89960025  1
  O2-  O186  1  0.82004140  0.07327674  0.24633941  1
  O2-  O187  1  0.81540897  0.07353545  0.57602050  1
  O2-  O188  1  0.82068500  0.07171326  0.90122603  1
  O2-  O189  1  0.82187702  0.57285876  0.24214539  1
  O2-  O190  1  0.82444653  0.56934580  0.58004376  1
  O2-  O191  1  0.82455434  0.56890309  0.90958628  1
  O2-  O192  1  0.04315759  0.08428037  0.26892889  1
  O2-  O193  1  0.04822532  0.08150507  0.59567429  1
  O2-  O194  1  0.03685469  0.09012788  0.93940836  1
  O2-  O195  1  0.04572562  0.58939786  0.26963418  1
  O2-  O196  1  0.04284960  0.58117553  0.59649416  1
  O2-  O197  1  0.04488883  0.58093460  0.93412636  1
  O2-  O198  1  0.54283448  0.08657810  0.26977527  1
  O2-  O199  1  0.54021583  0.08775397  0.60566907  1
  O2-  O200  1  0.55066980  0.07668597  0.93345876  1
  O2-  O201  1  0.53849891  0.58135294  0.26670523  1
  O2-  O202  1  0.53552217  0.57915111  0.59916382  1
  O2-  O203  1  0.53664194  0.58416651  0.93171136  1
  O2-  O204  1  0.16654387  0.20180635  0.26703969  1
  O2-  O205  1  0.17161194  0.20944393  0.59787702  1
  O2-  O206  1  0.16275404  0.20155695  0.94020494  1
  O2-  O207  1  0.16689618  0.70859261  0.27477808  1
  O2-  O208  1  0.17089834  0.70466728  0.59541102  1
  O2-  O209  1  0.17289266  0.70684232  0.93721354  1
  O2-  O210  1  0.66302634  0.20488092  0.27272967  1
  O2-  O211  1  0.66109587  0.20656146  0.60364893  1
  O2-  O212  1  0.66889343  0.21103459  0.93034161  1
  O2-  O213  1  0.66715797  0.70987267  0.26460598  1
  O2-  O214  1  0.67110851  0.69614478  0.60127284  1
  O2-  O215  1  0.66767783  0.70378249  0.93074524  1
  O2-  O216  1  0.07988006  0.45033777  0.06045765  1
  O2-  O217  1  0.07802566  0.45612803  0.39961503  1
  O2-  O218  1  0.08286381  0.45190786  0.72553574  1
  O2-  O219  1  0.08620082  0.96475575  0.06809530  1
  O2-  O220  1  0.08204535  0.96126525  0.40452520  1
  O2-  O221  1  0.08197082  0.95317195  0.72569175  1
  O2-  O222  1  0.58775093  0.45746624  0.05966586  1
  O2-  O223  1  0.58511035  0.45784420  0.40080898  1
  O2-  O224  1  0.58108054  0.45880193  0.73754972  1
  O2-  O225  1  0.58285473  0.94849130  0.06243039  1
  O2-  O226  1  0.58308198  0.95988731  0.39886801  1
  O2-  O227  1  0.58596666  0.96075636  0.73691352  1
  O2-  O228  1  0.19926632  0.33251165  0.06217545  1
  O2-  O229  1  0.20563175  0.32933408  0.39960581  1
  O2-  O230  1  0.20911574  0.33952314  0.72927451  1
  O2-  O231  1  0.21175123  0.83593423  0.06842823  1
  O2-  O232  1  0.20717682  0.83463254  0.40602120  1
  O2-  O233  1  0.20511472  0.83384974  0.72741298  1
  O2-  O234  1  0.70935063  0.33907670  0.06189509  1
  O2-  O235  1  0.71059534  0.33252290  0.39890977  1
  O2-  O236  1  0.70901235  0.33120391  0.73782204  1
  O2-  O237  1  0.70520241  0.83107382  0.06166949  1
  O2-  O238  1  0.71215024  0.83269646  0.39887830  1
  O2-  O239  1  0.70748950  0.82698864  0.73268748  1
  O2-  O240  1  0.45850339  0.41184091  0.27358394  1
  O2-  O241  1  0.45753627  0.41233319  0.60316394  1
  O2-  O242  1  0.46082863  0.41540916  0.92846513  1
  O2-  O243  1  0.45261953  0.91711376  0.26771002  1
  O2-  O244  1  0.45678903  0.92399874  0.60118644  1
  O2-  O245  1  0.44526956  0.91857428  0.94177750  1
  O2-  O246  1  0.95778885  0.41902448  0.26266440  1
  O2-  O247  1  0.95052038  0.41823565  0.59893383  1
  O2-  O248  1  0.95094628  0.41381324  0.93678568  1
  O2-  O249  1  0.95461677  0.91707861  0.27450621  1
  O2-  O250  1  0.95089378  0.92005098  0.59459945  1
  O2-  O251  1  0.95757611  0.92317679  0.93590614  1
  O2-  O252  1  0.33770943  0.29327381  0.27115060  1
  O2-  O253  1  0.33791428  0.29284318  0.60237632  1
  O2-  O254  1  0.32766984  0.29707613  0.93209322  1
  O2-  O255  1  0.33190187  0.79823146  0.27342607  1
  O2-  O256  1  0.33324963  0.79564456  0.59744835  1
  O2-  O257  1  0.33593244  0.79176895  0.93880547  1
  O2-  O258  1  0.83291056  0.28855767  0.26169624  1
  O2-  O259  1  0.82849557  0.28758230  0.59943419  1
  O2-  O260  1  0.83758028  0.28979691  0.93865840  1
  O2-  O261  1  0.83920570  0.79287768  0.26774133  1
  O2-  O262  1  0.83179385  0.78755387  0.59674274  1
  O2-  O263  1  0.83294903  0.79483402  0.93300337  1
  O2-  O264  1  0.41910529  0.05318540  0.06165952  1
  O2-  O265  1  0.41573248  0.04737418  0.39450790  1
  O2-  O266  1  0.41561864  0.04269960  0.73887613  1
  O2-  O267  1  0.41608572  0.53304199  0.06718809  1
  O2-  O268  1  0.41799289  0.53647375  0.40675672  1
  O2-  O269  1  0.40860424  0.53755522  0.73150229  1
  O2-  O270  1  0.91435106  0.04263887  0.07354292  1
  O2-  O271  1  0.91544316  0.05093432  0.39742794  1
  O2-  O272  1  0.91869158  0.05101591  0.72265244  1
  O2-  O273  1  0.91347325  0.54270574  0.06350856  1
  O2-  O274  1  0.91702496  0.54935689  0.39326260  1
  O2-  O275  1  0.91711974  0.54264365  0.73215784  1
  O2-  O276  1  0.29652390  0.16874891  0.06369936  1
  O2-  O277  1  0.29704027  0.16550519  0.39413855  1
  O2-  O278  1  0.29046882  0.16935295  0.73650379  1
  O2-  O279  1  0.29402185  0.66465990  0.07152054  1
  O2-  O280  1  0.29840538  0.66985146  0.40430366  1
  O2-  O281  1  0.29487221  0.66506061  0.72739458  1
  O2-  O282  1  0.78665110  0.16671065  0.07068634  1
  O2-  O283  1  0.79359687  0.16610902  0.39764269  1
  O2-  O284  1  0.79092777  0.16150758  0.73038226  1
  O2-  O285  1  0.79608154  0.66463191  0.06064899  1
  O2-  O286  1  0.79749334  0.66671186  0.39413381  1
  O2-  O287  1  0.79876060  0.66352789  0.73237871  1
