# generated using pymatgen
data_Ca2Al2SiO7
_symmetry_space_group_name_H-M   'P 1'
_cell_length_a   15.46599304
_cell_length_b   15.46508270
_cell_length_c   15.28946897
_cell_angle_alpha   89.99093332
_cell_angle_beta   90.00653964
_cell_angle_gamma   90.01801327
_symmetry_Int_Tables_number   1
_chemical_formula_structural   Ca2Al2SiO7
_chemical_formula_sum   'Ca48 Al48 Si24 O168'
_cell_volume   3656.97868830
_cell_formula_units_Z   24
loop_
 _symmetry_equiv_pos_site_id
 _symmetry_equiv_pos_as_xyz
  1  'x, y, z'
loop_
 _atom_type_symbol
 _atom_type_oxidation_number
  Ca2+  2.0
  Al0+  0.0
  Si0+  0.0
  O2-  -2.0
loop_
 _atom_site_type_symbol
 _atom_site_label
 _atom_site_symmetry_multiplicity
 _atom_site_fract_x
 _atom_site_fract_y
 _atom_site_fract_z
 _atom_site_occupancy
  Ca2+  Ca0  1  0.16950598  0.07425454  0.17847381  1
  Ca2+  Ca1  1  0.16950409  0.08250614  0.49632635  1
  Ca2+  Ca2  1  0.17116031  0.07592914  0.84149582  1
  Ca2+  Ca3  1  0.17540105  0.58164803  0.17588180  1
  Ca2+  Ca4  1  0.17649687  0.58219191  0.50848628  1
  Ca2+  Ca5  1  0.17073365  0.58636814  0.82823721  1
  Ca2+  Ca6  1  0.67566626  0.08537895  0.17233139  1
  Ca2+  Ca7  1  0.67249916  0.08776339  0.50706665  1
  Ca2+  Ca8  1  0.66935697  0.07469732  0.83473368  1
  Ca2+  Ca9  1  0.66411957  0.57496399  0.17680852  1
  Ca2+  Ca10  1  0.66650388  0.58185735  0.49633844  1
  Ca2+  Ca11  1  0.66329854  0.57784852  0.84352060  1
  Ca2+  Ca12  1  0.07041442  0.32670622  0.16436016  1
  Ca2+  Ca13  1  0.07903426  0.32820016  0.48973701  1
  Ca2+  Ca14  1  0.07686356  0.33482418  0.82690874  1
  Ca2+  Ca15  1  0.08589178  0.83908099  0.16493858  1
  Ca2+  Ca16  1  0.08665155  0.82826035  0.49501598  1
  Ca2+  Ca17  1  0.08388969  0.83064812  0.82810240  1
  Ca2+  Ca18  1  0.59394520  0.33020032  0.16710137  1
  Ca2+  Ca19  1  0.58871265  0.32296630  0.49307814  1
  Ca2+  Ca20  1  0.58718186  0.32733681  0.83060558  1
  Ca2+  Ca21  1  0.58625072  0.82171640  0.16238530  1
  Ca2+  Ca22  1  0.57300166  0.83276350  0.49179608  1
  Ca2+  Ca23  1  0.58427224  0.83354695  0.82645962  1
  Ca2+  Ca24  1  0.33401789  0.42421797  0.17684657  1
  Ca2+  Ca25  1  0.33065866  0.42992983  0.50661961  1
  Ca2+  Ca26  1  0.32846363  0.42106884  0.83347028  1
  Ca2+  Ca27  1  0.32316505  0.91567506  0.17633880  1
  Ca2+  Ca28  1  0.33608052  0.91405279  0.49763077  1
  Ca2+  Ca29  1  0.33023883  0.91133204  0.83423517  1
  Ca2+  Ca30  1  0.82681189  0.41611140  0.17397898  1
  Ca2+  Ca31  1  0.83159561  0.41540573  0.49360171  1
  Ca2+  Ca32  1  0.82806683  0.41727880  0.84062091  1
  Ca2+  Ca33  1  0.82795209  0.92663457  0.17143400  1
  Ca2+  Ca34  1  0.82428683  0.93033765  0.50649577  1
  Ca2+  Ca35  1  0.82313992  0.92704151  0.83954388  1
  Ca2+  Ca36  1  0.42109638  0.16153641  0.17045084  1
  Ca2+  Ca37  1  0.42828078  0.16330598  0.49093925  1
  Ca2+  Ca38  1  0.42520378  0.16776918  0.82392817  1
  Ca2+  Ca39  1  0.42500301  0.66752751  0.16865238  1
  Ca2+  Ca40  1  0.41436197  0.67452861  0.49215431  1
  Ca2+  Ca41  1  0.42208333  0.67298934  0.82674401  1
  Ca2+  Ca42  1  0.90783771  0.17323300  0.16605224  1
  Ca2+  Ca43  1  0.91711822  0.16913224  0.48754781  1
  Ca2+  Ca44  1  0.90507346  0.16924906  0.83362137  1
  Ca2+  Ca45  1  0.91421871  0.66641272  0.16486707  1
  Ca2+  Ca46  1  0.92236131  0.66350206  0.49354103  1
  Ca2+  Ca47  1  0.92388975  0.67040641  0.82537480  1
  Al0+  Al48  1  0.00156870  0.00070780  0.00556687  1
  Al0+  Al49  1  -0.00009659  -0.00246022  0.33895762  1
  Al0+  Al50  1  -0.00008643  0.00250719  0.67138688  1
  Al0+  Al51  1  0.00138406  0.49881464  -0.00586639  1
  Al0+  Al52  1  -0.00133667  0.49935203  0.33039140  1
  Al0+  Al53  1  0.00007635  0.49967870  0.66543894  1
  Al0+  Al54  1  0.49908662  -0.00116970  0.00205515  1
  Al0+  Al55  1  0.49708834  -0.00068577  0.32503136  1
  Al0+  Al56  1  0.50043985  0.00002032  0.66263870  1
  Al0+  Al57  1  0.49974090  0.50014894  -0.00116442  1
  Al0+  Al58  1  0.49970087  0.49905459  0.34096256  1
  Al0+  Al59  1  0.49939370  0.50093466  0.67197236  1
  Al0+  Al60  1  0.24910866  0.25114078  -0.00108216  1
  Al0+  Al61  1  0.24997144  0.24693769  0.33179024  1
  Al0+  Al62  1  0.24830349  0.25132986  0.67069219  1
  Al0+  Al63  1  0.25142568  0.74947352  0.00329884  1
  Al0+  Al64  1  0.24938343  0.74899777  0.33579765  1
  Al0+  Al65  1  0.25079024  0.74930247  0.66385719  1
  Al0+  Al66  1  0.74972103  0.25201751  0.00025917  1
  Al0+  Al67  1  0.74959223  0.25080308  0.33324936  1
  Al0+  Al68  1  0.75110813  0.25221593  0.66642535  1
  Al0+  Al69  1  0.75212230  0.75011387  -0.00415601  1
  Al0+  Al70  1  0.75147417  0.74865270  0.33432880  1
  Al0+  Al71  1  0.75058555  0.75070870  0.66860063  1
  Al0+  Al72  1  0.67897853  0.42881003  0.35031833  1
  Al0+  Al73  1  0.43074908  0.81998098  0.65284516  1
  Al0+  Al74  1  0.92929991  0.31969912  0.98334983  1
  Al0+  Al75  1  0.18168807  0.92904892  0.01235826  1
  Al0+  Al76  1  0.57206518  0.67811174  0.31993671  1
  Al0+  Al77  1  0.57119857  0.17906446  0.31847145  1
  Al0+  Al78  1  0.57159619  0.67910178  0.98582099  1
  Al0+  Al79  1  0.32149234  0.57315778  0.68475315  1
  Al0+  Al80  1  0.67880854  0.43178580  0.01298407  1
  Al0+  Al81  1  0.56993208  0.18241633  0.65410763  1
  Al0+  Al82  1  0.67672515  0.92560993  0.01650694  1
  Al0+  Al83  1  0.32074784  0.56956256  0.34699214  1
  Al0+  Al84  1  0.32264324  0.07119001  0.34907584  1
  Al0+  Al85  1  0.67673942  0.92899437  0.67964697  1
  Al0+  Al86  1  0.81834667  0.07031520  0.34717496  1
  Al0+  Al87  1  0.17755900  0.42864226  0.68193938  1
  Al0+  Al88  1  0.81851149  0.07112322  0.01661808  1
  Al0+  Al89  1  0.92924764  0.32054398  0.31697506  1
  Al0+  Al90  1  0.07195852  0.17549646  0.31808077  1
  Al0+  Al91  1  0.82259452  0.57280487  0.34804522  1
  Al0+  Al92  1  0.42686680  0.82022934  0.31526588  1
  Al0+  Al93  1  0.17845732  0.92811381  0.35157044  1
  Al0+  Al94  1  0.82184758  0.07369373  0.68263140  1
  Al0+  Al95  1  0.06850292  0.68074110  0.65221887  1
  Si0+  Si96  1  0.92904087  0.82044693  0.31895481  1
  Si0+  Si97  1  0.92998300  0.32029343  0.65064090  1
  Si0+  Si98  1  0.68016385  0.43053148  0.68252711  1
  Si0+  Si99  1  0.82219784  0.57158801  0.68169969  1
  Si0+  Si100  1  0.42638778  0.32225327  0.98456813  1
  Si0+  Si101  1  0.92750870  0.82471367  0.65013903  1
  Si0+  Si102  1  0.17732897  0.42805237  0.01593906  1
  Si0+  Si103  1  0.17955614  0.92935676  0.68144212  1
  Si0+  Si104  1  0.07352093  0.17773450  0.65261786  1
  Si0+  Si105  1  0.57471735  0.67514553  0.65030015  1
  Si0+  Si106  1  0.32265902  0.07566520  0.01550874  1
  Si0+  Si107  1  0.07061570  0.67864632  0.31765808  1
  Si0+  Si108  1  0.93095839  0.82300808  0.98486679  1
  Si0+  Si109  1  0.42761940  0.32188039  0.31891218  1
  Si0+  Si110  1  0.67695581  0.92648629  0.34768186  1
  Si0+  Si111  1  0.56966048  0.17951666  0.98495468  1
  Si0+  Si112  1  0.82521148  0.57201402  0.01301506  1
  Si0+  Si113  1  0.17729260  0.42700927  0.34671605  1
  Si0+  Si114  1  0.42569898  0.32330897  0.65106762  1
  Si0+  Si115  1  0.32141748  0.07164821  0.68075873  1
  Si0+  Si116  1  0.07319022  0.67915531  0.98513072  1
  Si0+  Si117  1  0.42747059  0.82054674  0.98326444  1
  Si0+  Si118  1  0.31959809  0.56899716  0.01576612  1
  Si0+  Si119  1  0.07291906  0.17785278  0.98146430  1
  O2-  O120  1  0.25457407  0.00558904  0.05714592  1
  O2-  O121  1  0.25117723  -0.00033080  0.40086973  1
  O2-  O122  1  0.24977010  0.00132724  0.72383582  1
  O2-  O123  1  0.24920801  0.49745638  0.05848119  1
  O2-  O124  1  0.24662816  0.49362849  0.39210129  1
  O2-  O125  1  0.25029879  0.49930237  0.73403188  1
  O2-  O126  1  0.74627514  -0.00051628  0.06673677  1
  O2-  O127  1  0.73997097  -0.00044050  0.39329213  1
  O2-  O128  1  0.75086621  -0.00078280  0.72965848  1
  O2-  O129  1  0.75299968  0.50783689  0.05697022  1
  O2-  O130  1  0.74995149  0.50254907  0.39943717  1
  O2-  O131  1  0.74625496  0.50636777  0.72463225  1
  O2-  O132  1  -0.00105027  0.24586894  0.26721893  1
  O2-  O133  1  0.00067056  0.24753580  0.61167767  1
  O2-  O134  1  0.00314882  0.24436415  0.93517290  1
  O2-  O135  1  -0.00043327  0.74896303  0.27497719  1
  O2-  O136  1  -0.00541072  0.75534055  0.60429469  1
  O2-  O137  1  0.00162154  0.75019749  0.94360360  1
  O2-  O138  1  0.49573581  0.25396845  0.27236967  1
  O2-  O139  1  0.49451781  0.25598550  0.60652096  1
  O2-  O140  1  0.49495917  0.24802491  0.94332043  1
  O2-  O141  1  0.50254967  0.75101654  0.26713998  1
  O2-  O142  1  0.50695531  0.74543860  0.60857338  1
  O2-  O143  1  0.50159356  0.75820116  0.93842442  1
  O2-  O144  1  0.07655059  0.18070671  0.08613930  1
  O2-  O145  1  0.07074135  0.17901705  0.43243693  1
  O2-  O146  1  0.07662290  0.17766233  0.75776981  1
  O2-  O147  1  0.07409363  0.67741573  0.09007363  1
  O2-  O148  1  0.06991582  0.67842074  0.42267356  1
  O2-  O149  1  0.06733890  0.68357665  0.76618988  1
  O2-  O150  1  0.56943200  0.18148818  0.08972143  1
  O2-  O151  1  0.57176684  0.18098333  0.43171340  1
  O2-  O152  1  0.56791275  0.18416911  0.76802695  1
  O2-  O153  1  0.56824194  0.67515078  0.09812715  1
  O2-  O154  1  0.57148838  0.68049801  0.43359108  1
  O2-  O155  1  0.57390928  0.67400389  0.75633662  1
  O2-  O156  1  0.17866487  0.43115906  0.24046813  1
  O2-  O157  1  0.17825555  0.42887516  0.56859982  1
  O2-  O158  1  0.17819532  0.42844813  0.91097959  1
  O2-  O159  1  0.17971026  0.92737971  0.23770502  1
  O2-  O160  1  0.17804001  0.92961773  0.57728313  1
  O2-  O161  1  0.18369014  0.92809696  0.89840731  1
  O2-  O162  1  0.68014189  0.42990250  0.23656718  1
  O2-  O163  1  0.68148169  0.42819770  0.57818500  1
  O2-  O164  1  0.67995794  0.43176623  0.89899686  1
  O2-  O165  1  0.68302781  0.92454852  0.24218520  1
  O2-  O166  1  0.67722922  0.93048228  0.56627739  1
  O2-  O167  1  0.67798519  0.92749774  0.90276566  1
  O2-  O168  1  0.42337351  0.32448146  0.08907234  1
  O2-  O169  1  0.42754401  0.32083071  0.42440611  1
  O2-  O170  1  0.42630911  0.32096806  0.75738739  1
  O2-  O171  1  0.42242443  0.81541429  0.08773840  1
  O2-  O172  1  0.42748733  0.81786252  0.42909059  1
  O2-  O173  1  0.42964075  0.81900539  0.76661834  1
  O2-  O174  1  0.93107587  0.32227926  0.09536393  1
  O2-  O175  1  0.93213334  0.32100104  0.43109653  1
  O2-  O176  1  0.92915208  0.32114681  0.75605432  1
  O2-  O177  1  0.93123952  0.82162188  0.08989745  1
  O2-  O178  1  0.93007811  0.81911395  0.42400132  1
  O2-  O179  1  0.93057578  0.82247172  0.75622651  1
  O2-  O180  1  0.31979205  0.07138839  0.23515124  1
  O2-  O181  1  0.32043167  0.07328119  0.57658014  1
  O2-  O182  1  0.32196843  0.07753951  0.90916925  1
  O2-  O183  1  0.31855895  0.56793023  0.23298368  1
  O2-  O184  1  0.31965027  0.57202199  0.57167744  1
  O2-  O185  1  0.31755600  0.56969775  0.91081822  1
  O2-  O186  1  0.81796552  0.06870893  0.23424819  1
  O2-  O187  1  0.82179748  0.07441073  0.56928130  1
  O2-  O188  1  0.81610788  0.07018549  0.90295378  1
  O2-  O189  1  0.82441153  0.57233487  0.23434539  1
  O2-  O190  1  0.82433761  0.56985607  0.57726735  1
  O2-  O191  1  0.82677147  0.56959146  0.90684486  1
  O2-  O192  1  0.04581387  0.07483876  0.26958989  1
  O2-  O193  1  0.04809089  0.08476329  0.60679349  1
  O2-  O194  1  0.04962287  0.08226498  0.93785020  1
  O2-  O195  1  0.04438411  0.58725052  0.26841778  1
  O2-  O196  1  0.03769328  0.58391861  0.59921497  1
  O2-  O197  1  0.04640626  0.58810569  0.93540161  1
  O2-  O198  1  0.54136840  0.08390701  0.26145852  1
  O2-  O199  1  0.54014216  0.08642961  0.60034913  1
  O2-  O200  1  0.54388441  0.08622338  0.93843983  1
  O2-  O201  1  0.54064619  0.57853807  0.27037924  1
  O2-  O202  1  0.54843199  0.58083919  0.60635771  1
  O2-  O203  1  0.53575607  0.58379340  0.93047096  1
  O2-  O204  1  0.17020767  0.20356952  0.26403182  1
  O2-  O205  1  0.16481069  0.20700186  0.60481723  1
  O2-  O206  1  0.16642303  0.20521475  0.93380896  1
  O2-  O207  1  0.16162939  0.70707815  0.26955622  1
  O2-  O208  1  0.16492505  0.71099836  0.59917792  1
  O2-  O209  1  0.16449912  0.70933183  0.93749703  1
  O2-  O210  1  0.66598830  0.21314660  0.26367791  1
  O2-  O211  1  0.66599229  0.21633993  0.60116907  1
  O2-  O212  1  0.65914113  0.21255178  0.93667068  1
  O2-  O213  1  0.67214269  0.70304346  0.26756666  1
  O2-  O214  1  0.67024566  0.69712114  0.60685911  1
  O2-  O215  1  0.67061340  0.70287537  0.93172588  1
  O2-  O216  1  0.08616442  0.45889418  0.06191125  1
  O2-  O217  1  0.08439392  0.45402587  0.39193468  1
  O2-  O218  1  0.07984193  0.46015189  0.73575748  1
  O2-  O219  1  0.08527725  0.95625796  0.06736987  1
  O2-  O220  1  0.08045284  0.95356211  0.40639045  1
  O2-  O221  1  0.08808927  0.95594111  0.73084427  1
  O2-  O222  1  0.58105790  0.45915549  0.06581885  1
  O2-  O223  1  0.58105950  0.45316357  0.40554196  1
  O2-  O224  1  0.58667465  0.45191239  0.73026719  1
  O2-  O225  1  0.57583008  0.94827322  0.06608757  1
  O2-  O226  1  0.58011926  0.94726384  0.38646077  1
  O2-  O227  1  0.57947728  0.96045125  0.73430696  1
  O2-  O228  1  0.20336009  0.33548799  0.06199619  1
  O2-  O229  1  0.19975421  0.33247210  0.39064189  1
  O2-  O230  1  0.20472364  0.33057966  0.73839034  1
  O2-  O231  1  0.21158987  0.83266623  0.06766548  1
  O2-  O232  1  0.20684482  0.82942912  0.40334885  1
  O2-  O233  1  0.20935229  0.83822487  0.72885133  1
  O2-  O234  1  0.71032490  0.33596562  0.06584133  1
  O2-  O235  1  0.71208182  0.33241465  0.40412810  1
  O2-  O236  1  0.71378144  0.34136484  0.73169021  1
  O2-  O237  1  0.70939466  0.82700602  0.06640168  1
  O2-  O238  1  0.70696016  0.83537567  0.39555063  1
  O2-  O239  1  0.70351909  0.82950876  0.73310173  1
  O2-  O240  1  0.45297964  0.41589613  0.27374031  1
  O2-  O241  1  0.45081504  0.41840834  0.60867151  1
  O2-  O242  1  0.45711300  0.41209520  0.93485189  1
  O2-  O243  1  0.44721678  0.91956694  0.26185039  1
  O2-  O244  1  0.45830424  0.91672239  0.59808462  1
  O2-  O245  1  0.44445044  0.91773319  0.94004006  1
  O2-  O246  1  0.95861100  0.41843572  0.26253578  1
  O2-  O247  1  0.95835201  0.41159271  0.60348857  1
  O2-  O248  1  0.96177441  0.41606579  0.92747578  1
  O2-  O249  1  0.95864814  0.91105112  0.27086608  1
  O2-  O250  1  0.95439439  0.91898779  0.60679635  1
  O2-  O251  1  0.96173747  0.91397397  0.93736690  1
  O2-  O252  1  0.33442443  0.29767437  0.27052792  1
  O2-  O253  1  0.33131668  0.29870111  0.60716043  1
  O2-  O254  1  0.33396286  0.29701089  0.93535320  1
  O2-  O255  1  0.32900577  0.78594576  0.26388425  1
  O2-  O256  1  0.33455439  0.78901653  0.59904156  1
  O2-  O257  1  0.33595756  0.78751580  0.93500934  1
  O2-  O258  1  0.83082432  0.29257041  0.26509054  1
  O2-  O259  1  0.83837802  0.29370195  0.60313343  1
  O2-  O260  1  0.83183830  0.28978093  0.92900229  1
  O2-  O261  1  0.83832493  0.79272994  0.26953374  1
  O2-  O262  1  0.83319758  0.80035728  0.60561211  1
  O2-  O263  1  0.84048546  0.79602242  0.93418103  1
  O2-  O264  1  0.41650685  0.05207972  0.06052268  1
  O2-  O265  1  0.42233001  0.04307857  0.39976466  1
  O2-  O266  1  0.41227916  0.04249623  0.72897218  1
  O2-  O267  1  0.41071472  0.53920509  0.06189588  1
  O2-  O268  1  0.41497305  0.54047471  0.40460210  1
  O2-  O269  1  0.41996415  0.54539499  0.73911092  1
  O2-  O270  1  0.91830053  0.04473664  0.06671084  1
  O2-  O271  1  0.91342368  0.03705913  0.40157824  1
  O2-  O272  1  0.92076992  0.04775136  0.73719957  1
  O2-  O273  1  0.91861051  0.54444765  0.05853350  1
  O2-  O274  1  0.92108125  0.54210110  0.40086111  1
  O2-  O275  1  0.91168586  0.53901752  0.73085602  1
  O2-  O276  1  0.29732317  0.16932756  0.06133745  1
  O2-  O277  1  0.29543784  0.17036747  0.40206370  1
  O2-  O278  1  0.29459701  0.16309269  0.73034634  1
  O2-  O279  1  0.29005724  0.65953492  0.06373642  1
  O2-  O280  1  0.28606390  0.66369856  0.40110659  1
  O2-  O281  1  0.28734729  0.67006545  0.73814014  1
  O2-  O282  1  0.78830556  0.16962229  0.06712006  1
  O2-  O283  1  0.79064166  0.16758772  0.39980239  1
  O2-  O284  1  0.79023027  0.17172355  0.73501543  1
  O2-  O285  1  0.80610919  0.66787356  0.05540430  1
  O2-  O286  1  0.79771784  0.67119420  0.40332482  1
  O2-  O287  1  0.80213118  0.66569639  0.72854167  1
