# generated using pymatgen
data_Ca2Al2SiO7
_symmetry_space_group_name_H-M   'P 1'
_cell_length_a   15.46102410
_cell_length_b   15.45996843
_cell_length_c   15.28390134
_cell_angle_alpha   90.00482331
_cell_angle_beta   89.98599308
_cell_angle_gamma   89.99293264
_symmetry_Int_Tables_number   1
_chemical_formula_structural   Ca2Al2SiO7
_chemical_formula_sum   'Ca48 Al48 Si24 O168'
_cell_volume   3653.26408633
_cell_formula_units_Z   24
loop_
 _symmetry_equiv_pos_site_id
 _symmetry_equiv_pos_as_xyz
  1  'x, y, z'
loop_
 _atom_type_symbol
 _atom_type_oxidation_number
  Ca2+  2.0
  Al0+  0.0
  Si0+  0.0
  O2-  -2.0
loop_
 _atom_site_type_symbol
 _atom_site_label
 _atom_site_symmetry_multiplicity
 _atom_site_fract_x
 _atom_site_fract_y
 _atom_site_fract_z
 _atom_site_occupancy
  Ca2+  Ca0  1  0.17603472  0.07956866  0.17454013  1
  Ca2+  Ca1  1  0.16704987  0.08341546  0.50166630  1
  Ca2+  Ca2  1  0.17269326  0.08906629  0.83422492  1
  Ca2+  Ca3  1  0.17508255  0.58156935  0.17602343  1
  Ca2+  Ca4  1  0.17090851  0.57822987  0.50774117  1
  Ca2+  Ca5  1  0.15623366  0.57754680  0.82957419  1
  Ca2+  Ca6  1  0.66622789  0.07198283  0.17282338  1
  Ca2+  Ca7  1  0.67941776  0.08462592  0.50314713  1
  Ca2+  Ca8  1  0.67142827  0.07924947  0.83922986  1
  Ca2+  Ca9  1  0.67434527  0.58226066  0.17754273  1
  Ca2+  Ca10  1  0.66723094  0.58232671  0.50398985  1
  Ca2+  Ca11  1  0.66112591  0.57757835  0.82967845  1
  Ca2+  Ca12  1  0.07071843  0.33298917  0.16443002  1
  Ca2+  Ca13  1  0.07702544  0.33085646  0.50008792  1
  Ca2+  Ca14  1  0.07453194  0.32883056  0.82265138  1
  Ca2+  Ca15  1  0.07938488  0.83662107  0.16476355  1
  Ca2+  Ca16  1  0.08044205  0.83392169  0.49962481  1
  Ca2+  Ca17  1  0.07269820  0.83015364  0.82312167  1
  Ca2+  Ca18  1  0.57659768  0.32245660  0.16405692  1
  Ca2+  Ca19  1  0.57452138  0.34034677  0.49665203  1
  Ca2+  Ca20  1  0.58016805  0.32742686  0.82580887  1
  Ca2+  Ca21  1  0.59479279  0.83055742  0.16561263  1
  Ca2+  Ca22  1  0.58397723  0.82529786  0.49655235  1
  Ca2+  Ca23  1  0.58028405  0.83106976  0.82570846  1
  Ca2+  Ca24  1  0.33326789  0.42062045  0.17676485  1
  Ca2+  Ca25  1  0.33502520  0.41824145  0.50845104  1
  Ca2+  Ca26  1  0.32745415  0.41082966  0.82949902  1
  Ca2+  Ca27  1  0.32853337  0.92884510  0.17656063  1
  Ca2+  Ca28  1  0.33071049  0.91824486  0.50185003  1
  Ca2+  Ca29  1  0.33428761  0.92014688  0.83923622  1
  Ca2+  Ca30  1  0.83616666  0.42027370  0.17565861  1
  Ca2+  Ca31  1  0.83289414  0.41859194  0.50817181  1
  Ca2+  Ca32  1  0.83243052  0.41158306  0.83239895  1
  Ca2+  Ca33  1  0.82509017  0.91936605  0.17541445  1
  Ca2+  Ca34  1  0.83260170  0.92577217  0.50498249  1
  Ca2+  Ca35  1  0.83464071  0.91880180  0.83676696  1
  Ca2+  Ca36  1  0.41641986  0.16288571  0.16384435  1
  Ca2+  Ca37  1  0.41162478  0.17929764  0.49422683  1
  Ca2+  Ca38  1  0.42396395  0.16425832  0.82894024  1
  Ca2+  Ca39  1  0.42279543  0.66537471  0.16966459  1
  Ca2+  Ca40  1  0.42801555  0.66454452  0.49486760  1
  Ca2+  Ca41  1  0.42362193  0.67695917  0.81989642  1
  Ca2+  Ca42  1  0.90556613  0.17694287  0.16598530  1
  Ca2+  Ca43  1  0.91234997  0.17331108  0.49671354  1
  Ca2+  Ca44  1  0.92014682  0.17353234  0.82151628  1
  Ca2+  Ca45  1  0.91446627  0.67286948  0.16280371  1
  Ca2+  Ca46  1  0.91892528  0.66738620  0.49761409  1
  Ca2+  Ca47  1  0.91863075  0.68096437  0.82546742  1
  Al0+  Al48  1  0.00056619  0.00185182  -0.00270935  1
  Al0+  Al49  1  0.00028976  0.00045262  0.33764143  1
  Al0+  Al50  1  0.00210408  0.00068826  0.66569818  1
  Al0+  Al51  1  -0.00029471  0.49969620  -0.00228683  1
  Al0+  Al52  1  0.00055998  0.50098273  0.33168485  1
  Al0+  Al53  1  0.00018226  0.50086284  0.66676419  1
  Al0+  Al54  1  0.50102777  -0.00091207  0.00469056  1
  Al0+  Al55  1  0.49796294  -0.00082972  0.34286085  1
  Al0+  Al56  1  0.50154290  0.00016013  0.66190896  1
  Al0+  Al57  1  0.50016580  0.49899352  0.00097729  1
  Al0+  Al58  1  0.50016760  0.50116815  0.32554626  1
  Al0+  Al59  1  0.50076626  0.50034150  0.66740671  1
  Al0+  Al60  1  0.24884258  0.25267526  0.00637360  1
  Al0+  Al61  1  0.24699585  0.25029108  0.32974258  1
  Al0+  Al62  1  0.25015528  0.25096667  0.66534084  1
  Al0+  Al63  1  0.25106295  0.74776075  0.00075103  1
  Al0+  Al64  1  0.25152394  0.74846725  0.33981470  1
  Al0+  Al65  1  0.25010820  0.75183837  0.66243381  1
  Al0+  Al66  1  0.74664816  0.25039204  -0.00742248  1
  Al0+  Al67  1  0.74656997  0.24981215  0.33049831  1
  Al0+  Al68  1  0.75029242  0.25001602  0.67317282  1
  Al0+  Al69  1  0.75122574  0.74831167  -0.00265509  1
  Al0+  Al70  1  0.75075989  0.74787513  0.33705120  1
  Al0+  Al71  1  0.74963536  0.75067980  0.66079026  1
  Al0+  Al72  1  0.92834033  0.32123023  0.98484996  1
  Al0+  Al73  1  0.32060597  0.07034011  0.01230840  1
  Al0+  Al74  1  0.68176826  0.92784344  0.01224492  1
  Al0+  Al75  1  0.82283328  0.56936491  0.34654471  1
  Al0+  Al76  1  0.67812140  0.43002545  0.68048736  1
  Al0+  Al77  1  0.43089546  0.31841909  0.65570499  1
  Al0+  Al78  1  0.57015225  0.67842863  0.65145312  1
  Al0+  Al79  1  0.42831685  0.82482964  0.65090360  1
  Al0+  Al80  1  0.92787413  0.32100947  0.31995534  1
  Al0+  Al81  1  0.81943549  0.07325335  0.34711712  1
  Al0+  Al82  1  0.17844773  0.92810269  0.34959340  1
  Al0+  Al83  1  0.42740440  0.32062994  0.31889713  1
  Al0+  Al84  1  0.92701502  0.32020072  0.65137404  1
  Al0+  Al85  1  0.92852714  0.82280052  0.64916227  1
  Al0+  Al86  1  0.56755156  0.17686682  0.98659814  1
  Al0+  Al87  1  0.82260812  0.07015780  0.68258732  1
  Al0+  Al88  1  0.17904629  0.42927247  0.68042546  1
  Al0+  Al89  1  0.07065242  0.67843560  0.65074367  1
  Al0+  Al90  1  0.57197583  0.68143394  0.31694297  1
  Al0+  Al91  1  0.67841988  0.92620510  0.35083104  1
  Al0+  Al92  1  0.07290796  0.17917778  0.65131570  1
  Al0+  Al93  1  0.32297923  0.56837125  0.34758135  1
  Al0+  Al94  1  0.92916334  0.82156803  0.98841039  1
  Al0+  Al95  1  0.32039134  0.07403681  0.35138829  1
  Si0+  Si96  1  0.32193090  0.57278064  0.68445425  1
  Si0+  Si97  1  0.42914361  0.81933476  0.98860762  1
  Si0+  Si98  1  0.42702089  0.82207624  0.31567309  1
  Si0+  Si99  1  0.07275201  0.67904998  0.31756838  1
  Si0+  Si100  1  0.17729425  0.92573572  0.01444934  1
  Si0+  Si101  1  0.32307027  0.57163212  0.01530292  1
  Si0+  Si102  1  0.18015770  0.92791099  0.68387619  1
  Si0+  Si103  1  0.82287243  0.07390821  0.01507311  1
  Si0+  Si104  1  0.93023042  0.82099587  0.31845670  1
  Si0+  Si105  1  0.57018067  0.17586043  0.31746560  1
  Si0+  Si106  1  0.07425505  0.18006601  0.98455572  1
  Si0+  Si107  1  0.57173712  0.67732675  0.98524213  1
  Si0+  Si108  1  0.67839225  0.92803103  0.68364836  1
  Si0+  Si109  1  0.17720141  0.42907090  0.34909708  1
  Si0+  Si110  1  0.17790858  0.43144850  0.01662870  1
  Si0+  Si111  1  0.81995884  0.56872920  0.01345854  1
  Si0+  Si112  1  0.67707032  0.42753979  0.01643496  1
  Si0+  Si113  1  0.57387336  0.17726798  0.64949941  1
  Si0+  Si114  1  0.82233921  0.57348166  0.68496139  1
  Si0+  Si115  1  0.07423982  0.67848459  0.98473727  1
  Si0+  Si116  1  0.67827145  0.42870565  0.34653615  1
  Si0+  Si117  1  0.32167205  0.07134058  0.68155103  1
  Si0+  Si118  1  0.42675932  0.32343880  0.98307529  1
  Si0+  Si119  1  0.07008360  0.17616178  0.31395119  1
  O2-  O120  1  0.24442170  -0.00394361  0.05780104  1
  O2-  O121  1  0.24949708  0.00067623  0.40037181  1
  O2-  O122  1  0.25328355  -0.00207430  0.72530446  1
  O2-  O123  1  0.25112699  0.50115674  0.05731756  1
  O2-  O124  1  0.25130081  0.49121933  0.39344529  1
  O2-  O125  1  0.25136364  0.50632189  0.72998463  1
  O2-  O126  1  0.75800716  0.00148792  0.05889119  1
  O2-  O127  1  0.74856720  0.00097806  0.39836856  1
  O2-  O128  1  0.74838364  -0.00563820  0.72941706  1
  O2-  O129  1  0.75066646  0.49653475  0.05747840  1
  O2-  O130  1  0.75076368  0.49215216  0.39149212  1
  O2-  O131  1  0.75396848  0.50384727  0.72902320  1
  O2-  O132  1  -0.00100180  0.24350793  0.27070198  1
  O2-  O133  1  -0.00223144  0.24763007  0.60126878  1
  O2-  O134  1  0.00099483  0.24358836  0.94073293  1
  O2-  O135  1  0.00282593  0.75121697  0.27496541  1
  O2-  O136  1  -0.00149960  0.74872017  0.59905648  1
  O2-  O137  1  0.00889895  0.75112664  0.94301473  1
  O2-  O138  1  0.49759139  0.24119637  0.27292486  1
  O2-  O139  1  0.50578231  0.24641656  0.60592268  1
  O2-  O140  1  0.49210124  0.25155671  0.94009982  1
  O2-  O141  1  0.49992478  0.75881589  0.26875763  1
  O2-  O142  1  0.49843349  0.75075957  0.60226787  1
  O2-  O143  1  0.49949774  0.74805738  0.94543479  1
  O2-  O144  1  0.07690856  0.18228158  0.08987827  1
  O2-  O145  1  0.07201330  0.17781963  0.41894562  1
  O2-  O146  1  0.07442631  0.18203240  0.76579628  1
  O2-  O147  1  0.07542997  0.67677773  0.09049760  1
  O2-  O148  1  0.07123984  0.67653846  0.42191110  1
  O2-  O149  1  0.06879685  0.68162021  0.76543605  1
  O2-  O150  1  0.56683966  0.17843798  0.09971511  1
  O2-  O151  1  0.57363405  0.18056029  0.42257050  1
  O2-  O152  1  0.57001861  0.17532064  0.75561718  1
  O2-  O153  1  0.57233971  0.67626299  0.09020250  1
  O2-  O154  1  0.57012368  0.67870507  0.42906226  1
  O2-  O155  1  0.56775059  0.67957760  0.76641120  1
  O2-  O156  1  0.17609596  0.43400753  0.24255524  1
  O2-  O157  1  0.18233318  0.42899176  0.56769807  1
  O2-  O158  1  0.17744155  0.43112829  0.91176248  1
  O2-  O159  1  0.17928613  0.92894947  0.23470355  1
  O2-  O160  1  0.18029492  0.92759820  0.57934090  1
  O2-  O161  1  0.17985027  0.92265614  0.90908109  1
  O2-  O162  1  0.67989077  0.43053710  0.24013765  1
  O2-  O163  1  0.67694109  0.43185285  0.56750901  1
  O2-  O164  1  0.67346429  0.43047551  0.91162047  1
  O2-  O165  1  0.68285212  0.92655167  0.23621900  1
  O2-  O166  1  0.67794039  0.93036788  0.57866670  1
  O2-  O167  1  0.68065508  0.92747731  0.89940017  1
  O2-  O168  1  0.42862696  0.32654564  0.08856432  1
  O2-  O169  1  0.43051853  0.32294213  0.43179590  1
  O2-  O170  1  0.43042255  0.31483707  0.76934202  1
  O2-  O171  1  0.42626626  0.81688578  0.09317492  1
  O2-  O172  1  0.42570883  0.81730165  0.42062859  1
  O2-  O173  1  0.43032063  0.82500560  0.76623356  1
  O2-  O174  1  0.92992874  0.32387430  0.09832204  1
  O2-  O175  1  0.92947727  0.32296485  0.43199924  1
  O2-  O176  1  0.92947673  0.31849565  0.76547238  1
  O2-  O177  1  0.92872194  0.81807804  0.10185174  1
  O2-  O178  1  0.93121399  0.81928517  0.42290706  1
  O2-  O179  1  0.93028559  0.82155609  0.76369223  1
  O2-  O180  1  0.31852399  0.07205233  0.23693523  1
  O2-  O181  1  0.31936379  0.07255724  0.57716141  1
  O2-  O182  1  0.32031895  0.06859800  0.89879779  1
  O2-  O183  1  0.31987226  0.56836370  0.23325624  1
  O2-  O184  1  0.32306655  0.56897055  0.57912553  1
  O2-  O185  1  0.32515163  0.57364260  0.91077861  1
  O2-  O186  1  0.81760580  0.07259066  0.23265559  1
  O2-  O187  1  0.81970700  0.07149195  0.56982986  1
  O2-  O188  1  0.82170490  0.07280566  0.90969767  1
  O2-  O189  1  0.82200807  0.56983747  0.23221458  1
  O2-  O190  1  0.82273249  0.57227192  0.57946723  1
  O2-  O191  1  0.81874121  0.56977993  0.90880504  1
  O2-  O192  1  0.04732531  0.08139112  0.26832368  1
  O2-  O193  1  0.05115771  0.07929046  0.60120609  1
  O2-  O194  1  0.05643447  0.08404359  0.93989820  1
  O2-  O195  1  0.04394522  0.58869871  0.26697706  1
  O2-  O196  1  0.04522424  0.57961923  0.59879484  1
  O2-  O197  1  0.04396288  0.58668610  0.93799533  1
  O2-  O198  1  0.54631709  0.08011946  0.27448557  1
  O2-  O199  1  0.54980198  0.08461992  0.60242187  1
  O2-  O200  1  0.53678931  0.08022811  0.93210031  1
  O2-  O201  1  0.53851123  0.58681789  0.25909610  1
  O2-  O202  1  0.54047193  0.58090958  0.59879689  1
  O2-  O203  1  0.54281121  0.58524763  0.93859693  1
  O2-  O204  1  0.16212081  0.20487042  0.26521636  1
  O2-  O205  1  0.16902147  0.21150436  0.59731527  1
  O2-  O206  1  0.16639727  0.21140539  0.93786751  1
  O2-  O207  1  0.16538186  0.70659190  0.27057776  1
  O2-  O208  1  0.16954901  0.70485795  0.59957748  1
  O2-  O209  1  0.16918963  0.69845415  0.93828780  1
  O2-  O210  1  0.66087011  0.20496655  0.26633533  1
  O2-  O211  1  0.66743083  0.20422098  0.60680344  1
  O2-  O212  1  0.66226610  0.20844592  0.92974342  1
  O2-  O213  1  0.67028294  0.71012820  0.26314560  1
  O2-  O214  1  0.66863729  0.70310733  0.59901289  1
  O2-  O215  1  0.66252258  0.70459434  0.93670232  1
  O2-  O216  1  0.08673749  0.46185509  0.06473192  1
  O2-  O217  1  0.08676117  0.46125338  0.39588547  1
  O2-  O218  1  0.08264175  0.46021077  0.73669198  1
  O2-  O219  1  0.08292782  0.95034665  0.05992742  1
  O2-  O220  1  0.08033277  0.95479654  0.40257876  1
  O2-  O221  1  0.08945713  0.95716105  0.73268309  1
  O2-  O222  1  0.58598278  0.45720242  0.06518996  1
  O2-  O223  1  0.58618673  0.46034696  0.39063620  1
  O2-  O224  1  0.58288673  0.46299950  0.73856156  1
  O2-  O225  1  0.58595495  0.95781764  0.06837662  1
  O2-  O226  1  0.57833213  0.94746443  0.40152937  1
  O2-  O227  1  0.58430231  0.95581683  0.72946598  1
  O2-  O228  1  0.20347857  0.34046394  0.06679350  1
  O2-  O229  1  0.19476772  0.33271333  0.38991923  1
  O2-  O230  1  0.21428857  0.33435191  0.73677309  1
  O2-  O231  1  0.20300536  0.83193481  0.06140996  1
  O2-  O232  1  0.20641068  0.83017258  0.40260479  1
  O2-  O233  1  0.20653750  0.83562193  0.73235566  1
  O2-  O234  1  0.70231224  0.33414023  0.06132816  1
  O2-  O235  1  0.69600162  0.33350851  0.39065225  1
  O2-  O236  1  0.70629287  0.33398468  0.73778157  1
  O2-  O237  1  0.71237454  0.83009788  0.06550907  1
  O2-  O238  1  0.70969484  0.82935175  0.40295080  1
  O2-  O239  1  0.70103765  0.83245273  0.72766109  1
  O2-  O240  1  0.46207489  0.41437742  0.26096051  1
  O2-  O241  1  0.45954234  0.41586638  0.60383601  1
  O2-  O242  1  0.45564535  0.41604666  0.93629573  1
  O2-  O243  1  0.44698913  0.91917260  0.27435782  1
  O2-  O244  1  0.45657284  0.92181215  0.59601720  1
  O2-  O245  1  0.45744627  0.91062831  0.94167203  1
  O2-  O246  1  0.96301003  0.41673825  0.26412456  1
  O2-  O247  1  0.95445998  0.41978338  0.60266621  1
  O2-  O248  1  0.96164866  0.41741100  0.93134808  1
  O2-  O249  1  0.95687897  0.91351350  0.27125730  1
  O2-  O250  1  0.96082455  0.91959995  0.59773841  1
  O2-  O251  1  0.95458001  0.91980236  0.93462782  1
  O2-  O252  1  0.32893101  0.29548015  0.26439442  1
  O2-  O253  1  0.33588083  0.28804779  0.60051398  1
  O2-  O254  1  0.33035376  0.30178587  0.94157295  1
  O2-  O255  1  0.33466033  0.79059887  0.26901921  1
  O2-  O256  1  0.32916430  0.80085978  0.59994958  1
  O2-  O257  1  0.33737382  0.79202208  0.93915960  1
  O2-  O258  1  0.82981608  0.29328028  0.26488543  1
  O2-  O259  1  0.82713815  0.29358129  0.60190069  1
  O2-  O260  1  0.83038553  0.29584198  0.93204003  1
  O2-  O261  1  0.83954742  0.78908536  0.27137229  1
  O2-  O262  1  0.82967720  0.79814035  0.59762184  1
  O2-  O263  1  0.83592243  0.78461406  0.93139366  1
  O2-  O264  1  0.41486898  0.03736667  0.06884678  1
  O2-  O265  1  0.41886000  0.05071435  0.40468403  1
  O2-  O266  1  0.41549785  0.04497625  0.72687908  1
  O2-  O267  1  0.41444316  0.54269986  0.06390247  1
  O2-  O268  1  0.42072861  0.53855460  0.39816586  1
  O2-  O269  1  0.41409234  0.54474311  0.73233053  1
  O2-  O270  1  0.91908068  0.05485218  0.05911165  1
  O2-  O271  1  0.91843656  0.04792994  0.39813482  1
  O2-  O272  1  0.92046775  0.04074276  0.73583940  1
  O2-  O273  1  0.91313811  0.54346944  0.06049426  1
  O2-  O274  1  0.92009311  0.54182444  0.39953588  1
  O2-  O275  1  0.91576599  0.54923455  0.73207182  1
  O2-  O276  1  0.29245395  0.16795242  0.06674292  1
  O2-  O277  1  0.28945690  0.17329465  0.40071610  1
  O2-  O278  1  0.29145959  0.16163733  0.73072049  1
  O2-  O279  1  0.29553571  0.66298684  0.06486194  1
  O2-  O280  1  0.29214773  0.66329567  0.40220119  1
  O2-  O281  1  0.29835548  0.66835789  0.72822554  1
  O2-  O282  1  0.79205332  0.16732904  0.05892282  1
  O2-  O283  1  0.78860327  0.17144458  0.39972320  1
  O2-  O284  1  0.79064433  0.16551008  0.73870627  1
  O2-  O285  1  0.79022212  0.65963710  0.06182484  1
  O2-  O286  1  0.79149626  0.66386304  0.40156817  1
  O2-  O287  1  0.79418561  0.66751952  0.72995162  1
