# generated using pymatgen
data_Ca2Al2SiO7
_symmetry_space_group_name_H-M   'P 1'
_cell_length_a   15.45684923
_cell_length_b   15.45680761
_cell_length_c   15.28285220
_cell_angle_alpha   90.00095828
_cell_angle_beta   90.00939877
_cell_angle_gamma   90.01303598
_symmetry_Int_Tables_number   1
_chemical_formula_structural   Ca2Al2SiO7
_chemical_formula_sum   'Ca48 Al48 Si24 O168'
_cell_volume   3651.28024882
_cell_formula_units_Z   24
loop_
 _symmetry_equiv_pos_site_id
 _symmetry_equiv_pos_as_xyz
  1  'x, y, z'
loop_
 _atom_type_symbol
 _atom_type_oxidation_number
  Ca2+  2.0
  Al0+  0.0
  Si0+  0.0
  O2-  -2.0
loop_
 _atom_site_type_symbol
 _atom_site_label
 _atom_site_symmetry_multiplicity
 _atom_site_fract_x
 _atom_site_fract_y
 _atom_site_fract_z
 _atom_site_occupancy
  Ca2+  Ca0  1  0.16906963  0.09228477  0.16704320  1
  Ca2+  Ca1  1  0.16463222  0.08484703  0.50256085  1
  Ca2+  Ca2  1  0.17473100  0.08728968  0.84303881  1
  Ca2+  Ca3  1  0.17366220  0.57474222  0.17243007  1
  Ca2+  Ca4  1  0.16740235  0.57261693  0.50671441  1
  Ca2+  Ca5  1  0.17010834  0.57372395  0.83831407  1
  Ca2+  Ca6  1  0.66045283  0.07314969  0.16970155  1
  Ca2+  Ca7  1  0.66698643  0.07439820  0.50918501  1
  Ca2+  Ca8  1  0.66212030  0.07761538  0.83742995  1
  Ca2+  Ca9  1  0.67190893  0.56924534  0.17372075  1
  Ca2+  Ca10  1  0.67743994  0.58367981  0.50397271  1
  Ca2+  Ca11  1  0.66647718  0.58071563  0.83623170  1
  Ca2+  Ca12  1  0.08511457  0.33312174  0.16633855  1
  Ca2+  Ca13  1  0.07932736  0.33325103  0.49030527  1
  Ca2+  Ca14  1  0.09131326  0.33245605  0.83092405  1
  Ca2+  Ca15  1  0.07190034  0.83021272  0.15687272  1
  Ca2+  Ca16  1  0.08259716  0.82302071  0.49643437  1
  Ca2+  Ca17  1  0.07479812  0.82601257  0.82814838  1
  Ca2+  Ca18  1  0.58920525  0.33007312  0.15732645  1
  Ca2+  Ca19  1  0.58501138  0.32986711  0.49650426  1
  Ca2+  Ca20  1  0.57979350  0.32529627  0.82539137  1
  Ca2+  Ca21  1  0.58279125  0.83514735  0.16429714  1
  Ca2+  Ca22  1  0.58718646  0.83033738  0.49657311  1
  Ca2+  Ca23  1  0.58689324  0.83077455  0.82731234  1
  Ca2+  Ca24  1  0.32551821  0.42669381  0.17124263  1
  Ca2+  Ca25  1  0.32257637  0.41197680  0.50380030  1
  Ca2+  Ca26  1  0.32664097  0.41601516  0.83976554  1
  Ca2+  Ca27  1  0.33852674  0.92455042  0.17107946  1
  Ca2+  Ca28  1  0.33538923  0.91462634  0.49953219  1
  Ca2+  Ca29  1  0.33279851  0.92378082  0.83966166  1
  Ca2+  Ca30  1  0.82600330  0.41479682  0.17441972  1
  Ca2+  Ca31  1  0.83391417  0.42146406  0.49967394  1
  Ca2+  Ca32  1  0.82773074  0.42355310  0.83583464  1
  Ca2+  Ca33  1  0.82319216  0.91340077  0.16934393  1
  Ca2+  Ca34  1  0.82367493  0.92452967  0.50848075  1
  Ca2+  Ca35  1  0.82348574  0.91964828  0.83613426  1
  Ca2+  Ca36  1  0.42176292  0.16991666  0.15727036  1
  Ca2+  Ca37  1  0.42142612  0.17365941  0.50284782  1
  Ca2+  Ca38  1  0.42517703  0.16960838  0.82947734  1
  Ca2+  Ca39  1  0.40892748  0.66898879  0.16543399  1
  Ca2+  Ca40  1  0.42235669  0.67078489  0.49253715  1
  Ca2+  Ca41  1  0.42308726  0.66329484  0.82680750  1
  Ca2+  Ca42  1  0.92795216  0.17250051  0.16265513  1
  Ca2+  Ca43  1  0.91877026  0.17245255  0.49044989  1
  Ca2+  Ca44  1  0.92017393  0.16669184  0.82985833  1
  Ca2+  Ca45  1  0.91091447  0.66969992  0.16329702  1
  Ca2+  Ca46  1  0.91858211  0.65523066  0.49865505  1
  Ca2+  Ca47  1  0.91574667  0.67065641  0.82590439  1
  Al0+  Al48  1  -0.00136143  0.00045302  -0.01059482  1
  Al0+  Al49  1  0.00168268  -0.00132243  0.32870248  1
  Al0+  Al50  1  -0.00087033  -0.00106123  0.66982755  1
  Al0+  Al51  1  -0.00010350  0.50050111  0.00325890  1
  Al0+  Al52  1  0.00042024  0.49875338  0.33240666  1
  Al0+  Al53  1  0.00058549  0.49923962  0.67324668  1
  Al0+  Al54  1  0.49966966  -0.00011328  0.00350646  1
  Al0+  Al55  1  0.49891168  -0.00120581  0.33527837  1
  Al0+  Al56  1  0.49809757  0.00088624  0.66654226  1
  Al0+  Al57  1  0.50007916  0.50126806  0.00750463  1
  Al0+  Al58  1  0.50098041  0.50023299  0.33910435  1
  Al0+  Al59  1  0.49841289  0.50154505  0.65547542  1
  Al0+  Al60  1  0.25035440  0.25026741  0.00450179  1
  Al0+  Al61  1  0.25379243  0.24945646  0.33360569  1
  Al0+  Al62  1  0.24980028  0.24940418  0.66631124  1
  Al0+  Al63  1  0.24857645  0.75168917  0.00035874  1
  Al0+  Al64  1  0.25128632  0.75249882  0.33065574  1
  Al0+  Al65  1  0.24810994  0.74862760  0.66316300  1
  Al0+  Al66  1  0.75258307  0.24816175  -0.00263439  1
  Al0+  Al67  1  0.75145467  0.24827769  0.33122859  1
  Al0+  Al68  1  0.75169002  0.24945926  0.66570795  1
  Al0+  Al69  1  0.74837677  0.75214698  -0.00106152  1
  Al0+  Al70  1  0.74911061  0.74906684  0.33980785  1
  Al0+  Al71  1  0.74945538  0.75194277  0.66929877  1
  Al0+  Al72  1  0.32233164  0.57382689  0.01403773  1
  Al0+  Al73  1  0.67864305  0.42409257  0.34951120  1
  Al0+  Al74  1  0.92628140  0.81987113  0.98435970  1
  Al0+  Al75  1  0.67725792  0.93113149  0.68353682  1
  Al0+  Al76  1  0.18039952  0.42867414  0.68156103  1
  Al0+  Al77  1  0.57187369  0.17808069  0.98725414  1
  Al0+  Al78  1  0.82280043  0.07395756  0.68255122  1
  Al0+  Al79  1  0.92872364  0.32199759  0.31716978  1
  Al0+  Al80  1  0.68041999  0.42721766  0.00989328  1
  Al0+  Al81  1  0.06895492  0.67784596  0.65318729  1
  Al0+  Al82  1  0.07350951  0.17764364  0.31830921  1
  Al0+  Al83  1  0.67990890  0.93041840  0.01519554  1
  Al0+  Al84  1  0.82095424  0.57040825  0.34755435  1
  Al0+  Al85  1  0.32091598  0.57516665  0.35139956  1
  Al0+  Al86  1  0.32022415  0.06906049  0.01369459  1
  Al0+  Al87  1  0.57267428  0.67972346  0.65238195  1
  Al0+  Al88  1  0.57248192  0.17862241  0.65098387  1
  Al0+  Al89  1  0.07177203  0.18238197  0.98399760  1
  Al0+  Al90  1  0.67816450  0.93048813  0.34820698  1
  Al0+  Al91  1  0.18169413  0.42862903  0.34996096  1
  Al0+  Al92  1  0.42727999  0.32114241  0.65167778  1
  Al0+  Al93  1  0.43054098  0.82026995  0.31799516  1
  Al0+  Al94  1  0.82013056  0.56953041  0.68179773  1
  Al0+  Al95  1  0.17787991  0.42840587  0.01701162  1
  Si0+  Si96  1  0.67499081  0.42831978  0.68162915  1
  Si0+  Si97  1  0.56912554  0.67900755  0.98726329  1
  Si0+  Si98  1  0.43024188  0.32222500  0.31705275  1
  Si0+  Si99  1  0.17800653  0.92573996  0.68137909  1
  Si0+  Si100  1  0.57380827  0.67779056  0.31513020  1
  Si0+  Si101  1  0.82028324  0.57316392  0.01470445  1
  Si0+  Si102  1  0.92858575  0.82212926  0.64788651  1
  Si0+  Si103  1  0.32236411  0.57367225  0.68148042  1
  Si0+  Si104  1  0.42638898  0.82226333  0.65127313  1
  Si0+  Si105  1  0.42817490  0.82204179  0.98560676  1
  Si0+  Si106  1  0.82492347  0.07181123  0.01761086  1
  Si0+  Si107  1  0.17720968  0.92959521  0.34707820  1
  Si0+  Si108  1  0.92999812  0.32138102  0.65355338  1
  Si0+  Si109  1  0.43002832  0.32350048  0.98646948  1
  Si0+  Si110  1  0.56992913  0.17883313  0.31864564  1
  Si0+  Si111  1  0.92770202  0.32420299  0.98063489  1
  Si0+  Si112  1  0.82451827  0.06919394  0.34687654  1
  Si0+  Si113  1  0.17544516  0.92885293  0.01521100  1
  Si0+  Si114  1  0.32138262  0.07043276  0.35012818  1
  Si0+  Si115  1  0.07134052  0.67907028  0.31770721  1
  Si0+  Si116  1  0.07106831  0.17791557  0.65306395  1
  Si0+  Si117  1  0.31779480  0.06988466  0.68121737  1
  Si0+  Si118  1  0.92814073  0.82050749  0.31974096  1
  Si0+  Si119  1  0.07223622  0.67752940  0.98332464  1
  O2-  O120  1  0.24358444  -0.00353224  0.06163290  1
  O2-  O121  1  0.24592193  0.00258952  0.39039618  1
  O2-  O122  1  0.24792969  -0.00244989  0.72334133  1
  O2-  O123  1  0.24868595  0.50349815  0.06336034  1
  O2-  O124  1  0.25144711  0.50153103  0.40227033  1
  O2-  O125  1  0.25734195  0.50231626  0.72636261  1
  O2-  O126  1  0.75392754  0.00575917  0.06247134  1
  O2-  O127  1  0.75390201  0.00431380  0.39315846  1
  O2-  O128  1  0.74718926  0.00572044  0.73273522  1
  O2-  O129  1  0.75700914  0.49959736  0.05764852  1
  O2-  O130  1  0.75001116  0.49748068  0.39789308  1
  O2-  O131  1  0.74150846  0.49836239  0.72761348  1
  O2-  O132  1  0.00302840  0.25099143  0.26868762  1
  O2-  O133  1  -0.00281794  0.24557087  0.61216947  1
  O2-  O134  1  -0.00036832  0.25877463  0.93589730  1
  O2-  O135  1  -0.00284275  0.74782704  0.27644463  1
  O2-  O136  1  -0.00526172  0.75156261  0.60266748  1
  O2-  O137  1  0.00114926  0.74407473  0.93937714  1
  O2-  O138  1  0.50590974  0.25561933  0.27528587  1
  O2-  O139  1  0.50450106  0.25453112  0.60070651  1
  O2-  O140  1  0.50073688  0.25694891  0.94183840  1
  O2-  O141  1  0.50230482  0.74356819  0.26980402  1
  O2-  O142  1  0.49685668  0.75531198  0.60824636  1
  O2-  O143  1  0.49485602  0.74706349  0.94441347  1
  O2-  O144  1  0.07014496  0.18092391  0.09659647  1
  O2-  O145  1  0.07012084  0.17465244  0.43252174  1
  O2-  O146  1  0.07394172  0.17937090  0.75801847  1
  O2-  O147  1  0.07243572  0.68065419  0.08913573  1
  O2-  O148  1  0.07184352  0.68146053  0.42297083  1
  O2-  O149  1  0.06890634  0.68181272  0.76618778  1
  O2-  O150  1  0.56840792  0.17732039  0.10093064  1
  O2-  O151  1  0.56663978  0.17728257  0.42354691  1
  O2-  O152  1  0.56805595  0.17752293  0.76465276  1
  O2-  O153  1  0.57146542  0.68054569  0.09200727  1
  O2-  O154  1  0.57507695  0.68230229  0.42063467  1
  O2-  O155  1  0.56996502  0.67890191  0.76641394  1
  O2-  O156  1  0.18364655  0.42949801  0.23667745  1
  O2-  O157  1  0.17875070  0.42728478  0.56892815  1
  O2-  O158  1  0.18106088  0.42888734  0.90299612  1
  O2-  O159  1  0.17631800  0.92853057  0.24227983  1
  O2-  O160  1  0.17802252  0.92611117  0.57592329  1
  O2-  O161  1  0.17955745  0.92823727  0.90928888  1
  O2-  O162  1  0.67996412  0.42441605  0.23536450  1
  O2-  O163  1  0.67844272  0.42801956  0.57640473  1
  O2-  O164  1  0.67887609  0.43080431  0.89668331  1
  O2-  O165  1  0.67850759  0.93113354  0.23483306  1
  O2-  O166  1  0.67887934  0.93170242  0.56978195  1
  O2-  O167  1  0.67866277  0.92905255  0.90271657  1
  O2-  O168  1  0.43176823  0.32165741  0.09232003  1
  O2-  O169  1  0.42677430  0.31664716  0.42189963  1
  O2-  O170  1  0.42608689  0.31762018  0.76570770  1
  O2-  O171  1  0.42977407  0.82367910  0.09051883  1
  O2-  O172  1  0.43180360  0.82233551  0.43111217  1
  O2-  O173  1  0.42344051  0.82196375  0.75711916  1
  O2-  O174  1  0.92559664  0.32221632  0.08583718  1
  O2-  O175  1  0.92938819  0.31968639  0.43143590  1
  O2-  O176  1  0.93139841  0.32228879  0.75869624  1
  O2-  O177  1  0.92655272  0.81743481  0.09841274  1
  O2-  O178  1  0.93194839  0.82418194  0.42445143  1
  O2-  O179  1  0.93163465  0.82173151  0.75353830  1
  O2-  O180  1  0.32411579  0.06892908  0.24512375  1
  O2-  O181  1  0.31593888  0.06956471  0.57582294  1
  O2-  O182  1  0.32016370  0.06672372  0.90017370  1
  O2-  O183  1  0.31611236  0.57503344  0.23770139  1
  O2-  O184  1  0.31765338  0.57749754  0.57654448  1
  O2-  O185  1  0.32412404  0.57334364  0.90018102  1
  O2-  O186  1  0.82544619  0.06549398  0.24138343  1
  O2-  O187  1  0.82687919  0.07004512  0.56860082  1
  O2-  O188  1  0.82463861  0.07004868  0.91217172  1
  O2-  O189  1  0.81728535  0.57375942  0.23365839  1
  O2-  O190  1  0.82217706  0.56525053  0.56930032  1
  O2-  O191  1  0.81810342  0.57431478  0.90901996  1
  O2-  O192  1  0.04588690  0.07898969  0.26368767  1
  O2-  O193  1  0.04781064  0.08349136  0.60774870  1
  O2-  O194  1  0.04267897  0.08567316  0.92831055  1
  O2-  O195  1  0.04602300  0.58735932  0.27009346  1
  O2-  O196  1  0.03750887  0.58074606  0.60111165  1
  O2-  O197  1  0.04930962  0.58257774  0.93912015  1
  O2-  O198  1  0.53439920  0.08920124  0.27156991  1
  O2-  O199  1  0.53681621  0.08200833  0.59751257  1
  O2-  O200  1  0.53462223  0.08295676  0.93406888  1
  O2-  O201  1  0.55175767  0.58165413  0.27261277  1
  O2-  O202  1  0.54496939  0.58490317  0.59417220  1
  O2-  O203  1  0.54300856  0.58645485  0.93981316  1
  O2-  O204  1  0.17399665  0.20345000  0.26831828  1
  O2-  O205  1  0.16154751  0.20657901  0.60409451  1
  O2-  O206  1  0.17051882  0.21099589  0.93166127  1
  O2-  O207  1  0.16083385  0.71242748  0.26948195  1
  O2-  O208  1  0.16437472  0.71073919  0.59707807  1
  O2-  O209  1  0.16479971  0.70613692  0.93587979  1
  O2-  O210  1  0.66428048  0.19785022  0.27262214  1
  O2-  O211  1  0.67288726  0.20158350  0.59931429  1
  O2-  O212  1  0.67022880  0.20242536  0.93409296  1
  O2-  O213  1  0.66653702  0.70762620  0.26911918  1
  O2-  O214  1  0.66872099  0.71291660  0.59859919  1
  O2-  O215  1  0.65908315  0.70994974  0.93808347  1
  O2-  O216  1  0.07836616  0.45498602  0.06919092  1
  O2-  O217  1  0.08145196  0.45498213  0.39902088  1
  O2-  O218  1  0.08609276  0.46085051  0.73831285  1
  O2-  O219  1  0.08054035  0.95410665  0.05786689  1
  O2-  O220  1  0.08542984  0.95487701  0.39659650  1
  O2-  O221  1  0.08631932  0.95155755  0.72921699  1
  O2-  O222  1  0.58598812  0.45832353  0.06740329  1
  O2-  O223  1  0.57959850  0.44896737  0.40140547  1
  O2-  O224  1  0.57945301  0.45310986  0.72383939  1
  O2-  O225  1  0.58367894  0.96084641  0.06987582  1
  O2-  O226  1  0.58252695  0.96319408  0.40234136  1
  O2-  O227  1  0.57645571  0.95595313  0.73433595  1
  O2-  O228  1  0.20802145  0.33153755  0.07045709  1
  O2-  O229  1  0.21222485  0.32952159  0.40164052  1
  O2-  O230  1  0.21180300  0.33135659  0.73457085  1
  O2-  O231  1  0.19859600  0.83502236  0.06166314  1
  O2-  O232  1  0.20834141  0.83963686  0.39602658  1
  O2-  O233  1  0.20721859  0.83484425  0.72977293  1
  O2-  O234  1  0.70985845  0.32991921  0.06342045  1
  O2-  O235  1  0.70731186  0.32505964  0.40152572  1
  O2-  O236  1  0.70230937  0.33475579  0.72668639  1
  O2-  O237  1  0.71180225  0.83381911  0.06927019  1
  O2-  O238  1  0.70807821  0.83435898  0.40178801  1
  O2-  O239  1  0.70823639  0.83370138  0.73669311  1
  O2-  O240  1  0.45203173  0.41687380  0.27295599  1
  O2-  O241  1  0.44546565  0.42060399  0.59763916  1
  O2-  O242  1  0.45286330  0.41844147  0.94185422  1
  O2-  O243  1  0.46323673  0.91713933  0.26420398  1
  O2-  O244  1  0.44826331  0.91679067  0.60557450  1
  O2-  O245  1  0.45985343  0.91181669  0.93690972  1
  O2-  O246  1  0.95483269  0.42073395  0.26333070  1
  O2-  O247  1  0.96317841  0.41108671  0.60648990  1
  O2-  O248  1  0.94935808  0.42044532  0.93744778  1
  O2-  O249  1  0.95824080  0.90995685  0.26863308  1
  O2-  O250  1  0.95847552  0.91505939  0.60200951  1
  O2-  O251  1  0.95769014  0.91450560  0.92739704  1
  O2-  O252  1  0.34134302  0.28829188  0.26776756  1
  O2-  O253  1  0.33225598  0.28229981  0.59640523  1
  O2-  O254  1  0.33719013  0.29443895  0.94149338  1
  O2-  O255  1  0.33216582  0.79555624  0.26275322  1
  O2-  O256  1  0.33357005  0.79605856  0.60292707  1
  O2-  O257  1  0.33387499  0.80104880  0.93885544  1
  O2-  O258  1  0.83114507  0.29056280  0.26263893  1
  O2-  O259  1  0.83749926  0.29872320  0.60508234  1
  O2-  O260  1  0.83617159  0.29509813  0.93186847  1
  O2-  O261  1  0.83544368  0.79269354  0.27391745  1
  O2-  O262  1  0.83369505  0.79997179  0.60484195  1
  O2-  O263  1  0.83051072  0.78841245  0.92911559  1
  O2-  O264  1  0.41404924  0.03501201  0.07069581  1
  O2-  O265  1  0.40971140  0.03632069  0.39999252  1
  O2-  O266  1  0.40939900  0.04308223  0.72890735  1
  O2-  O267  1  0.41906661  0.54698021  0.07122755  1
  O2-  O268  1  0.42179347  0.55218896  0.39984016  1
  O2-  O269  1  0.41856171  0.55162587  0.72336858  1
  O2-  O270  1  0.91833338  0.04233288  0.06166273  1
  O2-  O271  1  0.91743062  0.04098317  0.39373972  1
  O2-  O272  1  0.92044121  0.04197648  0.73703612  1
  O2-  O273  1  0.91601234  0.55494427  0.05912211  1
  O2-  O274  1  0.92051349  0.54438866  0.39877848  1
  O2-  O275  1  0.91427012  0.53625293  0.73896094  1
  O2-  O276  1  0.29225425  0.16534752  0.06876190  1
  O2-  O277  1  0.29706935  0.16218892  0.39836457  1
  O2-  O278  1  0.28734199  0.15971623  0.72991336  1
  O2-  O279  1  0.29482667  0.67373296  0.06572934  1
  O2-  O280  1  0.29275817  0.67519670  0.40130843  1
  O2-  O281  1  0.29426204  0.66662598  0.72895809  1
  O2-  O282  1  0.80336429  0.16674519  0.06174746  1
  O2-  O283  1  0.80198939  0.16385865  0.39079303  1
  O2-  O284  1  0.80134743  0.17446566  0.73434463  1
  O2-  O285  1  0.78953305  0.66462221  0.06156306  1
  O2-  O286  1  0.79310590  0.66763195  0.40401873  1
  O2-  O287  1  0.79304691  0.66805281  0.73328315  1
