# generated using pymatgen
data_Ca2Al2SiO7
_symmetry_space_group_name_H-M   'P 1'
_cell_length_a   15.47150389
_cell_length_b   15.47274817
_cell_length_c   15.29276586
_cell_angle_alpha   89.99939670
_cell_angle_beta   90.00606266
_cell_angle_gamma   89.99190773
_symmetry_Int_Tables_number   1
_chemical_formula_structural   Ca2Al2SiO7
_chemical_formula_sum   'Ca48 Al48 Si24 O168'
_cell_volume   3660.88444388
_cell_formula_units_Z   24
loop_
 _symmetry_equiv_pos_site_id
 _symmetry_equiv_pos_as_xyz
  1  'x, y, z'
loop_
 _atom_type_symbol
 _atom_type_oxidation_number
  Ca2+  2.0
  Al0+  0.0
  Si0+  0.0
  O2-  -2.0
loop_
 _atom_site_type_symbol
 _atom_site_label
 _atom_site_symmetry_multiplicity
 _atom_site_fract_x
 _atom_site_fract_y
 _atom_site_fract_z
 _atom_site_occupancy
  Ca2+  Ca0  1  0.15622529  0.07409403  0.16586113  1
  Ca2+  Ca1  1  0.16912990  0.07975471  0.50222983  1
  Ca2+  Ca2  1  0.16409157  0.07705700  0.84669082  1
  Ca2+  Ca3  1  0.17224150  0.58346478  0.17088207  1
  Ca2+  Ca4  1  0.16532451  0.57741907  0.49900359  1
  Ca2+  Ca5  1  0.16362763  0.57726734  0.84157676  1
  Ca2+  Ca6  1  0.66199906  0.08180959  0.16378302  1
  Ca2+  Ca7  1  0.66300359  0.08470940  0.49989859  1
  Ca2+  Ca8  1  0.67392007  0.07897274  0.84879608  1
  Ca2+  Ca9  1  0.67348608  0.58835028  0.16807136  1
  Ca2+  Ca10  1  0.67334935  0.58573688  0.50492496  1
  Ca2+  Ca11  1  0.68129673  0.57834192  0.84492121  1
  Ca2+  Ca12  1  0.08243425  0.33559061  0.16111192  1
  Ca2+  Ca13  1  0.07549080  0.34744041  0.49689632  1
  Ca2+  Ca14  1  0.08350535  0.33550783  0.83010540  1
  Ca2+  Ca15  1  0.08329398  0.82222771  0.15487306  1
  Ca2+  Ca16  1  0.08310931  0.81724328  0.49449759  1
  Ca2+  Ca17  1  0.07991933  0.82277131  0.83801611  1
  Ca2+  Ca18  1  0.58462745  0.32720301  0.15885334  1
  Ca2+  Ca19  1  0.57526922  0.32744962  0.48565379  1
  Ca2+  Ca20  1  0.59052348  0.33247757  0.83775157  1
  Ca2+  Ca21  1  0.57280237  0.82993773  0.16225284  1
  Ca2+  Ca22  1  0.57715443  0.82417025  0.48849127  1
  Ca2+  Ca23  1  0.58061411  0.83764237  0.83837800  1
  Ca2+  Ca24  1  0.32209003  0.42360847  0.17433110  1
  Ca2+  Ca25  1  0.32608792  0.41858238  0.50037937  1
  Ca2+  Ca26  1  0.32043195  0.42461573  0.84434228  1
  Ca2+  Ca27  1  0.33379909  0.91156257  0.16646420  1
  Ca2+  Ca28  1  0.33688451  0.91415944  0.49845435  1
  Ca2+  Ca29  1  0.32681045  0.91629243  0.84468115  1
  Ca2+  Ca30  1  0.83184700  0.41748842  0.16525613  1
  Ca2+  Ca31  1  0.83761253  0.41848429  0.50478790  1
  Ca2+  Ca32  1  0.83497382  0.42452283  0.83831536  1
  Ca2+  Ca33  1  0.83859217  0.92296641  0.16492130  1
  Ca2+  Ca34  1  0.83092480  0.91976162  0.50371588  1
  Ca2+  Ca35  1  0.83074559  0.92240560  0.85104129  1
  Ca2+  Ca36  1  0.42504655  0.17423918  0.16322270  1
  Ca2+  Ca37  1  0.42176872  0.17551982  0.48826590  1
  Ca2+  Ca38  1  0.42344708  0.16668725  0.83545531  1
  Ca2+  Ca39  1  0.41033276  0.67054323  0.16071699  1
  Ca2+  Ca40  1  0.42063549  0.67003404  0.48593232  1
  Ca2+  Ca41  1  0.41012259  0.66922261  0.83862768  1
  Ca2+  Ca42  1  0.91922866  0.17297864  0.15857773  1
  Ca2+  Ca43  1  0.91788467  0.18243222  0.49437221  1
  Ca2+  Ca44  1  0.91994890  0.17119506  0.83576020  1
  Ca2+  Ca45  1  0.92823354  0.66768870  0.15715654  1
  Ca2+  Ca46  1  0.92853710  0.65474579  0.49883079  1
  Ca2+  Ca47  1  0.92510086  0.65654926  0.83269104  1
  Al0+  Al48  1  0.00027089  0.00082407  0.00120114  1
  Al0+  Al49  1  -0.00152095  0.00165505  0.34110156  1
  Al0+  Al50  1  0.00029771  -0.00057506  0.66605440  1
  Al0+  Al51  1  -0.00113637  0.49927607  0.00298468  1
  Al0+  Al52  1  -0.00121464  0.50039810  0.32714306  1
  Al0+  Al53  1  0.00041269  0.49898858  0.66633564  1
  Al0+  Al54  1  0.50024708  0.00106238  -0.00540740  1
  Al0+  Al55  1  0.50039543  -0.00127555  0.32943704  1
  Al0+  Al56  1  0.49967481  0.00013385  0.66594042  1
  Al0+  Al57  1  0.49934215  0.50056478  0.00337610  1
  Al0+  Al58  1  0.50062071  0.49982471  0.33031515  1
  Al0+  Al59  1  0.49959937  0.49985330  0.66728542  1
  Al0+  Al60  1  0.25145928  0.25005319  -0.00159076  1
  Al0+  Al61  1  0.24832100  0.24650603  0.33537228  1
  Al0+  Al62  1  0.25228353  0.24821331  0.66992532  1
  Al0+  Al63  1  0.24873239  0.75176338  -0.00305821  1
  Al0+  Al64  1  0.24899569  0.74940900  0.33242430  1
  Al0+  Al65  1  0.25009131  0.75118568  0.66135992  1
  Al0+  Al66  1  0.75092567  0.24928540  0.00098161  1
  Al0+  Al67  1  0.75277201  0.24962174  0.32775266  1
  Al0+  Al68  1  0.75078509  0.24789011  0.66231766  1
  Al0+  Al69  1  0.74727049  0.75182076  0.00557203  1
  Al0+  Al70  1  0.74974207  0.75261862  0.33381439  1
  Al0+  Al71  1  0.74945363  0.75116320  0.67122077  1
  Al0+  Al72  1  0.17790008  0.42645155  0.01515845  1
  Al0+  Al73  1  0.82169409  0.57269171  0.01712491  1
  Al0+  Al74  1  0.67962317  0.42876676  0.01495744  1
  Al0+  Al75  1  0.42502985  0.32231756  0.31799472  1
  Al0+  Al76  1  0.42966036  0.82006691  0.98456439  1
  Al0+  Al77  1  0.57071329  0.18147683  0.98425590  1
  Al0+  Al78  1  0.32224295  0.57197784  0.34908819  1
  Al0+  Al79  1  0.92654892  0.82147629  0.98748926  1
  Al0+  Al80  1  0.57143058  0.17993336  0.31717194  1
  Al0+  Al81  1  0.06954794  0.67777409  0.98388791  1
  Al0+  Al82  1  0.93150910  0.31849462  0.65389216  1
  Al0+  Al83  1  0.31871569  0.57293107  0.01393905  1
  Al0+  Al84  1  0.07271897  0.17996506  0.98808786  1
  Al0+  Al85  1  0.06863928  0.68028651  0.31908586  1
  Al0+  Al86  1  0.82199385  0.07044532  0.01633104  1
  Al0+  Al87  1  0.57438185  0.67668712  0.31867706  1
  Al0+  Al88  1  0.06973620  0.67955778  0.65187502  1
  Al0+  Al89  1  0.17749272  0.42764793  0.34926804  1
  Al0+  Al90  1  0.18081332  0.43000499  0.68029924  1
  Al0+  Al91  1  0.93147627  0.32112411  0.31802617  1
  Al0+  Al92  1  0.42870877  0.81879994  0.31792026  1
  Al0+  Al93  1  0.17968399  0.93116391  0.01276891  1
  Al0+  Al94  1  0.82006761  0.56970685  0.67906266  1
  Al0+  Al95  1  0.67557628  0.92888332  0.01718927  1
  Si0+  Si96  1  0.67585165  0.42557145  0.68041697  1
  Si0+  Si97  1  0.17708787  0.92842979  0.35023843  1
  Si0+  Si98  1  0.67849641  0.93090340  0.68121433  1
  Si0+  Si99  1  0.56951009  0.17926346  0.65164188  1
  Si0+  Si100  1  0.42790499  0.32129648  0.65244747  1
  Si0+  Si101  1  0.81893714  0.57195301  0.34860531  1
  Si0+  Si102  1  0.32351177  0.07252909  0.01668911  1
  Si0+  Si103  1  0.82162940  0.07263817  0.35244360  1
  Si0+  Si104  1  0.92868981  0.32137794  0.98219648  1
  Si0+  Si105  1  0.92566700  0.82404935  0.65023516  1
  Si0+  Si106  1  0.42804930  0.32449654  0.98116065  1
  Si0+  Si107  1  0.67869887  0.93104570  0.35055862  1
  Si0+  Si108  1  0.57223736  0.67600151  0.98190900  1
  Si0+  Si109  1  0.17931590  0.92839189  0.68138456  1
  Si0+  Si110  1  0.07517684  0.17520464  0.64964214  1
  Si0+  Si111  1  0.07142958  0.17421402  0.31863695  1
  Si0+  Si112  1  0.82116030  0.07137926  0.68114719  1
  Si0+  Si113  1  0.57301634  0.67864356  0.65415304  1
  Si0+  Si114  1  0.32207664  0.06927009  0.68197039  1
  Si0+  Si115  1  0.32255014  0.06808429  0.34840887  1
  Si0+  Si116  1  0.43097728  0.82069492  0.65129614  1
  Si0+  Si117  1  0.68034255  0.42618641  0.34734626  1
  Si0+  Si118  1  0.32433669  0.57428435  0.68264115  1
  Si0+  Si119  1  0.92799345  0.82578227  0.31936655  1
  O2-  O120  1  0.25217201  0.00726734  0.06121103  1
  O2-  O121  1  0.25053301  -0.00207232  0.39211987  1
  O2-  O122  1  0.24721173  0.00259868  0.72330172  1
  O2-  O123  1  0.24824482  0.50006961  0.06376393  1
  O2-  O124  1  0.25218307  0.49766655  0.39962614  1
  O2-  O125  1  0.25555565  0.50535760  0.72515899  1
  O2-  O126  1  0.75109574  -0.00255563  0.06674975  1
  O2-  O127  1  0.74924619  0.00232406  0.39468579  1
  O2-  O128  1  0.75376352  -0.00289745  0.72261658  1
  O2-  O129  1  0.74785186  0.50250094  0.06726628  1
  O2-  O130  1  0.74575587  0.50229250  0.39093930  1
  O2-  O131  1  0.74309951  0.49592126  0.72303160  1
  O2-  O132  1  0.00942798  0.24832827  0.27554294  1
  O2-  O133  1  0.00836034  0.24548824  0.60572000  1
  O2-  O134  1  0.00172627  0.25653522  0.93888364  1
  O2-  O135  1  -0.00386253  0.75803740  0.27578479  1
  O2-  O136  1  -0.00730423  0.75403543  0.60581156  1
  O2-  O137  1  -0.00769309  0.74556421  0.93453365  1
  O2-  O138  1  0.50244367  0.25534424  0.26894915  1
  O2-  O139  1  0.50256902  0.25364545  0.60987280  1
  O2-  O140  1  0.49840444  0.25742265  0.93538756  1
  O2-  O141  1  0.49527242  0.74128972  0.26997297  1
  O2-  O142  1  0.49923911  0.74665505  0.61076153  1
  O2-  O143  1  0.50390810  0.74523521  0.93651478  1
  O2-  O144  1  0.06959652  0.17901485  0.10104537  1
  O2-  O145  1  0.06720338  0.16745535  0.42449777  1
  O2-  O146  1  0.07406475  0.17186845  0.75464233  1
  O2-  O147  1  0.07124780  0.68113794  0.09707696  1
  O2-  O148  1  0.06613946  0.68015321  0.43312333  1
  O2-  O149  1  0.07104519  0.68123626  0.76403330  1
  O2-  O150  1  0.56750699  0.18144738  0.09662899  1
  O2-  O151  1  0.56919237  0.17973957  0.43243200  1
  O2-  O152  1  0.56894890  0.17679778  0.75604483  1
  O2-  O153  1  0.57118910  0.67622577  0.08697314  1
  O2-  O154  1  0.57808269  0.68304679  0.43370469  1
  O2-  O155  1  0.57451277  0.68055645  0.75845980  1
  O2-  O156  1  0.17733558  0.42794159  0.23675421  1
  O2-  O157  1  0.18235917  0.43063398  0.56739810  1
  O2-  O158  1  0.18015922  0.42648799  0.90078358  1
  O2-  O159  1  0.17291791  0.93151787  0.24603356  1
  O2-  O160  1  0.18119069  0.92902809  0.57585090  1
  O2-  O161  1  0.18197404  0.93214369  0.89887256  1
  O2-  O162  1  0.68545910  0.42198178  0.24333350  1
  O2-  O163  1  0.67378695  0.42535193  0.57467029  1
  O2-  O164  1  0.68329890  0.42955798  0.90021662  1
  O2-  O165  1  0.67864933  0.93127065  0.24673728  1
  O2-  O166  1  0.67660399  0.93305367  0.57572425  1
  O2-  O167  1  0.67553460  0.93405389  0.90218483  1
  O2-  O168  1  0.42702117  0.32128487  0.08610552  1
  O2-  O169  1  0.42775398  0.31708017  0.43316663  1
  O2-  O170  1  0.42719735  0.31888449  0.75692211  1
  O2-  O171  1  0.42998085  0.82036827  0.09683292  1
  O2-  O172  1  0.43342361  0.82200812  0.43291847  1
  O2-  O173  1  0.43093304  0.82435883  0.75570647  1
  O2-  O174  1  0.92729802  0.31904689  0.08764933  1
  O2-  O175  1  0.93000312  0.31990115  0.43195089  1
  O2-  O176  1  0.92872039  0.31525275  0.76614523  1
  O2-  O177  1  0.93291550  0.82292438  0.10111011  1
  O2-  O178  1  0.92898603  0.82749554  0.42573607  1
  O2-  O179  1  0.92592776  0.82889178  0.75469732  1
  O2-  O180  1  0.32377116  0.06725753  0.24423264  1
  O2-  O181  1  0.32479323  0.06737924  0.57668820  1
  O2-  O182  1  0.32297978  0.07005815  0.91009892  1
  O2-  O183  1  0.31719450  0.57559001  0.23662164  1
  O2-  O184  1  0.32848356  0.57396628  0.57747152  1
  O2-  O185  1  0.31750315  0.57090056  0.89918319  1
  O2-  O186  1  0.82686668  0.07049509  0.24864711  1
  O2-  O187  1  0.81876909  0.07175809  0.57571696  1
  O2-  O188  1  0.82012017  0.07101367  0.90160781  1
  O2-  O189  1  0.81839439  0.57350291  0.24441059  1
  O2-  O190  1  0.81810227  0.56874880  0.56532728  1
  O2-  O191  1  0.82175366  0.56897097  0.90280552  1
  O2-  O192  1  0.03834049  0.08282864  0.27229640  1
  O2-  O193  1  0.04818295  0.08186318  0.60214116  1
  O2-  O194  1  0.03917122  0.08488098  0.93231142  1
  O2-  O195  1  0.03568542  0.58652142  0.26432318  1
  O2-  O196  1  0.03698293  0.58376875  0.59765162  1
  O2-  O197  1  0.04210086  0.57792392  0.93256511  1
  O2-  O198  1  0.54036774  0.08252556  0.26659927  1
  O2-  O199  1  0.53721824  0.08867324  0.60295169  1
  O2-  O200  1  0.53680817  0.08706512  0.92728841  1
  O2-  O201  1  0.56005645  0.57488984  0.27054113  1
  O2-  O202  1  0.54969390  0.58484315  0.60755083  1
  O2-  O203  1  0.54688407  0.58256631  0.93457329  1
  O2-  O204  1  0.16779682  0.18909127  0.27669018  1
  O2-  O205  1  0.17102985  0.19694876  0.60589718  1
  O2-  O206  1  0.17085201  0.20378148  0.93228766  1
  O2-  O207  1  0.16480078  0.71150261  0.26755119  1
  O2-  O208  1  0.16557560  0.71331727  0.59644425  1
  O2-  O209  1  0.16494873  0.71297167  0.92920665  1
  O2-  O210  1  0.67097859  0.20295768  0.26700360  1
  O2-  O211  1  0.66231758  0.20160427  0.60342910  1
  O2-  O212  1  0.66809447  0.21100919  0.92997159  1
  O2-  O213  1  0.66979806  0.71396155  0.26594090  1
  O2-  O214  1  0.66359199  0.70947256  0.60500995  1
  O2-  O215  1  0.66582626  0.70301635  0.93645057  1
  O2-  O216  1  0.07816488  0.44916413  0.06487363  1
  O2-  O217  1  0.07877586  0.46304269  0.40006409  1
  O2-  O218  1  0.08390067  0.45919029  0.73281148  1
  O2-  O219  1  0.08496146  0.96227369  0.06861847  1
  O2-  O220  1  0.08751815  0.95938971  0.40215869  1
  O2-  O221  1  0.08588111  0.95303799  0.72666159  1
  O2-  O222  1  0.57888116  0.44945203  0.06452138  1
  O2-  O223  1  0.58594070  0.44654054  0.39320048  1
  O2-  O224  1  0.58194500  0.44823160  0.72750300  1
  O2-  O225  1  0.57878581  0.96473411  0.06783536  1
  O2-  O226  1  0.58718896  0.96012587  0.39944318  1
  O2-  O227  1  0.58785286  0.96336748  0.72820401  1
  O2-  O228  1  0.20738421  0.32772517  0.06655942  1
  O2-  O229  1  0.20003700  0.32585640  0.40103101  1
  O2-  O230  1  0.20983225  0.33137554  0.73221514  1
  O2-  O231  1  0.21249062  0.83619057  0.06609543  1
  O2-  O232  1  0.20496308  0.83748991  0.39893863  1
  O2-  O233  1  0.21171777  0.83794789  0.72748895  1
  O2-  O234  1  0.71025231  0.33138097  0.06708954  1
  O2-  O235  1  0.71312528  0.33582159  0.39682648  1
  O2-  O236  1  0.70332439  0.33135897  0.72445061  1
  O2-  O237  1  0.69355476  0.82899624  0.06877452  1
  O2-  O238  1  0.70834815  0.84022373  0.40084626  1
  O2-  O239  1  0.69949805  0.83788999  0.72808303  1
  O2-  O240  1  0.44570347  0.42259697  0.26898378  1
  O2-  O241  1  0.45193226  0.41470703  0.60584401  1
  O2-  O242  1  0.45255981  0.41818407  0.93456243  1
  O2-  O243  1  0.46132990  0.91526884  0.26566508  1
  O2-  O244  1  0.46210713  0.91187203  0.60279728  1
  O2-  O245  1  0.46088079  0.91600198  0.92804934  1
  O2-  O246  1  0.95689917  0.41702577  0.26274325  1
  O2-  O247  1  0.96094957  0.41471456  0.59861771  1
  O2-  O248  1  0.95093736  0.41581309  0.93737555  1
  O2-  O249  1  0.95334010  0.92044148  0.27650214  1
  O2-  O250  1  0.95262965  0.91735015  0.60179668  1
  O2-  O251  1  0.96002783  0.91823583  0.93326486  1
  O2-  O252  1  0.32862245  0.28642017  0.26706491  1
  O2-  O253  1  0.33831611  0.28820802  0.60357474  1
  O2-  O254  1  0.33630562  0.29482927  0.93283519  1
  O2-  O255  1  0.32767522  0.79971886  0.26907310  1
  O2-  O256  1  0.33870854  0.79752211  0.60251755  1
  O2-  O257  1  0.33396813  0.78991580  0.92779561  1
  O2-  O258  1  0.83771763  0.28606675  0.26335611  1
  O2-  O259  1  0.83513481  0.28617608  0.59737180  1
  O2-  O260  1  0.83741681  0.29051627  0.93467968  1
  O2-  O261  1  0.83378993  0.80278246  0.27588463  1
  O2-  O262  1  0.83022156  0.80106152  0.60546682  1
  O2-  O263  1  0.82383414  0.80325932  0.93907475  1
  O2-  O264  1  0.41528278  0.04256139  0.06155721  1
  O2-  O265  1  0.41337607  0.03786575  0.39836945  1
  O2-  O266  1  0.41249234  0.03715817  0.73027266  1
  O2-  O267  1  0.41893130  0.54992420  0.06385037  1
  O2-  O268  1  0.42397306  0.54834668  0.40041167  1
  O2-  O269  1  0.41815737  0.54978806  0.72982213  1
  O2-  O270  1  0.91940335  0.04248775  0.07041000  1
  O2-  O271  1  0.91117914  0.04335384  0.40532769  1
  O2-  O272  1  0.91535715  0.04821319  0.72570904  1
  O2-  O273  1  0.91852144  0.54240007  0.07028621  1
  O2-  O274  1  0.90976034  0.53921257  0.39497559  1
  O2-  O275  1  0.91502011  0.53588060  0.73249622  1
  O2-  O276  1  0.30299370  0.16743604  0.06005639  1
  O2-  O277  1  0.29461923  0.15844441  0.39965298  1
  O2-  O278  1  0.30056596  0.16186623  0.72985032  1
  O2-  O279  1  0.28989701  0.67118594  0.06460130  1
  O2-  O280  1  0.29168661  0.67085980  0.40329911  1
  O2-  O281  1  0.29833570  0.66944092  0.72522868  1
  O2-  O282  1  0.79271464  0.16799232  0.06811076  1
  O2-  O283  1  0.79210728  0.16442242  0.39963327  1
  O2-  O284  1  0.78973996  0.16177487  0.72836077  1
  O2-  O285  1  0.79532990  0.67129417  0.06935928  1
  O2-  O286  1  0.79378788  0.66483192  0.39711945  1
  O2-  O287  1  0.79233607  0.66737351  0.73264525  1
