# generated using pymatgen
data_Ca2Al2SiO7
_symmetry_space_group_name_H-M   'P 1'
_cell_length_a   15.46146802
_cell_length_b   15.46065247
_cell_length_c   15.28494378
_cell_angle_alpha   89.99078782
_cell_angle_beta   89.98583822
_cell_angle_gamma   90.00305214
_symmetry_Int_Tables_number   1
_chemical_formula_structural   Ca2Al2SiO7
_chemical_formula_sum   'Ca48 Al48 Si24 O168'
_cell_volume   3653.77980384
_cell_formula_units_Z   24
loop_
 _symmetry_equiv_pos_site_id
 _symmetry_equiv_pos_as_xyz
  1  'x, y, z'
loop_
 _atom_type_symbol
 _atom_type_oxidation_number
  Ca2+  2.0
  Al0+  0.0
  Si0+  0.0
  O2-  -2.0
loop_
 _atom_site_type_symbol
 _atom_site_label
 _atom_site_symmetry_multiplicity
 _atom_site_fract_x
 _atom_site_fract_y
 _atom_site_fract_z
 _atom_site_occupancy
  Ca2+  Ca0  1  0.17652222  0.08647190  0.17166837  1
  Ca2+  Ca1  1  0.17267721  0.08829188  0.50648444  1
  Ca2+  Ca2  1  0.17379156  0.08778191  0.83457695  1
  Ca2+  Ca3  1  0.16502288  0.57597727  0.16848823  1
  Ca2+  Ca4  1  0.17900961  0.57556510  0.50846146  1
  Ca2+  Ca5  1  0.16300508  0.57182557  0.83821689  1
  Ca2+  Ca6  1  0.67292072  0.08542667  0.17418047  1
  Ca2+  Ca7  1  0.66858024  0.08376125  0.50247682  1
  Ca2+  Ca8  1  0.66427756  0.07520393  0.83593375  1
  Ca2+  Ca9  1  0.67533166  0.58807786  0.16837240  1
  Ca2+  Ca10  1  0.67796195  0.58054584  0.50484064  1
  Ca2+  Ca11  1  0.67690695  0.58559599  0.83906987  1
  Ca2+  Ca12  1  0.08203428  0.32943646  0.16137139  1
  Ca2+  Ca13  1  0.08644706  0.32629015  0.50359853  1
  Ca2+  Ca14  1  0.07924190  0.33696750  0.82731119  1
  Ca2+  Ca15  1  0.07559007  0.82255297  0.15588349  1
  Ca2+  Ca16  1  0.08693538  0.83452033  0.49846772  1
  Ca2+  Ca17  1  0.08254076  0.83017146  0.83052837  1
  Ca2+  Ca18  1  0.57110339  0.32989495  0.16450385  1
  Ca2+  Ca19  1  0.57460376  0.32605906  0.48960446  1
  Ca2+  Ca20  1  0.57417300  0.33518078  0.83231049  1
  Ca2+  Ca21  1  0.57655352  0.82564238  0.15618168  1
  Ca2+  Ca22  1  0.58449222  0.83459819  0.49996474  1
  Ca2+  Ca23  1  0.58007355  0.83055516  0.83405663  1
  Ca2+  Ca24  1  0.33230554  0.41602924  0.16980865  1
  Ca2+  Ca25  1  0.33298925  0.42234259  0.50554423  1
  Ca2+  Ca26  1  0.32011047  0.41445676  0.83935004  1
  Ca2+  Ca27  1  0.33893585  0.92586448  0.16833351  1
  Ca2+  Ca28  1  0.32598715  0.93039453  0.50892810  1
  Ca2+  Ca29  1  0.33048934  0.92663094  0.83722760  1
  Ca2+  Ca30  1  0.83867323  0.42647580  0.16816645  1
  Ca2+  Ca31  1  0.83986692  0.42553509  0.50566925  1
  Ca2+  Ca32  1  0.84343307  0.42388561  0.84019936  1
  Ca2+  Ca33  1  0.83412024  0.91934307  0.17151812  1
  Ca2+  Ca34  1  0.82740890  0.92584341  0.50414027  1
  Ca2+  Ca35  1  0.82866303  0.91149798  0.83729007  1
  Ca2+  Ca36  1  0.41203172  0.17310084  0.16381603  1
  Ca2+  Ca37  1  0.41576372  0.16910878  0.49003100  1
  Ca2+  Ca38  1  0.40650881  0.16856845  0.83271625  1
  Ca2+  Ca39  1  0.41937141  0.67146024  0.15565095  1
  Ca2+  Ca40  1  0.41230167  0.66507765  0.49377321  1
  Ca2+  Ca41  1  0.41951099  0.66609495  0.82898521  1
  Ca2+  Ca42  1  0.92317122  0.16800071  0.16118913  1
  Ca2+  Ca43  1  0.92866135  0.16688808  0.49282590  1
  Ca2+  Ca44  1  0.92386534  0.18240901  0.82192501  1
  Ca2+  Ca45  1  0.91680297  0.66856291  0.15440047  1
  Ca2+  Ca46  1  0.91457180  0.66415175  0.49831285  1
  Ca2+  Ca47  1  0.91945859  0.66296639  0.83521911  1
  Al0+  Al48  1  0.00077414  -0.00129079  -0.00404793  1
  Al0+  Al49  1  -0.00168297  -0.00100209  0.33188620  1
  Al0+  Al50  1  -0.00061528  0.00007143  0.66542662  1
  Al0+  Al51  1  0.00019914  0.49927188  0.00412717  1
  Al0+  Al52  1  0.00126646  0.49981139  0.33934908  1
  Al0+  Al53  1  0.00130414  0.50282804  0.66733366  1
  Al0+  Al54  1  0.50094880  -0.00101775  0.00245857  1
  Al0+  Al55  1  0.50017653  -0.00113361  0.33362954  1
  Al0+  Al56  1  0.50065117  -0.00096359  0.67343055  1
  Al0+  Al57  1  0.50067444  0.49721286  -0.00891460  1
  Al0+  Al58  1  0.50127894  0.50044341  0.33261419  1
  Al0+  Al59  1  0.50410052  0.50153179  0.66693405  1
  Al0+  Al60  1  0.25059727  0.24980265  0.00595844  1
  Al0+  Al61  1  0.24753404  0.24953035  0.32950761  1
  Al0+  Al62  1  0.24941302  0.25241243  0.66875627  1
  Al0+  Al63  1  0.24946575  0.75037742  -0.00843655  1
  Al0+  Al64  1  0.24900251  0.74853478  0.33396582  1
  Al0+  Al65  1  0.25145580  0.75301996  0.67047961  1
  Al0+  Al66  1  0.74926758  0.25012361  -0.00357607  1
  Al0+  Al67  1  0.74999011  0.25088522  0.33371361  1
  Al0+  Al68  1  0.74835219  0.25293929  0.66133966  1
  Al0+  Al69  1  0.74906888  0.74985905  -0.00166862  1
  Al0+  Al70  1  0.74974371  0.74988392  0.33794006  1
  Al0+  Al71  1  0.74962474  0.75012028  0.67208852  1
  Al0+  Al72  1  0.68067664  0.93075714  0.68164361  1
  Al0+  Al73  1  0.07100927  0.17892549  0.65157070  1
  Al0+  Al74  1  0.17922382  0.43025517  0.01663212  1
  Al0+  Al75  1  0.17543000  0.92885453  0.68216911  1
  Al0+  Al76  1  0.92903319  0.31916247  0.98898362  1
  Al0+  Al77  1  0.32026629  0.07056135  0.34642155  1
  Al0+  Al78  1  0.07080178  0.67681204  0.98474518  1
  Al0+  Al79  1  0.42808259  0.32183573  0.31853721  1
  Al0+  Al80  1  0.82192934  0.07251838  0.34564475  1
  Al0+  Al81  1  0.18146065  0.43136519  0.68169126  1
  Al0+  Al82  1  0.42819068  0.82321257  0.98336139  1
  Al0+  Al83  1  0.31990013  0.06842234  0.01682952  1
  Al0+  Al84  1  0.57244214  0.17649529  0.31837611  1
  Al0+  Al85  1  0.92838946  0.82218677  0.98435444  1
  Al0+  Al86  1  0.57046168  0.67771392  0.98397582  1
  Al0+  Al87  1  0.92835560  0.32505663  0.64945479  1
  Al0+  Al88  1  0.32187224  0.57108278  0.34347824  1
  Al0+  Al89  1  0.81804310  0.56887577  0.01459341  1
  Al0+  Al90  1  0.32532435  0.57276697  0.68221043  1
  Al0+  Al91  1  0.82105017  0.57087900  0.34756284  1
  Al0+  Al92  1  0.42767128  0.31862054  0.98453491  1
  Al0+  Al93  1  0.82033247  0.56924692  0.68218016  1
  Al0+  Al94  1  0.06926439  0.17751105  0.31757590  1
  Al0+  Al95  1  0.32025650  0.07225116  0.68158078  1
  Si0+  Si96  1  0.67846925  0.92788030  0.34930705  1
  Si0+  Si97  1  0.17579439  0.92537663  0.01753560  1
  Si0+  Si98  1  0.42768378  0.81962652  0.32045799  1
  Si0+  Si99  1  0.57238296  0.68041384  0.64880595  1
  Si0+  Si100  1  0.68072596  0.92957313  0.01700133  1
  Si0+  Si101  1  0.67742449  0.42845349  0.34967208  1
  Si0+  Si102  1  0.57254629  0.68013501  0.32029709  1
  Si0+  Si103  1  0.17755728  0.92697654  0.34721735  1
  Si0+  Si104  1  0.07132008  0.67840688  0.32067393  1
  Si0+  Si105  1  0.57003469  0.17646870  0.65231802  1
  Si0+  Si106  1  0.92653496  0.82044699  0.64973130  1
  Si0+  Si107  1  0.82163180  0.07249993  0.01242919  1
  Si0+  Si108  1  0.82175983  0.07481501  0.68248911  1
  Si0+  Si109  1  0.67784366  0.42631080  0.68392641  1
  Si0+  Si110  1  0.92769486  0.81871131  0.32044957  1
  Si0+  Si111  1  0.57266598  0.17751915  0.98258309  1
  Si0+  Si112  1  0.42997235  0.82175505  0.64974030  1
  Si0+  Si113  1  0.67528994  0.42471883  0.01743619  1
  Si0+  Si114  1  0.43023766  0.32131313  0.65235440  1
  Si0+  Si115  1  0.07278867  0.17773254  0.98412032  1
  Si0+  Si116  1  0.92848201  0.32423691  0.31683709  1
  Si0+  Si117  1  0.17802364  0.42735651  0.35141586  1
  Si0+  Si118  1  0.32402790  0.57217716  0.01397857  1
  Si0+  Si119  1  0.07230066  0.68120381  0.64976100  1
  O2-  O120  1  0.24586923  -0.00812634  0.06296188  1
  O2-  O121  1  0.24402068  -0.00283214  0.39203776  1
  O2-  O122  1  0.24516198  0.00313737  0.73114845  1
  O2-  O123  1  0.25476939  0.50599001  0.06110523  1
  O2-  O124  1  0.25093122  0.49400019  0.39178062  1
  O2-  O125  1  0.25370069  0.50226414  0.73330934  1
  O2-  O126  1  0.75293433  0.00005410  0.05740288  1
  O2-  O127  1  0.74312043  0.00128315  0.39188811  1
  O2-  O128  1  0.75440205  0.00607806  0.72899203  1
  O2-  O129  1  0.74262504  0.49483150  0.06199260  1
  O2-  O130  1  0.74923250  0.49387914  0.39446674  1
  O2-  O131  1  0.75114556  0.48939863  0.72796967  1
  O2-  O132  1  -0.00674876  0.25214974  0.27237788  1
  O2-  O133  1  -0.00380342  0.24839663  0.60063838  1
  O2-  O134  1  0.00177641  0.24389657  0.94094736  1
  O2-  O135  1  -0.00240158  0.74679753  0.27871736  1
  O2-  O136  1  0.00133856  0.75326027  0.60683913  1
  O2-  O137  1  0.00148613  0.75175277  0.93447884  1
  O2-  O138  1  0.49790866  0.24631572  0.26925222  1
  O2-  O139  1  0.49914747  0.24774522  0.61065272  1
  O2-  O140  1  0.50256446  0.24387459  0.93752063  1
  O2-  O141  1  0.49807772  0.74755585  0.27852597  1
  O2-  O142  1  0.49751970  0.74732929  0.60571027  1
  O2-  O143  1  0.49516065  0.74617504  0.93324325  1
  O2-  O144  1  0.07045799  0.17722483  0.09012820  1
  O2-  O145  1  0.06981785  0.17680457  0.43020488  1
  O2-  O146  1  0.06979989  0.18041597  0.76517796  1
  O2-  O147  1  0.06765074  0.67773859  0.09954191  1
  O2-  O148  1  0.07290383  0.68125714  0.42575200  1
  O2-  O149  1  0.07000994  0.68028610  0.75433990  1
  O2-  O150  1  0.57509256  0.17865150  0.08792341  1
  O2-  O151  1  0.57080922  0.17734883  0.43255752  1
  O2-  O152  1  0.57145660  0.17661875  0.75738186  1
  O2-  O153  1  0.57139160  0.68145333  0.09865410  1
  O2-  O154  1  0.57481957  0.68322103  0.42550861  1
  O2-  O155  1  0.57380878  0.68218670  0.75335295  1
  O2-  O156  1  0.17377992  0.43049578  0.24587306  1
  O2-  O157  1  0.18436738  0.43156511  0.56767628  1
  O2-  O158  1  0.17876068  0.42943277  0.90400334  1
  O2-  O159  1  0.17915452  0.92391328  0.24190238  1
  O2-  O160  1  0.18031854  0.92636646  0.56786448  1
  O2-  O161  1  0.17375943  0.92911895  0.91249033  1
  O2-  O162  1  0.67574889  0.43167684  0.24430509  1
  O2-  O163  1  0.67337420  0.43002501  0.57831737  1
  O2-  O164  1  0.67708000  0.42313420  0.91190463  1
  O2-  O165  1  0.68152386  0.92252617  0.24400524  1
  O2-  O166  1  0.68130258  0.93112177  0.56811928  1
  O2-  O167  1  0.68011750  0.93081803  0.91186661  1
  O2-  O168  1  0.42893052  0.31867649  0.09746256  1
  O2-  O169  1  0.43090747  0.32265789  0.43279759  1
  O2-  O170  1  0.43208265  0.32094840  0.75739776  1
  O2-  O171  1  0.43265097  0.82309510  0.09812496  1
  O2-  O172  1  0.42809571  0.81901526  0.42564415  1
  O2-  O173  1  0.43346201  0.82278986  0.75424319  1
  O2-  O174  1  0.92924911  0.31658983  0.10240066  1
  O2-  O175  1  0.93120515  0.32579671  0.42215364  1
  O2-  O176  1  0.92951375  0.32395464  0.76319595  1
  O2-  O177  1  0.92805687  0.82179150  0.09897587  1
  O2-  O178  1  0.92669236  0.81860547  0.42563897  1
  O2-  O179  1  0.92407365  0.81825612  0.75432281  1
  O2-  O180  1  0.32073326  0.06729902  0.23351536  1
  O2-  O181  1  0.32291844  0.07077898  0.56763715  1
  O2-  O182  1  0.31815850  0.06945928  0.90408751  1
  O2-  O183  1  0.31917618  0.57565923  0.23079724  1
  O2-  O184  1  0.32415125  0.56989235  0.56780339  1
  O2-  O185  1  0.32389045  0.56819575  0.90880486  1
  O2-  O186  1  0.82279522  0.06729957  0.23212517  1
  O2-  O187  1  0.81929294  0.07165090  0.57665615  1
  O2-  O188  1  0.81760020  0.07285630  0.90759248  1
  O2-  O189  1  0.81976826  0.57383192  0.23481255  1
  O2-  O190  1  0.81701698  0.57136224  0.56848795  1
  O2-  O191  1  0.81799645  0.56778942  0.90182319  1
  O2-  O192  1  0.03804109  0.08049637  0.26331892  1
  O2-  O193  1  0.04556850  0.07889657  0.59850266  1
  O2-  O194  1  0.05112708  0.08334906  0.93869617  1
  O2-  O195  1  0.04552514  0.58520652  0.27568680  1
  O2-  O196  1  0.04305576  0.59073937  0.60072629  1
  O2-  O197  1  0.03663783  0.58044617  0.93258165  1
  O2-  O198  1  0.54976953  0.07559620  0.26719354  1
  O2-  O199  1  0.54303945  0.08397750  0.60588149  1
  O2-  O200  1  0.54846259  0.08279820  0.93901491  1
  O2-  O201  1  0.55066389  0.58739321  0.27356657  1
  O2-  O202  1  0.54980566  0.58692321  0.60135591  1
  O2-  O203  1  0.55007311  0.57845315  0.93000501  1
  O2-  O204  1  0.16453052  0.20897152  0.26216732  1
  O2-  O205  1  0.16911709  0.21188507  0.59872989  1
  O2-  O206  1  0.16560260  0.20668454  0.94068385  1
  O2-  O207  1  0.16129020  0.70798845  0.27047852  1
  O2-  O208  1  0.16496688  0.70941158  0.60304265  1
  O2-  O209  1  0.16956185  0.69910895  0.93086530  1
  O2-  O210  1  0.67121666  0.20585152  0.26551190  1
  O2-  O211  1  0.66146548  0.20347578  0.60298471  1
  O2-  O212  1  0.66482787  0.20352672  0.93344603  1
  O2-  O213  1  0.66284799  0.71282337  0.27191065  1
  O2-  O214  1  0.66273061  0.71438334  0.60128555  1
  O2-  O215  1  0.66629243  0.71245447  0.93057615  1
  O2-  O216  1  0.08435241  0.46220889  0.07346412  1
  O2-  O217  1  0.08726409  0.45684788  0.40093434  1
  O2-  O218  1  0.08364758  0.46247227  0.73335683  1
  O2-  O219  1  0.08155312  0.95143927  0.06402037  1
  O2-  O220  1  0.08270426  0.94919701  0.39195579  1
  O2-  O221  1  0.07430408  0.94965034  0.73249070  1
  O2-  O222  1  0.58057853  0.44983462  0.06134517  1
  O2-  O223  1  0.58608461  0.45791868  0.39874704  1
  O2-  O224  1  0.58725256  0.45785449  0.73256674  1
  O2-  O225  1  0.59005775  0.95777460  0.06614403  1
  O2-  O226  1  0.58395809  0.94849522  0.39551286  1
  O2-  O227  1  0.58585911  0.96098926  0.73846455  1
  O2-  O228  1  0.21083379  0.33449769  0.07158424  1
  O2-  O229  1  0.20114203  0.33287518  0.39512792  1
  O2-  O230  1  0.20819293  0.33377028  0.73577757  1
  O2-  O231  1  0.19855435  0.82947125  0.06083503  1
  O2-  O232  1  0.20476890  0.83445326  0.39542584  1
  O2-  O233  1  0.20603643  0.83215439  0.73601157  1
  O2-  O234  1  0.70194472  0.33116192  0.06354403  1
  O2-  O235  1  0.69844706  0.33376263  0.39532623  1
  O2-  O236  1  0.69518716  0.33006053  0.72781063  1
  O2-  O237  1  0.70814718  0.83797614  0.06467938  1
  O2-  O238  1  0.70914916  0.83746213  0.39993942  1
  O2-  O239  1  0.71234296  0.83558616  0.73660699  1
  O2-  O240  1  0.46001709  0.41978745  0.26498909  1
  O2-  O241  1  0.46194102  0.41271562  0.60525167  1
  O2-  O242  1  0.45785249  0.41338051  0.92736598  1
  O2-  O243  1  0.45698718  0.91032863  0.27225513  1
  O2-  O244  1  0.46389666  0.91253582  0.60291305  1
  O2-  O245  1  0.46510579  0.91911807  0.93090771  1
  O2-  O246  1  0.95883621  0.41746701  0.27130913  1
  O2-  O247  1  0.96084046  0.42284180  0.59696641  1
  O2-  O248  1  0.96157090  0.41519084  0.93725424  1
  O2-  O249  1  0.95459942  0.90963970  0.27136590  1
  O2-  O250  1  0.94950649  0.91386929  0.60263495  1
  O2-  O251  1  0.95303946  0.92106534  0.92991047  1
  O2-  O252  1  0.32909165  0.29672860  0.26642961  1
  O2-  O253  1  0.33798292  0.29675927  0.60561697  1
  O2-  O254  1  0.33124486  0.28503658  0.93249349  1
  O2-  O255  1  0.33612970  0.79257788  0.27215980  1
  O2-  O256  1  0.33681228  0.79834917  0.60264000  1
  O2-  O257  1  0.32795226  0.80501857  0.93184504  1
  O2-  O258  1  0.83249935  0.30508662  0.27386552  1
  O2-  O259  1  0.82683703  0.30328233  0.59836664  1
  O2-  O260  1  0.83228313  0.29193589  0.93293248  1
  O2-  O261  1  0.83549660  0.79116837  0.27318115  1
  O2-  O262  1  0.83583011  0.78786226  0.60202089  1
  O2-  O263  1  0.83033755  0.79336360  0.93269498  1
  O2-  O264  1  0.41798459  0.03824038  0.06942864  1
  O2-  O265  1  0.41726417  0.03909706  0.39980428  1
  O2-  O266  1  0.41705767  0.04097424  0.73578140  1
  O2-  O267  1  0.41864318  0.54527453  0.05801199  1
  O2-  O268  1  0.42029069  0.54621227  0.39755366  1
  O2-  O269  1  0.42564942  0.54753633  0.73163294  1
  O2-  O270  1  0.91479019  0.04624961  0.05838853  1
  O2-  O271  1  0.91562609  0.03526251  0.40162516  1
  O2-  O272  1  0.91544492  0.05035817  0.72691187  1
  O2-  O273  1  0.91355482  0.53745915  0.07014797  1
  O2-  O274  1  0.91812206  0.54322323  0.40264522  1
  O2-  O275  1  0.91877981  0.54484435  0.73354607  1
  O2-  O276  1  0.28753337  0.16389889  0.07171968  1
  O2-  O277  1  0.29028319  0.16836550  0.39773660  1
  O2-  O278  1  0.29406165  0.17092248  0.73376243  1
  O2-  O279  1  0.30219579  0.66891600  0.05564797  1
  O2-  O280  1  0.28857113  0.66630648  0.40050754  1
  O2-  O281  1  0.30126196  0.67282661  0.73104443  1
  O2-  O282  1  0.79172950  0.16321194  0.06115528  1
  O2-  O283  1  0.79618692  0.17019713  0.39967126  1
  O2-  O284  1  0.79522526  0.16947842  0.72545469  1
  O2-  O285  1  0.78675671  0.66671846  0.06749998  1
  O2-  O286  1  0.78735647  0.66608850  0.40356030  1
  O2-  O287  1  0.78464195  0.66379932  0.73568054  1
