# generated using pymatgen
data_Ca2Al2SiO7
_symmetry_space_group_name_H-M   'P 1'
_cell_length_a   15.46733201
_cell_length_b   15.46689010
_cell_length_c   15.28905432
_cell_angle_alpha   90.00705453
_cell_angle_beta   89.99992469
_cell_angle_gamma   89.96986513
_symmetry_Int_Tables_number   1
_chemical_formula_structural   Ca2Al2SiO7
_chemical_formula_sum   'Ca48 Al48 Si24 O168'
_cell_volume   3657.62323705
_cell_formula_units_Z   24
loop_
 _symmetry_equiv_pos_site_id
 _symmetry_equiv_pos_as_xyz
  1  'x, y, z'
loop_
 _atom_type_symbol
 _atom_type_oxidation_number
  Ca2+  2.0
  Al0+  0.0
  Si0+  0.0
  O2-  -2.0
loop_
 _atom_site_type_symbol
 _atom_site_label
 _atom_site_symmetry_multiplicity
 _atom_site_fract_x
 _atom_site_fract_y
 _atom_site_fract_z
 _atom_site_occupancy
  Ca2+  Ca0  1  0.15888733  0.07181019  0.17295617  1
  Ca2+  Ca1  1  0.15769309  0.07731645  0.50018429  1
  Ca2+  Ca2  1  0.17123729  0.07591889  0.84270853  1
  Ca2+  Ca3  1  0.16065060  0.58233409  0.16605942  1
  Ca2+  Ca4  1  0.17233283  0.58260208  0.50445982  1
  Ca2+  Ca5  1  0.17261841  0.57989929  0.84203724  1
  Ca2+  Ca6  1  0.65996066  0.08226424  0.16779883  1
  Ca2+  Ca7  1  0.66830064  0.08190785  0.50891080  1
  Ca2+  Ca8  1  0.66082147  0.07895996  0.83757858  1
  Ca2+  Ca9  1  0.67643507  0.58342223  0.16713196  1
  Ca2+  Ca10  1  0.67314968  0.58156966  0.51236041  1
  Ca2+  Ca11  1  0.67722596  0.59010469  0.83677785  1
  Ca2+  Ca12  1  0.07661020  0.33502438  0.16034342  1
  Ca2+  Ca13  1  0.07473377  0.32479794  0.48985988  1
  Ca2+  Ca14  1  0.07857265  0.34366984  0.83658196  1
  Ca2+  Ca15  1  0.08105093  0.82704593  0.15901871  1
  Ca2+  Ca16  1  0.07517191  0.82747817  0.48596603  1
  Ca2+  Ca17  1  0.08047712  0.83117199  0.83658096  1
  Ca2+  Ca18  1  0.57451681  0.32231583  0.16010222  1
  Ca2+  Ca19  1  0.57647735  0.32472605  0.49411539  1
  Ca2+  Ca20  1  0.57594565  0.32550036  0.82684042  1
  Ca2+  Ca21  1  0.57720241  0.83676445  0.15583947  1
  Ca2+  Ca22  1  0.59147916  0.82775329  0.50277916  1
  Ca2+  Ca23  1  0.58563117  0.83398693  0.83133195  1
  Ca2+  Ca24  1  0.33122694  0.40958847  0.16852470  1
  Ca2+  Ca25  1  0.33672759  0.41652960  0.50699862  1
  Ca2+  Ca26  1  0.33522786  0.41791569  0.83942251  1
  Ca2+  Ca27  1  0.32351073  0.91416614  0.16845655  1
  Ca2+  Ca28  1  0.32401785  0.91726677  0.50079073  1
  Ca2+  Ca29  1  0.33042544  0.91560773  0.84482401  1
  Ca2+  Ca30  1  0.84335686  0.41955015  0.16745993  1
  Ca2+  Ca31  1  0.83471088  0.42125154  0.50568403  1
  Ca2+  Ca32  1  0.83592522  0.42769009  0.84294937  1
  Ca2+  Ca33  1  0.83163416  0.91078374  0.16819583  1
  Ca2+  Ca34  1  0.83004027  0.92361366  0.50923030  1
  Ca2+  Ca35  1  0.82225643  0.92151690  0.83887228  1
  Ca2+  Ca36  1  0.42484885  0.17106377  0.15991858  1
  Ca2+  Ca37  1  0.42698745  0.17422837  0.49494597  1
  Ca2+  Ca38  1  0.42627939  0.17388140  0.83026752  1
  Ca2+  Ca39  1  0.41855364  0.67442827  0.16021947  1
  Ca2+  Ca40  1  0.42216841  0.66107240  0.50260830  1
  Ca2+  Ca41  1  0.41815756  0.67302360  0.82684340  1
  Ca2+  Ca42  1  0.92124217  0.17664486  0.16531381  1
  Ca2+  Ca43  1  0.91715836  0.16866383  0.49184396  1
  Ca2+  Ca44  1  0.91432384  0.16846290  0.83230290  1
  Ca2+  Ca45  1  0.92570980  0.67612576  0.15825187  1
  Ca2+  Ca46  1  0.92016776  0.67194270  0.49222335  1
  Ca2+  Ca47  1  0.91568848  0.66677074  0.83484590  1
  Al0+  Al48  1  -0.00127311  -0.00034437  0.00020981  1
  Al0+  Al49  1  -0.00411073  -0.00014622  0.33218582  1
  Al0+  Al50  1  -0.00258032  -0.00091365  0.67167445  1
  Al0+  Al51  1  0.00305807  0.50115947  0.00093072  1
  Al0+  Al52  1  0.00213425  0.50198394  0.33143101  1
  Al0+  Al53  1  0.00118010  0.50073605  0.66835920  1
  Al0+  Al54  1  0.49980817  -0.00088959  -0.00295944  1
  Al0+  Al55  1  0.49919554  -0.00181067  0.33440199  1
  Al0+  Al56  1  0.49577384  -0.00015033  0.66490442  1
  Al0+  Al57  1  0.50299088  0.50047671  -0.00077230  1
  Al0+  Al58  1  0.50110434  0.49954419  0.33072275  1
  Al0+  Al59  1  0.49918063  0.50303182  0.66457521  1
  Al0+  Al60  1  0.25134614  0.25044742  0.00145030  1
  Al0+  Al61  1  0.25073033  0.24813515  0.33051638  1
  Al0+  Al62  1  0.24615753  0.24781848  0.66315826  1
  Al0+  Al63  1  0.25074303  0.74944871  -0.00337853  1
  Al0+  Al64  1  0.25117811  0.74923445  0.33668573  1
  Al0+  Al65  1  0.24882161  0.74729529  0.66897527  1
  Al0+  Al66  1  0.75163831  0.25015438  -0.00749007  1
  Al0+  Al67  1  0.74850098  0.25040744  0.32698229  1
  Al0+  Al68  1  0.75088002  0.25104423  0.66632904  1
  Al0+  Al69  1  0.75179290  0.75223371  0.00713224  1
  Al0+  Al70  1  0.75012184  0.74865637  0.33217831  1
  Al0+  Al71  1  0.74979779  0.75137565  0.66950679  1
  Al0+  Al72  1  0.92721733  0.82287658  0.98204334  1
  Al0+  Al73  1  0.57061771  0.17665864  0.31761811  1
  Al0+  Al74  1  0.18220897  0.42952301  0.01457676  1
  Al0+  Al75  1  0.42966375  0.81897677  0.98772890  1
  Al0+  Al76  1  0.07091620  0.67942696  0.98230405  1
  Al0+  Al77  1  0.93168266  0.32131153  0.98463040  1
  Al0+  Al78  1  0.57117450  0.17838673  0.98316161  1
  Al0+  Al79  1  0.17757554  0.92955912  0.34735483  1
  Al0+  Al80  1  0.07110974  0.17677810  0.31925001  1
  Al0+  Al81  1  0.92652877  0.82085002  0.31951498  1
  Al0+  Al82  1  0.57198309  0.17762433  0.65011443  1
  Al0+  Al83  1  0.32164145  0.56978987  0.68088699  1
  Al0+  Al84  1  0.82209061  0.57050422  0.67989142  1
  Al0+  Al85  1  0.67958782  0.93225134  0.01556246  1
  Al0+  Al86  1  0.82151886  0.57055458  0.01612466  1
  Al0+  Al87  1  0.92920986  0.32242736  0.31937059  1
  Al0+  Al88  1  0.17858143  0.92841479  0.01372211  1
  Al0+  Al89  1  0.57148020  0.68255378  0.65461271  1
  Al0+  Al90  1  0.67671655  0.93066298  0.68126527  1
  Al0+  Al91  1  0.42769803  0.32295875  0.98381931  1
  Al0+  Al92  1  0.42712360  0.32154252  0.65149979  1
  Al0+  Al93  1  0.07426759  0.68037700  0.31882166  1
  Al0+  Al94  1  0.82162167  0.07385431  0.68211785  1
  Al0+  Al95  1  0.42867610  0.32296006  0.31742177  1
  Si0+  Si96  1  0.32156652  0.07101710  0.01695263  1
  Si0+  Si97  1  0.06823178  0.17585008  0.65266965  1
  Si0+  Si98  1  0.81774415  0.07214144  0.34662442  1
  Si0+  Si99  1  0.93008984  0.82039769  0.65240324  1
  Si0+  Si100  1  0.82117587  0.57051864  0.34913957  1
  Si0+  Si101  1  0.67684651  0.92718895  0.34912752  1
  Si0+  Si102  1  0.57454249  0.67855982  0.98543831  1
  Si0+  Si103  1  0.57202876  0.67810500  0.31872641  1
  Si0+  Si104  1  0.32323456  0.57030674  0.34868463  1
  Si0+  Si105  1  0.93061875  0.32364581  0.65302312  1
  Si0+  Si106  1  0.67772667  0.42875847  0.68225475  1
  Si0+  Si107  1  0.67880017  0.42639818  0.01691348  1
  Si0+  Si108  1  0.32301285  0.07099041  0.35145599  1
  Si0+  Si109  1  0.82271617  0.07481740  0.01924931  1
  Si0+  Si110  1  0.67899307  0.42978900  0.34781989  1
  Si0+  Si111  1  0.32503914  0.57242721  0.01718210  1
  Si0+  Si112  1  0.07134257  0.67838459  0.65073417  1
  Si0+  Si113  1  0.07258753  0.17719753  0.98321685  1
  Si0+  Si114  1  0.17904497  0.42780974  0.34880003  1
  Si0+  Si115  1  0.31772033  0.07114899  0.68090868  1
  Si0+  Si116  1  0.42999948  0.81933432  0.32064685  1
  Si0+  Si117  1  0.17796973  0.92762726  0.68189547  1
  Si0+  Si118  1  0.17862468  0.42637680  0.68188811  1
  Si0+  Si119  1  0.42318978  0.82190589  0.64796101  1
  O2-  O120  1  0.25009981  0.00542597  0.06152714  1
  O2-  O121  1  0.24909286  0.00699460  0.39619325  1
  O2-  O122  1  0.25052603  -0.00330931  0.72392297  1
  O2-  O123  1  0.25999157  0.50100231  0.06230549  1
  O2-  O124  1  0.25274965  0.49733944  0.38990787  1
  O2-  O125  1  0.25148428  0.49056740  0.72549775  1
  O2-  O126  1  0.75348759  0.00680389  0.06411552  1
  O2-  O127  1  0.74727985  -0.00022730  0.38899739  1
  O2-  O128  1  0.74364087  0.00770436  0.73060756  1
  O2-  O129  1  0.74813010  0.49402533  0.06293798  1
  O2-  O130  1  0.75186083  0.49838945  0.39209849  1
  O2-  O131  1  0.74780833  0.49582450  0.72686595  1
  O2-  O132  1  0.00477731  0.25389756  0.26986995  1
  O2-  O133  1  -0.00354845  0.24719707  0.61179555  1
  O2-  O134  1  0.00578904  0.24644318  0.93665377  1
  O2-  O135  1  0.00319544  0.75367051  0.27064469  1
  O2-  O136  1  0.00079425  0.74962980  0.60876792  1
  O2-  O137  1  -0.00138898  0.75058094  0.93117840  1
  O2-  O138  1  0.49703827  0.24735017  0.26914589  1
  O2-  O139  1  0.50125658  0.25183093  0.60136704  1
  O2-  O140  1  0.50167622  0.25340605  0.93469876  1
  O2-  O141  1  0.50288055  0.75082501  0.27772262  1
  O2-  O142  1  0.49649595  0.75673060  0.60523804  1
  O2-  O143  1  0.50312903  0.74374316  0.94112229  1
  O2-  O144  1  0.07049154  0.17729899  0.08855759  1
  O2-  O145  1  0.06632470  0.17784095  0.43381855  1
  O2-  O146  1  0.07060691  0.17398263  0.75727778  1
  O2-  O147  1  0.07136667  0.68115205  0.09579576  1
  O2-  O148  1  0.07233114  0.67958646  0.43349180  1
  O2-  O149  1  0.07260984  0.67802012  0.75503691  1
  O2-  O150  1  0.56794387  0.17792167  0.09679385  1
  O2-  O151  1  0.57131250  0.17756958  0.43118420  1
  O2-  O152  1  0.56860415  0.17815072  0.76300010  1
  O2-  O153  1  0.57264441  0.67978501  0.09182647  1
  O2-  O154  1  0.57312214  0.67805917  0.42391265  1
  O2-  O155  1  0.57158479  0.68435035  0.76716489  1
  O2-  O156  1  0.17760993  0.42956407  0.24421384  1
  O2-  O157  1  0.17550254  0.42858456  0.57600887  1
  O2-  O158  1  0.18220734  0.43190653  0.90113840  1
  O2-  O159  1  0.18173266  0.92770421  0.23493461  1
  O2-  O160  1  0.17656723  0.92849046  0.57648831  1
  O2-  O161  1  0.18168002  0.93082131  0.89985528  1
  O2-  O162  1  0.67761416  0.43379462  0.24321354  1
  O2-  O163  1  0.68068711  0.43057152  0.57590843  1
  O2-  O164  1  0.67902812  0.42907735  0.91133086  1
  O2-  O165  1  0.67458352  0.92542825  0.24448171  1
  O2-  O166  1  0.68293960  0.92773126  0.56685726  1
  O2-  O167  1  0.67865079  0.93232832  0.90287215  1
  O2-  O168  1  0.42869219  0.32044865  0.09724716  1
  O2-  O169  1  0.43242515  0.32517269  0.43107156  1
  O2-  O170  1  0.42658414  0.31911134  0.76451772  1
  O2-  O171  1  0.43032105  0.81753239  0.10156718  1
  O2-  O172  1  0.42912153  0.81813673  0.42580904  1
  O2-  O173  1  0.41853656  0.81961129  0.75311045  1
  O2-  O174  1  0.93366069  0.32061694  0.09748889  1
  O2-  O175  1  0.92917447  0.32180866  0.43385834  1
  O2-  O176  1  0.93508787  0.32775597  0.75751418  1
  O2-  O177  1  0.92851208  0.82045477  0.09556982  1
  O2-  O178  1  0.92541991  0.81758957  0.43414872  1
  O2-  O179  1  0.93224307  0.82099926  0.75676842  1
  O2-  O180  1  0.32695309  0.06568227  0.24647012  1
  O2-  O181  1  0.31441348  0.07062258  0.57578749  1
  O2-  O182  1  0.31986016  0.06908195  0.91074230  1
  O2-  O183  1  0.32559047  0.57283931  0.24407125  1
  O2-  O184  1  0.31758137  0.57229427  0.56720733  1
  O2-  O185  1  0.32347302  0.57339576  0.91164886  1
  O2-  O186  1  0.81715557  0.07318599  0.24206402  1
  O2-  O187  1  0.82671501  0.06955496  0.56800441  1
  O2-  O188  1  0.82284948  0.07322201  0.91366736  1
  O2-  O189  1  0.81879046  0.57159158  0.24454831  1
  O2-  O190  1  0.82287709  0.56839080  0.56606003  1
  O2-  O191  1  0.81877150  0.56978971  0.90268117  1
  O2-  O192  1  0.03787938  0.08112449  0.26549067  1
  O2-  O193  1  0.03965925  0.08393265  0.60491490  1
  O2-  O194  1  0.04589736  0.08442574  0.93615212  1
  O2-  O195  1  0.04594732  0.58252298  0.26714274  1
  O2-  O196  1  0.04337721  0.58638097  0.60313899  1
  O2-  O197  1  0.04318895  0.58117810  0.92998716  1
  O2-  O198  1  0.54257201  0.07677000  0.26744505  1
  O2-  O199  1  0.54066301  0.07918503  0.59771586  1
  O2-  O200  1  0.53750690  0.08201354  0.93022859  1
  O2-  O201  1  0.54279753  0.58821072  0.26978570  1
  O2-  O202  1  0.54150346  0.58671761  0.59772666  1
  O2-  O203  1  0.55530111  0.58371241  0.94037277  1
  O2-  O204  1  0.17229701  0.19490755  0.27005642  1
  O2-  O205  1  0.15853154  0.20289915  0.60194198  1
  O2-  O206  1  0.16744502  0.20022934  0.93907894  1
  O2-  O207  1  0.17358871  0.70635265  0.26770586  1
  O2-  O208  1  0.16297563  0.70665246  0.60293887  1
  O2-  O209  1  0.16909759  0.70841797  0.92944201  1
  O2-  O210  1  0.66704465  0.20635656  0.26314992  1
  O2-  O211  1  0.67248738  0.20439676  0.59919450  1
  O2-  O212  1  0.67042094  0.20237733  0.93107546  1
  O2-  O213  1  0.66370935  0.70385387  0.27112015  1
  O2-  O214  1  0.66790179  0.71330594  0.59774357  1
  O2-  O215  1  0.66673483  0.70877221  0.94119858  1
  O2-  O216  1  0.08717220  0.46332778  0.06952765  1
  O2-  O217  1  0.08822057  0.45833199  0.39824575  1
  O2-  O218  1  0.08772248  0.45842630  0.72969064  1
  O2-  O219  1  0.08121659  0.95767218  0.06644224  1
  O2-  O220  1  0.07939993  0.95878988  0.40104980  1
  O2-  O221  1  0.08748150  0.95717066  0.72987927  1
  O2-  O222  1  0.58582769  0.45359553  0.06458810  1
  O2-  O223  1  0.58848245  0.46099679  0.39675112  1
  O2-  O224  1  0.58454971  0.45609618  0.72651351  1
  O2-  O225  1  0.58143865  0.96179355  0.06872181  1
  O2-  O226  1  0.58475981  0.95190873  0.39789510  1
  O2-  O227  1  0.57399420  0.95017124  0.72931912  1
  O2-  O228  1  0.20771552  0.33126861  0.06886168  1
  O2-  O229  1  0.20268049  0.33414526  0.39563442  1
  O2-  O230  1  0.19659958  0.33038776  0.72598848  1
  O2-  O231  1  0.21371827  0.83248957  0.06596332  1
  O2-  O232  1  0.21295711  0.83428846  0.40343031  1
  O2-  O233  1  0.20444057  0.83535340  0.72794695  1
  O2-  O234  1  0.70432838  0.33186617  0.06032164  1
  O2-  O235  1  0.70562628  0.33684281  0.39368014  1
  O2-  O236  1  0.70122758  0.33483523  0.72735519  1
  O2-  O237  1  0.70824975  0.83591820  0.07190953  1
  O2-  O238  1  0.70639772  0.83479177  0.39583294  1
  O2-  O239  1  0.70986200  0.83437321  0.73491976  1
  O2-  O240  1  0.45951397  0.42031400  0.26381151  1
  O2-  O241  1  0.45238492  0.42175596  0.60080837  1
  O2-  O242  1  0.45461149  0.42327154  0.93380990  1
  O2-  O243  1  0.45567547  0.91089937  0.27315113  1
  O2-  O244  1  0.44263386  0.91686277  0.60285116  1
  O2-  O245  1  0.45899470  0.91441617  0.93222209  1
  O2-  O246  1  0.95665955  0.42116386  0.26820314  1
  O2-  O247  1  0.96349828  0.41304264  0.60260019  1
  O2-  O248  1  0.96560196  0.41698785  0.93137061  1
  O2-  O249  1  0.94630834  0.92089673  0.26947218  1
  O2-  O250  1  0.95909634  0.91241423  0.60523339  1
  O2-  O251  1  0.95568154  0.92165749  0.93018080  1
  O2-  O252  1  0.32848941  0.29924988  0.26801057  1
  O2-  O253  1  0.32800295  0.29107768  0.59910168  1
  O2-  O254  1  0.32912693  0.29394660  0.93186580  1
  O2-  O255  1  0.33960938  0.78869949  0.27313091  1
  O2-  O256  1  0.33143425  0.79002290  0.60025584  1
  O2-  O257  1  0.33495323  0.78905254  0.93061456  1
  O2-  O258  1  0.83226319  0.29413938  0.26533377  1
  O2-  O259  1  0.83677698  0.30314785  0.60687795  1
  O2-  O260  1  0.83529246  0.29457209  0.92913682  1
  O2-  O261  1  0.82993504  0.78820980  0.26540993  1
  O2-  O262  1  0.83849949  0.79259429  0.60547171  1
  O2-  O263  1  0.82787909  0.79267876  0.93270050  1
  O2-  O264  1  0.41316588  0.04015778  0.06294387  1
  O2-  O265  1  0.41355647  0.03789716  0.40111482  1
  O2-  O266  1  0.41007270  0.04667132  0.72782731  1
  O2-  O267  1  0.42098211  0.55284774  0.06194977  1
  O2-  O268  1  0.41580105  0.54304166  0.39651624  1
  O2-  O269  1  0.42015601  0.54722149  0.73415282  1
  O2-  O270  1  0.91644565  0.04907793  0.06463212  1
  O2-  O271  1  0.90922188  0.04562854  0.39603892  1
  O2-  O272  1  0.91732459  0.04010325  0.73836721  1
  O2-  O273  1  0.91820416  0.53947131  0.06850421  1
  O2-  O274  1  0.91423967  0.54510451  0.39589442  1
  O2-  O275  1  0.91854131  0.53983631  0.73395797  1
  O2-  O276  1  0.29996582  0.16536123  0.06232633  1
  O2-  O277  1  0.30284338  0.16680928  0.39555879  1
  O2-  O278  1  0.28496925  0.16099246  0.72921395  1
  O2-  O279  1  0.29548361  0.66486828  0.06359105  1
  O2-  O280  1  0.29482871  0.66080167  0.39892102  1
  O2-  O281  1  0.28700482  0.66498168  0.73582592  1
  O2-  O282  1  0.79858869  0.17003987  0.06249703  1
  O2-  O283  1  0.78998727  0.16436745  0.39457707  1
  O2-  O284  1  0.80347547  0.17579543  0.73167851  1
  O2-  O285  1  0.78880848  0.66535062  0.07223093  1
  O2-  O286  1  0.79014944  0.66156651  0.39740528  1
  O2-  O287  1  0.79042500  0.66635721  0.73330666  1
