# generated using pymatgen
data_Ca2Al2SiO7
_symmetry_space_group_name_H-M   'P 1'
_cell_length_a   15.45398196
_cell_length_b   15.45502289
_cell_length_c   15.28110168
_cell_angle_alpha   90.00339398
_cell_angle_beta   90.00260800
_cell_angle_gamma   90.00579791
_symmetry_Int_Tables_number   1
_chemical_formula_structural   Ca2Al2SiO7
_chemical_formula_sum   'Ca48 Al48 Si24 O168'
_cell_volume   3649.76343270
_cell_formula_units_Z   24
loop_
 _symmetry_equiv_pos_site_id
 _symmetry_equiv_pos_as_xyz
  1  'x, y, z'
loop_
 _atom_type_symbol
 _atom_type_oxidation_number
  Ca2+  2.0
  Al0+  0.0
  Si0+  0.0
  O2-  -2.0
loop_
 _atom_site_type_symbol
 _atom_site_label
 _atom_site_symmetry_multiplicity
 _atom_site_fract_x
 _atom_site_fract_y
 _atom_site_fract_z
 _atom_site_occupancy
  Ca2+  Ca0  1  0.16766435  0.07665289  0.17356434  1
  Ca2+  Ca1  1  0.16609542  0.07361340  0.51051108  1
  Ca2+  Ca2  1  0.16701112  0.08169783  0.82908194  1
  Ca2+  Ca3  1  0.17022021  0.57576342  0.17328503  1
  Ca2+  Ca4  1  0.17758501  0.57926785  0.50321177  1
  Ca2+  Ca5  1  0.17262274  0.57968642  0.83839500  1
  Ca2+  Ca6  1  0.66508578  0.07483427  0.16700617  1
  Ca2+  Ca7  1  0.67160539  0.08624830  0.51024646  1
  Ca2+  Ca8  1  0.66690004  0.08248256  0.83406979  1
  Ca2+  Ca9  1  0.66592219  0.57525802  0.17228271  1
  Ca2+  Ca10  1  0.67559242  0.57843807  0.50400193  1
  Ca2+  Ca11  1  0.66947053  0.58592064  0.83656834  1
  Ca2+  Ca12  1  0.07891622  0.34682739  0.16453433  1
  Ca2+  Ca13  1  0.07590724  0.33306178  0.49602270  1
  Ca2+  Ca14  1  0.07832121  0.32982846  0.82440275  1
  Ca2+  Ca15  1  0.07965674  0.82723701  0.16516356  1
  Ca2+  Ca16  1  0.08145854  0.83667701  0.49312234  1
  Ca2+  Ca17  1  0.08718704  0.82743549  0.82876178  1
  Ca2+  Ca18  1  0.57223425  0.34738262  0.16382767  1
  Ca2+  Ca19  1  0.58145449  0.32992857  0.49472223  1
  Ca2+  Ca20  1  0.57858384  0.33412491  0.82922702  1
  Ca2+  Ca21  1  0.58379557  0.82441665  0.15674461  1
  Ca2+  Ca22  1  0.57735265  0.82736263  0.50099120  1
  Ca2+  Ca23  1  0.58261461  0.82484552  0.82519476  1
  Ca2+  Ca24  1  0.32628799  0.41751279  0.17586107  1
  Ca2+  Ca25  1  0.33475465  0.42234205  0.49930353  1
  Ca2+  Ca26  1  0.33092644  0.41861712  0.83973956  1
  Ca2+  Ca27  1  0.32651744  0.91831937  0.17418211  1
  Ca2+  Ca28  1  0.32212231  0.91736323  0.51223943  1
  Ca2+  Ca29  1  0.33819255  0.91984659  0.82701481  1
  Ca2+  Ca30  1  0.82209615  0.42217271  0.17755860  1
  Ca2+  Ca31  1  0.83756043  0.42223051  0.50426933  1
  Ca2+  Ca32  1  0.82777530  0.41823843  0.83534324  1
  Ca2+  Ca33  1  0.82999331  0.91252764  0.17037662  1
  Ca2+  Ca34  1  0.83574953  0.92253770  0.50673342  1
  Ca2+  Ca35  1  0.82825290  0.92624138  0.83596167  1
  Ca2+  Ca36  1  0.41407570  0.18219158  0.16311304  1
  Ca2+  Ca37  1  0.41980084  0.16681864  0.49806924  1
  Ca2+  Ca38  1  0.42032679  0.17103790  0.82512817  1
  Ca2+  Ca39  1  0.42118352  0.66199216  0.16159074  1
  Ca2+  Ca40  1  0.41544332  0.66185573  0.50113408  1
  Ca2+  Ca41  1  0.42906006  0.66757924  0.82232146  1
  Ca2+  Ca42  1  0.91906233  0.17479027  0.16761742  1
  Ca2+  Ca43  1  0.91661749  0.17689068  0.49980332  1
  Ca2+  Ca44  1  0.91976200  0.17361337  0.81946842  1
  Ca2+  Ca45  1  0.91936230  0.66588597  0.16585635  1
  Ca2+  Ca46  1  0.91292481  0.66938706  0.49301771  1
  Ca2+  Ca47  1  0.92290912  0.66213677  0.82849085  1
  Al0+  Al48  1  0.00062672  0.00162975  0.00134456  1
  Al0+  Al49  1  -0.00140246  -0.00098232  0.32980214  1
  Al0+  Al50  1  -0.00089170  -0.00016494  0.67420405  1
  Al0+  Al51  1  0.00066742  0.50135989  -0.00231321  1
  Al0+  Al52  1  0.00072238  0.50011576  0.33524109  1
  Al0+  Al53  1  -0.00090361  0.50156785  0.66687529  1
  Al0+  Al54  1  0.50029610  0.00202490  0.00679314  1
  Al0+  Al55  1  0.50073862  -0.00213473  0.33109321  1
  Al0+  Al56  1  0.49796228  -0.00109034  0.66166516  1
  Al0+  Al57  1  0.50068349  0.50170808  -0.00738529  1
  Al0+  Al58  1  0.50139477  0.49846530  0.33754659  1
  Al0+  Al59  1  0.50076166  0.49993580  0.66579344  1
  Al0+  Al60  1  0.24904300  0.25094516  -0.00008493  1
  Al0+  Al61  1  0.25178093  0.24846453  0.33326075  1
  Al0+  Al62  1  0.24855686  0.24754957  0.66527000  1
  Al0+  Al63  1  0.24945424  0.75196041  -0.00378757  1
  Al0+  Al64  1  0.25024693  0.75088733  0.33877327  1
  Al0+  Al65  1  0.25014416  0.74801988  0.67232418  1
  Al0+  Al66  1  0.74986527  0.25044291  0.00637369  1
  Al0+  Al67  1  0.75079803  0.24711328  0.32904192  1
  Al0+  Al68  1  0.74871866  0.25087362  0.66398189  1
  Al0+  Al69  1  0.75108791  0.75313506  -0.00082010  1
  Al0+  Al70  1  0.74950261  0.75031259  0.33159059  1
  Al0+  Al71  1  0.75062812  0.74744937  0.66714621  1
  Al0+  Al72  1  0.92843920  0.82138930  0.31991009  1
  Al0+  Al73  1  0.67842022  0.42998161  0.01287932  1
  Al0+  Al74  1  0.81942714  0.07271764  0.67915314  1
  Al0+  Al75  1  0.17947935  0.42938041  0.01242795  1
  Al0+  Al76  1  0.82165271  0.57173658  0.68219504  1
  Al0+  Al77  1  0.57364952  0.67682064  0.64824601  1
  Al0+  Al78  1  0.67890642  0.42629981  0.34944464  1
  Al0+  Al79  1  0.32220631  0.57107181  0.34737454  1
  Al0+  Al80  1  0.17781950  0.42612191  0.34964876  1
  Al0+  Al81  1  0.56981271  0.17909236  0.65482088  1
  Al0+  Al82  1  0.07110811  0.17688739  0.65160260  1
  Al0+  Al83  1  0.92886948  0.32274856  0.65211497  1
  Al0+  Al84  1  0.43105619  0.31990475  0.32018382  1
  Al0+  Al85  1  0.57113835  0.68037795  0.98636750  1
  Al0+  Al86  1  0.07020372  0.67931838  0.98605229  1
  Al0+  Al87  1  0.32197256  0.56874241  0.68307499  1
  Al0+  Al88  1  0.82040251  0.57164564  0.34703259  1
  Al0+  Al89  1  0.42821629  0.81893350  0.65070691  1
  Al0+  Al90  1  0.17860459  0.93083724  0.34545415  1
  Al0+  Al91  1  0.92990464  0.32277285  0.31742847  1
  Al0+  Al92  1  0.17736516  0.92787495  0.68468943  1
  Al0+  Al93  1  0.42867575  0.32094184  0.98570350  1
  Al0+  Al94  1  0.67987369  0.92982520  0.01294948  1
  Al0+  Al95  1  0.32240011  0.07207157  0.68151758  1
  Si0+  Si96  1  0.57369853  0.17453622  0.31346559  1
  Si0+  Si97  1  0.32365361  0.07100421  0.34911867  1
  Si0+  Si98  1  0.67779476  0.92771279  0.68071526  1
  Si0+  Si99  1  0.07056253  0.17779577  0.98508717  1
  Si0+  Si100  1  0.92963924  0.82034509  0.65443771  1
  Si0+  Si101  1  0.17837003  0.92859525  0.01671343  1
  Si0+  Si102  1  0.07147763  0.67909993  0.65104370  1
  Si0+  Si103  1  0.42756835  0.82128931  0.31749995  1
  Si0+  Si104  1  0.42737816  0.82543351  0.98459417  1
  Si0+  Si105  1  0.32059915  0.07188326  0.01647841  1
  Si0+  Si106  1  0.82293225  0.57252563  0.01596868  1
  Si0+  Si107  1  0.32190836  0.57293731  0.01401259  1
  Si0+  Si108  1  0.17762826  0.42797622  0.68271455  1
  Si0+  Si109  1  0.07417612  0.67901783  0.31853475  1
  Si0+  Si110  1  0.82404609  0.07265737  0.01962794  1
  Si0+  Si111  1  0.57006153  0.68050276  0.31822405  1
  Si0+  Si112  1  0.67785693  0.92765861  0.34914067  1
  Si0+  Si113  1  0.67853112  0.42791879  0.68351115  1
  Si0+  Si114  1  0.07130323  0.17794738  0.31617270  1
  Si0+  Si115  1  0.57186796  0.17696460  0.98506602  1
  Si0+  Si116  1  0.42610112  0.32225663  0.64988001  1
  Si0+  Si117  1  0.92876299  0.82434163  0.98132048  1
  Si0+  Si118  1  0.92800274  0.32045926  0.98612141  1
  Si0+  Si119  1  0.81992102  0.06895141  0.34749682  1
  O2-  O120  1  0.25067939  -0.00119410  0.05816097  1
  O2-  O121  1  0.25381890  0.00385815  0.39242928  1
  O2-  O122  1  0.25011984  0.00072746  0.73319352  1
  O2-  O123  1  0.25396829  0.50438076  0.05919291  1
  O2-  O124  1  0.25022324  0.49868073  0.39737362  1
  O2-  O125  1  0.24951833  0.49182170  0.72927206  1
  O2-  O126  1  0.75532878  0.00294686  0.06235716  1
  O2-  O127  1  0.74653331  0.00071213  0.39054966  1
  O2-  O128  1  0.74347751  -0.00089953  0.72560185  1
  O2-  O129  1  0.75216042  0.50599642  0.05955178  1
  O2-  O130  1  0.75455135  0.49483672  0.39848656  1
  O2-  O131  1  0.74587899  0.49804216  0.72801971  1
  O2-  O132  1  0.00931251  0.25212023  0.26974761  1
  O2-  O133  1  0.00143347  0.25091025  0.60214366  1
  O2-  O134  1  -0.00124465  0.24879548  0.94452611  1
  O2-  O135  1  0.00225618  0.74521124  0.27432511  1
  O2-  O136  1  0.00127135  0.75141239  0.61009636  1
  O2-  O137  1  -0.00390318  0.75446976  0.93757513  1
  O2-  O138  1  0.50648014  0.24569872  0.27122136  1
  O2-  O139  1  0.49347731  0.25126838  0.60732427  1
  O2-  O140  1  0.50594271  0.24772239  0.94074715  1
  O2-  O141  1  0.49698957  0.74943307  0.27457843  1
  O2-  O142  1  0.49882390  0.74649042  0.59875290  1
  O2-  O143  1  0.49634796  0.75655462  0.94212006  1
  O2-  O144  1  0.06945864  0.17362657  0.09023127  1
  O2-  O145  1  0.06636530  0.17400509  0.42092765  1
  O2-  O146  1  0.06873805  0.17939313  0.76617581  1
  O2-  O147  1  0.07008883  0.68133365  0.09926994  1
  O2-  O148  1  0.07587100  0.68240481  0.42402569  1
  O2-  O149  1  0.06967631  0.67847374  0.75656273  1
  O2-  O150  1  0.56848858  0.17329645  0.09051272  1
  O2-  O151  1  0.57294388  0.17057260  0.41887106  1
  O2-  O152  1  0.57037063  0.18132298  0.76835596  1
  O2-  O153  1  0.56888601  0.68059779  0.10022987  1
  O2-  O154  1  0.57200970  0.68432526  0.42267188  1
  O2-  O155  1  0.57482161  0.68057817  0.76223150  1
  O2-  O156  1  0.17914235  0.42989525  0.23540428  1
  O2-  O157  1  0.17668921  0.43106733  0.57743589  1
  O2-  O158  1  0.17966413  0.42847839  0.89944528  1
  O2-  O159  1  0.18076887  0.93136449  0.23137206  1
  O2-  O160  1  0.17562400  0.92877297  0.57092336  1
  O2-  O161  1  0.17613886  0.92929518  0.91242209  1
  O2-  O162  1  0.67671060  0.43238449  0.23538715  1
  O2-  O163  1  0.67970194  0.42699666  0.57821536  1
  O2-  O164  1  0.68151682  0.42704373  0.90007939  1
  O2-  O165  1  0.67785570  0.92783226  0.24372017  1
  O2-  O166  1  0.68129721  0.92758108  0.57474952  1
  O2-  O167  1  0.68062215  0.93263263  0.90012815  1
  O2-  O168  1  0.42746042  0.32007013  0.09889000  1
  O2-  O169  1  0.43232521  0.31689136  0.43297774  1
  O2-  O170  1  0.42766564  0.32234471  0.75592810  1
  O2-  O171  1  0.42638732  0.82475941  0.09086475  1
  O2-  O172  1  0.42919365  0.82473962  0.42170480  1
  O2-  O173  1  0.43281944  0.81922804  0.76485579  1
  O2-  O174  1  0.92913135  0.31967415  0.09125907  1
  O2-  O175  1  0.92812029  0.31895126  0.42976360  1
  O2-  O176  1  0.92935097  0.32146041  0.76672237  1
  O2-  O177  1  0.93011169  0.82512846  0.08708305  1
  O2-  O178  1  0.92914516  0.82419135  0.43302408  1
  O2-  O179  1  0.92964410  0.81856869  0.75972383  1
  O2-  O180  1  0.32283840  0.06889914  0.24262543  1
  O2-  O181  1  0.32218499  0.06956101  0.56796030  1
  O2-  O182  1  0.32186991  0.07187221  0.91199422  1
  O2-  O183  1  0.32182531  0.57221076  0.23306827  1
  O2-  O184  1  0.31924398  0.56777320  0.57019405  1
  O2-  O185  1  0.31987145  0.57140836  0.90862842  1
  O2-  O186  1  0.81959422  0.06691527  0.24200460  1
  O2-  O187  1  0.81901542  0.06986683  0.56575451  1
  O2-  O188  1  0.82508832  0.07352122  0.91428413  1
  O2-  O189  1  0.81643951  0.57355139  0.23286402  1
  O2-  O190  1  0.82224263  0.57349164  0.56956994  1
  O2-  O191  1  0.82374637  0.56990334  0.91030934  1
  O2-  O192  1  0.03787436  0.08766347  0.26580902  1
  O2-  O193  1  0.03939938  0.07789590  0.60221022  1
  O2-  O194  1  0.04313294  0.08599697  0.93695142  1
  O2-  O195  1  0.05084121  0.58490351  0.27282604  1
  O2-  O196  1  0.04240531  0.58842892  0.60331995  1
  O2-  O197  1  0.03912974  0.58385123  0.92921769  1
  O2-  O198  1  0.54516576  0.08102555  0.26622494  1
  O2-  O199  1  0.54361791  0.08241749  0.59839217  1
  O2-  O200  1  0.54356571  0.08407184  0.93864859  1
  O2-  O201  1  0.54338544  0.58755465  0.27291308  1
  O2-  O202  1  0.54655503  0.57758262  0.59727962  1
  O2-  O203  1  0.54160731  0.58610714  0.92823268  1
  O2-  O204  1  0.16815041  0.19458739  0.27288095  1
  O2-  O205  1  0.17070645  0.19943259  0.59884002  1
  O2-  O206  1  0.16201276  0.20572872  0.93822524  1
  O2-  O207  1  0.16615218  0.70912202  0.27050632  1
  O2-  O208  1  0.16363529  0.70597037  0.60547257  1
  O2-  O209  1  0.16657700  0.71089660  0.93111410  1
  O2-  O210  1  0.66805809  0.19471235  0.26684290  1
  O2-  O211  1  0.66461556  0.21074094  0.59790273  1
  O2-  O212  1  0.66835437  0.19906480  0.94344106  1
  O2-  O213  1  0.65969918  0.71203088  0.26840532  1
  O2-  O214  1  0.67146844  0.70875115  0.59591368  1
  O2-  O215  1  0.66857556  0.71171798  0.93390992  1
  O2-  O216  1  0.08270197  0.46226322  0.06553031  1
  O2-  O217  1  0.07963028  0.45350135  0.40183146  1
  O2-  O218  1  0.08568739  0.45822522  0.72972551  1
  O2-  O219  1  0.08685392  0.95847492  0.06458125  1
  O2-  O220  1  0.08133630  0.96157804  0.39735416  1
  O2-  O221  1  0.08041750  0.95646006  0.74101529  1
  O2-  O222  1  0.58102314  0.46330447  0.06433681  1
  O2-  O223  1  0.58296617  0.45664948  0.40418430  1
  O2-  O224  1  0.58442437  0.45201117  0.72901945  1
  O2-  O225  1  0.58427146  0.96037235  0.07119643  1
  O2-  O226  1  0.58475670  0.95312745  0.39506730  1
  O2-  O227  1  0.58353124  0.95112443  0.72488376  1
  O2-  O228  1  0.20706696  0.33206690  0.06715672  1
  O2-  O229  1  0.20553533  0.32664649  0.39995421  1
  O2-  O230  1  0.19782798  0.33195069  0.72582964  1
  O2-  O231  1  0.20597940  0.83646813  0.06400481  1
  O2-  O232  1  0.20729448  0.83523820  0.40057311  1
  O2-  O233  1  0.20696555  0.83024185  0.73823565  1
  O2-  O234  1  0.70667690  0.33343836  0.06918347  1
  O2-  O235  1  0.70179851  0.32380300  0.39531990  1
  O2-  O236  1  0.70557502  0.33533396  0.73086549  1
  O2-  O237  1  0.71097949  0.83384360  0.06944491  1
  O2-  O238  1  0.70751100  0.83729793  0.39642976  1
  O2-  O239  1  0.70746703  0.83590423  0.72777205  1
  O2-  O240  1  0.46169260  0.41737735  0.26633430  1
  O2-  O241  1  0.45472249  0.41447748  0.60376946  1
  O2-  O242  1  0.45804249  0.41658404  0.92989054  1
  O2-  O243  1  0.45668116  0.91233147  0.26738690  1
  O2-  O244  1  0.45548256  0.91660696  0.59576147  1
  O2-  O245  1  0.45422271  0.91994939  0.94148477  1
  O2-  O246  1  0.95709703  0.42088933  0.26348666  1
  O2-  O247  1  0.95810097  0.42105856  0.59958432  1
  O2-  O248  1  0.95522055  0.41216355  0.93897810  1
  O2-  O249  1  0.96015257  0.91604882  0.26135528  1
  O2-  O250  1  0.95563746  0.91324362  0.60886820  1
  O2-  O251  1  0.95615020  0.91851090  0.93680396  1
  O2-  O252  1  0.33419959  0.28825791  0.26451886  1
  O2-  O253  1  0.33205129  0.29897787  0.60468836  1
  O2-  O254  1  0.33263267  0.28736480  0.93208229  1
  O2-  O255  1  0.33485733  0.79523928  0.27040095  1
  O2-  O256  1  0.32825183  0.79028407  0.60129298  1
  O2-  O257  1  0.33350529  0.80334795  0.93817754  1
  O2-  O258  1  0.83485374  0.28615981  0.26185590  1
  O2-  O259  1  0.83142747  0.29305315  0.59915206  1
  O2-  O260  1  0.83565863  0.29156962  0.94030199  1
  O2-  O261  1  0.83169726  0.79157698  0.26402527  1
  O2-  O262  1  0.83842536  0.79277565  0.60612634  1
  O2-  O263  1  0.83437675  0.80250853  0.93600846  1
  O2-  O264  1  0.41169694  0.04656172  0.06698528  1
  O2-  O265  1  0.41779779  0.04399055  0.39299535  1
  O2-  O266  1  0.42079054  0.04134305  0.73498645  1
  O2-  O267  1  0.41636328  0.54816173  0.05756902  1
  O2-  O268  1  0.41924615  0.54227927  0.40155756  1
  O2-  O269  1  0.42038042  0.54093077  0.73527947  1
  O2-  O270  1  0.91736468  0.04585879  0.06669527  1
  O2-  O271  1  0.91054089  0.03787073  0.39393628  1
  O2-  O272  1  0.91274234  0.03991929  0.73788932  1
  O2-  O273  1  0.91563150  0.54484939  0.06233047  1
  O2-  O274  1  0.92110085  0.55112620  0.39727873  1
  O2-  O275  1  0.91817151  0.54075374  0.73701191  1
  O2-  O276  1  0.28836241  0.16192754  0.06491166  1
  O2-  O277  1  0.30207595  0.16494340  0.39414225  1
  O2-  O278  1  0.29513145  0.17090813  0.73548970  1
  O2-  O279  1  0.29755971  0.66816299  0.05839746  1
  O2-  O280  1  0.29447217  0.66901949  0.40156076  1
  O2-  O281  1  0.28965516  0.66370647  0.73839693  1
  O2-  O282  1  0.79777528  0.16506075  0.06797889  1
  O2-  O283  1  0.79456931  0.16128743  0.39374953  1
  O2-  O284  1  0.78829597  0.16875112  0.73407156  1
  O2-  O285  1  0.80204994  0.66871274  0.05838137  1
  O2-  O286  1  0.78802852  0.66946277  0.39959427  1
  O2-  O287  1  0.79193885  0.66820680  0.73796079  1
