# generated using pymatgen
data_Ca2Al2SiO7
_symmetry_space_group_name_H-M   'P 1'
_cell_length_a   15.45267532
_cell_length_b   15.45288947
_cell_length_c   15.27983495
_cell_angle_alpha   90.01019175
_cell_angle_beta   89.99919100
_cell_angle_gamma   90.00695096
_symmetry_Int_Tables_number   1
_chemical_formula_structural   Ca2Al2SiO7
_chemical_formula_sum   'Ca48 Al48 Si24 O168'
_cell_volume   3648.64853239
_cell_formula_units_Z   24
loop_
 _symmetry_equiv_pos_site_id
 _symmetry_equiv_pos_as_xyz
  1  'x, y, z'
loop_
 _atom_type_symbol
 _atom_type_oxidation_number
  Ca2+  2.0
  Al0+  0.0
  Si0+  0.0
  O2-  -2.0
loop_
 _atom_site_type_symbol
 _atom_site_label
 _atom_site_symmetry_multiplicity
 _atom_site_fract_x
 _atom_site_fract_y
 _atom_site_fract_z
 _atom_site_occupancy
  Ca2+  Ca0  1  0.16477786  0.07284228  0.17734654  1
  Ca2+  Ca1  1  0.17522432  0.08367595  0.49793974  1
  Ca2+  Ca2  1  0.17601497  0.07901173  0.83880774  1
  Ca2+  Ca3  1  0.15551895  0.57171927  0.16741546  1
  Ca2+  Ca4  1  0.16411570  0.57685673  0.50074584  1
  Ca2+  Ca5  1  0.16400170  0.58435519  0.83972398  1
  Ca2+  Ca6  1  0.67608250  0.08651033  0.16286805  1
  Ca2+  Ca7  1  0.67215624  0.08234286  0.50237041  1
  Ca2+  Ca8  1  0.66737371  0.07404254  0.84338449  1
  Ca2+  Ca9  1  0.67476848  0.57715356  0.17175687  1
  Ca2+  Ca10  1  0.67308471  0.57870914  0.50358344  1
  Ca2+  Ca11  1  0.66195050  0.56859196  0.83868976  1
  Ca2+  Ca12  1  0.07695026  0.33164294  0.16450781  1
  Ca2+  Ca13  1  0.08016305  0.32476468  0.48558387  1
  Ca2+  Ca14  1  0.07671021  0.33837983  0.83454262  1
  Ca2+  Ca15  1  0.08108362  0.83260484  0.15492830  1
  Ca2+  Ca16  1  0.09009185  0.82615949  0.49497576  1
  Ca2+  Ca17  1  0.08333872  0.82802535  0.83357816  1
  Ca2+  Ca18  1  0.58044013  0.32746772  0.15878974  1
  Ca2+  Ca19  1  0.57120235  0.33914541  0.49646972  1
  Ca2+  Ca20  1  0.58567175  0.32713781  0.82831490  1
  Ca2+  Ca21  1  0.57764773  0.84061791  0.16309262  1
  Ca2+  Ca22  1  0.57349978  0.84456708  0.49872363  1
  Ca2+  Ca23  1  0.58212982  0.83856295  0.82561483  1
  Ca2+  Ca24  1  0.32087399  0.41220876  0.17332904  1
  Ca2+  Ca25  1  0.32830269  0.40581177  0.50232320  1
  Ca2+  Ca26  1  0.32824995  0.41763017  0.83888722  1
  Ca2+  Ca27  1  0.32216568  0.92006567  0.17565131  1
  Ca2+  Ca28  1  0.33748417  0.92601039  0.50202751  1
  Ca2+  Ca29  1  0.33268806  0.92014158  0.83646196  1
  Ca2+  Ca30  1  0.83505930  0.41603313  0.17127937  1
  Ca2+  Ca31  1  0.83291848  0.41936076  0.50051339  1
  Ca2+  Ca32  1  0.82315251  0.41248006  0.84146476  1
  Ca2+  Ca33  1  0.83830714  0.92864959  0.16979214  1
  Ca2+  Ca34  1  0.82909033  0.92522561  0.50412894  1
  Ca2+  Ca35  1  0.82444323  0.91988770  0.84498410  1
  Ca2+  Ca36  1  0.41895996  0.16700610  0.16614367  1
  Ca2+  Ca37  1  0.41152553  0.17156954  0.49355630  1
  Ca2+  Ca38  1  0.42138590  0.16916416  0.82793762  1
  Ca2+  Ca39  1  0.41482659  0.67352208  0.16662498  1
  Ca2+  Ca40  1  0.41783057  0.68064047  0.49454157  1
  Ca2+  Ca41  1  0.41754685  0.67554320  0.82664022  1
  Ca2+  Ca42  1  0.91417521  0.17203124  0.16248088  1
  Ca2+  Ca43  1  0.92174509  0.17149196  0.48719259  1
  Ca2+  Ca44  1  0.91209253  0.16858931  0.83783472  1
  Ca2+  Ca45  1  0.91932178  0.67285074  0.15773914  1
  Ca2+  Ca46  1  0.91924471  0.66499792  0.49626253  1
  Ca2+  Ca47  1  0.92801629  0.66992196  0.83330136  1
  Al0+  Al48  1  0.00067028  0.00109507  0.00016578  1
  Al0+  Al49  1  -0.00045781  -0.00212395  0.34170021  1
  Al0+  Al50  1  0.00120267  0.00003928  0.66683523  1
  Al0+  Al51  1  0.00009564  0.49951043  -0.00602736  1
  Al0+  Al52  1  -0.00083923  0.49966639  0.33977797  1
  Al0+  Al53  1  -0.00008433  0.50062197  0.66250148  1
  Al0+  Al54  1  0.50095903  0.00223404  -0.00063920  1
  Al0+  Al55  1  0.49870632  -0.00000184  0.32979045  1
  Al0+  Al56  1  0.50127583  0.00224996  0.67026268  1
  Al0+  Al57  1  0.49849358  0.50163715  0.00542043  1
  Al0+  Al58  1  0.49897162  0.50109408  0.32760427  1
  Al0+  Al59  1  0.49924301  0.50026102  0.66658889  1
  Al0+  Al60  1  0.24948699  0.25196468  0.00310222  1
  Al0+  Al61  1  0.24906268  0.24800393  0.33098920  1
  Al0+  Al62  1  0.24950309  0.24892245  0.67053240  1
  Al0+  Al63  1  0.25191436  0.75072755  -0.00071556  1
  Al0+  Al64  1  0.25063856  0.74758342  0.33080114  1
  Al0+  Al65  1  0.25016017  0.74895690  0.65732154  1
  Al0+  Al66  1  0.74788248  0.24914150  -0.00167627  1
  Al0+  Al67  1  0.74851539  0.25005084  0.33623529  1
  Al0+  Al68  1  0.75090642  0.25079821  0.66815607  1
  Al0+  Al69  1  0.74748954  0.74894684  -0.00182159  1
  Al0+  Al70  1  0.75032936  0.74744132  0.33902078  1
  Al0+  Al71  1  0.75264412  0.74955577  0.67065977  1
  Al0+  Al72  1  0.82069016  0.07220281  0.34818623  1
  Al0+  Al73  1  0.67851624  0.43096490  0.68004484  1
  Al0+  Al74  1  0.43170960  0.82249662  0.65324905  1
  Al0+  Al75  1  0.92828379  0.32179921  0.31904179  1
  Al0+  Al76  1  0.07020071  0.67946697  0.64942611  1
  Al0+  Al77  1  0.82080633  0.57064877  0.34700808  1
  Al0+  Al78  1  0.92953891  0.31965440  0.98575471  1
  Al0+  Al79  1  0.67779993  0.42794441  0.01473134  1
  Al0+  Al80  1  0.17804172  0.43048749  0.01275800  1
  Al0+  Al81  1  0.82103306  0.07022574  0.01450584  1
  Al0+  Al82  1  0.07146744  0.67979994  0.98586508  1
  Al0+  Al83  1  0.42980497  0.82128175  0.31769436  1
  Al0+  Al84  1  0.42799181  0.32150415  0.31808731  1
  Al0+  Al85  1  0.32154310  0.07000545  0.34734059  1
  Al0+  Al86  1  0.32003676  0.07155399  0.68183609  1
  Al0+  Al87  1  0.42887185  0.32060425  0.65476935  1
  Al0+  Al88  1  0.67690172  0.92591886  0.01629756  1
  Al0+  Al89  1  0.68085617  0.93076581  0.67947682  1
  Al0+  Al90  1  0.56917697  0.18094840  0.98516159  1
  Al0+  Al91  1  0.18113089  0.92940384  0.01105714  1
  Al0+  Al92  1  0.92690662  0.82451687  0.98563424  1
  Al0+  Al93  1  0.07011415  0.17607155  0.31824228  1
  Al0+  Al94  1  0.17776079  0.92515920  0.34968260  1
  Al0+  Al95  1  0.18064397  0.42963853  0.34740008  1
  Si0+  Si96  1  0.92750433  0.81959735  0.32130186  1
  Si0+  Si97  1  0.57102099  0.67652965  0.98491558  1
  Si0+  Si98  1  0.92834853  0.31994115  0.65100635  1
  Si0+  Si99  1  0.57253465  0.17767086  0.31645547  1
  Si0+  Si100  1  0.32240905  0.07309360  0.01680096  1
  Si0+  Si101  1  0.07464005  0.17744664  0.98214533  1
  Si0+  Si102  1  0.32398835  0.57145321  0.35102026  1
  Si0+  Si103  1  0.57315528  0.17912646  0.64923257  1
  Si0+  Si104  1  0.67848706  0.92737307  0.34936937  1
  Si0+  Si105  1  0.07162918  0.17900434  0.65295146  1
  Si0+  Si106  1  0.31975710  0.57231389  0.67957947  1
  Si0+  Si107  1  0.17899639  0.92533979  0.68335668  1
  Si0+  Si108  1  0.43093132  0.82058501  0.98475908  1
  Si0+  Si109  1  0.67558960  0.42786736  0.34956049  1
  Si0+  Si110  1  0.57387113  0.67830206  0.31589903  1
  Si0+  Si111  1  0.17870422  0.42903684  0.68141891  1
  Si0+  Si112  1  0.82468408  0.57114612  0.68653709  1
  Si0+  Si113  1  0.42640941  0.32387226  0.98355554  1
  Si0+  Si114  1  0.07011154  0.67843476  0.31825521  1
  Si0+  Si115  1  0.57368733  0.67692795  0.65085559  1
  Si0+  Si116  1  0.82497466  0.07303138  0.68424302  1
  Si0+  Si117  1  0.82147171  0.57010044  0.01413365  1
  Si0+  Si118  1  0.32239936  0.57371655  0.01760884  1
  Si0+  Si119  1  0.92719700  0.82281164  0.64856398  1
  O2-  O120  1  0.25142568  0.00676534  0.05949172  1
  O2-  O121  1  0.25046371  -0.00274274  0.39843541  1
  O2-  O122  1  0.24741863  -0.00588972  0.72774091  1
  O2-  O123  1  0.25316254  0.50475924  0.05954866  1
  O2-  O124  1  0.25886485  0.49996996  0.39633908  1
  O2-  O125  1  0.24930223  0.50109480  0.72274037  1
  O2-  O126  1  0.75377199  -0.00673947  0.06468672  1
  O2-  O127  1  0.74570391  -0.00288179  0.39410194  1
  O2-  O128  1  0.75728188  0.00298327  0.72661399  1
  O2-  O129  1  0.75348354  0.50188395  0.06030731  1
  O2-  O130  1  0.74630616  0.49501990  0.39311825  1
  O2-  O131  1  0.75317407  0.50485827  0.72930432  1
  O2-  O132  1  -0.00273128  0.24748967  0.26842272  1
  O2-  O133  1  -0.00194320  0.24740634  0.61055338  1
  O2-  O134  1  0.00508669  0.24575290  0.93763134  1
  O2-  O135  1  0.00203600  0.75276537  0.27781919  1
  O2-  O136  1  -0.00331044  0.75556843  0.60288056  1
  O2-  O137  1  0.00094265  0.75361261  0.93599033  1
  O2-  O138  1  0.50435644  0.24787678  0.27333343  1
  O2-  O139  1  0.50484732  0.24839615  0.60552538  1
  O2-  O140  1  0.49505986  0.25653423  0.93801643  1
  O2-  O141  1  0.50638017  0.74793951  0.27115551  1
  O2-  O142  1  0.50998572  0.75030814  0.60673743  1
  O2-  O143  1  0.50433008  0.75177416  0.94232861  1
  O2-  O144  1  0.07632684  0.17791062  0.08709453  1
  O2-  O145  1  0.06926248  0.17953849  0.43292225  1
  O2-  O146  1  0.07223612  0.18042006  0.75810499  1
  O2-  O147  1  0.06862287  0.67878562  0.09956134  1
  O2-  O148  1  0.06863350  0.67818767  0.42371029  1
  O2-  O149  1  0.07052212  0.67862572  0.76225745  1
  O2-  O150  1  0.56791809  0.18182354  0.09826998  1
  O2-  O151  1  0.57325393  0.17747787  0.42238078  1
  O2-  O152  1  0.57259460  0.18023768  0.75479478  1
  O2-  O153  1  0.56883873  0.67383774  0.08963311  1
  O2-  O154  1  0.57309779  0.67713579  0.42165214  1
  O2-  O155  1  0.56911335  0.67460470  0.75662851  1
  O2-  O156  1  0.17825309  0.43334217  0.23451268  1
  O2-  O157  1  0.17916315  0.42815921  0.57646744  1
  O2-  O158  1  0.18060805  0.43178590  0.89879035  1
  O2-  O159  1  0.17833924  0.92430049  0.23582554  1
  O2-  O160  1  0.17885875  0.92605741  0.57818428  1
  O2-  O161  1  0.18622892  0.92833546  0.89746900  1
  O2-  O162  1  0.67502313  0.42971587  0.24406815  1
  O2-  O163  1  0.67874331  0.43345301  0.56697329  1
  O2-  O164  1  0.67706681  0.43002565  0.90117952  1
  O2-  O165  1  0.68064399  0.92511737  0.24428278  1
  O2-  O166  1  0.68138422  0.93417235  0.56604899  1
  O2-  O167  1  0.67502596  0.92893292  0.90247060  1
  O2-  O168  1  0.42662380  0.32249906  0.08891239  1
  O2-  O169  1  0.43010336  0.32144348  0.43176308  1
  O2-  O170  1  0.42821401  0.32021065  0.76777607  1
  O2-  O171  1  0.42972652  0.81812619  0.08960246  1
  O2-  O172  1  0.43269157  0.82100318  0.43107570  1
  O2-  O173  1  0.43061576  0.81895125  0.76676503  1
  O2-  O174  1  0.93055396  0.32134340  0.09825249  1
  O2-  O175  1  0.93062266  0.32132802  0.43355615  1
  O2-  O176  1  0.92826708  0.32082542  0.75617662  1
  O2-  O177  1  0.92812568  0.82224724  0.09986186  1
  O2-  O178  1  0.92569623  0.81619411  0.42659336  1
  O2-  O179  1  0.92770014  0.82202242  0.75376390  1
  O2-  O180  1  0.32228404  0.06693846  0.23378425  1
  O2-  O181  1  0.31830367  0.07322951  0.56930667  1
  O2-  O182  1  0.32230672  0.07182760  0.91059701  1
  O2-  O183  1  0.32248004  0.57254170  0.24550081  1
  O2-  O184  1  0.31947656  0.57257064  0.57488038  1
  O2-  O185  1  0.32490381  0.57433001  0.91138128  1
  O2-  O186  1  0.82041513  0.07200061  0.23572494  1
  O2-  O187  1  0.82467902  0.07363598  0.57850651  1
  O2-  O188  1  0.81715863  0.07029554  0.90049587  1
  O2-  O189  1  0.81934488  0.57334573  0.23402582  1
  O2-  O190  1  0.82493197  0.56937560  0.58068671  1
  O2-  O191  1  0.81956097  0.56776688  0.90835759  1
  O2-  O192  1  0.04257564  0.07520129  0.27052063  1
  O2-  O193  1  0.04821022  0.08553478  0.60616002  1
  O2-  O194  1  0.05009746  0.08442947  0.93431278  1
  O2-  O195  1  0.03720767  0.58768716  0.27298616  1
  O2-  O196  1  0.03789723  0.58286028  0.59472401  1
  O2-  O197  1  0.04113342  0.58357227  0.92899565  1
  O2-  O198  1  0.54635149  0.08514060  0.26894176  1
  O2-  O199  1  0.54728326  0.08585467  0.60384024  1
  O2-  O200  1  0.53738811  0.08459678  0.92963154  1
  O2-  O201  1  0.54737422  0.58610284  0.26708947  1
  O2-  O202  1  0.54294135  0.58623881  0.60212585  1
  O2-  O203  1  0.53726673  0.58646443  0.93580591  1
  O2-  O204  1  0.16773150  0.20368334  0.26498796  1
  O2-  O205  1  0.16174911  0.21080042  0.60540567  1
  O2-  O206  1  0.16806303  0.20601729  0.93544355  1
  O2-  O207  1  0.16343380  0.69946959  0.27152138  1
  O2-  O208  1  0.16636214  0.70711174  0.59285093  1
  O2-  O209  1  0.17116512  0.70702757  0.93304722  1
  O2-  O210  1  0.66569543  0.20425555  0.27052468  1
  O2-  O211  1  0.66782151  0.20411328  0.60406358  1
  O2-  O212  1  0.66421721  0.21171956  0.92868425  1
  O2-  O213  1  0.66834418  0.70304167  0.27122094  1
  O2-  O214  1  0.67056632  0.69678915  0.60897823  1
  O2-  O215  1  0.66356107  0.69681972  0.93574438  1
  O2-  O216  1  0.08143019  0.46274768  0.06538727  1
  O2-  O217  1  0.08646491  0.46363936  0.40456059  1
  O2-  O218  1  0.08609085  0.45818108  0.72676300  1
  O2-  O219  1  0.08331915  0.95541656  0.06361881  1
  O2-  O220  1  0.08027473  0.95027517  0.40592741  1
  O2-  O221  1  0.08458980  0.95117116  0.72839820  1
  O2-  O222  1  0.58181691  0.46009530  0.06901802  1
  O2-  O223  1  0.58240732  0.45809774  0.39481489  1
  O2-  O224  1  0.58184343  0.46182076  0.73499341  1
  O2-  O225  1  0.58012020  0.96093630  0.06885751  1
  O2-  O226  1  0.58444842  0.95474644  0.39322510  1
  O2-  O227  1  0.58544760  0.96181245  0.73531951  1
  O2-  O228  1  0.20746270  0.33417756  0.06789811  1
  O2-  O229  1  0.20915889  0.33198989  0.40004465  1
  O2-  O230  1  0.20633100  0.33863262  0.73097078  1
  O2-  O231  1  0.21390895  0.83374507  0.06562741  1
  O2-  O232  1  0.20798287  0.82575111  0.40013103  1
  O2-  O233  1  0.20621879  0.83088191  0.72655252  1
  O2-  O234  1  0.70772993  0.33187023  0.06730307  1
  O2-  O235  1  0.69754320  0.33449957  0.39701210  1
  O2-  O236  1  0.71005316  0.33378968  0.73307109  1
  O2-  O237  1  0.69499738  0.82359110  0.06506367  1
  O2-  O238  1  0.70355272  0.83452481  0.39765594  1
  O2-  O239  1  0.70635165  0.83165919  0.73240588  1
  O2-  O240  1  0.45505408  0.41917096  0.26373756  1
  O2-  O241  1  0.45716573  0.41815924  0.60035836  1
  O2-  O242  1  0.44979335  0.41980860  0.94078050  1
  O2-  O243  1  0.45921931  0.91708874  0.26189935  1
  O2-  O244  1  0.46307815  0.91969087  0.60061507  1
  O2-  O245  1  0.45597256  0.91348007  0.93846034  1
  O2-  O246  1  0.95889689  0.42074600  0.26883263  1
  O2-  O247  1  0.95667216  0.41164169  0.60404324  1
  O2-  O248  1  0.96094452  0.41452375  0.92781661  1
  O2-  O249  1  0.95171563  0.91305688  0.27721050  1
  O2-  O250  1  0.95078785  0.91811078  0.60411005  1
  O2-  O251  1  0.95446374  0.92261124  0.93135967  1
  O2-  O252  1  0.33245685  0.28968447  0.26379390  1
  O2-  O253  1  0.33155912  0.28818821  0.60251439  1
  O2-  O254  1  0.33246502  0.29820948  0.93734540  1
  O2-  O255  1  0.33440544  0.78583668  0.26330933  1
  O2-  O256  1  0.33745816  0.78902367  0.59714751  1
  O2-  O257  1  0.34113416  0.78950909  0.93498122  1
  O2-  O258  1  0.82718813  0.29749127  0.27041843  1
  O2-  O259  1  0.83613951  0.29394204  0.60309167  1
  O2-  O260  1  0.83362099  0.28740913  0.93072592  1
  O2-  O261  1  0.83656875  0.78835190  0.27415769  1
  O2-  O262  1  0.83365439  0.79552603  0.60215710  1
  O2-  O263  1  0.82834753  0.79387521  0.93276287  1
  O2-  O264  1  0.41493265  0.04513431  0.06209502  1
  O2-  O265  1  0.42065918  0.04182305  0.40048259  1
  O2-  O266  1  0.41704983  0.04284235  0.73571964  1
  O2-  O267  1  0.41468078  0.54950837  0.06682799  1
  O2-  O268  1  0.41984912  0.55119645  0.39488071  1
  O2-  O269  1  0.41140859  0.54602756  0.72849228  1
  O2-  O270  1  0.92151423  0.04908251  0.06587899  1
  O2-  O271  1  0.91457952  0.03975059  0.40625802  1
  O2-  O272  1  0.91959612  0.04974747  0.72977914  1
  O2-  O273  1  0.91524551  0.54460742  0.05861871  1
  O2-  O274  1  0.91489622  0.53980806  0.40585131  1
  O2-  O275  1  0.91767242  0.54153882  0.73150021  1
  O2-  O276  1  0.30071424  0.16809886  0.06088625  1
  O2-  O277  1  0.29231014  0.16812144  0.40033966  1
  O2-  O278  1  0.28555579  0.16579899  0.73939008  1
  O2-  O279  1  0.29727592  0.66700916  0.06384566  1
  O2-  O280  1  0.29428463  0.66351697  0.39776875  1
  O2-  O281  1  0.29048689  0.66392438  0.72735610  1
  O2-  O282  1  0.78591186  0.16646666  0.06692691  1
  O2-  O283  1  0.78908197  0.16807979  0.40464569  1
  O2-  O284  1  0.79902316  0.16690675  0.72930678  1
  O2-  O285  1  0.79545247  0.66372517  0.05970867  1
  O2-  O286  1  0.78862561  0.66482338  0.40695563  1
  O2-  O287  1  0.80399950  0.66631455  0.73096082  1
