# generated using pymatgen
data_Ca2Al2SiO7
_symmetry_space_group_name_H-M   'P 1'
_cell_length_a   15.45699873
_cell_length_b   15.45678530
_cell_length_c   15.28221531
_cell_angle_alpha   90.00545646
_cell_angle_beta   89.99385404
_cell_angle_gamma   89.99526912
_symmetry_Int_Tables_number   1
_chemical_formula_structural   Ca2Al2SiO7
_chemical_formula_sum   'Ca48 Al48 Si24 O168'
_cell_volume   3651.15822616
_cell_formula_units_Z   24
loop_
 _symmetry_equiv_pos_site_id
 _symmetry_equiv_pos_as_xyz
  1  'x, y, z'
loop_
 _atom_type_symbol
 _atom_type_oxidation_number
  Ca2+  2.0
  Al0+  0.0
  Si0+  0.0
  O2-  -2.0
loop_
 _atom_site_type_symbol
 _atom_site_label
 _atom_site_symmetry_multiplicity
 _atom_site_fract_x
 _atom_site_fract_y
 _atom_site_fract_z
 _atom_site_occupancy
  Ca2+  Ca0  1  0.16925657  0.07061000  0.17117446  1
  Ca2+  Ca1  1  0.16840654  0.07920324  0.50422022  1
  Ca2+  Ca2  1  0.16808406  0.08225218  0.83611017  1
  Ca2+  Ca3  1  0.16456405  0.57194505  0.17222026  1
  Ca2+  Ca4  1  0.16219381  0.57649309  0.49814357  1
  Ca2+  Ca5  1  0.16686956  0.57531015  0.84169774  1
  Ca2+  Ca6  1  0.66840046  0.07796869  0.17253415  1
  Ca2+  Ca7  1  0.67730406  0.08729033  0.50114124  1
  Ca2+  Ca8  1  0.67669242  0.07662798  0.83809990  1
  Ca2+  Ca9  1  0.67166246  0.58896172  0.16803177  1
  Ca2+  Ca10  1  0.67656304  0.58965351  0.50060105  1
  Ca2+  Ca11  1  0.67643362  0.58148992  0.84298003  1
  Ca2+  Ca12  1  0.08065355  0.33850428  0.16471452  1
  Ca2+  Ca13  1  0.07395211  0.32809556  0.49637207  1
  Ca2+  Ca14  1  0.07929442  0.32897182  0.82498441  1
  Ca2+  Ca15  1  0.07448551  0.84105214  0.16222389  1
  Ca2+  Ca16  1  0.07367189  0.83703523  0.49432196  1
  Ca2+  Ca17  1  0.07308806  0.83641767  0.83197977  1
  Ca2+  Ca18  1  0.58513936  0.32767172  0.15908920  1
  Ca2+  Ca19  1  0.58297103  0.32527038  0.49135814  1
  Ca2+  Ca20  1  0.57969322  0.34076393  0.83603060  1
  Ca2+  Ca21  1  0.57981088  0.82452413  0.15767946  1
  Ca2+  Ca22  1  0.57612130  0.82901108  0.48829912  1
  Ca2+  Ca23  1  0.58878886  0.83103343  0.83837252  1
  Ca2+  Ca24  1  0.32409104  0.40989429  0.16857276  1
  Ca2+  Ca25  1  0.32591952  0.41332062  0.50072126  1
  Ca2+  Ca26  1  0.32747505  0.41450630  0.84429064  1
  Ca2+  Ca27  1  0.32372815  0.90115220  0.17020709  1
  Ca2+  Ca28  1  0.32935908  0.91781181  0.50312141  1
  Ca2+  Ca29  1  0.32837544  0.92163869  0.84219023  1
  Ca2+  Ca30  1  0.83275993  0.43085783  0.17369798  1
  Ca2+  Ca31  1  0.84199337  0.42672208  0.50354131  1
  Ca2+  Ca32  1  0.83368099  0.42740359  0.84049136  1
  Ca2+  Ca33  1  0.83041929  0.91634038  0.17231013  1
  Ca2+  Ca34  1  0.84182642  0.92673856  0.50267711  1
  Ca2+  Ca35  1  0.83635781  0.91895836  0.83955873  1
  Ca2+  Ca36  1  0.42292738  0.16982831  0.16364759  1
  Ca2+  Ca37  1  0.42304947  0.16132723  0.49605867  1
  Ca2+  Ca38  1  0.41435087  0.16954253  0.83133948  1
  Ca2+  Ca39  1  0.42675687  0.67344148  0.16095568  1
  Ca2+  Ca40  1  0.42514995  0.67314524  0.48799479  1
  Ca2+  Ca41  1  0.42247782  0.67030907  0.83468158  1
  Ca2+  Ca42  1  0.91235465  0.17231745  0.16767771  1
  Ca2+  Ca43  1  0.91058107  0.17555398  0.49452653  1
  Ca2+  Ca44  1  0.92362690  0.17264479  0.82036518  1
  Ca2+  Ca45  1  0.90892191  0.67551757  0.16332524  1
  Ca2+  Ca46  1  0.90907405  0.67676985  0.49541503  1
  Ca2+  Ca47  1  0.90440111  0.67598544  0.83273302  1
  Al0+  Al48  1  0.00309304  0.00184969  -0.00066469  1
  Al0+  Al49  1  0.00116919  0.00147706  0.33757255  1
  Al0+  Al50  1  0.00086880  -0.00048115  0.66411017  1
  Al0+  Al51  1  0.00038115  0.50118514  0.00741010  1
  Al0+  Al52  1  -0.00105609  0.49941945  0.33940924  1
  Al0+  Al53  1  0.00010518  0.50115953  0.66927187  1
  Al0+  Al54  1  0.50219599  0.00146787  -0.00097726  1
  Al0+  Al55  1  0.49815412  0.00041714  0.32418011  1
  Al0+  Al56  1  0.49779295  -0.00020277  0.67181118  1
  Al0+  Al57  1  0.50072391  0.49867211  -0.00549004  1
  Al0+  Al58  1  0.49897868  0.49932156  0.33006937  1
  Al0+  Al59  1  0.49909862  0.50028316  0.66390045  1
  Al0+  Al60  1  0.25124076  0.24879711  0.00154305  1
  Al0+  Al61  1  0.24865792  0.24792145  0.33933625  1
  Al0+  Al62  1  0.25004227  0.24846642  0.66555456  1
  Al0+  Al63  1  0.24959119  0.74943284  -0.00102262  1
  Al0+  Al64  1  0.24788051  0.74715577  0.33734810  1
  Al0+  Al65  1  0.24995589  0.74825956  0.66705702  1
  Al0+  Al66  1  0.75152504  0.25159920  -0.00074611  1
  Al0+  Al67  1  0.74985504  0.25055084  0.32678053  1
  Al0+  Al68  1  0.74774296  0.24999153  0.66889453  1
  Al0+  Al69  1  0.75028888  0.75312918  -0.00109147  1
  Al0+  Al70  1  0.74954405  0.75061353  0.33133964  1
  Al0+  Al71  1  0.74893833  0.74878533  0.66533033  1
  Al0+  Al72  1  0.07234169  0.17860096  0.65020322  1
  Al0+  Al73  1  0.82199981  0.07172510  0.68012565  1
  Al0+  Al74  1  0.81930620  0.07178968  0.34587682  1
  Al0+  Al75  1  0.82000294  0.57214702  0.01715062  1
  Al0+  Al76  1  0.18018486  0.92893195  0.01254955  1
  Al0+  Al77  1  0.92693747  0.32198693  0.65266597  1
  Al0+  Al78  1  0.57193933  0.67940881  0.98203769  1
  Al0+  Al79  1  0.17914483  0.92708415  0.34860436  1
  Al0+  Al80  1  0.42947867  0.31850717  0.98689130  1
  Al0+  Al81  1  0.68043715  0.93138092  0.01404504  1
  Al0+  Al82  1  0.93089585  0.82179726  0.98695511  1
  Al0+  Al83  1  0.57212176  0.67842261  0.31752637  1
  Al0+  Al84  1  0.93156964  0.82284433  0.31987183  1
  Al0+  Al85  1  0.93029651  0.32219959  0.31798398  1
  Al0+  Al86  1  0.42666392  0.82230766  0.98235953  1
  Al0+  Al87  1  0.32113859  0.07002507  0.68138458  1
  Al0+  Al88  1  0.17853397  0.42704798  0.35017066  1
  Al0+  Al89  1  0.82030889  0.57074921  0.68105173  1
  Al0+  Al90  1  0.67775420  0.42794702  0.01512531  1
  Al0+  Al91  1  0.18022385  0.42774100  0.01319615  1
  Al0+  Al92  1  0.57167448  0.17968603  0.31930211  1
  Al0+  Al93  1  0.92870470  0.81907883  0.65256797  1
  Al0+  Al94  1  0.81843702  0.57228771  0.34935975  1
  Al0+  Al95  1  0.42583568  0.82123260  0.31875861  1
  Si0+  Si96  1  0.67465698  0.42747752  0.68206076  1
  Si0+  Si97  1  0.32284556  0.07123640  0.34969062  1
  Si0+  Si98  1  0.18130236  0.42997630  0.68175034  1
  Si0+  Si99  1  0.07175459  0.67556962  0.98489248  1
  Si0+  Si100  1  0.07302731  0.17868360  0.31546688  1
  Si0+  Si101  1  0.42875851  0.32140045  0.65091879  1
  Si0+  Si102  1  0.42759847  0.82133895  0.65242450  1
  Si0+  Si103  1  0.32289959  0.57190403  0.01571306  1
  Si0+  Si104  1  0.67728832  0.92825814  0.68163228  1
  Si0+  Si105  1  0.07073872  0.67649273  0.31778466  1
  Si0+  Si106  1  0.07538482  0.67715471  0.64989513  1
  Si0+  Si107  1  0.67643334  0.42723024  0.34914828  1
  Si0+  Si108  1  0.32254660  0.57006669  0.35077755  1
  Si0+  Si109  1  0.17826180  0.92612671  0.68427949  1
  Si0+  Si110  1  0.32340656  0.57095837  0.68177313  1
  Si0+  Si111  1  0.93001912  0.32314569  0.98592190  1
  Si0+  Si112  1  0.82491365  0.07298180  0.01593691  1
  Si0+  Si113  1  0.07108384  0.18044900  0.98607788  1
  Si0+  Si114  1  0.67657261  0.92889008  0.34844943  1
  Si0+  Si115  1  0.56925850  0.17716912  0.65352090  1
  Si0+  Si116  1  0.57532505  0.17798400  0.97983765  1
  Si0+  Si117  1  0.56928105  0.67893381  0.65063985  1
  Si0+  Si118  1  0.32269724  0.07191909  0.01760967  1
  Si0+  Si119  1  0.42568811  0.32103201  0.31810746  1
  O2-  O120  1  0.26101156  -0.00334265  0.06074449  1
  O2-  O121  1  0.25708327  -0.00036265  0.39356339  1
  O2-  O122  1  0.24581874  -0.00372524  0.72793078  1
  O2-  O123  1  0.25467429  0.50259059  0.06003372  1
  O2-  O124  1  0.25513884  0.50042177  0.39653439  1
  O2-  O125  1  0.25203720  0.50086126  0.72466044  1
  O2-  O126  1  0.75498199  0.00618725  0.06026211  1
  O2-  O127  1  0.74501992  -0.00314211  0.39425455  1
  O2-  O128  1  0.74936807  -0.00571478  0.72521797  1
  O2-  O129  1  0.74711727  0.50069718  0.06685206  1
  O2-  O130  1  0.74220929  0.49754044  0.39521330  1
  O2-  O131  1  0.74752937  0.49243860  0.72462079  1
  O2-  O132  1  0.00582542  0.24827048  0.27029665  1
  O2-  O133  1  -0.00459976  0.24651442  0.60175724  1
  O2-  O134  1  0.00023664  0.25151270  0.94366609  1
  O2-  O135  1  0.00550149  0.74745807  0.27267084  1
  O2-  O136  1  0.00570860  0.74540664  0.60721402  1
  O2-  O137  1  0.00427945  0.74519671  0.94027923  1
  O2-  O138  1  0.49690002  0.25542038  0.27440560  1
  O2-  O139  1  0.50041615  0.25056956  0.61023674  1
  O2-  O140  1  0.50600001  0.24716661  0.93674111  1
  O2-  O141  1  0.50020160  0.75159982  0.26983017  1
  O2-  O142  1  0.49865809  0.75096731  0.60953275  1
  O2-  O143  1  0.49947154  0.75159487  0.93102090  1
  O2-  O144  1  0.07082852  0.17967308  0.09103100  1
  O2-  O145  1  0.07375645  0.18009748  0.42086955  1
  O2-  O146  1  0.07414680  0.18324960  0.76459809  1
  O2-  O147  1  0.07207122  0.67386610  0.09020535  1
  O2-  O148  1  0.06949961  0.67690969  0.42381937  1
  O2-  O149  1  0.08136898  0.67719954  0.75522329  1
  O2-  O150  1  0.57496632  0.17813483  0.08531500  1
  O2-  O151  1  0.57006280  0.18031187  0.43338470  1
  O2-  O152  1  0.56734470  0.17688813  0.75822791  1
  O2-  O153  1  0.57039816  0.68068900  0.09511541  1
  O2-  O154  1  0.56994725  0.68039100  0.43237376  1
  O2-  O155  1  0.56812644  0.67709743  0.75516766  1
  O2-  O156  1  0.18111878  0.42779776  0.23706235  1
  O2-  O157  1  0.18323182  0.43087126  0.57678833  1
  O2-  O158  1  0.18085493  0.42806477  0.89944584  1
  O2-  O159  1  0.17903787  0.92959542  0.23539509  1
  O2-  O160  1  0.18157553  0.92418606  0.57872842  1
  O2-  O161  1  0.17738730  0.93446165  0.89941883  1
  O2-  O162  1  0.67785917  0.42672833  0.24403584  1
  O2-  O163  1  0.66838129  0.42892284  0.57663901  1
  O2-  O164  1  0.68209152  0.42766015  0.90087910  1
  O2-  O165  1  0.67825261  0.93050045  0.24304594  1
  O2-  O166  1  0.67273388  0.93037469  0.57612650  1
  O2-  O167  1  0.68328494  0.93327148  0.90027212  1
  O2-  O168  1  0.42582305  0.31311197  0.09965612  1
  O2-  O169  1  0.42632456  0.31988681  0.42442832  1
  O2-  O170  1  0.42789634  0.32314315  0.75572304  1
  O2-  O171  1  0.42553338  0.81743475  0.09533682  1
  O2-  O172  1  0.42853994  0.82071945  0.43371467  1
  O2-  O173  1  0.42612011  0.81992455  0.75689263  1
  O2-  O174  1  0.93110179  0.32201346  0.09089358  1
  O2-  O175  1  0.93073596  0.32170918  0.43109640  1
  O2-  O176  1  0.93180423  0.32295607  0.76687589  1
  O2-  O177  1  0.93242092  0.82408661  0.09976755  1
  O2-  O178  1  0.93232034  0.82244536  0.43326090  1
  O2-  O179  1  0.92910355  0.81868285  0.76585707  1
  O2-  O180  1  0.31999822  0.07720672  0.24458217  1
  O2-  O181  1  0.32523207  0.06624671  0.56847330  1
  O2-  O182  1  0.31776586  0.07515065  0.91176409  1
  O2-  O183  1  0.32171596  0.56964101  0.24561541  1
  O2-  O184  1  0.32547083  0.56928809  0.57696673  1
  O2-  O185  1  0.31971718  0.57014289  0.90920897  1
  O2-  O186  1  0.81813012  0.07115917  0.23278556  1
  O2-  O187  1  0.81785385  0.07362385  0.56717185  1
  O2-  O188  1  0.82501584  0.07237630  0.90989591  1
  O2-  O189  1  0.81969568  0.57234271  0.23693204  1
  O2-  O190  1  0.81753174  0.57271250  0.56798707  1
  O2-  O191  1  0.82113116  0.56951338  0.90307692  1
  O2-  O192  1  0.04551497  0.08566957  0.27008760  1
  O2-  O193  1  0.05187036  0.07781915  0.60046776  1
  O2-  O194  1  0.04351177  0.09012738  0.93574387  1
  O2-  O195  1  0.04403656  0.58299440  0.27302040  1
  O2-  O196  1  0.04988412  0.58315110  0.60512276  1
  O2-  O197  1  0.04544693  0.58195265  0.93774493  1
  O2-  O198  1  0.54048065  0.08525515  0.26179110  1
  O2-  O199  1  0.53795091  0.08638272  0.60568179  1
  O2-  O200  1  0.54932262  0.08511426  0.93301326  1
  O2-  O201  1  0.54405751  0.57932035  0.26594971  1
  O2-  O202  1  0.53959532  0.58796823  0.60185972  1
  O2-  O203  1  0.54412920  0.58085743  0.92819827  1
  O2-  O204  1  0.16761224  0.20354646  0.27077592  1
  O2-  O205  1  0.16971366  0.21061210  0.59621998  1
  O2-  O206  1  0.16278288  0.20842102  0.93859582  1
  O2-  O207  1  0.16626599  0.69639451  0.27410581  1
  O2-  O208  1  0.16893651  0.70145535  0.60109712  1
  O2-  O209  1  0.16570906  0.69836416  0.93785552  1
  O2-  O210  1  0.66558581  0.21021503  0.26130987  1
  O2-  O211  1  0.66114004  0.20352462  0.60578239  1
  O2-  O212  1  0.66903524  0.20423359  0.93324088  1
  O2-  O213  1  0.66934044  0.70736287  0.26465218  1
  O2-  O214  1  0.66039669  0.70696532  0.60274649  1
  O2-  O215  1  0.66903690  0.71229031  0.92850058  1
  O2-  O216  1  0.08539818  0.45866286  0.06958897  1
  O2-  O217  1  0.08443977  0.46111188  0.40635654  1
  O2-  O218  1  0.08999624  0.45748847  0.72991195  1
  O2-  O219  1  0.08663326  0.96706148  0.06814333  1
  O2-  O220  1  0.08558646  0.96325931  0.40487528  1
  O2-  O221  1  0.08433248  0.95114731  0.72901961  1
  O2-  O222  1  0.57585111  0.44892078  0.06347547  1
  O2-  O223  1  0.58027338  0.44775652  0.39379185  1
  O2-  O224  1  0.58208271  0.45799586  0.72937672  1
  O2-  O225  1  0.58317235  0.96117186  0.06752440  1
  O2-  O226  1  0.58132934  0.95501881  0.39159848  1
  O2-  O227  1  0.58569871  0.95652047  0.73083374  1
  O2-  O228  1  0.21236148  0.33209330  0.06815916  1
  O2-  O229  1  0.20978871  0.33121578  0.40601950  1
  O2-  O230  1  0.21064239  0.33825794  0.72796737  1
  O2-  O231  1  0.20360053  0.82978469  0.06503045  1
  O2-  O232  1  0.20506955  0.82939286  0.40373167  1
  O2-  O233  1  0.20524307  0.83245364  0.73010850  1
  O2-  O234  1  0.70582057  0.32853877  0.06657222  1
  O2-  O235  1  0.70391598  0.33380816  0.39457075  1
  O2-  O236  1  0.69320113  0.33248464  0.72779252  1
  O2-  O237  1  0.71063975  0.83559381  0.06777444  1
  O2-  O238  1  0.70058367  0.83529456  0.39466330  1
  O2-  O239  1  0.70093862  0.83372919  0.72607172  1
  O2-  O240  1  0.44500108  0.41570141  0.27284379  1
  O2-  O241  1  0.45537824  0.41310909  0.60178442  1
  O2-  O242  1  0.45456362  0.41526292  0.92966993  1
  O2-  O243  1  0.44605786  0.92043177  0.26533255  1
  O2-  O244  1  0.45564915  0.91380141  0.60645436  1
  O2-  O245  1  0.45415893  0.92287538  0.93273792  1
  O2-  O246  1  0.96333438  0.41892668  0.26614525  1
  O2-  O247  1  0.96020217  0.42003810  0.60132435  1
  O2-  O248  1  0.95994775  0.41507533  0.94016511  1
  O2-  O249  1  0.96345160  0.91968281  0.26732612  1
  O2-  O250  1  0.95886874  0.91595568  0.59916293  1
  O2-  O251  1  0.96485682  0.91813723  0.93249210  1
  O2-  O252  1  0.33261356  0.29117838  0.27360261  1
  O2-  O253  1  0.33797305  0.29231429  0.60275234  1
  O2-  O254  1  0.33360477  0.28454148  0.93088317  1
  O2-  O255  1  0.32761724  0.78782138  0.26903199  1
  O2-  O256  1  0.33597545  0.79260496  0.60458904  1
  O2-  O257  1  0.32779351  0.79324531  0.92879706  1
  O2-  O258  1  0.83512038  0.29081982  0.26267777  1
  O2-  O259  1  0.82585740  0.29801168  0.60257927  1
  O2-  O260  1  0.83821350  0.29716221  0.93768876  1
  O2-  O261  1  0.83400054  0.79351460  0.26834493  1
  O2-  O262  1  0.83198160  0.78788230  0.59861025  1
  O2-  O263  1  0.83469989  0.79347428  0.93164723  1
  O2-  O264  1  0.41976523  0.05617623  0.05858326  1
  O2-  O265  1  0.41804230  0.04757701  0.39391727  1
  O2-  O266  1  0.41616107  0.03990094  0.73924085  1
  O2-  O267  1  0.41672549  0.54618080  0.05893210  1
  O2-  O268  1  0.41641777  0.54456302  0.39796727  1
  O2-  O269  1  0.41444423  0.54171806  0.73003289  1
  O2-  O270  1  0.91817744  0.04780326  0.06173748  1
  O2-  O271  1  0.91593321  0.04327201  0.40069661  1
  O2-  O272  1  0.92027169  0.04370222  0.73245648  1
  O2-  O273  1  0.91782605  0.54341962  0.07078447  1
  O2-  O274  1  0.91436485  0.54038280  0.40402084  1
  O2-  O275  1  0.91857160  0.54503922  0.73489443  1
  O2-  O276  1  0.28954692  0.16164718  0.06660283  1
  O2-  O277  1  0.29564716  0.16271540  0.40031436  1
  O2-  O278  1  0.29148943  0.16801191  0.73431064  1
  O2-  O279  1  0.29715198  0.66489865  0.06156045  1
  O2-  O280  1  0.29517072  0.66175974  0.40046397  1
  O2-  O281  1  0.29671393  0.66309810  0.72920319  1
  O2-  O282  1  0.80045539  0.16764476  0.05969467  1
  O2-  O283  1  0.78564211  0.16867703  0.39860026  1
  O2-  O284  1  0.78906826  0.16742005  0.73601795  1
  O2-  O285  1  0.79232467  0.67160680  0.06634924  1
  O2-  O286  1  0.78668851  0.66929142  0.40343992  1
  O2-  O287  1  0.78442235  0.66611145  0.73486169  1
