# generated using pymatgen
data_Ca2Al2SiO7
_symmetry_space_group_name_H-M   'P 1'
_cell_length_a   15.45257080
_cell_length_b   15.45286874
_cell_length_c   15.27957567
_cell_angle_alpha   89.99853745
_cell_angle_beta   89.99744187
_cell_angle_gamma   90.00552341
_symmetry_Int_Tables_number   1
_chemical_formula_structural   Ca2Al2SiO7
_chemical_formula_sum   'Ca48 Al48 Si24 O168'
_cell_volume   3648.55711125
_cell_formula_units_Z   24
loop_
 _symmetry_equiv_pos_site_id
 _symmetry_equiv_pos_as_xyz
  1  'x, y, z'
loop_
 _atom_type_symbol
 _atom_type_oxidation_number
  Ca2+  2.0
  Al0+  0.0
  Si0+  0.0
  O2-  -2.0
loop_
 _atom_site_type_symbol
 _atom_site_label
 _atom_site_symmetry_multiplicity
 _atom_site_fract_x
 _atom_site_fract_y
 _atom_site_fract_z
 _atom_site_occupancy
  Ca2+  Ca0  1  0.16673824  0.08128169  0.17502685  1
  Ca2+  Ca1  1  0.16982372  0.07691541  0.50406993  1
  Ca2+  Ca2  1  0.16755841  0.08048528  0.83142297  1
  Ca2+  Ca3  1  0.17851710  0.58908334  0.17355246  1
  Ca2+  Ca4  1  0.17055850  0.58324788  0.50336454  1
  Ca2+  Ca5  1  0.17110547  0.57544423  0.83776951  1
  Ca2+  Ca6  1  0.66454587  0.07400491  0.16762609  1
  Ca2+  Ca7  1  0.67590403  0.08085291  0.50818797  1
  Ca2+  Ca8  1  0.67369601  0.07849369  0.83754792  1
  Ca2+  Ca9  1  0.67360840  0.57740849  0.17917481  1
  Ca2+  Ca10  1  0.67034469  0.58105909  0.50417138  1
  Ca2+  Ca11  1  0.66660579  0.58549200  0.82825071  1
  Ca2+  Ca12  1  0.08171168  0.32039874  0.15904423  1
  Ca2+  Ca13  1  0.08587776  0.32907274  0.49448848  1
  Ca2+  Ca14  1  0.08362781  0.32976868  0.83050931  1
  Ca2+  Ca15  1  0.08274877  0.82972581  0.16505832  1
  Ca2+  Ca16  1  0.08147598  0.83539638  0.49590886  1
  Ca2+  Ca17  1  0.07380125  0.83576396  0.82656545  1
  Ca2+  Ca18  1  0.57995378  0.33451490  0.16330630  1
  Ca2+  Ca19  1  0.58083323  0.34202083  0.49962527  1
  Ca2+  Ca20  1  0.57179546  0.34045602  0.82596105  1
  Ca2+  Ca21  1  0.57759985  0.82797326  0.15914829  1
  Ca2+  Ca22  1  0.58525703  0.81825666  0.49548495  1
  Ca2+  Ca23  1  0.58002356  0.83092052  0.82898928  1
  Ca2+  Ca24  1  0.33943464  0.42755576  0.16857969  1
  Ca2+  Ca25  1  0.32879981  0.42037496  0.50593393  1
  Ca2+  Ca26  1  0.33334536  0.41640907  0.83618582  1
  Ca2+  Ca27  1  0.32797502  0.92213312  0.17743791  1
  Ca2+  Ca28  1  0.32112596  0.92566606  0.50517791  1
  Ca2+  Ca29  1  0.33128220  0.91785142  0.83817708  1
  Ca2+  Ca30  1  0.82970698  0.41850952  0.17528567  1
  Ca2+  Ca31  1  0.82356737  0.42884048  0.50786719  1
  Ca2+  Ca32  1  0.83037619  0.42027091  0.83654778  1
  Ca2+  Ca33  1  0.83060453  0.90963155  0.16297354  1
  Ca2+  Ca34  1  0.83785855  0.92140119  0.50910044  1
  Ca2+  Ca35  1  0.83371459  0.91599911  0.83663099  1
  Ca2+  Ca36  1  0.41399989  0.17270488  0.16109767  1
  Ca2+  Ca37  1  0.40477244  0.17112211  0.50005938  1
  Ca2+  Ca38  1  0.41340656  0.17666360  0.82574652  1
  Ca2+  Ca39  1  0.41875250  0.66656624  0.16123131  1
  Ca2+  Ca40  1  0.42770870  0.65941738  0.49387667  1
  Ca2+  Ca41  1  0.41963592  0.66913579  0.82987855  1
  Ca2+  Ca42  1  0.92882518  0.17151724  0.15930655  1
  Ca2+  Ca43  1  0.92212987  0.16579100  0.49380352  1
  Ca2+  Ca44  1  0.92011400  0.16737773  0.83103451  1
  Ca2+  Ca45  1  0.92315937  0.66589441  0.16545064  1
  Ca2+  Ca46  1  0.91828494  0.66708767  0.49585220  1
  Ca2+  Ca47  1  0.90990858  0.67777711  0.82586220  1
  Al0+  Al48  1  0.00063878  -0.00081170  -0.00591208  1
  Al0+  Al49  1  -0.00116513  0.00039089  0.32964100  1
  Al0+  Al50  1  0.00013750  0.00018581  0.67004630  1
  Al0+  Al51  1  0.00087724  0.49770638  -0.00118841  1
  Al0+  Al52  1  -0.00078490  0.50201256  0.33075940  1
  Al0+  Al53  1  -0.00004819  0.50082198  0.67496278  1
  Al0+  Al54  1  0.50058824  -0.00156884  0.00104034  1
  Al0+  Al55  1  0.49988911  0.00203005  0.33874423  1
  Al0+  Al56  1  0.49961981  0.00164169  0.66825442  1
  Al0+  Al57  1  0.50119458  0.49956292  0.00050696  1
  Al0+  Al58  1  0.49990169  0.49981124  0.33484961  1
  Al0+  Al59  1  0.49987073  0.50016151  0.66086177  1
  Al0+  Al60  1  0.25015481  0.24922622  -0.00739750  1
  Al0+  Al61  1  0.25024457  0.25076366  0.32904733  1
  Al0+  Al62  1  0.24986968  0.25051638  0.66887682  1
  Al0+  Al63  1  0.25166938  0.74965716  -0.00036169  1
  Al0+  Al64  1  0.24918909  0.75127210  0.33941176  1
  Al0+  Al65  1  0.24883794  0.75092628  0.67051475  1
  Al0+  Al66  1  0.75181860  0.24911322  -0.00066541  1
  Al0+  Al67  1  0.74668736  0.24892063  0.33519427  1
  Al0+  Al68  1  0.74920881  0.25053140  0.67503723  1
  Al0+  Al69  1  0.75075968  0.74882959  0.00227579  1
  Al0+  Al70  1  0.74893391  0.74914970  0.33078922  1
  Al0+  Al71  1  0.74976978  0.75062205  0.65993038  1
  Al0+  Al72  1  0.07178324  0.17797964  0.98105026  1
  Al0+  Al73  1  0.82166375  0.07147131  0.68054181  1
  Al0+  Al74  1  0.32065332  0.57002798  0.01312413  1
  Al0+  Al75  1  0.93112168  0.82098361  0.65194548  1
  Al0+  Al76  1  0.17894076  0.92793158  0.68469309  1
  Al0+  Al77  1  0.57007559  0.67814978  0.31699414  1
  Al0+  Al78  1  0.07069063  0.17967822  0.32092378  1
  Al0+  Al79  1  0.67747932  0.43053250  0.68428569  1
  Al0+  Al80  1  0.32129169  0.07097916  0.68430130  1
  Al0+  Al81  1  0.17885229  0.42903723  0.67961786  1
  Al0+  Al82  1  0.32175050  0.07411982  0.34754812  1
  Al0+  Al83  1  0.92955219  0.81676490  0.98631062  1
  Al0+  Al84  1  0.07253781  0.67886783  0.32078912  1
  Al0+  Al85  1  0.43249869  0.32104404  0.98686351  1
  Al0+  Al86  1  0.56800748  0.68168380  0.65186029  1
  Al0+  Al87  1  0.17635239  0.92944129  0.34747078  1
  Al0+  Al88  1  0.67876162  0.42739723  0.34853487  1
  Al0+  Al89  1  0.92768911  0.32223474  0.98367633  1
  Al0+  Al90  1  0.82056220  0.57321650  0.68326593  1
  Al0+  Al91  1  0.42845598  0.82159133  0.98780504  1
  Al0+  Al92  1  0.82319912  0.57250960  0.34813438  1
  Al0+  Al93  1  0.67915250  0.92839394  0.01356051  1
  Al0+  Al94  1  0.42898901  0.31888551  0.65045496  1
  Al0+  Al95  1  0.32058076  0.57155356  0.34717872  1
  Si0+  Si96  1  0.57258532  0.17579217  0.98386497  1
  Si0+  Si97  1  0.42944756  0.82331687  0.31942260  1
  Si0+  Si98  1  0.67796688  0.92830830  0.34824785  1
  Si0+  Si99  1  0.42981637  0.31986565  0.31779162  1
  Si0+  Si100  1  0.17800408  0.42803938  0.34587867  1
  Si0+  Si101  1  0.82339501  0.07143302  0.01864445  1
  Si0+  Si102  1  0.42473288  0.82534679  0.64874623  1
  Si0+  Si103  1  0.32297048  0.57159913  0.68245937  1
  Si0+  Si104  1  0.67853049  0.92728109  0.68123179  1
  Si0+  Si105  1  0.67956791  0.42854773  0.01501198  1
  Si0+  Si106  1  0.92676687  0.32310616  0.65193384  1
  Si0+  Si107  1  0.82205402  0.57109772  0.01582480  1
  Si0+  Si108  1  0.17809316  0.42612722  0.01807819  1
  Si0+  Si109  1  0.57390426  0.17713217  0.65022088  1
  Si0+  Si110  1  0.17829058  0.92917721  0.01537517  1
  Si0+  Si111  1  0.81954953  0.06976995  0.34528365  1
  Si0+  Si112  1  0.57193405  0.67822372  0.98408558  1
  Si0+  Si113  1  0.57327097  0.17653332  0.31788673  1
  Si0+  Si114  1  0.92737831  0.82310997  0.31535922  1
  Si0+  Si115  1  0.32071483  0.07140563  0.01464806  1
  Si0+  Si116  1  0.92568125  0.32137247  0.31997841  1
  Si0+  Si117  1  0.07306123  0.67589424  0.65164176  1
  Si0+  Si118  1  0.06867738  0.18133640  0.65044297  1
  Si0+  Si119  1  0.07458011  0.67718444  0.98305318  1
  O2-  O120  1  0.24962297  0.00054104  0.05728065  1
  O2-  O121  1  0.24837358  0.00268404  0.39524562  1
  O2-  O122  1  0.25476332  -0.00481854  0.73602328  1
  O2-  O123  1  0.24524392  0.49639042  0.06190821  1
  O2-  O124  1  0.24275346  0.49923097  0.39194221  1
  O2-  O125  1  0.25234657  0.50510521  0.72636185  1
  O2-  O126  1  0.75366184  0.00315721  0.06244045  1
  O2-  O127  1  0.75126282  -0.00272538  0.38944168  1
  O2-  O128  1  0.74531516  -0.00243699  0.72570318  1
  O2-  O129  1  0.75385632  0.49636379  0.05680252  1
  O2-  O130  1  0.75103461  0.49991763  0.39640301  1
  O2-  O131  1  0.75072291  0.50027434  0.73553579  1
  O2-  O132  1  -0.00318913  0.25565776  0.27489223  1
  O2-  O133  1  -0.00252529  0.25247817  0.60783203  1
  O2-  O134  1  -0.00032516  0.25103946  0.93256623  1
  O2-  O135  1  -0.00326352  0.75323256  0.27400786  1
  O2-  O136  1  0.00572251  0.74574998  0.60688959  1
  O2-  O137  1  0.00342896  0.74243728  0.93819221  1
  O2-  O138  1  0.50101423  0.24733386  0.27730373  1
  O2-  O139  1  0.50442029  0.24399223  0.60398801  1
  O2-  O140  1  0.50636844  0.24595667  0.93936935  1
  O2-  O141  1  0.49533955  0.75351848  0.27169748  1
  O2-  O142  1  0.49218177  0.75574510  0.60437426  1
  O2-  O143  1  0.50318176  0.74717268  0.94072288  1
  O2-  O144  1  0.07122746  0.17816506  0.09529293  1
  O2-  O145  1  0.06814779  0.18029697  0.43421107  1
  O2-  O146  1  0.06771124  0.18207360  0.75538014  1
  O2-  O147  1  0.07513653  0.67970363  0.08897718  1
  O2-  O148  1  0.07173673  0.67826468  0.43359114  1
  O2-  O149  1  0.07320383  0.67632766  0.75730165  1
  O2-  O150  1  0.57095934  0.17560502  0.09011019  1
  O2-  O151  1  0.57878418  0.17418797  0.42221096  1
  O2-  O152  1  0.57319081  0.17687258  0.75584396  1
  O2-  O153  1  0.57099211  0.67847937  0.08987797  1
  O2-  O154  1  0.57024459  0.67984705  0.42993781  1
  O2-  O155  1  0.56677558  0.68372646  0.76555464  1
  O2-  O156  1  0.18183485  0.42627528  0.24039544  1
  O2-  O157  1  0.17952344  0.42867842  0.56598583  1
  O2-  O158  1  0.17902953  0.42749235  0.91245201  1
  O2-  O159  1  0.17730551  0.93050380  0.23303311  1
  O2-  O160  1  0.17693974  0.93111867  0.57122060  1
  O2-  O161  1  0.17911624  0.92913303  0.91071369  1
  O2-  O162  1  0.68075341  0.42584850  0.23399788  1
  O2-  O163  1  0.67931530  0.43134078  0.57091898  1
  O2-  O164  1  0.67714542  0.43071484  0.91049940  1
  O2-  O165  1  0.67654672  0.93020743  0.24289352  1
  O2-  O166  1  0.68051782  0.92885124  0.57512242  1
  O2-  O167  1  0.68002241  0.92981060  0.90068726  1
  O2-  O168  1  0.43471276  0.32061475  0.10052849  1
  O2-  O169  1  0.42797337  0.31922028  0.42260933  1
  O2-  O170  1  0.43040542  0.31929737  0.76370193  1
  O2-  O171  1  0.42890351  0.82237256  0.10108765  1
  O2-  O172  1  0.43409619  0.82384275  0.42463502  1
  O2-  O173  1  0.42707155  0.82420892  0.75469791  1
  O2-  O174  1  0.92771148  0.32021154  0.09803983  1
  O2-  O175  1  0.92517041  0.31828109  0.42564576  1
  O2-  O176  1  0.92827603  0.32117889  0.75685552  1
  O2-  O177  1  0.93019505  0.81493707  0.09959994  1
  O2-  O178  1  0.92707971  0.82678094  0.42066721  1
  O2-  O179  1  0.93033570  0.82012432  0.76521867  1
  O2-  O180  1  0.32291672  0.07334437  0.23322672  1
  O2-  O181  1  0.31608886  0.07206962  0.57075829  1
  O2-  O182  1  0.32154526  0.07034994  0.91002699  1
  O2-  O183  1  0.32207788  0.56974797  0.23374313  1
  O2-  O184  1  0.32201886  0.56980067  0.57659127  1
  O2-  O185  1  0.32053406  0.56860385  0.90011867  1
  O2-  O186  1  0.81751047  0.07052133  0.24026222  1
  O2-  O187  1  0.82163272  0.07038959  0.56642746  1
  O2-  O188  1  0.82180198  0.07139345  0.91321115  1
  O2-  O189  1  0.82231689  0.57007088  0.23360240  1
  O2-  O190  1  0.82115355  0.57191863  0.56996396  1
  O2-  O191  1  0.81944952  0.57405085  0.91120494  1
  O2-  O192  1  0.03759788  0.08485394  0.26432335  1
  O2-  O193  1  0.03906548  0.08953942  0.60461449  1
  O2-  O194  1  0.04213567  0.08050852  0.92783541  1
  O2-  O195  1  0.04370055  0.58261261  0.26284607  1
  O2-  O196  1  0.04669567  0.58195424  0.60635603  1
  O2-  O197  1  0.05297970  0.58133168  0.94063533  1
  O2-  O198  1  0.54469923  0.08472495  0.26961341  1
  O2-  O199  1  0.55188421  0.08211924  0.60409235  1
  O2-  O200  1  0.54666703  0.08287859  0.93757949  1
  O2-  O201  1  0.53926943  0.58093090  0.26402967  1
  O2-  O202  1  0.53754316  0.58594182  0.59617139  1
  O2-  O203  1  0.54562960  0.58530415  0.93797884  1
  O2-  O204  1  0.16637855  0.21014319  0.26404372  1
  O2-  O205  1  0.16026969  0.21079952  0.60432888  1
  O2-  O206  1  0.16929066  0.20615511  0.92688055  1
  O2-  O207  1  0.16935334  0.71141875  0.26649478  1
  O2-  O208  1  0.16815462  0.69960404  0.60679027  1
  O2-  O209  1  0.16687769  0.70429666  0.93610571  1
  O2-  O210  1  0.66351787  0.20493384  0.26638408  1
  O2-  O211  1  0.66848036  0.20349171  0.60553098  1
  O2-  O212  1  0.66799343  0.19781437  0.94067492  1
  O2-  O213  1  0.66677131  0.70922700  0.26262133  1
  O2-  O214  1  0.66319243  0.71370791  0.59550472  1
  O2-  O215  1  0.66516605  0.70497429  0.93890260  1
  O2-  O216  1  0.08310443  0.44831015  0.06332355  1
  O2-  O217  1  0.08248551  0.44828363  0.38968071  1
  O2-  O218  1  0.08382634  0.45721498  0.73804633  1
  O2-  O219  1  0.08588804  0.95706534  0.06168534  1
  O2-  O220  1  0.07719622  0.95858129  0.39871472  1
  O2-  O221  1  0.08280522  0.96240254  0.73805332  1
  O2-  O222  1  0.58949799  0.45879635  0.06451435  1
  O2-  O223  1  0.58084806  0.45628382  0.40017061  1
  O2-  O224  1  0.57886297  0.46330214  0.73448610  1
  O2-  O225  1  0.58342983  0.96028552  0.07041903  1
  O2-  O226  1  0.58852374  0.95811808  0.39817674  1
  O2-  O227  1  0.58409396  0.95037704  0.72683417  1
  O2-  O228  1  0.20593750  0.33170240  0.06135913  1
  O2-  O229  1  0.20722352  0.33605253  0.39327087  1
  O2-  O230  1  0.21166950  0.33464555  0.73552838  1
  O2-  O231  1  0.20630213  0.83699429  0.06194587  1
  O2-  O232  1  0.20401872  0.83296272  0.40340934  1
  O2-  O233  1  0.20142084  0.82780086  0.73778723  1
  O2-  O234  1  0.70361665  0.33458947  0.06130647  1
  O2-  O235  1  0.70359934  0.32797279  0.40183825  1
  O2-  O236  1  0.70151945  0.33150215  0.73757251  1
  O2-  O237  1  0.71144930  0.83255367  0.06945220  1
  O2-  O238  1  0.70439045  0.83594746  0.39383027  1
  O2-  O239  1  0.70608902  0.83501900  0.72706653  1
  O2-  O240  1  0.46021660  0.41064551  0.26983930  1
  O2-  O241  1  0.45882076  0.41527189  0.59573182  1
  O2-  O242  1  0.46452781  0.41684296  0.93205978  1
  O2-  O243  1  0.45728483  0.91728175  0.27353381  1
  O2-  O244  1  0.45041529  0.91965618  0.60399895  1
  O2-  O245  1  0.46018079  0.91742340  0.93282233  1
  O2-  O246  1  0.94710210  0.41574482  0.27416536  1
  O2-  O247  1  0.95553763  0.41578215  0.60711972  1
  O2-  O248  1  0.95418528  0.42134042  0.93092247  1
  O2-  O249  1  0.95240910  0.91571165  0.26626240  1
  O2-  O250  1  0.96260320  0.91841347  0.59890621  1
  O2-  O251  1  0.95772433  0.91397175  0.93325370  1
  O2-  O252  1  0.33914476  0.29325751  0.26714791  1
  O2-  O253  1  0.33191954  0.28716374  0.59695007  1
  O2-  O254  1  0.33594945  0.29237649  0.93286769  1
  O2-  O255  1  0.33396200  0.80069662  0.27663796  1
  O2-  O256  1  0.32961200  0.80105912  0.60543808  1
  O2-  O257  1  0.33304335  0.79052221  0.93186759  1
  O2-  O258  1  0.83317159  0.29164537  0.27282076  1
  O2-  O259  1  0.83407936  0.29432569  0.60701800  1
  O2-  O260  1  0.82873926  0.29421486  0.93123395  1
  O2-  O261  1  0.83378586  0.79719674  0.26899074  1
  O2-  O262  1  0.83457028  0.79355771  0.59647683  1
  O2-  O263  1  0.83236619  0.78641253  0.93293034  1
  O2-  O264  1  0.41309148  0.04500776  0.06203637  1
  O2-  O265  1  0.42007846  0.04828713  0.40242815  1
  O2-  O266  1  0.42274964  0.04983440  0.73494207  1
  O2-  O267  1  0.41738532  0.53752723  0.06745107  1
  O2-  O268  1  0.41491790  0.53616551  0.40135992  1
  O2-  O269  1  0.41527715  0.54312554  0.72790189  1
  O2-  O270  1  0.91696601  0.04278255  0.06301996  1
  O2-  O271  1  0.91149474  0.04376011  0.39262058  1
  O2-  O272  1  0.91587954  0.03910493  0.73634228  1
  O2-  O273  1  0.91593791  0.54591570  0.06129146  1
  O2-  O274  1  0.92221662  0.54619056  0.40065855  1
  O2-  O275  1  0.91877775  0.54826096  0.73776244  1
  O2-  O276  1  0.29256871  0.16419206  0.06045890  1
  O2-  O277  1  0.29201470  0.17276657  0.39872850  1
  O2-  O278  1  0.28798579  0.16777647  0.73684967  1
  O2-  O279  1  0.29124266  0.66729652  0.06781425  1
  O2-  O280  1  0.29416417  0.66775581  0.40276596  1
  O2-  O281  1  0.30114189  0.66634036  0.72784387  1
  O2-  O282  1  0.79810316  0.16533308  0.06509141  1
  O2-  O283  1  0.79040002  0.16018468  0.39459380  1
  O2-  O284  1  0.79222030  0.16630733  0.73809161  1
  O2-  O285  1  0.79166946  0.66062304  0.06583673  1
  O2-  O286  1  0.79439621  0.67178050  0.39855443  1
  O2-  O287  1  0.78672657  0.67159731  0.73357667  1
