# generated using pymatgen
data_Ca2Al2SiO7
_symmetry_space_group_name_H-M   'P 1'
_cell_length_a   15.46318123
_cell_length_b   15.46177542
_cell_length_c   15.28620078
_cell_angle_alpha   90.01438964
_cell_angle_beta   89.99052275
_cell_angle_gamma   90.01414602
_symmetry_Int_Tables_number   1
_chemical_formula_structural   Ca2Al2SiO7
_chemical_formula_sum   'Ca48 Al48 Si24 O168'
_cell_volume   3654.75049421
_cell_formula_units_Z   24
loop_
 _symmetry_equiv_pos_site_id
 _symmetry_equiv_pos_as_xyz
  1  'x, y, z'
loop_
 _atom_type_symbol
 _atom_type_oxidation_number
  Ca2+  2.0
  Al0+  0.0
  Si0+  0.0
  O2-  -2.0
loop_
 _atom_site_type_symbol
 _atom_site_label
 _atom_site_symmetry_multiplicity
 _atom_site_fract_x
 _atom_site_fract_y
 _atom_site_fract_z
 _atom_site_occupancy
  Ca2+  Ca0  1  0.17289255  0.08555981  0.17367593  1
  Ca2+  Ca1  1  0.16149800  0.07564441  0.49802969  1
  Ca2+  Ca2  1  0.16816969  0.07842770  0.84113773  1
  Ca2+  Ca3  1  0.16939877  0.57775915  0.16790114  1
  Ca2+  Ca4  1  0.17593434  0.58425351  0.50766798  1
  Ca2+  Ca5  1  0.16483732  0.57326372  0.83207767  1
  Ca2+  Ca6  1  0.67335260  0.08661529  0.16284327  1
  Ca2+  Ca7  1  0.66978822  0.08016385  0.50325299  1
  Ca2+  Ca8  1  0.67393805  0.08417624  0.84332516  1
  Ca2+  Ca9  1  0.67236022  0.57184612  0.17401997  1
  Ca2+  Ca10  1  0.67677198  0.57475876  0.50427158  1
  Ca2+  Ca11  1  0.67280514  0.57295899  0.83469139  1
  Ca2+  Ca12  1  0.08190369  0.32374720  0.15540500  1
  Ca2+  Ca13  1  0.08120912  0.33423277  0.49647748  1
  Ca2+  Ca14  1  0.08082986  0.33284863  0.82963834  1
  Ca2+  Ca15  1  0.07755273  0.83443134  0.16527469  1
  Ca2+  Ca16  1  0.07771440  0.83784559  0.49611346  1
  Ca2+  Ca17  1  0.07488040  0.83578151  0.82675926  1
  Ca2+  Ca18  1  0.58467458  0.33176632  0.15899713  1
  Ca2+  Ca19  1  0.58553920  0.34098362  0.49794623  1
  Ca2+  Ca20  1  0.59320923  0.32944913  0.83182798  1
  Ca2+  Ca21  1  0.57468082  0.82927500  0.15707410  1
  Ca2+  Ca22  1  0.57457411  0.82950911  0.49818009  1
  Ca2+  Ca23  1  0.56873348  0.83486170  0.82822018  1
  Ca2+  Ca24  1  0.32574164  0.41780755  0.17055317  1
  Ca2+  Ca25  1  0.32689506  0.42828176  0.50729358  1
  Ca2+  Ca26  1  0.32150756  0.41814815  0.83617387  1
  Ca2+  Ca27  1  0.32869196  0.92657030  0.17217523  1
  Ca2+  Ca28  1  0.31892629  0.91762573  0.50658321  1
  Ca2+  Ca29  1  0.32998709  0.91580235  0.83839085  1
  Ca2+  Ca30  1  0.82395357  0.41178080  0.16974564  1
  Ca2+  Ca31  1  0.82876439  0.42408628  0.51131852  1
  Ca2+  Ca32  1  0.83034137  0.41107831  0.83916786  1
  Ca2+  Ca33  1  0.84493369  0.92111181  0.16751647  1
  Ca2+  Ca34  1  0.83948505  0.91578620  0.50476381  1
  Ca2+  Ca35  1  0.83900423  0.92136241  0.84095267  1
  Ca2+  Ca36  1  0.42112270  0.16019380  0.15783762  1
  Ca2+  Ca37  1  0.41630505  0.16837672  0.49467480  1
  Ca2+  Ca38  1  0.42167579  0.16267318  0.83522392  1
  Ca2+  Ca39  1  0.41357900  0.67076671  0.16129971  1
  Ca2+  Ca40  1  0.40765835  0.66709280  0.49696975  1
  Ca2+  Ca41  1  0.41145204  0.67516381  0.82628306  1
  Ca2+  Ca42  1  0.93011125  0.16794791  0.15692876  1
  Ca2+  Ca43  1  0.92419563  0.17612376  0.49657455  1
  Ca2+  Ca44  1  0.91742444  0.17729765  0.83579416  1
  Ca2+  Ca45  1  0.90889658  0.67679330  0.16490991  1
  Ca2+  Ca46  1  0.90721963  0.67398647  0.49604763  1
  Ca2+  Ca47  1  0.91268377  0.67615365  0.82585992  1
  Al0+  Al48  1  0.00077516  -0.00049512  -0.00283611  1
  Al0+  Al49  1  0.00003317  0.00214036  0.32954272  1
  Al0+  Al50  1  0.00107936  0.00072026  0.66706900  1
  Al0+  Al51  1  -0.00029821  0.50149120  0.00351378  1
  Al0+  Al52  1  -0.00210953  0.50265574  0.33388956  1
  Al0+  Al53  1  0.00042151  0.50213400  0.66828578  1
  Al0+  Al54  1  0.49995156  -0.00066343  -0.00501132  1
  Al0+  Al55  1  0.50028980  0.00129049  0.33611934  1
  Al0+  Al56  1  0.50072013  -0.00080348  0.65978779  1
  Al0+  Al57  1  0.50081838  0.50006236  0.00275033  1
  Al0+  Al58  1  0.49939772  0.50008762  0.33851319  1
  Al0+  Al59  1  0.50230227  0.49930114  0.67473671  1
  Al0+  Al60  1  0.25184794  0.24903006  0.00340046  1
  Al0+  Al61  1  0.25225579  0.25038400  0.33394729  1
  Al0+  Al62  1  0.25386790  0.24809546  0.66730418  1
  Al0+  Al63  1  0.24882119  0.74974960  -0.00396577  1
  Al0+  Al64  1  0.24661476  0.75161662  0.33716418  1
  Al0+  Al65  1  0.24799916  0.75331047  0.67043329  1
  Al0+  Al66  1  0.75073001  0.24742493  0.00282954  1
  Al0+  Al67  1  0.74826747  0.24729824  0.33724185  1
  Al0+  Al68  1  0.75275070  0.24799154  0.66261611  1
  Al0+  Al69  1  0.74754343  0.74901062  -0.00509879  1
  Al0+  Al70  1  0.74680294  0.75006038  0.33039303  1
  Al0+  Al71  1  0.74591080  0.75032177  0.66613203  1
  Al0+  Al72  1  0.68026607  0.42699669  0.34910429  1
  Al0+  Al73  1  0.82197289  0.06843370  0.01386832  1
  Al0+  Al74  1  0.92962903  0.32140847  0.98779650  1
  Al0+  Al75  1  0.92936834  0.81946363  0.98568024  1
  Al0+  Al76  1  0.17814990  0.42883863  0.01451818  1
  Al0+  Al77  1  0.32347824  0.07284501  0.35007638  1
  Al0+  Al78  1  0.32151362  0.57246163  0.68311002  1
  Al0+  Al79  1  0.92772230  0.82122696  0.65273216  1
  Al0+  Al80  1  0.07113093  0.18272036  0.31973533  1
  Al0+  Al81  1  0.68074079  0.42837814  0.01470278  1
  Al0+  Al82  1  0.92817442  0.81972792  0.31933850  1
  Al0+  Al83  1  0.82165537  0.57396876  0.68317295  1
  Al0+  Al84  1  0.42906759  0.81954121  0.98715702  1
  Al0+  Al85  1  0.57049566  0.18053290  0.98709446  1
  Al0+  Al86  1  0.31873394  0.57107993  0.34473787  1
  Al0+  Al87  1  0.82093418  0.57363293  0.34779758  1
  Al0+  Al88  1  0.93072107  0.32204817  0.65265866  1
  Al0+  Al89  1  0.68234648  0.42626971  0.68443937  1
  Al0+  Al90  1  0.17848817  0.42621344  0.68027135  1
  Al0+  Al91  1  0.17824974  0.93229054  0.68263883  1
  Al0+  Al92  1  0.32176313  0.06878614  0.01213272  1
  Al0+  Al93  1  0.17735679  0.93152459  0.34773727  1
  Al0+  Al94  1  0.42714853  0.82016238  0.64982231  1
  Al0+  Al95  1  0.07510073  0.17892126  0.98415915  1
  Si0+  Si96  1  0.42693558  0.82158889  0.31887189  1
  Si0+  Si97  1  0.17714449  0.42727025  0.34792795  1
  Si0+  Si98  1  0.42995447  0.32148325  0.65213996  1
  Si0+  Si99  1  0.32596085  0.07084479  0.68415097  1
  Si0+  Si100  1  0.32136074  0.57281507  0.01590112  1
  Si0+  Si101  1  0.56800050  0.67906133  0.31795105  1
  Si0+  Si102  1  0.07475705  0.17837885  0.65019737  1
  Si0+  Si103  1  0.67752259  0.92707386  0.01494789  1
  Si0+  Si104  1  0.92598139  0.32360659  0.31797961  1
  Si0+  Si105  1  0.07118063  0.67954255  0.64981080  1
  Si0+  Si106  1  0.07294482  0.67703194  0.98201905  1
  Si0+  Si107  1  0.82083219  0.06874737  0.34890283  1
  Si0+  Si108  1  0.67674309  0.92977542  0.68065117  1
  Si0+  Si109  1  0.42820737  0.32415198  0.98352088  1
  Si0+  Si110  1  0.43184315  0.32194111  0.31925086  1
  Si0+  Si111  1  0.07416608  0.67691860  0.31595132  1
  Si0+  Si112  1  0.56967600  0.67646521  0.64856151  1
  Si0+  Si113  1  0.57226628  0.17931917  0.64976964  1
  Si0+  Si114  1  0.82170519  0.57523014  0.01732266  1
  Si0+  Si115  1  0.57181651  0.17658723  0.31707282  1
  Si0+  Si116  1  0.82070367  0.06888960  0.68057725  1
  Si0+  Si117  1  0.57148993  0.67509482  0.98157417  1
  Si0+  Si118  1  0.17759493  0.92662890  0.01709223  1
  Si0+  Si119  1  0.67703603  0.92823853  0.34746452  1
  O2-  O120  1  0.24523553  -0.00317404  0.06006906  1
  O2-  O121  1  0.25112496  0.00141077  0.39903873  1
  O2-  O122  1  0.25473328  0.00552159  0.72822358  1
  O2-  O123  1  0.25462740  0.50286320  0.06056016  1
  O2-  O124  1  0.24113055  0.50020381  0.39191458  1
  O2-  O125  1  0.25037958  0.49862239  0.73067688  1
  O2-  O126  1  0.75037788  -0.01005416  0.06111531  1
  O2-  O127  1  0.75062047  -0.00366155  0.39062300  1
  O2-  O128  1  0.75177908  -0.00426422  0.72262240  1
  O2-  O129  1  0.75613681  0.50281422  0.06061741  1
  O2-  O130  1  0.75672556  0.49457912  0.39763470  1
  O2-  O131  1  0.75660126  0.49597501  0.73390707  1
  O2-  O132  1  -0.00040936  0.26072011  0.27365447  1
  O2-  O133  1  0.01096455  0.25233823  0.60658837  1
  O2-  O134  1  0.00521292  0.25388463  0.93610226  1
  O2-  O135  1  0.00117623  0.74270005  0.27343042  1
  O2-  O136  1  -0.00137651  0.74416027  0.60480960  1
  O2-  O137  1  0.00249518  0.74430904  0.93844505  1
  O2-  O138  1  0.50139617  0.24904287  0.27694871  1
  O2-  O139  1  0.50221356  0.25158685  0.60858717  1
  O2-  O140  1  0.49850556  0.25694720  0.93901435  1
  O2-  O141  1  0.49592542  0.74925145  0.27525385  1
  O2-  O142  1  0.49692891  0.74076999  0.60263704  1
  O2-  O143  1  0.50145605  0.74315523  0.93898278  1
  O2-  O144  1  0.07390100  0.17889733  0.09812842  1
  O2-  O145  1  0.06729469  0.18265932  0.43321762  1
  O2-  O146  1  0.07326263  0.17637279  0.75535543  1
  O2-  O147  1  0.07631639  0.67909376  0.08779775  1
  O2-  O148  1  0.07891414  0.67777577  0.42098474  1
  O2-  O149  1  0.07193649  0.68267028  0.75541715  1
  O2-  O150  1  0.56911565  0.18002287  0.10046984  1
  O2-  O151  1  0.57283409  0.17399141  0.42231900  1
  O2-  O152  1  0.57264553  0.17665614  0.75459823  1
  O2-  O153  1  0.57138591  0.67641100  0.08776930  1
  O2-  O154  1  0.56794052  0.68127689  0.42281287  1
  O2-  O155  1  0.57058829  0.68086099  0.75397702  1
  O2-  O156  1  0.18135582  0.42639933  0.24233898  1
  O2-  O157  1  0.18204094  0.42611427  0.56622619  1
  O2-  O158  1  0.17979048  0.43016600  0.90179980  1
  O2-  O159  1  0.17949689  0.93093541  0.23415991  1
  O2-  O160  1  0.17613189  0.93440197  0.56962405  1
  O2-  O161  1  0.17882829  0.92643646  0.91142300  1
  O2-  O162  1  0.67878642  0.42722409  0.23536853  1
  O2-  O163  1  0.68210163  0.42700041  0.57085165  1
  O2-  O164  1  0.68163048  0.42860151  0.90216839  1
  O2-  O165  1  0.67270012  0.92982966  0.24276886  1
  O2-  O166  1  0.67493907  0.93301520  0.57503352  1
  O2-  O167  1  0.67666668  0.93016914  0.90915696  1
  O2-  O168  1  0.42957431  0.32469384  0.08959420  1
  O2-  O169  1  0.43329284  0.32199553  0.42461278  1
  O2-  O170  1  0.42829992  0.31850273  0.75682808  1
  O2-  O171  1  0.43079170  0.81814913  0.10103343  1
  O2-  O172  1  0.42961224  0.82074871  0.42381895  1
  O2-  O173  1  0.43168489  0.82299784  0.76283147  1
  O2-  O174  1  0.92950929  0.31775800  0.10176426  1
  O2-  O175  1  0.92596404  0.32029142  0.42379472  1
  O2-  O176  1  0.92642078  0.31620459  0.76502837  1
  O2-  O177  1  0.93025820  0.81849564  0.09906274  1
  O2-  O178  1  0.92794732  0.82021844  0.43235747  1
  O2-  O179  1  0.92961846  0.82297639  0.76562941  1
  O2-  O180  1  0.32693345  0.06957942  0.23665963  1
  O2-  O181  1  0.32807068  0.06969665  0.57867945  1
  O2-  O182  1  0.32363586  0.06551346  0.89907445  1
  O2-  O183  1  0.31979004  0.56915289  0.23147354  1
  O2-  O184  1  0.31953747  0.57033645  0.56899999  1
  O2-  O185  1  0.32080329  0.57330755  0.91083451  1
  O2-  O186  1  0.81962468  0.06936561  0.24408473  1
  O2-  O187  1  0.81850895  0.06854787  0.57479667  1
  O2-  O188  1  0.81889558  0.06841276  0.90044156  1
  O2-  O189  1  0.81486748  0.57708235  0.23433941  1
  O2-  O190  1  0.81638214  0.57499648  0.56961557  1
  O2-  O191  1  0.81913166  0.57865696  0.91223159  1
  O2-  O192  1  0.03690204  0.08790901  0.26483328  1
  O2-  O193  1  0.04012731  0.08813406  0.60240806  1
  O2-  O194  1  0.04408007  0.08130867  0.93212058  1
  O2-  O195  1  0.05254518  0.58189834  0.26971963  1
  O2-  O196  1  0.05331859  0.58415784  0.60449417  1
  O2-  O197  1  0.04858504  0.58287448  0.93757424  1
  O2-  O198  1  0.54383008  0.08493174  0.26893435  1
  O2-  O199  1  0.54319390  0.08871523  0.59953599  1
  O2-  O200  1  0.53942067  0.08516656  0.93054534  1
  O2-  O201  1  0.53969813  0.58680902  0.27136491  1
  O2-  O202  1  0.54933028  0.58029345  0.60570096  1
  O2-  O203  1  0.54682971  0.58132449  0.93604085  1
  O2-  O204  1  0.17028847  0.20880848  0.26780837  1
  O2-  O205  1  0.17101800  0.19656915  0.60574672  1
  O2-  O206  1  0.17478143  0.20418832  0.93285103  1
  O2-  O207  1  0.16559449  0.70743665  0.26665921  1
  O2-  O208  1  0.16312126  0.71098968  0.60346116  1
  O2-  O209  1  0.16520841  0.70312021  0.93359427  1
  O2-  O210  1  0.66469063  0.20277612  0.27046247  1
  O2-  O211  1  0.66374605  0.20473042  0.60005309  1
  O2-  O212  1  0.66718332  0.20917738  0.93304773  1
  O2-  O213  1  0.65750719  0.70920763  0.26755280  1
  O2-  O214  1  0.66018265  0.70903989  0.59973427  1
  O2-  O215  1  0.66355348  0.70140441  0.93346409  1
  O2-  O216  1  0.08262471  0.46020874  0.07090620  1
  O2-  O217  1  0.08087645  0.44669251  0.39013560  1
  O2-  O218  1  0.08060900  0.45423538  0.73329904  1
  O2-  O219  1  0.08354007  0.95064475  0.06172046  1
  O2-  O220  1  0.07977503  0.96403683  0.40077618  1
  O2-  O221  1  0.08233593  0.96440522  0.73738352  1
  O2-  O222  1  0.58293975  0.45821388  0.06847582  1
  O2-  O223  1  0.58350203  0.46043403  0.40233636  1
  O2-  O224  1  0.58402797  0.45318782  0.73768332  1
  O2-  O225  1  0.58619569  0.95803840  0.06210756  1
  O2-  O226  1  0.58797613  0.95956206  0.39886364  1
  O2-  O227  1  0.58686882  0.96339846  0.72826736  1
  O2-  O228  1  0.21122770  0.33342819  0.06931598  1
  O2-  O229  1  0.20771007  0.33649156  0.39593597  1
  O2-  O230  1  0.20966717  0.32796730  0.73273114  1
  O2-  O231  1  0.20477111  0.83283187  0.06224775  1
  O2-  O232  1  0.20338931  0.83322257  0.40163826  1
  O2-  O233  1  0.20742237  0.83634689  0.73711246  1
  O2-  O234  1  0.71065783  0.33194566  0.06945554  1
  O2-  O235  1  0.70057566  0.32598685  0.40096410  1
  O2-  O236  1  0.70970740  0.32521285  0.73259090  1
  O2-  O237  1  0.69633824  0.83075195  0.05834291  1
  O2-  O238  1  0.70121245  0.83588717  0.39455108  1
  O2-  O239  1  0.69697081  0.83658671  0.72684442  1
  O2-  O240  1  0.46054993  0.41314951  0.27087920  1
  O2-  O241  1  0.45797943  0.41426973  0.60647715  1
  O2-  O242  1  0.45128004  0.41870683  0.93864707  1
  O2-  O243  1  0.45888813  0.91329753  0.27341115  1
  O2-  O244  1  0.46469804  0.91432041  0.59410648  1
  O2-  O245  1  0.46347782  0.91317756  0.93021105  1
  O2-  O246  1  0.94229270  0.42040560  0.27506205  1
  O2-  O247  1  0.95571380  0.42096962  0.60011832  1
  O2-  O248  1  0.95071168  0.42299060  0.93886474  1
  O2-  O249  1  0.96083755  0.91601713  0.26570914  1
  O2-  O250  1  0.96059952  0.91826267  0.59953737  1
  O2-  O251  1  0.95988516  0.91565688  0.93167592  1
  O2-  O252  1  0.33930353  0.29672470  0.27206543  1
  O2-  O253  1  0.33966482  0.29248915  0.60124504  1
  O2-  O254  1  0.33619137  0.29515465  0.93749937  1
  O2-  O255  1  0.33428332  0.79565923  0.27290429  1
  O2-  O256  1  0.32849721  0.79352862  0.59853236  1
  O2-  O257  1  0.33237330  0.79104411  0.93234301  1
  O2-  O258  1  0.83319604  0.29068516  0.27413068  1
  O2-  O259  1  0.83727443  0.28346482  0.59535198  1
  O2-  O260  1  0.83362223  0.28550320  0.93496137  1
  O2-  O261  1  0.82964614  0.79311511  0.26527599  1
  O2-  O262  1  0.82781008  0.79619300  0.60131039  1
  O2-  O263  1  0.83047625  0.79361555  0.93287601  1
  O2-  O264  1  0.41821610  0.03503861  0.06586225  1
  O2-  O265  1  0.42247719  0.04589156  0.40327269  1
  O2-  O266  1  0.41955165  0.04176245  0.72844392  1
  O2-  O267  1  0.41594586  0.55067093  0.06177592  1
  O2-  O268  1  0.41341879  0.53896645  0.40100654  1
  O2-  O269  1  0.42009744  0.54669881  0.73569304  1
  O2-  O270  1  0.91883491  0.03795492  0.06801532  1
  O2-  O271  1  0.91184014  0.04143016  0.39677484  1
  O2-  O272  1  0.91226451  0.04321065  0.72770714  1
  O2-  O273  1  0.91681189  0.55661902  0.06253741  1
  O2-  O274  1  0.92308548  0.55706169  0.39774957  1
  O2-  O275  1  0.92325563  0.55604985  0.73162194  1
  O2-  O276  1  0.29785243  0.16645252  0.06709804  1
  O2-  O277  1  0.29705060  0.17219136  0.40222434  1
  O2-  O278  1  0.30580471  0.16601354  0.72842373  1
  O2-  O279  1  0.29295097  0.66603200  0.06232536  1
  O2-  O280  1  0.29102951  0.66795737  0.39920924  1
  O2-  O281  1  0.29168638  0.67052336  0.73445792  1
  O2-  O282  1  0.78639396  0.16149425  0.07091913  1
  O2-  O283  1  0.79022186  0.15873133  0.39886023  1
  O2-  O284  1  0.78880217  0.15892477  0.72731809  1
  O2-  O285  1  0.78960982  0.66744385  0.06412660  1
  O2-  O286  1  0.78379123  0.66994809  0.40057153  1
  O2-  O287  1  0.78574622  0.67093323  0.73590857  1
