# generated using pymatgen
data_Ca2Al2SiO7
_symmetry_space_group_name_H-M   'P 1'
_cell_length_a   15.46851623
_cell_length_b   15.46847935
_cell_length_c   15.29127603
_cell_angle_alpha   90.01435054
_cell_angle_beta   89.97332035
_cell_angle_gamma   90.01384986
_symmetry_Int_Tables_number   1
_chemical_formula_structural   Ca2Al2SiO7
_chemical_formula_sum   'Ca48 Al48 Si24 O168'
_cell_volume   3658.81064505
_cell_formula_units_Z   24
loop_
 _symmetry_equiv_pos_site_id
 _symmetry_equiv_pos_as_xyz
  1  'x, y, z'
loop_
 _atom_type_symbol
 _atom_type_oxidation_number
  Ca2+  2.0
  Al0+  0.0
  Si0+  0.0
  O2-  -2.0
loop_
 _atom_site_type_symbol
 _atom_site_label
 _atom_site_symmetry_multiplicity
 _atom_site_fract_x
 _atom_site_fract_y
 _atom_site_fract_z
 _atom_site_occupancy
  Ca2+  Ca0  1  0.17423605  0.07897102  0.16678648  1
  Ca2+  Ca1  1  0.17553823  0.07859025  0.49291389  1
  Ca2+  Ca2  1  0.17178683  0.07813417  0.84525131  1
  Ca2+  Ca3  1  0.17338817  0.57423150  0.17550509  1
  Ca2+  Ca4  1  0.17985793  0.58313067  0.49887861  1
  Ca2+  Ca5  1  0.17339052  0.58435651  0.83563660  1
  Ca2+  Ca6  1  0.67711153  0.07893951  0.16498009  1
  Ca2+  Ca7  1  0.67916587  0.08514435  0.50215282  1
  Ca2+  Ca8  1  0.67689818  0.07854377  0.84205614  1
  Ca2+  Ca9  1  0.66479822  0.57625447  0.16859806  1
  Ca2+  Ca10  1  0.65377379  0.57803797  0.49512435  1
  Ca2+  Ca11  1  0.67140901  0.57628425  0.84575972  1
  Ca2+  Ca12  1  0.08147627  0.32609832  0.15471412  1
  Ca2+  Ca13  1  0.08348071  0.33217566  0.49185400  1
  Ca2+  Ca14  1  0.07728525  0.32574832  0.83695570  1
  Ca2+  Ca15  1  0.07721231  0.84405984  0.16331040  1
  Ca2+  Ca16  1  0.07937264  0.83643641  0.49069446  1
  Ca2+  Ca17  1  0.07852803  0.84094932  0.83867604  1
  Ca2+  Ca18  1  0.57670620  0.33721015  0.16317992  1
  Ca2+  Ca19  1  0.57856128  0.33217399  0.48810203  1
  Ca2+  Ca20  1  0.58306275  0.33529959  0.83817101  1
  Ca2+  Ca21  1  0.57355556  0.83541266  0.16049424  1
  Ca2+  Ca22  1  0.56989997  0.82514619  0.48796715  1
  Ca2+  Ca23  1  0.57189283  0.84522102  0.83411446  1
  Ca2+  Ca24  1  0.33258221  0.41669696  0.17841433  1
  Ca2+  Ca25  1  0.33733522  0.42701881  0.49493612  1
  Ca2+  Ca26  1  0.33832326  0.42403579  0.83984286  1
  Ca2+  Ca27  1  0.32595768  0.91934892  0.17317165  1
  Ca2+  Ca28  1  0.33163046  0.90754250  0.50053045  1
  Ca2+  Ca29  1  0.33115309  0.92021716  0.84811818  1
  Ca2+  Ca30  1  0.82449306  0.41476745  0.16878065  1
  Ca2+  Ca31  1  0.82458587  0.41738645  0.50078658  1
  Ca2+  Ca32  1  0.82863868  0.42227211  0.84917437  1
  Ca2+  Ca33  1  0.83874587  0.92266956  0.17103317  1
  Ca2+  Ca34  1  0.83813332  0.92591857  0.50053494  1
  Ca2+  Ca35  1  0.82827428  0.92400427  0.84784117  1
  Ca2+  Ca36  1  0.40493740  0.17589212  0.16016663  1
  Ca2+  Ca37  1  0.41709262  0.17218150  0.48867747  1
  Ca2+  Ca38  1  0.41394081  0.17085852  0.83569597  1
  Ca2+  Ca39  1  0.41823358  0.67320441  0.16698241  1
  Ca2+  Ca40  1  0.41494095  0.67076180  0.49049402  1
  Ca2+  Ca41  1  0.41446513  0.67926453  0.82948892  1
  Ca2+  Ca42  1  0.92036036  0.16698489  0.15677051  1
  Ca2+  Ca43  1  0.91558437  0.16250231  0.49324245  1
  Ca2+  Ca44  1  0.91753998  0.16072012  0.83603089  1
  Ca2+  Ca45  1  0.91564109  0.67641752  0.15900089  1
  Ca2+  Ca46  1  0.92145354  0.67535480  0.48940272  1
  Ca2+  Ca47  1  0.91188755  0.67139166  0.83749502  1
  Al0+  Al48  1  0.00217932  -0.00057589  -0.00337770  1
  Al0+  Al49  1  0.00178869  0.00184216  0.33816784  1
  Al0+  Al50  1  0.00190674  0.00197818  0.66892867  1
  Al0+  Al51  1  0.00150062  0.50122637  -0.00207738  1
  Al0+  Al52  1  -0.00225905  0.49955448  0.33728492  1
  Al0+  Al53  1  -0.00076367  0.49881187  0.66550759  1
  Al0+  Al54  1  0.50141239  0.00451516  0.00255108  1
  Al0+  Al55  1  0.50360597  0.00138812  0.33229049  1
  Al0+  Al56  1  0.49988545  0.00242204  0.65967289  1
  Al0+  Al57  1  0.50074281  0.50104198  -0.00198189  1
  Al0+  Al58  1  0.50011198  0.49842662  0.33336809  1
  Al0+  Al59  1  0.49832455  0.50018877  0.67254126  1
  Al0+  Al60  1  0.24909121  0.25151831  -0.00998167  1
  Al0+  Al61  1  0.24870119  0.24756940  0.33807629  1
  Al0+  Al62  1  0.24702566  0.24920056  0.66486961  1
  Al0+  Al63  1  0.25005191  0.74966826  -0.00013270  1
  Al0+  Al64  1  0.24819855  0.74848540  0.33632672  1
  Al0+  Al65  1  0.24780633  0.74807318  0.66798588  1
  Al0+  Al66  1  0.74800809  0.25076385  0.00325855  1
  Al0+  Al67  1  0.75017959  0.25049316  0.34146427  1
  Al0+  Al68  1  0.75057814  0.25024587  0.67058781  1
  Al0+  Al69  1  0.74910044  0.74848166  0.00161828  1
  Al0+  Al70  1  0.75050092  0.74974638  0.32676379  1
  Al0+  Al71  1  0.74822882  0.74943053  0.66475664  1
  Al0+  Al72  1  0.92688989  0.32180611  0.98689913  1
  Al0+  Al73  1  0.82408045  0.57186005  0.01595797  1
  Al0+  Al74  1  0.32147186  0.07461096  0.01216833  1
  Al0+  Al75  1  0.82246888  0.06967545  0.01527950  1
  Al0+  Al76  1  0.81982844  0.06857030  0.34691079  1
  Al0+  Al77  1  0.18079341  0.92710905  0.01447576  1
  Al0+  Al78  1  0.67792378  0.42920720  0.01659802  1
  Al0+  Al79  1  0.57048692  0.67713077  0.31656137  1
  Al0+  Al80  1  0.07031177  0.17832070  0.98395051  1
  Al0+  Al81  1  0.42676036  0.82283338  0.31652378  1
  Al0+  Al82  1  0.32080312  0.56952393  0.34618869  1
  Al0+  Al83  1  0.42902515  0.32231239  0.98574441  1
  Al0+  Al84  1  0.42850780  0.82098594  0.65353212  1
  Al0+  Al85  1  0.82154315  0.06950952  0.68254802  1
  Al0+  Al86  1  0.18092917  0.92941873  0.34880960  1
  Al0+  Al87  1  0.31945337  0.56960999  0.68291260  1
  Al0+  Al88  1  0.68048806  0.43108658  0.34809736  1
  Al0+  Al89  1  0.67696741  0.92757764  0.01494601  1
  Al0+  Al90  1  0.92861580  0.82008931  0.98662003  1
  Al0+  Al91  1  0.42968808  0.31628214  0.32138669  1
  Al0+  Al92  1  0.17576197  0.42581643  0.34655380  1
  Al0+  Al93  1  0.32493358  0.07068572  0.34775325  1
  Al0+  Al94  1  0.93185501  0.82228492  0.32059051  1
  Al0+  Al95  1  0.42952245  0.82218410  0.98771884  1
  Si0+  Si96  1  0.07124363  0.67524484  0.31724436  1
  Si0+  Si97  1  0.18060813  0.43002840  0.01127081  1
  Si0+  Si98  1  0.18079603  0.92896336  0.68209565  1
  Si0+  Si99  1  0.32147769  0.57143766  0.01459431  1
  Si0+  Si100  1  0.57093266  0.67832225  0.98193691  1
  Si0+  Si101  1  0.92919450  0.82168467  0.65292149  1
  Si0+  Si102  1  0.82226205  0.57456296  0.35143807  1
  Si0+  Si103  1  0.57200189  0.67580656  0.65100422  1
  Si0+  Si104  1  0.67699508  0.92797819  0.68066874  1
  Si0+  Si105  1  0.57226426  0.18169926  0.65088830  1
  Si0+  Si106  1  0.42845640  0.32168631  0.65121035  1
  Si0+  Si107  1  0.07341182  0.67657559  0.98232752  1
  Si0+  Si108  1  0.82279067  0.57169968  0.68055044  1
  Si0+  Si109  1  0.92691076  0.32166215  0.32088458  1
  Si0+  Si110  1  0.06951644  0.18093118  0.31950352  1
  Si0+  Si111  1  0.92835058  0.32053425  0.65024776  1
  Si0+  Si112  1  0.07026468  0.17818576  0.64732231  1
  Si0+  Si113  1  0.57704291  0.17829428  0.31654929  1
  Si0+  Si114  1  0.06935780  0.67740341  0.65100456  1
  Si0+  Si115  1  0.67791089  0.92426693  0.35067027  1
  Si0+  Si116  1  0.17557605  0.42644567  0.68568473  1
  Si0+  Si117  1  0.67942063  0.43003580  0.68242496  1
  Si0+  Si118  1  0.57313041  0.17874200  0.98237573  1
  Si0+  Si119  1  0.32219244  0.07234094  0.68083218  1
  O2-  O120  1  0.25517724  -0.00228590  0.06160348  1
  O2-  O121  1  0.26066408  -0.00759198  0.40035408  1
  O2-  O122  1  0.25669949  -0.00412487  0.72208840  1
  O2-  O123  1  0.25230389  0.49844024  0.05510007  1
  O2-  O124  1  0.24746014  0.49813002  0.39654819  1
  O2-  O125  1  0.24653518  0.49267288  0.72986198  1
  O2-  O126  1  0.75489256  -0.00654383  0.06465380  1
  O2-  O127  1  0.74610993  -0.00632249  0.39566468  1
  O2-  O128  1  0.74894107  -0.00784506  0.72635234  1
  O2-  O129  1  0.75365517  0.49811297  0.06486766  1
  O2-  O130  1  0.75214717  0.50785452  0.39728417  1
  O2-  O131  1  0.74946676  0.50287146  0.72215366  1
  O2-  O132  1  0.00289549  0.25678880  0.27960082  1
  O2-  O133  1  -0.00149511  0.24948334  0.60623059  1
  O2-  O134  1  -0.00603041  0.24669124  0.93366690  1
  O2-  O135  1  0.00456640  0.74563947  0.27391301  1
  O2-  O136  1  -0.00200097  0.74889156  0.61002003  1
  O2-  O137  1  0.00323378  0.74496385  0.93893755  1
  O2-  O138  1  0.50052006  0.23859670  0.27376183  1
  O2-  O139  1  0.49957387  0.25114067  0.60857935  1
  O2-  O140  1  0.50296009  0.24705715  0.93829238  1
  O2-  O141  1  0.50153992  0.75271113  0.26781578  1
  O2-  O142  1  0.50436313  0.74626615  0.60869018  1
  O2-  O143  1  0.50622276  0.75084286  0.93760724  1
  O2-  O144  1  0.07298011  0.18262793  0.09749805  1
  O2-  O145  1  0.06721678  0.18040689  0.42546358  1
  O2-  O146  1  0.07166285  0.17778336  0.75175255  1
  O2-  O147  1  0.07520926  0.67280798  0.08720021  1
  O2-  O148  1  0.06817351  0.67461960  0.42364858  1
  O2-  O149  1  0.06926198  0.67553453  0.75576998  1
  O2-  O150  1  0.57577783  0.17913124  0.08729174  1
  O2-  O151  1  0.57998850  0.18384364  0.42310615  1
  O2-  O152  1  0.57279698  0.18191311  0.75556035  1
  O2-  O153  1  0.56645936  0.67411640  0.08676438  1
  O2-  O154  1  0.56748269  0.67829402  0.43136724  1
  O2-  O155  1  0.57368425  0.67358134  0.75608450  1
  O2-  O156  1  0.17559742  0.42617303  0.23277972  1
  O2-  O157  1  0.17322192  0.42720733  0.58052327  1
  O2-  O158  1  0.18165892  0.43253926  0.90575297  1
  O2-  O159  1  0.17618872  0.93446496  0.23645542  1
  O2-  O160  1  0.17810197  0.93002341  0.57723240  1
  O2-  O161  1  0.18268031  0.92747773  0.89967769  1
  O2-  O162  1  0.68234776  0.42865753  0.23629381  1
  O2-  O163  1  0.67916885  0.42908001  0.57734361  1
  O2-  O164  1  0.67720012  0.43289305  0.90179563  1
  O2-  O165  1  0.67939908  0.92517037  0.24569540  1
  O2-  O166  1  0.67851495  0.92959366  0.57530394  1
  O2-  O167  1  0.67712808  0.93213913  0.90021588  1
  O2-  O168  1  0.42686820  0.32288278  0.09831762  1
  O2-  O169  1  0.43307121  0.31723282  0.43549096  1
  O2-  O170  1  0.42965063  0.32128819  0.75618109  1
  O2-  O171  1  0.42712777  0.81872301  0.09971727  1
  O2-  O172  1  0.42800844  0.81848496  0.43106933  1
  O2-  O173  1  0.42933795  0.82240230  0.76667632  1
  O2-  O174  1  0.93173080  0.32258352  0.10058271  1
  O2-  O175  1  0.92590534  0.31922805  0.42683413  1
  O2-  O176  1  0.92896712  0.32205815  0.75464705  1
  O2-  O177  1  0.93202225  0.82049603  0.09918992  1
  O2-  O178  1  0.93403983  0.82113273  0.43509057  1
  O2-  O179  1  0.92953192  0.82076467  0.75761589  1
  O2-  O180  1  0.31696284  0.07635801  0.23539791  1
  O2-  O181  1  0.32035092  0.07566388  0.57622964  1
  O2-  O182  1  0.31943722  0.07284028  0.89730210  1
  O2-  O183  1  0.31913040  0.56710008  0.23257908  1
  O2-  O184  1  0.31927907  0.56839735  0.57041597  1
  O2-  O185  1  0.31938360  0.57145364  0.90888469  1
  O2-  O186  1  0.82119218  0.07033171  0.23491421  1
  O2-  O187  1  0.82128284  0.06995238  0.56926912  1
  O2-  O188  1  0.81909666  0.06846546  0.90113331  1
  O2-  O189  1  0.82629576  0.57112536  0.24686043  1
  O2-  O190  1  0.82556710  0.57028642  0.57574525  1
  O2-  O191  1  0.82092319  0.57042933  0.90083521  1
  O2-  O192  1  0.03627831  0.09144605  0.27311441  1
  O2-  O193  1  0.04145378  0.08642743  0.60001318  1
  O2-  O194  1  0.04566868  0.08026913  0.92810782  1
  O2-  O195  1  0.04398107  0.58159363  0.27179876  1
  O2-  O196  1  0.04117619  0.58588059  0.60274562  1
  O2-  O197  1  0.04870237  0.58442650  0.93177989  1
  O2-  O198  1  0.56403836  0.08130453  0.27512144  1
  O2-  O199  1  0.54713020  0.09041981  0.60096278  1
  O2-  O200  1  0.54820909  0.08639474  0.93290126  1
  O2-  O201  1  0.53966579  0.57963237  0.26457084  1
  O2-  O202  1  0.54332177  0.58197873  0.60587547  1
  O2-  O203  1  0.54077739  0.58716344  0.93216583  1
  O2-  O204  1  0.16204178  0.20495901  0.27345034  1
  O2-  O205  1  0.16181712  0.20712244  0.59903929  1
  O2-  O206  1  0.16427306  0.21326994  0.92429923  1
  O2-  O207  1  0.16582662  0.69650301  0.27323447  1
  O2-  O208  1  0.16044782  0.70632549  0.60330839  1
  O2-  O209  1  0.16555427  0.70491933  0.93354215  1
  O2-  O210  1  0.66722480  0.21406920  0.27077414  1
  O2-  O211  1  0.66390740  0.21242007  0.60361438  1
  O2-  O212  1  0.66483047  0.20764355  0.93311588  1
  O2-  O213  1  0.67125900  0.69794350  0.26628052  1
  O2-  O214  1  0.66654664  0.69756826  0.60337103  1
  O2-  O215  1  0.66639425  0.69761580  0.93716550  1
  O2-  O216  1  0.08957061  0.45760654  0.05885461  1
  O2-  O217  1  0.07735536  0.45318478  0.40204721  1
  O2-  O218  1  0.08241393  0.45539701  0.73141787  1
  O2-  O219  1  0.08278067  0.95734349  0.06427067  1
  O2-  O220  1  0.08685899  0.96753454  0.40630665  1
  O2-  O221  1  0.09086730  0.96247370  0.72994587  1
  O2-  O222  1  0.58017845  0.46215383  0.06778803  1
  O2-  O223  1  0.58418701  0.46042027  0.40387354  1
  O2-  O224  1  0.58739531  0.45534820  0.73035217  1
  O2-  O225  1  0.58223226  0.96243959  0.06986986  1
  O2-  O226  1  0.58436854  0.94923902  0.39732395  1
  O2-  O227  1  0.58412447  0.95959320  0.72543927  1
  O2-  O228  1  0.20680707  0.33743247  0.05552018  1
  O2-  O229  1  0.20402730  0.32949355  0.40314703  1
  O2-  O230  1  0.19954291  0.33120307  0.72919099  1
  O2-  O231  1  0.20491031  0.82788613  0.06677802  1
  O2-  O232  1  0.19870005  0.82820202  0.40131822  1
  O2-  O233  1  0.20099940  0.83518212  0.72797102  1
  O2-  O234  1  0.70009823  0.33009469  0.06850156  1
  O2-  O235  1  0.71487181  0.33737049  0.40703882  1
  O2-  O236  1  0.70891779  0.33927013  0.73019417  1
  O2-  O237  1  0.69569317  0.82635861  0.06295925  1
  O2-  O238  1  0.70410799  0.83055759  0.39650391  1
  O2-  O239  1  0.69690749  0.83204296  0.72475505  1
  O2-  O240  1  0.46167114  0.41217832  0.26888969  1
  O2-  O241  1  0.45758578  0.41423431  0.60626131  1
  O2-  O242  1  0.46244270  0.41793087  0.92933877  1
  O2-  O243  1  0.45286212  0.92364972  0.26784019  1
  O2-  O244  1  0.45595118  0.91834903  0.59848204  1
  O2-  O245  1  0.45914172  0.92076711  0.93517844  1
  O2-  O246  1  0.94702690  0.41613816  0.27661284  1
  O2-  O247  1  0.95571129  0.41255684  0.60196162  1
  O2-  O248  1  0.96035032  0.41860435  0.93133716  1
  O2-  O249  1  0.96607371  0.91874353  0.26935525  1
  O2-  O250  1  0.96125475  0.91307843  0.60660317  1
  O2-  O251  1  0.96107818  0.91473652  0.92928588  1
  O2-  O252  1  0.33058504  0.28919209  0.27069388  1
  O2-  O253  1  0.33531721  0.29441604  0.60637580  1
  O2-  O254  1  0.33459413  0.29324871  0.92598355  1
  O2-  O255  1  0.32697272  0.79285158  0.26813163  1
  O2-  O256  1  0.33091173  0.78809450  0.60248219  1
  O2-  O257  1  0.33400576  0.78758530  0.93219818  1
  O2-  O258  1  0.83701143  0.28808841  0.27488754  1
  O2-  O259  1  0.83559433  0.29270954  0.60390993  1
  O2-  O260  1  0.82634003  0.29919483  0.93567107  1
  O2-  O261  1  0.83477207  0.79614755  0.26733461  1
  O2-  O262  1  0.83603267  0.79686041  0.60592474  1
  O2-  O263  1  0.83175536  0.78913928  0.93141224  1
  O2-  O264  1  0.42215535  0.05829873  0.06181303  1
  O2-  O265  1  0.42796060  0.05575585  0.39705675  1
  O2-  O266  1  0.41718933  0.05117743  0.72461241  1
  O2-  O267  1  0.41356625  0.54477669  0.05907741  1
  O2-  O268  1  0.41688336  0.53749428  0.40166323  1
  O2-  O269  1  0.41575079  0.54007410  0.73876085  1
  O2-  O270  1  0.92283485  0.04555689  0.06372069  1
  O2-  O271  1  0.91505595  0.03745074  0.40439731  1
  O2-  O272  1  0.91949537  0.04128112  0.73434356  1
  O2-  O273  1  0.92454900  0.54789993  0.06555416  1
  O2-  O274  1  0.91415239  0.54678164  0.40117297  1
  O2-  O275  1  0.91356590  0.54200400  0.72875561  1
  O2-  O276  1  0.28625774  0.17236111  0.06157148  1
  O2-  O277  1  0.28697465  0.16442828  0.40616389  1
  O2-  O278  1  0.28904489  0.16295899  0.72812363  1
  O2-  O279  1  0.29147459  0.66149218  0.06196861  1
  O2-  O280  1  0.29098725  0.66607699  0.40243847  1
  O2-  O281  1  0.28424518  0.66509764  0.73727428  1
  O2-  O282  1  0.79220981  0.16768342  0.06641671  1
  O2-  O283  1  0.78796257  0.16376772  0.40496717  1
  O2-  O284  1  0.78934566  0.16645449  0.73475223  1
  O2-  O285  1  0.79538893  0.66928556  0.06816194  1
  O2-  O286  1  0.79916152  0.66933318  0.39650268  1
  O2-  O287  1  0.79739262  0.66520506  0.72631709  1
