# generated using pymatgen
data_Ca2Al2SiO7
_symmetry_space_group_name_H-M   'P 1'
_cell_length_a   15.46652467
_cell_length_b   15.46971998
_cell_length_c   15.29078408
_cell_angle_alpha   89.99482851
_cell_angle_beta   89.99748169
_cell_angle_gamma   89.99554254
_symmetry_Int_Tables_number   1
_chemical_formula_structural   Ca2Al2SiO7
_chemical_formula_sum   'Ca48 Al48 Si24 O168'
_cell_volume   3658.51587060
_cell_formula_units_Z   24
loop_
 _symmetry_equiv_pos_site_id
 _symmetry_equiv_pos_as_xyz
  1  'x, y, z'
loop_
 _atom_type_symbol
 _atom_type_oxidation_number
  Ca2+  2.0
  Al0+  0.0
  Si0+  0.0
  O2-  -2.0
loop_
 _atom_site_type_symbol
 _atom_site_label
 _atom_site_symmetry_multiplicity
 _atom_site_fract_x
 _atom_site_fract_y
 _atom_site_fract_z
 _atom_site_occupancy
  Ca2+  Ca0  1  0.17264967  0.08095523  0.17508148  1
  Ca2+  Ca1  1  0.17775858  0.07548310  0.50989430  1
  Ca2+  Ca2  1  0.16627352  0.08696133  0.83174057  1
  Ca2+  Ca3  1  0.16184597  0.56959265  0.17422084  1
  Ca2+  Ca4  1  0.16252635  0.57803343  0.50047002  1
  Ca2+  Ca5  1  0.17161484  0.57151574  0.83923232  1
  Ca2+  Ca6  1  0.67702820  0.08627996  0.17757365  1
  Ca2+  Ca7  1  0.67133793  0.08900941  0.50323890  1
  Ca2+  Ca8  1  0.67878074  0.09929275  0.83188637  1
  Ca2+  Ca9  1  0.66360104  0.58299558  0.16736396  1
  Ca2+  Ca10  1  0.67145690  0.58383461  0.51057245  1
  Ca2+  Ca11  1  0.66732714  0.58771439  0.83535699  1
  Ca2+  Ca12  1  0.08130955  0.32800483  0.15685865  1
  Ca2+  Ca13  1  0.08078347  0.32744815  0.50084743  1
  Ca2+  Ca14  1  0.07749679  0.32151841  0.83137148  1
  Ca2+  Ca15  1  0.09108997  0.82799641  0.16777922  1
  Ca2+  Ca16  1  0.09138105  0.83055416  0.49227642  1
  Ca2+  Ca17  1  0.08427161  0.83373973  0.82499230  1
  Ca2+  Ca18  1  0.57558184  0.32631530  0.16358722  1
  Ca2+  Ca19  1  0.57743966  0.32098619  0.50137953  1
  Ca2+  Ca20  1  0.57015514  0.33139711  0.82514933  1
  Ca2+  Ca21  1  0.57949282  0.83706923  0.16673096  1
  Ca2+  Ca22  1  0.57379901  0.84109723  0.49575092  1
  Ca2+  Ca23  1  0.58141868  0.82274930  0.82445554  1
  Ca2+  Ca24  1  0.32174656  0.41014759  0.16923139  1
  Ca2+  Ca25  1  0.32856356  0.41316117  0.50481360  1
  Ca2+  Ca26  1  0.33095462  0.40789224  0.84129531  1
  Ca2+  Ca27  1  0.33005707  0.92234077  0.17899788  1
  Ca2+  Ca28  1  0.33163169  0.92062577  0.50471602  1
  Ca2+  Ca29  1  0.33384760  0.91932686  0.82713955  1
  Ca2+  Ca30  1  0.83497456  0.41497456  0.16988720  1
  Ca2+  Ca31  1  0.83434504  0.42205170  0.51052032  1
  Ca2+  Ca32  1  0.84018528  0.41683541  0.83339183  1
  Ca2+  Ca33  1  0.82611323  0.93006851  0.17384508  1
  Ca2+  Ca34  1  0.82717802  0.92839771  0.50344206  1
  Ca2+  Ca35  1  0.83342233  0.93261402  0.83601993  1
  Ca2+  Ca36  1  0.42140152  0.16323396  0.16537043  1
  Ca2+  Ca37  1  0.42354862  0.15480068  0.49774088  1
  Ca2+  Ca38  1  0.41785480  0.17591623  0.82241260  1
  Ca2+  Ca39  1  0.42054204  0.67586804  0.16287098  1
  Ca2+  Ca40  1  0.41821927  0.68044387  0.49811925  1
  Ca2+  Ca41  1  0.42912175  0.66929085  0.82349165  1
  Ca2+  Ca42  1  0.92210602  0.16614078  0.15675374  1
  Ca2+  Ca43  1  0.91829223  0.16219600  0.49957610  1
  Ca2+  Ca44  1  0.92346160  0.16912839  0.82512726  1
  Ca2+  Ca45  1  0.92259969  0.66933173  0.16711026  1
  Ca2+  Ca46  1  0.92033396  0.66827587  0.49569672  1
  Ca2+  Ca47  1  0.91674011  0.66827652  0.82638585  1
  Al0+  Al48  1  0.00066453  -0.00216286  0.00214916  1
  Al0+  Al49  1  -0.00122763  -0.00022263  0.33745742  1
  Al0+  Al50  1  -0.00125298  -0.00135323  0.66993610  1
  Al0+  Al51  1  0.00085953  0.50059040  0.00182001  1
  Al0+  Al52  1  0.00009936  0.50075159  0.33314584  1
  Al0+  Al53  1  -0.00031752  0.50046586  0.66966702  1
  Al0+  Al54  1  0.50039720  -0.00130998  -0.00224073  1
  Al0+  Al55  1  0.50171185  -0.00004931  0.32720657  1
  Al0+  Al56  1  0.49888471  -0.00126785  0.66696057  1
  Al0+  Al57  1  0.50109317  0.50220235  -0.00485663  1
  Al0+  Al58  1  0.49884198  0.49979543  0.33298899  1
  Al0+  Al59  1  0.50046473  0.49990087  0.65809337  1
  Al0+  Al60  1  0.24902638  0.24841376  -0.00114482  1
  Al0+  Al61  1  0.24786628  0.25109760  0.34260959  1
  Al0+  Al62  1  0.24652872  0.24913407  0.66399997  1
  Al0+  Al63  1  0.25147563  0.74968644  -0.00129168  1
  Al0+  Al64  1  0.25118115  0.74630356  0.32419023  1
  Al0+  Al65  1  0.25081799  0.74688660  0.66874883  1
  Al0+  Al66  1  0.75065639  0.25429360  0.00374791  1
  Al0+  Al67  1  0.74857614  0.25351791  0.33312320  1
  Al0+  Al68  1  0.74761166  0.25443852  0.66531914  1
  Al0+  Al69  1  0.75097855  0.75052974  -0.00104192  1
  Al0+  Al70  1  0.75090740  0.75027164  0.33518160  1
  Al0+  Al71  1  0.75309191  0.74918794  0.66823960  1
  Al0+  Al72  1  0.17949120  0.92661937  0.68228673  1
  Al0+  Al73  1  0.57111167  0.68134222  0.98667276  1
  Al0+  Al74  1  0.82078057  0.07508952  0.34917176  1
  Al0+  Al75  1  0.81835561  0.07313383  0.68106336  1
  Al0+  Al76  1  0.57425647  0.67954873  0.64940967  1
  Al0+  Al77  1  0.07017969  0.17562933  0.98632305  1
  Al0+  Al78  1  0.42853532  0.81954398  0.65135594  1
  Al0+  Al79  1  0.17744468  0.42963009  0.34918190  1
  Al0+  Al80  1  0.92993782  0.32217024  0.65143779  1
  Al0+  Al81  1  0.82036206  0.07286934  0.01332284  1
  Al0+  Al82  1  0.32124355  0.07110626  0.34711732  1
  Al0+  Al83  1  0.57020142  0.17878935  0.65285770  1
  Al0+  Al84  1  0.67906610  0.92856703  0.34759417  1
  Al0+  Al85  1  0.06879703  0.17566587  0.64878614  1
  Al0+  Al86  1  0.42957446  0.31850773  0.98988298  1
  Al0+  Al87  1  0.92770997  0.32320499  0.98613998  1
  Al0+  Al88  1  0.82137336  0.57127356  0.68150981  1
  Al0+  Al89  1  0.42513863  0.32140712  0.65054156  1
  Al0+  Al90  1  0.18076464  0.42932889  0.01346680  1
  Al0+  Al91  1  0.57025252  0.18065597  0.31827070  1
  Al0+  Al92  1  0.07000202  0.67909670  0.31888431  1
  Al0+  Al93  1  0.17935755  0.92577079  0.34530238  1
  Al0+  Al94  1  0.43071514  0.82060738  0.31772276  1
  Al0+  Al95  1  0.32193811  0.07174974  0.68402240  1
  Si0+  Si96  1  0.07084885  0.67901971  0.65353390  1
  Si0+  Si97  1  0.82022779  0.56989082  0.34689345  1
  Si0+  Si98  1  0.17816185  0.42899620  0.68326554  1
  Si0+  Si99  1  0.17938484  0.92593328  0.01587556  1
  Si0+  Si100  1  0.82145499  0.57281403  0.01712245  1
  Si0+  Si101  1  0.42625267  0.82364040  0.98076589  1
  Si0+  Si102  1  0.32132504  0.06995664  0.01402292  1
  Si0+  Si103  1  0.93068501  0.81896003  0.98523999  1
  Si0+  Si104  1  0.42529069  0.32342288  0.31653496  1
  Si0+  Si105  1  0.92989156  0.32188258  0.31910167  1
  Si0+  Si106  1  0.57436903  0.67595534  0.31650245  1
  Si0+  Si107  1  0.67669719  0.43158590  0.01595323  1
  Si0+  Si108  1  0.67644377  0.43036334  0.34842438  1
  Si0+  Si109  1  0.67933099  0.92652433  0.01536164  1
  Si0+  Si110  1  0.67781646  0.92728536  0.68405815  1
  Si0+  Si111  1  0.57328708  0.17719888  0.98511473  1
  Si0+  Si112  1  0.32150652  0.56874991  0.68081127  1
  Si0+  Si113  1  0.32404409  0.57281657  0.01684900  1
  Si0+  Si114  1  0.92640070  0.82299165  0.31592727  1
  Si0+  Si115  1  0.07226011  0.67861944  0.98408940  1
  Si0+  Si116  1  0.32284803  0.57085089  0.34949798  1
  Si0+  Si117  1  0.07068265  0.17863709  0.32006890  1
  Si0+  Si118  1  0.92979880  0.82133453  0.65201368  1
  Si0+  Si119  1  0.67668145  0.43082308  0.68478831  1
  O2-  O120  1  0.25157928  -0.00324408  0.05556595  1
  O2-  O121  1  0.24952985  -0.00192549  0.39591763  1
  O2-  O122  1  0.24831529  0.00057289  0.73431523  1
  O2-  O123  1  0.25560273  0.50415682  0.06139080  1
  O2-  O124  1  0.25543843  0.50151739  0.39475962  1
  O2-  O125  1  0.25625470  0.49313356  0.72460260  1
  O2-  O126  1  0.74099852  0.00197789  0.05865708  1
  O2-  O127  1  0.74847512  0.00260303  0.39768027  1
  O2-  O128  1  0.74095112  0.00100444  0.72898551  1
  O2-  O129  1  0.75154944  0.50003120  0.05815389  1
  O2-  O130  1  0.74518999  0.50419133  0.38898162  1
  O2-  O131  1  0.74518368  0.49956606  0.73001509  1
  O2-  O132  1  -0.00215202  0.24799946  0.27720967  1
  O2-  O133  1  -0.00422539  0.24697727  0.59846966  1
  O2-  O134  1  -0.00553401  0.24552791  0.93843616  1
  O2-  O135  1  -0.00068735  0.75788133  0.27155366  1
  O2-  O136  1  0.00395917  0.75307692  0.61070061  1
  O2-  O137  1  0.00323626  0.75028363  0.94084592  1
  O2-  O138  1  0.49176764  0.25258660  0.27239838  1
  O2-  O139  1  0.49206303  0.24416837  0.60205651  1
  O2-  O140  1  0.50265214  0.24362208  0.94179350  1
  O2-  O141  1  0.50768814  0.74625611  0.27246664  1
  O2-  O142  1  0.50508313  0.75327687  0.59964736  1
  O2-  O143  1  0.49657065  0.75529709  0.93963779  1
  O2-  O144  1  0.07161177  0.17660419  0.10074505  1
  O2-  O145  1  0.07001692  0.17995457  0.42449048  1
  O2-  O146  1  0.06828150  0.17789899  0.76256502  1
  O2-  O147  1  0.07058596  0.67871165  0.08898179  1
  O2-  O148  1  0.06554343  0.67597113  0.43202039  1
  O2-  O149  1  0.06915401  0.67839402  0.75915704  1
  O2-  O150  1  0.57231066  0.17808587  0.09085879  1
  O2-  O151  1  0.57264142  0.18355607  0.43052501  1
  O2-  O152  1  0.57212972  0.18550237  0.76694465  1
  O2-  O153  1  0.57059394  0.68231956  0.09995983  1
  O2-  O154  1  0.57466067  0.67327554  0.42125618  1
  O2-  O155  1  0.57242300  0.68006393  0.76352161  1
  O2-  O156  1  0.17634740  0.42959875  0.23571502  1
  O2-  O157  1  0.17468921  0.43444957  0.57825825  1
  O2-  O158  1  0.18200431  0.43212687  0.90047359  1
  O2-  O159  1  0.18147819  0.92869447  0.23083664  1
  O2-  O160  1  0.18153641  0.92272382  0.56925410  1
  O2-  O161  1  0.17880302  0.92134756  0.91142708  1
  O2-  O162  1  0.67707278  0.43102377  0.24278920  1
  O2-  O163  1  0.67813745  0.43263227  0.57892789  1
  O2-  O164  1  0.67326764  0.43352130  0.91158185  1
  O2-  O165  1  0.68274455  0.92843723  0.23323501  1
  O2-  O166  1  0.68221981  0.92458281  0.57885761  1
  O2-  O167  1  0.68296006  0.92095934  0.91028324  1
  O2-  O168  1  0.43040622  0.31723206  0.10307219  1
  O2-  O169  1  0.42884096  0.32784211  0.42130187  1
  O2-  O170  1  0.42877694  0.32355586  0.76470558  1
  O2-  O171  1  0.42478090  0.82373543  0.08627193  1
  O2-  O172  1  0.42886929  0.81800156  0.43002128  1
  O2-  O173  1  0.42848025  0.81412576  0.76534305  1
  O2-  O174  1  0.93026198  0.32465271  0.10039090  1
  O2-  O175  1  0.93107896  0.32581129  0.42363290  1
  O2-  O176  1  0.93442808  0.32363977  0.76480844  1
  O2-  O177  1  0.93097043  0.81634143  0.09015298  1
  O2-  O178  1  0.92326123  0.81866756  0.42122297  1
  O2-  O179  1  0.92987161  0.81885672  0.75775971  1
  O2-  O180  1  0.31877439  0.07164541  0.23225584  1
  O2-  O181  1  0.32192511  0.06879686  0.57088039  1
  O2-  O182  1  0.32250551  0.06995365  0.90961164  1
  O2-  O183  1  0.32351412  0.56865720  0.24364853  1
  O2-  O184  1  0.31661853  0.57098488  0.57594662  1
  O2-  O185  1  0.32182872  0.57366182  0.91112402  1
  O2-  O186  1  0.82089297  0.07479162  0.23494081  1
  O2-  O187  1  0.81844403  0.06991205  0.56859609  1
  O2-  O188  1  0.82039951  0.07105596  0.90035202  1
  O2-  O189  1  0.82152881  0.56829401  0.24133236  1
  O2-  O190  1  0.82338935  0.56959661  0.56806078  1
  O2-  O191  1  0.82200165  0.57529086  0.91248463  1
  O2-  O192  1  0.04550352  0.08560095  0.27312253  1
  O2-  O193  1  0.04118630  0.07607561  0.59875701  1
  O2-  O194  1  0.04571191  0.07575025  0.93472227  1
  O2-  O195  1  0.03160297  0.58502959  0.26273668  1
  O2-  O196  1  0.03852105  0.58931894  0.60572144  1
  O2-  O197  1  0.04264041  0.58778459  0.93683643  1
  O2-  O198  1  0.54414685  0.08459997  0.26105034  1
  O2-  O199  1  0.55003865  0.07759330  0.60337461  1
  O2-  O200  1  0.55277034  0.08214971  0.94035474  1
  O2-  O201  1  0.54594534  0.58295460  0.26883551  1
  O2-  O202  1  0.54535806  0.58242167  0.59588986  1
  O2-  O203  1  0.54194182  0.58569178  0.93040508  1
  O2-  O204  1  0.16267034  0.20920808  0.27405976  1
  O2-  O205  1  0.16620459  0.20607894  0.59653431  1
  O2-  O206  1  0.16665220  0.20804306  0.93274329  1
  O2-  O207  1  0.16628606  0.70213192  0.26040799  1
  O2-  O208  1  0.16344339  0.70189507  0.60658612  1
  O2-  O209  1  0.16525179  0.70396017  0.93756026  1
  O2-  O210  1  0.66527078  0.21844701  0.26317693  1
  O2-  O211  1  0.66532056  0.21463413  0.59803833  1
  O2-  O212  1  0.66619548  0.20735331  0.94158360  1
  O2-  O213  1  0.66952591  0.69856661  0.27134904  1
  O2-  O214  1  0.67540555  0.70348794  0.60091045  1
  O2-  O215  1  0.66864528  0.71066275  0.93325783  1
  O2-  O216  1  0.08488065  0.46322216  0.06837666  1
  O2-  O217  1  0.08297910  0.46742095  0.40276959  1
  O2-  O218  1  0.09074716  0.46629507  0.73276463  1
  O2-  O219  1  0.08739287  0.95110874  0.06400182  1
  O2-  O220  1  0.07889473  0.94709478  0.39572257  1
  O2-  O221  1  0.07953757  0.95124881  0.73477901  1
  O2-  O222  1  0.58704009  0.46448479  0.06568490  1
  O2-  O223  1  0.58409129  0.45531141  0.39541035  1
  O2-  O224  1  0.58237061  0.45799965  0.72919570  1
  O2-  O225  1  0.58217896  0.94528668  0.05752410  1
  O2-  O226  1  0.57958851  0.95444969  0.39638770  1
  O2-  O227  1  0.58202565  0.94401701  0.72812635  1
  O2-  O228  1  0.21137598  0.33243622  0.06771376  1
  O2-  O229  1  0.20418917  0.33443373  0.40622045  1
  O2-  O230  1  0.19863783  0.33512654  0.72846556  1
  O2-  O231  1  0.20738656  0.83341799  0.06348519  1
  O2-  O232  1  0.20554030  0.82432531  0.39212762  1
  O2-  O233  1  0.20897133  0.82759492  0.73664033  1
  O2-  O234  1  0.70150473  0.34018937  0.06617747  1
  O2-  O235  1  0.70783537  0.34121788  0.39707502  1
  O2-  O236  1  0.70158040  0.33832849  0.73242742  1
  O2-  O237  1  0.71182445  0.83607851  0.06469566  1
  O2-  O238  1  0.70739055  0.82993511  0.40065788  1
  O2-  O239  1  0.71123131  0.83606357  0.73142635  1
  O2-  O240  1  0.45373375  0.41613805  0.26852395  1
  O2-  O241  1  0.45727715  0.41733445  0.59493353  1
  O2-  O242  1  0.45915327  0.41555446  0.93615081  1
  O2-  O243  1  0.46136752  0.91523634  0.25936351  1
  O2-  O244  1  0.45138998  0.91941518  0.60089739  1
  O2-  O245  1  0.45090197  0.91726999  0.93459925  1
  O2-  O246  1  0.96018601  0.41241775  0.27004049  1
  O2-  O247  1  0.96325183  0.42020613  0.59916755  1
  O2-  O248  1  0.95918801  0.42141162  0.93423851  1
  O2-  O249  1  0.94795575  0.91801825  0.27104918  1
  O2-  O250  1  0.95293511  0.91317279  0.60477111  1
  O2-  O251  1  0.95763619  0.91065751  0.93807861  1
  O2-  O252  1  0.32924821  0.29962333  0.27488944  1
  O2-  O253  1  0.32410226  0.30231231  0.60147389  1
  O2-  O254  1  0.33384992  0.28892531  0.93498172  1
  O2-  O255  1  0.33678573  0.78603841  0.25936608  1
  O2-  O256  1  0.33212826  0.78272053  0.59937129  1
  O2-  O257  1  0.33305914  0.79643791  0.93485535  1
  O2-  O258  1  0.83625502  0.29975260  0.27240651  1
  O2-  O259  1  0.82820033  0.30399327  0.60270671  1
  O2-  O260  1  0.82569237  0.30489438  0.93697564  1
  O2-  O261  1  0.83556876  0.79065262  0.26682381  1
  O2-  O262  1  0.84062155  0.78870415  0.60360473  1
  O2-  O263  1  0.84050934  0.78844549  0.93688932  1
  O2-  O264  1  0.41475623  0.04359222  0.06086283  1
  O2-  O265  1  0.42085048  0.04240090  0.39446155  1
  O2-  O266  1  0.42060249  0.04323751  0.73792893  1
  O2-  O267  1  0.41838441  0.54901711  0.06159331  1
  O2-  O268  1  0.41698769  0.54814237  0.39594294  1
  O2-  O269  1  0.41615706  0.54580076  0.72472308  1
  O2-  O270  1  0.91570483  0.03625041  0.06733078  1
  O2-  O271  1  0.91859308  0.04577830  0.40156310  1
  O2-  O272  1  0.91312131  0.03734417  0.73564399  1
  O2-  O273  1  0.91362615  0.54647197  0.06501431  1
  O2-  O274  1  0.90985346  0.53804759  0.39519273  1
  O2-  O275  1  0.91722479  0.53970732  0.73789972  1
  O2-  O276  1  0.29202676  0.16032615  0.06276249  1
  O2-  O277  1  0.29564148  0.16871672  0.40133746  1
  O2-  O278  1  0.29188671  0.17165467  0.73453063  1
  O2-  O279  1  0.29756248  0.66685601  0.06239471  1
  O2-  O280  1  0.29369776  0.66357359  0.39361629  1
  O2-  O281  1  0.28917038  0.65683844  0.73266092  1
  O2-  O282  1  0.79491079  0.17118603  0.06727552  1
  O2-  O283  1  0.79217928  0.17417082  0.39987577  1
  O2-  O284  1  0.78874763  0.17137908  0.73326027  1
  O2-  O285  1  0.79144917  0.66368361  0.06588000  1
  O2-  O286  1  0.79854519  0.66297451  0.39391307  1
  O2-  O287  1  0.79445723  0.66836564  0.73756510  1
