# generated using pymatgen
data_Ca2Al2SiO7
_symmetry_space_group_name_H-M   'P 1'
_cell_length_a   15.46212615
_cell_length_b   15.46389736
_cell_length_c   15.28719908
_cell_angle_alpha   89.98620243
_cell_angle_beta   90.00180260
_cell_angle_gamma   90.00610647
_symmetry_Int_Tables_number   1
_chemical_formula_structural   Ca2Al2SiO7
_chemical_formula_sum   'Ca48 Al48 Si24 O168'
_cell_volume   3655.24150534
_cell_formula_units_Z   24
loop_
 _symmetry_equiv_pos_site_id
 _symmetry_equiv_pos_as_xyz
  1  'x, y, z'
loop_
 _atom_type_symbol
 _atom_type_oxidation_number
  Ca2+  2.0
  Al0+  0.0
  Si0+  0.0
  O2-  -2.0
loop_
 _atom_site_type_symbol
 _atom_site_label
 _atom_site_symmetry_multiplicity
 _atom_site_fract_x
 _atom_site_fract_y
 _atom_site_fract_z
 _atom_site_occupancy
  Ca2+  Ca0  1  0.17250634  0.09078295  0.16661358  1
  Ca2+  Ca1  1  0.17168954  0.09238688  0.49821544  1
  Ca2+  Ca2  1  0.17189539  0.07845577  0.84614094  1
  Ca2+  Ca3  1  0.18387144  0.58390340  0.17214880  1
  Ca2+  Ca4  1  0.17763964  0.57680514  0.51284527  1
  Ca2+  Ca5  1  0.17580969  0.57891400  0.83475265  1
  Ca2+  Ca6  1  0.66332422  0.07321791  0.17685453  1
  Ca2+  Ca7  1  0.66651026  0.07963461  0.50868596  1
  Ca2+  Ca8  1  0.67074424  0.09126168  0.83317556  1
  Ca2+  Ca9  1  0.66195673  0.57446087  0.16918662  1
  Ca2+  Ca10  1  0.66634710  0.58018509  0.50257041  1
  Ca2+  Ca11  1  0.67021440  0.58431239  0.84168827  1
  Ca2+  Ca12  1  0.08132412  0.32382076  0.16517176  1
  Ca2+  Ca13  1  0.07574498  0.33544229  0.49099051  1
  Ca2+  Ca14  1  0.08808371  0.33010025  0.82894686  1
  Ca2+  Ca15  1  0.08391205  0.83573484  0.16093569  1
  Ca2+  Ca16  1  0.08362254  0.82484160  0.50007871  1
  Ca2+  Ca17  1  0.08665165  0.82669830  0.82914130  1
  Ca2+  Ca18  1  0.57507235  0.34306700  0.16322374  1
  Ca2+  Ca19  1  0.57318110  0.33597204  0.49566719  1
  Ca2+  Ca20  1  0.57238823  0.33573755  0.82978338  1
  Ca2+  Ca21  1  0.58693592  0.82149106  0.16386401  1
  Ca2+  Ca22  1  0.58763641  0.82147206  0.49466601  1
  Ca2+  Ca23  1  0.58180254  0.81987878  0.82842155  1
  Ca2+  Ca24  1  0.34401688  0.42327616  0.17001108  1
  Ca2+  Ca25  1  0.33461273  0.42157727  0.50392259  1
  Ca2+  Ca26  1  0.33744611  0.42019311  0.83355535  1
  Ca2+  Ca27  1  0.33104795  0.93044396  0.16986404  1
  Ca2+  Ca28  1  0.33610580  0.92506419  0.50056912  1
  Ca2+  Ca29  1  0.32772335  0.92375163  0.84352790  1
  Ca2+  Ca30  1  0.82072018  0.41528193  0.17048610  1
  Ca2+  Ca31  1  0.82616014  0.41432181  0.50518917  1
  Ca2+  Ca32  1  0.82408620  0.42951502  0.84047673  1
  Ca2+  Ca33  1  0.82621099  0.91761449  0.17217527  1
  Ca2+  Ca34  1  0.82764040  0.92348611  0.50295302  1
  Ca2+  Ca35  1  0.83361963  0.92263349  0.83305183  1
  Ca2+  Ca36  1  0.40847942  0.17714398  0.16147761  1
  Ca2+  Ca37  1  0.41579557  0.17955461  0.49416846  1
  Ca2+  Ca38  1  0.41720213  0.17797169  0.82796638  1
  Ca2+  Ca39  1  0.42697796  0.65616258  0.16243320  1
  Ca2+  Ca40  1  0.42542408  0.65715251  0.49563449  1
  Ca2+  Ca41  1  0.42489313  0.65567014  0.83005162  1
  Ca2+  Ca42  1  0.92502923  0.17089912  0.16378678  1
  Ca2+  Ca43  1  0.92166854  0.17195512  0.49074684  1
  Ca2+  Ca44  1  0.92170145  0.16579097  0.82871358  1
  Ca2+  Ca45  1  0.91525753  0.66766281  0.16053846  1
  Ca2+  Ca46  1  0.92422348  0.65517704  0.50114498  1
  Ca2+  Ca47  1  0.91908963  0.66207222  0.82519051  1
  Al0+  Al48  1  -0.00091451  -0.00065618  -0.00114265  1
  Al0+  Al49  1  0.00099864  -0.00267688  0.32993646  1
  Al0+  Al50  1  -0.00143103  -0.00073278  0.66881545  1
  Al0+  Al51  1  -0.00026200  0.50095698  0.00334899  1
  Al0+  Al52  1  0.00016565  0.50058380  0.32373764  1
  Al0+  Al53  1  0.00007068  0.49854234  0.66999944  1
  Al0+  Al54  1  0.50019180  -0.00003258  0.00307806  1
  Al0+  Al55  1  0.49816009  -0.00189668  0.34429299  1
  Al0+  Al56  1  0.50004404  -0.00193059  0.66637861  1
  Al0+  Al57  1  0.50083066  0.49904866  -0.00313957  1
  Al0+  Al58  1  0.50290046  0.49998704  0.33496085  1
  Al0+  Al59  1  0.49966417  0.49935706  0.66114497  1
  Al0+  Al60  1  0.24897671  0.25040607  -0.00684072  1
  Al0+  Al61  1  0.24945441  0.25129899  0.32971777  1
  Al0+  Al62  1  0.24988132  0.24959672  0.66619208  1
  Al0+  Al63  1  0.24986494  0.75070021  0.00835858  1
  Al0+  Al64  1  0.25241869  0.75237010  0.33760235  1
  Al0+  Al65  1  0.24991648  0.75029727  0.66529326  1
  Al0+  Al66  1  0.75075158  0.25124486  0.00400090  1
  Al0+  Al67  1  0.74930462  0.25005355  0.33365116  1
  Al0+  Al68  1  0.75114851  0.24816194  0.66977810  1
  Al0+  Al69  1  0.75178424  0.75175695  -0.00285436  1
  Al0+  Al70  1  0.75109503  0.74981145  0.33420617  1
  Al0+  Al71  1  0.74993194  0.75243538  0.66519499  1
  Al0+  Al72  1  0.57285630  0.17797333  0.65261055  1
  Al0+  Al73  1  0.32155657  0.07327126  0.01395726  1
  Al0+  Al74  1  0.92484402  0.32337388  0.31654727  1
  Al0+  Al75  1  0.43149518  0.32011342  0.31855968  1
  Al0+  Al76  1  0.42825205  0.31987498  0.64876356  1
  Al0+  Al77  1  0.82067070  0.07114710  0.68024671  1
  Al0+  Al78  1  0.07032180  0.67794863  0.65446481  1
  Al0+  Al79  1  0.43034198  0.31997528  0.98557645  1
  Al0+  Al80  1  0.17817569  0.42706950  0.68093459  1
  Al0+  Al81  1  0.06788460  0.18045836  0.98354215  1
  Al0+  Al82  1  0.57046925  0.68105122  0.31864204  1
  Al0+  Al83  1  0.32182048  0.57106566  0.34782523  1
  Al0+  Al84  1  0.81974937  0.57119853  0.67817106  1
  Al0+  Al85  1  0.57151266  0.68002091  0.65202146  1
  Al0+  Al86  1  0.68041136  0.42842577  0.34932382  1
  Al0+  Al87  1  0.56979156  0.68098324  0.98605945  1
  Al0+  Al88  1  0.67910437  0.42990299  0.01463599  1
  Al0+  Al89  1  0.67895301  0.92750746  0.34806549  1
  Al0+  Al90  1  0.31832482  0.07324325  0.34886900  1
  Al0+  Al91  1  0.17757779  0.92892548  0.01536958  1
  Al0+  Al92  1  0.07049006  0.17832800  0.31788834  1
  Al0+  Al93  1  0.32264851  0.57143182  0.68218058  1
  Al0+  Al94  1  0.82223769  0.57425930  0.01571507  1
  Al0+  Al95  1  0.32039800  0.56864691  0.01350270  1
  Si0+  Si96  1  0.93003079  0.32018308  0.65415297  1
  Si0+  Si97  1  0.92890221  0.82342462  0.64865489  1
  Si0+  Si98  1  0.17676706  0.43023967  0.34693982  1
  Si0+  Si99  1  0.82121416  0.07108383  0.01551000  1
  Si0+  Si100  1  0.57104879  0.17451490  0.31908110  1
  Si0+  Si101  1  0.67970497  0.92947407  0.01351067  1
  Si0+  Si102  1  0.32100599  0.07070173  0.68168041  1
  Si0+  Si103  1  0.42613524  0.82303640  0.64964873  1
  Si0+  Si104  1  0.42710114  0.82375988  0.98536161  1
  Si0+  Si105  1  0.07313201  0.67914827  0.98636459  1
  Si0+  Si106  1  0.07005581  0.17635207  0.65227744  1
  Si0+  Si107  1  0.67780706  0.42747089  0.68286774  1
  Si0+  Si108  1  0.92584169  0.32311789  0.98076380  1
  Si0+  Si109  1  0.92909641  0.82070568  0.98324342  1
  Si0+  Si110  1  0.57450392  0.17398494  0.98609606  1
  Si0+  Si111  1  0.17597149  0.92751298  0.35337763  1
  Si0+  Si112  1  0.82372229  0.57226534  0.34930245  1
  Si0+  Si113  1  0.07431109  0.67950553  0.31761351  1
  Si0+  Si114  1  0.17850278  0.92948862  0.68062234  1
  Si0+  Si115  1  0.67715363  0.92794828  0.68563949  1
  Si0+  Si116  1  0.82243150  0.07040599  0.34793836  1
  Si0+  Si117  1  0.17629108  0.42659514  0.01768434  1
  Si0+  Si118  1  0.42688460  0.82468778  0.31595697  1
  Si0+  Si119  1  0.93069711  0.81915414  0.31824085  1
  O2-  O120  1  0.24872895  0.00181828  0.06418475  1
  O2-  O121  1  0.24256355  -0.00126890  0.39637279  1
  O2-  O122  1  0.24982171  -0.00049178  0.72314963  1
  O2-  O123  1  0.24552953  0.49464777  0.06172674  1
  O2-  O124  1  0.24331862  0.49969528  0.39262686  1
  O2-  O125  1  0.25103786  0.49829470  0.73098610  1
  O2-  O126  1  0.74520355  0.00531118  0.05690588  1
  O2-  O127  1  0.74952584  0.00703330  0.39326756  1
  O2-  O128  1  0.74278212  0.00028663  0.72903481  1
  O2-  O129  1  0.75155462  0.50169010  0.06523668  1
  O2-  O130  1  0.75957506  0.49996598  0.39380708  1
  O2-  O131  1  0.74177544  0.50126695  0.72621142  1
  O2-  O132  1  -0.00315639  0.24957685  0.26906763  1
  O2-  O133  1  0.00135613  0.24956744  0.61086333  1
  O2-  O134  1  -0.00448892  0.25637225  0.93460285  1
  O2-  O135  1  0.00215512  0.74936636  0.27499949  1
  O2-  O136  1  -0.00654977  0.75028986  0.60538861  1
  O2-  O137  1  -0.00028551  0.74815957  0.94357533  1
  O2-  O138  1  0.50455999  0.24301132  0.27209871  1
  O2-  O139  1  0.50175028  0.24831353  0.59987562  1
  O2-  O140  1  0.50477895  0.24208419  0.94330735  1
  O2-  O141  1  0.49416028  0.75474236  0.27181349  1
  O2-  O142  1  0.49351797  0.75249296  0.60652226  1
  O2-  O143  1  0.49288092  0.75367665  0.93918619  1
  O2-  O144  1  0.06516785  0.18000924  0.09624542  1
  O2-  O145  1  0.06802703  0.17889692  0.43228047  1
  O2-  O146  1  0.06772420  0.17389522  0.75727364  1
  O2-  O147  1  0.07259580  0.68231510  0.09172037  1
  O2-  O148  1  0.07248346  0.67939232  0.42272414  1
  O2-  O149  1  0.07031893  0.68178641  0.76763253  1
  O2-  O150  1  0.57559734  0.16967194  0.09146088  1
  O2-  O151  1  0.56990306  0.17533748  0.42446359  1
  O2-  O152  1  0.57115563  0.17950581  0.76659282  1
  O2-  O153  1  0.57060857  0.68284806  0.09906433  1
  O2-  O154  1  0.57126217  0.68256857  0.43176157  1
  O2-  O155  1  0.57305051  0.68253203  0.76528808  1
  O2-  O156  1  0.17655203  0.43253857  0.24133171  1
  O2-  O157  1  0.17446237  0.42866886  0.56720537  1
  O2-  O158  1  0.17461579  0.42916990  0.91217585  1
  O2-  O159  1  0.17554189  0.92466860  0.24827536  1
  O2-  O160  1  0.17678761  0.93053577  0.57563049  1
  O2-  O161  1  0.17823454  0.92857573  0.90111446  1
  O2-  O162  1  0.67849281  0.43143000  0.23661836  1
  O2-  O163  1  0.68143421  0.42598225  0.57720443  1
  O2-  O164  1  0.67997142  0.43059665  0.90080073  1
  O2-  O165  1  0.68286129  0.92742076  0.23424046  1
  O2-  O166  1  0.68031650  0.92714810  0.58012955  1
  O2-  O167  1  0.68248473  0.92829964  0.90867071  1
  O2-  O168  1  0.43169216  0.32036724  0.09875528  1
  O2-  O169  1  0.43087651  0.31980861  0.43119854  1
  O2-  O170  1  0.42810143  0.31809142  0.76247978  1
  O2-  O171  1  0.43086708  0.82650681  0.09059919  1
  O2-  O172  1  0.42683052  0.82500155  0.42162430  1
  O2-  O173  1  0.42694165  0.82712061  0.75529292  1
  O2-  O174  1  0.92514397  0.31910384  0.08603608  1
  O2-  O175  1  0.92697789  0.32316882  0.43103722  1
  O2-  O176  1  0.93035922  0.31837733  0.75908360  1
  O2-  O177  1  0.92726901  0.82204079  0.08864074  1
  O2-  O178  1  0.93176375  0.82081796  0.42302271  1
  O2-  O179  1  0.93167365  0.82653808  0.75431708  1
  O2-  O180  1  0.31824339  0.07186124  0.23618428  1
  O2-  O181  1  0.31864343  0.07048597  0.57657262  1
  O2-  O182  1  0.32044409  0.06970705  0.89981374  1
  O2-  O183  1  0.32115187  0.56990531  0.23444461  1
  O2-  O184  1  0.32021205  0.57117654  0.56853433  1
  O2-  O185  1  0.31920695  0.56958859  0.90080988  1
  O2-  O186  1  0.82255638  0.06591130  0.24196565  1
  O2-  O187  1  0.82443770  0.06746167  0.56735424  1
  O2-  O188  1  0.82239580  0.06889227  0.91034342  1
  O2-  O189  1  0.82175705  0.57566798  0.24398190  1
  O2-  O190  1  0.82206000  0.56634189  0.56510746  1
  O2-  O191  1  0.82081318  0.57459716  0.90182904  1
  O2-  O192  1  0.04416469  0.07857057  0.26588165  1
  O2-  O193  1  0.03976880  0.08553993  0.60433383  1
  O2-  O194  1  0.03486757  0.08316841  0.93079373  1
  O2-  O195  1  0.04951303  0.58885941  0.26707505  1
  O2-  O196  1  0.03894210  0.58155247  0.60008272  1
  O2-  O197  1  0.04803883  0.58603974  0.94041531  1
  O2-  O198  1  0.54529401  0.07917805  0.27630838  1
  O2-  O199  1  0.54785788  0.07702537  0.60291875  1
  O2-  O200  1  0.55177894  0.07993313  0.93841502  1
  O2-  O201  1  0.53871576  0.58471936  0.26596393  1
  O2-  O202  1  0.54459831  0.58293656  0.59796918  1
  O2-  O203  1  0.54016609  0.58491130  0.93179829  1
  O2-  O204  1  0.16683257  0.20975474  0.26347175  1
  O2-  O205  1  0.16282436  0.20116349  0.60648824  1
  O2-  O206  1  0.16449393  0.20804540  0.92816042  1
  O2-  O207  1  0.16598653  0.71063775  0.27187733  1
  O2-  O208  1  0.16503138  0.71247149  0.59843827  1
  O2-  O209  1  0.16415221  0.71038933  0.93934364  1
  O2-  O210  1  0.66654411  0.19511331  0.27485610  1
  O2-  O211  1  0.67384779  0.20155861  0.60208668  1
  O2-  O212  1  0.66890821  0.20063349  0.94127766  1
  O2-  O213  1  0.66739922  0.71437986  0.26622989  1
  O2-  O214  1  0.66729261  0.71436318  0.59744009  1
  O2-  O215  1  0.66585116  0.71599055  0.93244084  1
  O2-  O216  1  0.08269453  0.45092275  0.06429060  1
  O2-  O217  1  0.08146759  0.45492049  0.39082583  1
  O2-  O218  1  0.08102801  0.45548146  0.73657400  1
  O2-  O219  1  0.07789890  0.95598680  0.06676174  1
  O2-  O220  1  0.08085845  0.94986542  0.39836132  1
  O2-  O221  1  0.08716278  0.95710386  0.72899215  1
  O2-  O222  1  0.58207288  0.46148078  0.06738851  1
  O2-  O223  1  0.58695115  0.46485612  0.40489678  1
  O2-  O224  1  0.58247749  0.44976995  0.72488656  1
  O2-  O225  1  0.58708101  0.95073274  0.06199393  1
  O2-  O226  1  0.58251832  0.95145592  0.40457350  1
  O2-  O227  1  0.58199148  0.94800345  0.73071117  1
  O2-  O228  1  0.20148490  0.33211742  0.06034686  1
  O2-  O229  1  0.20142988  0.33646444  0.39185771  1
  O2-  O230  1  0.20518728  0.32779421  0.73393692  1
  O2-  O231  1  0.20435338  0.83220986  0.07195303  1
  O2-  O232  1  0.20468307  0.83561146  0.40185786  1
  O2-  O233  1  0.20533069  0.83770093  0.72821116  1
  O2-  O234  1  0.70589950  0.33098845  0.06896815  1
  O2-  O235  1  0.70678757  0.32989309  0.40281408  1
  O2-  O236  1  0.70765914  0.33593521  0.73015041  1
  O2-  O237  1  0.71488725  0.84085038  0.06223099  1
  O2-  O238  1  0.71756631  0.83409920  0.40323384  1
  O2-  O239  1  0.70863170  0.83688240  0.73337628  1
  O2-  O240  1  0.46642995  0.41586466  0.26597491  1
  O2-  O241  1  0.45577620  0.41805277  0.59560707  1
  O2-  O242  1  0.46427566  0.41425639  0.92928351  1
  O2-  O243  1  0.45458481  0.91860245  0.27177400  1
  O2-  O244  1  0.45345851  0.91563118  0.60171538  1
  O2-  O245  1  0.45449986  0.91667113  0.93736995  1
  O2-  O246  1  0.95299829  0.42054395  0.26046700  1
  O2-  O247  1  0.95700880  0.41115950  0.60545238  1
  O2-  O248  1  0.94995549  0.41897323  0.93856780  1
  O2-  O249  1  0.95666417  0.91015624  0.26756162  1
  O2-  O250  1  0.96085685  0.91447503  0.60027273  1
  O2-  O251  1  0.95753410  0.91166621  0.93433074  1
  O2-  O252  1  0.33393378  0.29250388  0.26541388  1
  O2-  O253  1  0.32947669  0.28924001  0.59671537  1
  O2-  O254  1  0.33391036  0.29180708  0.92991838  1
  O2-  O255  1  0.33175196  0.80241303  0.27143900  1
  O2-  O256  1  0.33199914  0.80161306  0.60295827  1
  O2-  O257  1  0.33138402  0.80029037  0.94270203  1
  O2-  O258  1  0.82687325  0.29327927  0.26336553  1
  O2-  O259  1  0.83867418  0.29105933  0.60683391  1
  O2-  O260  1  0.83257076  0.29520348  0.93484891  1
  O2-  O261  1  0.83972824  0.79044883  0.26956342  1
  O2-  O262  1  0.83389081  0.80377351  0.60420216  1
  O2-  O263  1  0.83850481  0.79494620  0.93243946  1
  O2-  O264  1  0.42005615  0.04559836  0.06772154  1
  O2-  O265  1  0.41293060  0.04111935  0.40628699  1
  O2-  O266  1  0.41295746  0.04270809  0.72818969  1
  O2-  O267  1  0.41681224  0.53622477  0.06578066  1
  O2-  O268  1  0.41692357  0.53689097  0.40072367  1
  O2-  O269  1  0.42199043  0.54202430  0.73243107  1
  O2-  O270  1  0.90973295  0.03587566  0.06381931  1
  O2-  O271  1  0.91440810  0.03825400  0.39392428  1
  O2-  O272  1  0.91518363  0.03487035  0.73688709  1
  O2-  O273  1  0.92211642  0.55016681  0.06798614  1
  O2-  O274  1  0.92069469  0.55040979  0.39038660  1
  O2-  O275  1  0.91465906  0.53863679  0.73397946  1
  O2-  O276  1  0.28962125  0.17145253  0.06445884  1
  O2-  O277  1  0.28500614  0.16944846  0.40270462  1
  O2-  O278  1  0.29252933  0.16174873  0.72884840  1
  O2-  O279  1  0.29123663  0.66487437  0.06954980  1
  O2-  O280  1  0.29546072  0.66959698  0.40023865  1
  O2-  O281  1  0.29395323  0.67117815  0.73282855  1
  O2-  O282  1  0.80072241  0.16433012  0.06215958  1
  O2-  O283  1  0.80353493  0.16574901  0.39179358  1
  O2-  O284  1  0.79430825  0.16719922  0.73822264  1
  O2-  O285  1  0.79569186  0.67437956  0.06627987  1
  O2-  O286  1  0.79635218  0.66445627  0.39701147  1
  O2-  O287  1  0.79609444  0.67128655  0.72888743  1
