# generated using pymatgen
data_Ca2Al2SiO7
_symmetry_space_group_name_H-M   'P 1'
_cell_length_a   15.47258200
_cell_length_b   15.47116205
_cell_length_c   15.29290468
_cell_angle_alpha   89.99913084
_cell_angle_beta   90.01224963
_cell_angle_gamma   90.01659045
_symmetry_Int_Tables_number   1
_chemical_formula_structural   Ca2Al2SiO7
_chemical_formula_sum   'Ca48 Al48 Si24 O168'
_cell_volume   3660.79729196
_cell_formula_units_Z   24
loop_
 _symmetry_equiv_pos_site_id
 _symmetry_equiv_pos_as_xyz
  1  'x, y, z'
loop_
 _atom_type_symbol
 _atom_type_oxidation_number
  Ca2+  2.0
  Al0+  0.0
  Si0+  0.0
  O2-  -2.0
loop_
 _atom_site_type_symbol
 _atom_site_label
 _atom_site_symmetry_multiplicity
 _atom_site_fract_x
 _atom_site_fract_y
 _atom_site_fract_z
 _atom_site_occupancy
  Ca2+  Ca0  1  0.16998358  0.06951005  0.17533512  1
  Ca2+  Ca1  1  0.16776133  0.07344743  0.50478531  1
  Ca2+  Ca2  1  0.15695826  0.06816745  0.83184296  1
  Ca2+  Ca3  1  0.16529728  0.58738628  0.16705261  1
  Ca2+  Ca4  1  0.16087150  0.57882182  0.51170934  1
  Ca2+  Ca5  1  0.15661238  0.58151263  0.83508132  1
  Ca2+  Ca6  1  0.67076132  0.06770406  0.17433181  1
  Ca2+  Ca7  1  0.67739890  0.08262025  0.50498391  1
  Ca2+  Ca8  1  0.67001358  0.07968507  0.83416063  1
  Ca2+  Ca9  1  0.67184552  0.58372829  0.17568911  1
  Ca2+  Ca10  1  0.67731652  0.58680160  0.50033822  1
  Ca2+  Ca11  1  0.68126925  0.58343020  0.84291671  1
  Ca2+  Ca12  1  0.07945297  0.32860910  0.16202037  1
  Ca2+  Ca13  1  0.07740960  0.33204771  0.50437645  1
  Ca2+  Ca14  1  0.07716081  0.32625395  0.81867381  1
  Ca2+  Ca15  1  0.07752102  0.83559081  0.16321526  1
  Ca2+  Ca16  1  0.07189833  0.84174219  0.49945608  1
  Ca2+  Ca17  1  0.08190014  0.82472010  0.82388256  1
  Ca2+  Ca18  1  0.59034999  0.33674083  0.16362766  1
  Ca2+  Ca19  1  0.59149326  0.32743423  0.49613478  1
  Ca2+  Ca20  1  0.58952184  0.32766243  0.82724557  1
  Ca2+  Ca21  1  0.59522775  0.82388885  0.16441141  1
  Ca2+  Ca22  1  0.58001655  0.83278372  0.49247763  1
  Ca2+  Ca23  1  0.58056356  0.83393620  0.82991606  1
  Ca2+  Ca24  1  0.33203903  0.41986510  0.17147256  1
  Ca2+  Ca25  1  0.32567235  0.42030383  0.50596339  1
  Ca2+  Ca26  1  0.32537071  0.41557523  0.83144275  1
  Ca2+  Ca27  1  0.31977388  0.91533860  0.17236212  1
  Ca2+  Ca28  1  0.32310983  0.91237304  0.50604605  1
  Ca2+  Ca29  1  0.32231222  0.90699151  0.83367802  1
  Ca2+  Ca30  1  0.82322336  0.43167291  0.17026531  1
  Ca2+  Ca31  1  0.83712818  0.42949207  0.50614294  1
  Ca2+  Ca32  1  0.83667957  0.42737272  0.83574900  1
  Ca2+  Ca33  1  0.82570730  0.91493055  0.17594680  1
  Ca2+  Ca34  1  0.83412343  0.91881530  0.50261369  1
  Ca2+  Ca35  1  0.83875261  0.92296318  0.83270906  1
  Ca2+  Ca36  1  0.41391472  0.16556883  0.16585485  1
  Ca2+  Ca37  1  0.42112069  0.16307470  0.49668072  1
  Ca2+  Ca38  1  0.42599062  0.16681842  0.82451312  1
  Ca2+  Ca39  1  0.43271987  0.66640372  0.16278436  1
  Ca2+  Ca40  1  0.42140675  0.67465691  0.49779684  1
  Ca2+  Ca41  1  0.42731945  0.67159372  0.82865737  1
  Ca2+  Ca42  1  0.90910178  0.16657704  0.16761815  1
  Ca2+  Ca43  1  0.91559075  0.16391201  0.49864847  1
  Ca2+  Ca44  1  0.91826738  0.17422791  0.81771344  1
  Ca2+  Ca45  1  0.91506121  0.66954327  0.16461711  1
  Ca2+  Ca46  1  0.91435401  0.67485787  0.49842938  1
  Ca2+  Ca47  1  0.92175980  0.66797448  0.82559671  1
  Al0+  Al48  1  0.00185628  0.00146701  0.00528651  1
  Al0+  Al49  1  0.00084543  -0.00002889  0.33264880  1
  Al0+  Al50  1  0.00042461  -0.00033052  0.66910440  1
  Al0+  Al51  1  -0.00063028  0.49901391  0.00295754  1
  Al0+  Al52  1  -0.00093795  0.49828015  0.33340490  1
  Al0+  Al53  1  0.00015024  0.49788854  0.66911465  1
  Al0+  Al54  1  0.50011849  0.00216427  0.00303043  1
  Al0+  Al55  1  0.49786781  0.00089577  0.33483910  1
  Al0+  Al56  1  0.49946316  0.00039144  0.65758979  1
  Al0+  Al57  1  0.49767651  0.49951439  -0.00438840  1
  Al0+  Al58  1  0.49797179  0.49844931  0.33356168  1
  Al0+  Al59  1  0.49949195  0.49884438  0.66714507  1
  Al0+  Al60  1  0.25027166  0.25061227  -0.00181971  1
  Al0+  Al61  1  0.25015344  0.24997649  0.33437554  1
  Al0+  Al62  1  0.25123788  0.25032274  0.66750909  1
  Al0+  Al63  1  0.24921749  0.74915382  0.00225043  1
  Al0+  Al64  1  0.25005974  0.74827604  0.33657408  1
  Al0+  Al65  1  0.25360182  0.74803426  0.66428658  1
  Al0+  Al66  1  0.74972197  0.25272167  0.00111802  1
  Al0+  Al67  1  0.74931170  0.25008137  0.33384730  1
  Al0+  Al68  1  0.74998606  0.24995506  0.66156459  1
  Al0+  Al69  1  0.75212193  0.75244149  0.00016308  1
  Al0+  Al70  1  0.75117295  0.74964604  0.33333500  1
  Al0+  Al71  1  0.75031202  0.74894849  0.66944980  1
  Al0+  Al72  1  0.82257677  0.57231384  0.01597616  1
  Al0+  Al73  1  0.31985863  0.07296758  0.34881704  1
  Al0+  Al74  1  0.67631125  0.43000994  0.34926745  1
  Al0+  Al75  1  0.82051257  0.57164656  0.68212874  1
  Al0+  Al76  1  0.17950660  0.92654053  0.35058087  1
  Al0+  Al77  1  0.56884207  0.68053070  0.32137219  1
  Al0+  Al78  1  0.17960951  0.92777584  0.01396246  1
  Al0+  Al79  1  0.82060725  0.07087436  0.34789826  1
  Al0+  Al80  1  0.82023658  0.07071729  0.68042252  1
  Al0+  Al81  1  0.07106639  0.67809704  0.65316525  1
  Al0+  Al82  1  0.57109882  0.17992206  0.65147676  1
  Al0+  Al83  1  0.67800997  0.93089104  0.01208402  1
  Al0+  Al84  1  0.43049677  0.82027350  0.65338920  1
  Al0+  Al85  1  0.07012285  0.67988489  0.98754153  1
  Al0+  Al86  1  0.82216431  0.57092681  0.35026235  1
  Al0+  Al87  1  0.93119980  0.82123628  0.31880173  1
  Al0+  Al88  1  0.18026754  0.92797559  0.68149164  1
  Al0+  Al89  1  0.67861048  0.92641183  0.34905980  1
  Al0+  Al90  1  0.07246904  0.17698500  0.65119917  1
  Al0+  Al91  1  0.67680767  0.42980859  0.01312093  1
  Al0+  Al92  1  0.57361663  0.67888160  0.98574760  1
  Al0+  Al93  1  0.92852498  0.32082205  0.65053384  1
  Al0+  Al94  1  0.92816030  0.82128737  0.65284296  1
  Al0+  Al95  1  0.17999135  0.42962108  0.68082005  1
  Si0+  Si96  1  0.42828854  0.31916425  0.31702050  1
  Si0+  Si97  1  0.32387076  0.07133466  0.68381750  1
  Si0+  Si98  1  0.57204727  0.17841429  0.31515502  1
  Si0+  Si99  1  0.32190894  0.07371120  0.01482930  1
  Si0+  Si100  1  0.56990405  0.18086262  0.98626797  1
  Si0+  Si101  1  0.67570611  0.92849944  0.68227392  1
  Si0+  Si102  1  0.07295436  0.67457569  0.31728409  1
  Si0+  Si103  1  0.82217469  0.07367569  0.01490468  1
  Si0+  Si104  1  0.67715236  0.42810424  0.68242174  1
  Si0+  Si105  1  0.07289054  0.17924142  0.98548228  1
  Si0+  Si106  1  0.32443421  0.57185946  0.68546601  1
  Si0+  Si107  1  0.57280149  0.67624565  0.65098780  1
  Si0+  Si108  1  0.92772555  0.32235735  0.31509453  1
  Si0+  Si109  1  0.42867753  0.82203701  0.98594465  1
  Si0+  Si110  1  0.92856369  0.82562353  0.98368661  1
  Si0+  Si111  1  0.42534261  0.82322856  0.31507915  1
  Si0+  Si112  1  0.17961402  0.42765523  0.01572815  1
  Si0+  Si113  1  0.92989269  0.31867214  0.98591558  1
  Si0+  Si114  1  0.17875594  0.42899433  0.34671634  1
  Si0+  Si115  1  0.42528388  0.32199935  0.98277151  1
  Si0+  Si116  1  0.42812529  0.32276046  0.64860705  1
  Si0+  Si117  1  0.32062709  0.57054519  0.01515061  1
  Si0+  Si118  1  0.07124981  0.18128619  0.31687122  1
  Si0+  Si119  1  0.32091158  0.56956423  0.34748599  1
  O2-  O120  1  0.25415637  0.00413818  0.05810532  1
  O2-  O121  1  0.25426641  -0.00358401  0.39920635  1
  O2-  O122  1  0.25460110  0.00408756  0.72909117  1
  O2-  O123  1  0.24925120  0.49950216  0.05829234  1
  O2-  O124  1  0.24323737  0.50560048  0.38832145  1
  O2-  O125  1  0.25229528  0.50620104  0.72920438  1
  O2-  O126  1  0.75630370  0.00242758  0.05788128  1
  O2-  O127  1  0.74884359  -0.00028831  0.39884246  1
  O2-  O128  1  0.74666824  -0.00525604  0.72735702  1
  O2-  O129  1  0.74240630  0.50715540  0.06338903  1
  O2-  O130  1  0.74946467  0.49920102  0.39991766  1
  O2-  O131  1  0.74350233  0.49788104  0.72729803  1
  O2-  O132  1  -0.00249346  0.24920703  0.27285672  1
  O2-  O133  1  -0.00186233  0.24617560  0.60044019  1
  O2-  O134  1  -0.00155067  0.24582492  0.94340570  1
  O2-  O135  1  0.00673583  0.74549745  0.27360799  1
  O2-  O136  1  0.00153174  0.75077112  0.60193318  1
  O2-  O137  1  -0.00407414  0.75469430  0.94142436  1
  O2-  O138  1  0.50001238  0.24971290  0.27322387  1
  O2-  O139  1  0.49737825  0.25573982  0.60417968  1
  O2-  O140  1  0.49992359  0.25337390  0.94345327  1
  O2-  O141  1  0.49783498  0.75832152  0.27148190  1
  O2-  O142  1  0.50690494  0.74743811  0.60710438  1
  O2-  O143  1  0.50067394  0.75694586  0.94119413  1
  O2-  O144  1  0.07589580  0.18255126  0.09080206  1
  O2-  O145  1  0.07363862  0.18482920  0.42114511  1
  O2-  O146  1  0.07049685  0.17918863  0.76581839  1
  O2-  O147  1  0.07157808  0.68027748  0.10075190  1
  O2-  O148  1  0.07299606  0.66995875  0.42200171  1
  O2-  O149  1  0.06903577  0.67923039  0.76722737  1
  O2-  O150  1  0.56800049  0.18108152  0.09111963  1
  O2-  O151  1  0.57180508  0.18045267  0.41980914  1
  O2-  O152  1  0.56939034  0.18061889  0.76567182  1
  O2-  O153  1  0.56971648  0.67724286  0.09882541  1
  O2-  O154  1  0.56383952  0.67967435  0.43423642  1
  O2-  O155  1  0.57017903  0.67577381  0.75685527  1
  O2-  O156  1  0.18119568  0.42677558  0.24089524  1
  O2-  O157  1  0.18325738  0.43006408  0.56731361  1
  O2-  O158  1  0.18127480  0.42476939  0.91125858  1
  O2-  O159  1  0.18029790  0.92823617  0.23614976  1
  O2-  O160  1  0.18202537  0.92901394  0.56921311  1
  O2-  O161  1  0.18005860  0.92774359  0.90114004  1
  O2-  O162  1  0.67675189  0.43289249  0.23540929  1
  O2-  O163  1  0.67519141  0.43054948  0.57721848  1
  O2-  O164  1  0.68100953  0.42476365  0.89998175  1
  O2-  O165  1  0.68089234  0.92823010  0.23489639  1
  O2-  O166  1  0.67460537  0.93019660  0.57711701  1
  O2-  O167  1  0.67223964  0.93623019  0.89932727  1
  O2-  O168  1  0.41864305  0.32043798  0.08768353  1
  O2-  O169  1  0.42531662  0.31905425  0.42150840  1
  O2-  O170  1  0.42828949  0.32203986  0.75463658  1
  O2-  O171  1  0.42645928  0.81922052  0.09129602  1
  O2-  O172  1  0.42334730  0.81920519  0.42044313  1
  O2-  O173  1  0.43163125  0.81926579  0.76723375  1
  O2-  O174  1  0.93209628  0.31685747  0.09133362  1
  O2-  O175  1  0.93093271  0.32539537  0.41937708  1
  O2-  O176  1  0.93052585  0.31999615  0.76507945  1
  O2-  O177  1  0.93046774  0.82806358  0.08928602  1
  O2-  O178  1  0.93166430  0.82220377  0.43122361  1
  O2-  O179  1  0.92929426  0.82140249  0.76688153  1
  O2-  O180  1  0.31464474  0.07643431  0.23458193  1
  O2-  O181  1  0.32374001  0.07058250  0.57862825  1
  O2-  O182  1  0.32375640  0.07633433  0.90974107  1
  O2-  O183  1  0.32224988  0.56625025  0.24191628  1
  O2-  O184  1  0.32751008  0.56822982  0.57976844  1
  O2-  O185  1  0.32108942  0.56906552  0.91050862  1
  O2-  O186  1  0.81702606  0.07180564  0.23341850  1
  O2-  O187  1  0.81842613  0.07158602  0.56817449  1
  O2-  O188  1  0.82145409  0.07584865  0.90944397  1
  O2-  O189  1  0.82324958  0.56944559  0.23653713  1
  O2-  O190  1  0.81945691  0.57203194  0.56951874  1
  O2-  O191  1  0.82559123  0.56741909  0.90257424  1
  O2-  O192  1  0.04590517  0.08918947  0.26885168  1
  O2-  O193  1  0.04658280  0.07833020  0.60031211  1
  O2-  O194  1  0.04848861  0.08541599  0.94131098  1
  O2-  O195  1  0.04714491  0.58096493  0.26908823  1
  O2-  O196  1  0.04360217  0.57902811  0.60278965  1
  O2-  O197  1  0.04222529  0.58030698  0.93702269  1
  O2-  O198  1  0.54330594  0.08653264  0.26745847  1
  O2-  O199  1  0.53972943  0.08565350  0.59481939  1
  O2-  O200  1  0.54030386  0.09011116  0.93758424  1
  O2-  O201  1  0.53179264  0.58466531  0.26755958  1
  O2-  O202  1  0.54355906  0.58352948  0.60533227  1
  O2-  O203  1  0.53806935  0.58370388  0.93104017  1
  O2-  O204  1  0.16118490  0.21510831  0.26786175  1
  O2-  O205  1  0.17082160  0.20865981  0.60048781  1
  O2-  O206  1  0.16297083  0.21027321  0.93703523  1
  O2-  O207  1  0.16888113  0.69711932  0.27307939  1
  O2-  O208  1  0.17276406  0.69782568  0.60395358  1
  O2-  O209  1  0.16844487  0.70742134  0.93469365  1
  O2-  O210  1  0.66304245  0.20695968  0.26617557  1
  O2-  O211  1  0.66562361  0.21100887  0.59534977  1
  O2-  O212  1  0.66210466  0.20845332  0.93892219  1
  O2-  O213  1  0.66604625  0.70812940  0.26723745  1
  O2-  O214  1  0.66692607  0.69929601  0.60705421  1
  O2-  O215  1  0.67083210  0.70801307  0.93275427  1
  O2-  O216  1  0.08830758  0.45334949  0.06460991  1
  O2-  O217  1  0.08567148  0.45045092  0.39262513  1
  O2-  O218  1  0.08422869  0.45700466  0.73723778  1
  O2-  O219  1  0.08465160  0.96082878  0.07038796  1
  O2-  O220  1  0.08277866  0.96092080  0.40037870  1
  O2-  O221  1  0.08455424  0.95868634  0.73712812  1
  O2-  O222  1  0.57354061  0.44766994  0.06073011  1
  O2-  O223  1  0.57635720  0.45420433  0.40078490  1
  O2-  O224  1  0.58177313  0.44921635  0.72826853  1
  O2-  O225  1  0.58311834  0.96386938  0.06899962  1
  O2-  O226  1  0.57739237  0.95121982  0.39644194  1
  O2-  O227  1  0.58265304  0.95887810  0.72720352  1
  O2-  O228  1  0.21045433  0.33673519  0.06442168  1
  O2-  O229  1  0.21363155  0.34075911  0.39481322  1
  O2-  O230  1  0.21444256  0.33408254  0.73654159  1
  O2-  O231  1  0.21184446  0.83260413  0.06975983  1
  O2-  O232  1  0.20451656  0.82683500  0.40190918  1
  O2-  O233  1  0.21545535  0.83116596  0.73354610  1
  O2-  O234  1  0.70967031  0.33302034  0.06854800  1
  O2-  O235  1  0.70229629  0.32977512  0.39711871  1
  O2-  O236  1  0.70319021  0.33403524  0.72648497  1
  O2-  O237  1  0.70698879  0.83407946  0.06523991  1
  O2-  O238  1  0.70595839  0.82897754  0.40163914  1
  O2-  O239  1  0.69694780  0.83371788  0.72743451  1
  O2-  O240  1  0.45415936  0.41108033  0.26806714  1
  O2-  O241  1  0.45079832  0.41734085  0.60303756  1
  O2-  O242  1  0.44724331  0.41416963  0.93423450  1
  O2-  O243  1  0.44383399  0.91943689  0.27150944  1
  O2-  O244  1  0.45655020  0.91582667  0.59627821  1
  O2-  O245  1  0.45094433  0.91758789  0.94210228  1
  O2-  O246  1  0.95985246  0.41202195  0.26505044  1
  O2-  O247  1  0.96395178  0.41638278  0.59754819  1
  O2-  O248  1  0.96115978  0.40961945  0.94002739  1
  O2-  O249  1  0.96219752  0.91772734  0.26265394  1
  O2-  O250  1  0.95643599  0.91973780  0.60137006  1
  O2-  O251  1  0.95655780  0.91999852  0.93922899  1
  O2-  O252  1  0.33692153  0.29028799  0.26700594  1
  O2-  O253  1  0.33513604  0.29677854  0.60239075  1
  O2-  O254  1  0.33549613  0.29058090  0.93217599  1
  O2-  O255  1  0.33303400  0.79154490  0.26850424  1
  O2-  O256  1  0.33704714  0.78557157  0.59624801  1
  O2-  O257  1  0.33680318  0.79104778  0.93925575  1
  O2-  O258  1  0.83598757  0.29388410  0.26753075  1
  O2-  O259  1  0.83006772  0.29748490  0.59752117  1
  O2-  O260  1  0.83754648  0.29364829  0.93848111  1
  O2-  O261  1  0.83472833  0.78980763  0.26454648  1
  O2-  O262  1  0.82881940  0.79324082  0.60176759  1
  O2-  O263  1  0.83426673  0.80512693  0.93789707  1
  O2-  O264  1  0.41508575  0.05081839  0.06288775  1
  O2-  O265  1  0.42121962  0.05388755  0.39740564  1
  O2-  O266  1  0.41795682  0.04423473  0.72867569  1
  O2-  O267  1  0.41116225  0.53977933  0.06350102  1
  O2-  O268  1  0.40765851  0.53351638  0.39769010  1
  O2-  O269  1  0.41602747  0.54097136  0.73413326  1
  O2-  O270  1  0.91690929  0.05348611  0.06126310  1
  O2-  O271  1  0.92049577  0.04634587  0.39680355  1
  O2-  O272  1  0.91659193  0.04235795  0.73654468  1
  O2-  O273  1  0.91756903  0.53525546  0.07150019  1
  O2-  O274  1  0.92051662  0.53927463  0.40155851  1
  O2-  O275  1  0.91556582  0.53640386  0.73590741  1
  O2-  O276  1  0.29455211  0.16722837  0.06148444  1
  O2-  O277  1  0.28866722  0.17021890  0.40250623  1
  O2-  O278  1  0.30243869  0.16648557  0.72868006  1
  O2-  O279  1  0.29288448  0.66078886  0.06494726  1
  O2-  O280  1  0.30107137  0.66267882  0.39457689  1
  O2-  O281  1  0.30404576  0.66616680  0.73075806  1
  O2-  O282  1  0.79393173  0.16618905  0.06163421  1
  O2-  O283  1  0.79358941  0.16998019  0.39870534  1
  O2-  O284  1  0.78731366  0.16805009  0.73324376  1
  O2-  O285  1  0.80231259  0.67380518  0.06419710  1
  O2-  O286  1  0.79299039  0.66860667  0.40149342  1
  O2-  O287  1  0.79074058  0.66779821  0.73841124  1
