# generated using pymatgen
data_Ca2Al2SiO7
_symmetry_space_group_name_H-M   'P 1'
_cell_length_a   15.46210362
_cell_length_b   15.46371321
_cell_length_c   15.28687656
_cell_angle_alpha   89.98729020
_cell_angle_beta   89.99382568
_cell_angle_gamma   90.01609067
_symmetry_Int_Tables_number   1
_chemical_formula_structural   Ca2Al2SiO7
_chemical_formula_sum   'Ca48 Al48 Si24 O168'
_cell_volume   3655.11541213
_cell_formula_units_Z   24
loop_
 _symmetry_equiv_pos_site_id
 _symmetry_equiv_pos_as_xyz
  1  'x, y, z'
loop_
 _atom_type_symbol
 _atom_type_oxidation_number
  Ca2+  2.0
  Al0+  0.0
  Si0+  0.0
  O2-  -2.0
loop_
 _atom_site_type_symbol
 _atom_site_label
 _atom_site_symmetry_multiplicity
 _atom_site_fract_x
 _atom_site_fract_y
 _atom_site_fract_z
 _atom_site_occupancy
  Ca2+  Ca0  1  0.17557135  0.08427462  0.17193191  1
  Ca2+  Ca1  1  0.17113742  0.07913325  0.50388514  1
  Ca2+  Ca2  1  0.16935433  0.07487048  0.83668202  1
  Ca2+  Ca3  1  0.17650578  0.58120258  0.17767919  1
  Ca2+  Ca4  1  0.16729803  0.57848810  0.50673915  1
  Ca2+  Ca5  1  0.17289795  0.58563357  0.83233492  1
  Ca2+  Ca6  1  0.67829079  0.08245873  0.17256875  1
  Ca2+  Ca7  1  0.67142561  0.08477285  0.50227461  1
  Ca2+  Ca8  1  0.66901672  0.08231669  0.83736093  1
  Ca2+  Ca9  1  0.67259943  0.57836355  0.17640121  1
  Ca2+  Ca10  1  0.67577533  0.57535669  0.50661718  1
  Ca2+  Ca11  1  0.66575816  0.58471804  0.83195651  1
  Ca2+  Ca12  1  0.07038749  0.34326946  0.16759638  1
  Ca2+  Ca13  1  0.08181865  0.33998557  0.49113446  1
  Ca2+  Ca14  1  0.07960608  0.33494913  0.83036615  1
  Ca2+  Ca15  1  0.08072190  0.82872564  0.17132600  1
  Ca2+  Ca16  1  0.07901356  0.82238215  0.49759670  1
  Ca2+  Ca17  1  0.07948419  0.82982398  0.82057800  1
  Ca2+  Ca18  1  0.57624911  0.34052564  0.16821848  1
  Ca2+  Ca19  1  0.58292369  0.33660903  0.49571690  1
  Ca2+  Ca20  1  0.58304548  0.32759385  0.82255183  1
  Ca2+  Ca21  1  0.58218075  0.82362532  0.16183913  1
  Ca2+  Ca22  1  0.58277839  0.82472056  0.49924281  1
  Ca2+  Ca23  1  0.58066750  0.81989541  0.82717715  1
  Ca2+  Ca24  1  0.32871718  0.42435452  0.17855899  1
  Ca2+  Ca25  1  0.32393209  0.42269598  0.50110460  1
  Ca2+  Ca26  1  0.32946718  0.42686155  0.83181339  1
  Ca2+  Ca27  1  0.33757123  0.92994901  0.17200854  1
  Ca2+  Ca28  1  0.32749315  0.92117151  0.50420767  1
  Ca2+  Ca29  1  0.32702112  0.91815769  0.83594597  1
  Ca2+  Ca30  1  0.82804188  0.41632637  0.17907262  1
  Ca2+  Ca31  1  0.83020584  0.42556547  0.50292717  1
  Ca2+  Ca32  1  0.83065704  0.42191166  0.83213497  1
  Ca2+  Ca33  1  0.83875796  0.92635829  0.17398795  1
  Ca2+  Ca34  1  0.84848270  0.92057174  0.50078890  1
  Ca2+  Ca35  1  0.83530750  0.92076172  0.83712269  1
  Ca2+  Ca36  1  0.40849597  0.17323101  0.16517771  1
  Ca2+  Ca37  1  0.42205434  0.17319544  0.49089240  1
  Ca2+  Ca38  1  0.42172261  0.16548870  0.82545235  1
  Ca2+  Ca39  1  0.42162070  0.65719306  0.16048807  1
  Ca2+  Ca40  1  0.42003576  0.65182856  0.49855803  1
  Ca2+  Ca41  1  0.42343917  0.65530704  0.82868598  1
  Ca2+  Ca42  1  0.90843712  0.17692749  0.16351438  1
  Ca2+  Ca43  1  0.91855890  0.17432944  0.49036867  1
  Ca2+  Ca44  1  0.90957227  0.17381292  0.83217564  1
  Ca2+  Ca45  1  0.92409530  0.66024117  0.16866337  1
  Ca2+  Ca46  1  0.92352165  0.66646220  0.49238816  1
  Ca2+  Ca47  1  0.92277209  0.67392133  0.81715875  1
  Al0+  Al48  1  0.00042868  0.00093504  0.00495665  1
  Al0+  Al49  1  0.00140554  -0.00087271  0.33260460  1
  Al0+  Al50  1  0.00211204  0.00303413  0.66910397  1
  Al0+  Al51  1  -0.00179660  0.50010823  -0.00768516  1
  Al0+  Al52  1  0.00026620  0.50038454  0.32915896  1
  Al0+  Al53  1  -0.00093598  0.50021124  0.67192183  1
  Al0+  Al54  1  0.49911767  -0.00177015  0.00369326  1
  Al0+  Al55  1  0.50239203  -0.00059779  0.33625783  1
  Al0+  Al56  1  0.50371851  0.00074629  0.66191216  1
  Al0+  Al57  1  0.49947793  0.49779934  -0.00251637  1
  Al0+  Al58  1  0.49998750  0.49686220  0.33420040  1
  Al0+  Al59  1  0.49979550  0.49750175  0.66879143  1
  Al0+  Al60  1  0.24668645  0.24977717  0.00070173  1
  Al0+  Al61  1  0.25261870  0.25012779  0.33621594  1
  Al0+  Al62  1  0.25043311  0.25119348  0.67113745  1
  Al0+  Al63  1  0.24989332  0.74995678  0.00478345  1
  Al0+  Al64  1  0.25273903  0.75240911  0.33107343  1
  Al0+  Al65  1  0.24955787  0.75265756  0.67184246  1
  Al0+  Al66  1  0.74866634  0.25030918  -0.00135683  1
  Al0+  Al67  1  0.75002228  0.24622812  0.33711455  1
  Al0+  Al68  1  0.74994937  0.24996605  0.66511835  1
  Al0+  Al69  1  0.74957882  0.74888308  -0.00399896  1
  Al0+  Al70  1  0.74905682  0.75178320  0.33085822  1
  Al0+  Al71  1  0.74800338  0.75421221  0.66191709  1
  Al0+  Al72  1  0.32124216  0.07097559  0.01287244  1
  Al0+  Al73  1  0.92889334  0.31964626  0.32184638  1
  Al0+  Al74  1  0.32246753  0.07174522  0.34824446  1
  Al0+  Al75  1  0.67894092  0.42749433  0.34747047  1
  Al0+  Al76  1  0.07147110  0.67810320  0.65241660  1
  Al0+  Al77  1  0.92832529  0.82471191  0.65265618  1
  Al0+  Al78  1  0.17949094  0.93131114  0.67974355  1
  Al0+  Al79  1  0.32218265  0.57363621  0.34760412  1
  Al0+  Al80  1  0.81914168  0.07099985  0.01325823  1
  Al0+  Al81  1  0.57218427  0.17873158  0.65181288  1
  Al0+  Al82  1  0.92797257  0.82147360  0.31589497  1
  Al0+  Al83  1  0.56886585  0.67747518  0.65101151  1
  Al0+  Al84  1  0.81982978  0.57468307  0.68176868  1
  Al0+  Al85  1  0.07308351  0.67798327  0.31726257  1
  Al0+  Al86  1  0.43025100  0.31947506  0.31925963  1
  Al0+  Al87  1  0.92687080  0.32028368  0.98398500  1
  Al0+  Al88  1  0.56988424  0.67769813  0.98606995  1
  Al0+  Al89  1  0.32040349  0.57158721  0.68196803  1
  Al0+  Al90  1  0.17598232  0.42695695  0.68391014  1
  Al0+  Al91  1  0.68017599  0.42830789  0.68303016  1
  Al0+  Al92  1  0.17812375  0.43042510  0.34563131  1
  Al0+  Al93  1  0.82161815  0.57305011  0.34591994  1
  Al0+  Al94  1  0.32069446  0.56842393  0.01472950  1
  Al0+  Al95  1  0.82213939  0.06872454  0.34836895  1
  Si0+  Si96  1  0.67657781  0.92985557  0.68267841  1
  Si0+  Si97  1  0.42987572  0.82437103  0.31799308  1
  Si0+  Si98  1  0.57214741  0.17561447  0.31424616  1
  Si0+  Si99  1  0.17730891  0.92741565  0.01967151  1
  Si0+  Si100  1  0.07268559  0.18006626  0.65325057  1
  Si0+  Si101  1  0.07373427  0.17730874  0.31741103  1
  Si0+  Si102  1  0.42700884  0.32047199  0.64955664  1
  Si0+  Si103  1  0.07186779  0.68008358  0.98394206  1
  Si0+  Si104  1  0.67804687  0.92734004  0.35140482  1
  Si0+  Si105  1  0.42733948  0.82313056  0.98388489  1
  Si0+  Si106  1  0.67975407  0.42877787  0.01414245  1
  Si0+  Si107  1  0.92986818  0.32000259  0.65179478  1
  Si0+  Si108  1  0.42635696  0.31971483  0.98390304  1
  Si0+  Si109  1  0.17897852  0.92849438  0.35060301  1
  Si0+  Si110  1  0.42798107  0.82337509  0.65025376  1
  Si0+  Si111  1  0.93039039  0.82250857  0.98556518  1
  Si0+  Si112  1  0.32448191  0.07148245  0.68198152  1
  Si0+  Si113  1  0.82105311  0.57217251  0.01337477  1
  Si0+  Si114  1  0.67856695  0.92544445  0.01625765  1
  Si0+  Si115  1  0.56869734  0.67845671  0.31880763  1
  Si0+  Si116  1  0.07187777  0.17677293  0.98239847  1
  Si0+  Si117  1  0.17503113  0.42866027  0.01714830  1
  Si0+  Si118  1  0.82102856  0.07057166  0.68165805  1
  Si0+  Si119  1  0.56914913  0.17825821  0.98689354  1
  O2-  O120  1  0.24765065  -0.00403921  0.06131042  1
  O2-  O121  1  0.24719593  -0.00178646  0.39412582  1
  O2-  O122  1  0.25626988  0.00368130  0.72759492  1
  O2-  O123  1  0.24462954  0.49583096  0.06141535  1
  O2-  O124  1  0.24504813  0.50682059  0.39572155  1
  O2-  O125  1  0.24562431  0.50220033  0.73234932  1
  O2-  O126  1  0.74690991  -0.00585681  0.06049105  1
  O2-  O127  1  0.75072114  -0.00839549  0.39585097  1
  O2-  O128  1  0.75122365  -0.00185606  0.72371890  1
  O2-  O129  1  0.75041710  0.50056813  0.05532415  1
  O2-  O130  1  0.75179432  0.49907313  0.39556971  1
  O2-  O131  1  0.74754049  0.50381052  0.73465714  1
  O2-  O132  1  0.00468330  0.24592323  0.27343514  1
  O2-  O133  1  0.00668315  0.25482007  0.61076509  1
  O2-  O134  1  0.00192232  0.24451584  0.93832110  1
  O2-  O135  1  -0.00242991  0.74700146  0.26569850  1
  O2-  O136  1  -0.00531579  0.74674396  0.60453081  1
  O2-  O137  1  0.00108009  0.75209880  0.94272909  1
  O2-  O138  1  0.50403129  0.24443037  0.26940412  1
  O2-  O139  1  0.49641005  0.25187433  0.60638232  1
  O2-  O140  1  0.49444064  0.24462801  0.94341964  1
  O2-  O141  1  0.49563970  0.74792506  0.27633910  1
  O2-  O142  1  0.49035856  0.74929593  0.60523047  1
  O2-  O143  1  0.49308156  0.75160500  0.94017391  1
  O2-  O144  1  0.07381566  0.17598737  0.08755158  1
  O2-  O145  1  0.07192493  0.17629740  0.42339210  1
  O2-  O146  1  0.06975293  0.17732907  0.75851059  1
  O2-  O147  1  0.07125629  0.67906044  0.08872628  1
  O2-  O148  1  0.07499076  0.67981796  0.43022690  1
  O2-  O149  1  0.07136111  0.68312325  0.76711273  1
  O2-  O150  1  0.57101106  0.18002085  0.09149717  1
  O2-  O151  1  0.57025700  0.17404860  0.41969216  1
  O2-  O152  1  0.57027438  0.17758592  0.76610956  1
  O2-  O153  1  0.57067433  0.67906924  0.09950382  1
  O2-  O154  1  0.56858665  0.67998966  0.42357269  1
  O2-  O155  1  0.56815413  0.68088363  0.76458900  1
  O2-  O156  1  0.18021506  0.42968055  0.23149006  1
  O2-  O157  1  0.17825229  0.42263327  0.57107746  1
  O2-  O158  1  0.17589592  0.42937148  0.91168936  1
  O2-  O159  1  0.18050159  0.93001012  0.24452578  1
  O2-  O160  1  0.18055611  0.93560899  0.56712415  1
  O2-  O161  1  0.17642680  0.92821854  0.91396815  1
  O2-  O162  1  0.67793311  0.43063693  0.23267510  1
  O2-  O163  1  0.68380265  0.42658051  0.57014995  1
  O2-  O164  1  0.67980673  0.42687799  0.90938584  1
  O2-  O165  1  0.67522175  0.92999264  0.24541022  1
  O2-  O166  1  0.67072229  0.93218737  0.57832855  1
  O2-  O167  1  0.67857469  0.92630178  0.91057711  1
  O2-  O168  1  0.42807823  0.32093093  0.08887788  1
  O2-  O169  1  0.43092235  0.31763879  0.43182858  1
  O2-  O170  1  0.42720580  0.31685336  0.75605831  1
  O2-  O171  1  0.43073397  0.82628234  0.08944388  1
  O2-  O172  1  0.43263379  0.82993189  0.42252344  1
  O2-  O173  1  0.43295019  0.82888864  0.75594789  1
  O2-  O174  1  0.92536467  0.32018843  0.09687024  1
  O2-  O175  1  0.92907260  0.31714483  0.43493230  1
  O2-  O176  1  0.92715922  0.31510541  0.75729871  1
  O2-  O177  1  0.93065548  0.82251700  0.09014955  1
  O2-  O178  1  0.93271981  0.82344515  0.42879207  1
  O2-  O179  1  0.93165079  0.82735965  0.76738848  1
  O2-  O180  1  0.32109197  0.06981907  0.23465148  1
  O2-  O181  1  0.32325788  0.07091376  0.57670226  1
  O2-  O182  1  0.32180177  0.06836171  0.89966233  1
  O2-  O183  1  0.32363496  0.56964024  0.23343958  1
  O2-  O184  1  0.32069254  0.56824531  0.56900409  1
  O2-  O185  1  0.32104166  0.56718162  0.90213587  1
  O2-  O186  1  0.81871277  0.06989857  0.23493766  1
  O2-  O187  1  0.82172694  0.07072693  0.57694741  1
  O2-  O188  1  0.81608966  0.06992887  0.89974674  1
  O2-  O189  1  0.81806519  0.57130539  0.23108187  1
  O2-  O190  1  0.82047126  0.57139230  0.56869334  1
  O2-  O191  1  0.82007516  0.57357123  0.90864682  1
  O2-  O192  1  0.04958240  0.08389156  0.27055580  1
  O2-  O193  1  0.04063526  0.09098578  0.60379732  1
  O2-  O194  1  0.04675884  0.08201502  0.93733494  1
  O2-  O195  1  0.04598567  0.58049395  0.26065514  1
  O2-  O196  1  0.04660478  0.57724011  0.60382170  1
  O2-  O197  1  0.04403460  0.58907592  0.93550041  1
  O2-  O198  1  0.54688229  0.08154132  0.26847226  1
  O2-  O199  1  0.54403977  0.08263905  0.59581868  1
  O2-  O200  1  0.54523168  0.08406259  0.94095841  1
  O2-  O201  1  0.54208272  0.58663412  0.27092678  1
  O2-  O202  1  0.54107653  0.57912527  0.59968369  1
  O2-  O203  1  0.53977810  0.58096218  0.93168060  1
  O2-  O204  1  0.16782028  0.20216402  0.27246380  1
  O2-  O205  1  0.16710568  0.20150165  0.60820437  1
  O2-  O206  1  0.16469014  0.20327891  0.93377874  1
  O2-  O207  1  0.17097201  0.71169800  0.26312449  1
  O2-  O208  1  0.16972182  0.71127310  0.60258274  1
  O2-  O209  1  0.16471460  0.70841082  0.93867497  1
  O2-  O210  1  0.66644302  0.20041487  0.26981666  1
  O2-  O211  1  0.66861859  0.20904014  0.59773404  1
  O2-  O212  1  0.65883060  0.20936711  0.93711823  1
  O2-  O213  1  0.65905186  0.70873572  0.26927461  1
  O2-  O214  1  0.66308962  0.71375178  0.59657367  1
  O2-  O215  1  0.66568349  0.71038855  0.93048761  1
  O2-  O216  1  0.08022026  0.45627369  0.05977257  1
  O2-  O217  1  0.07833505  0.45324377  0.39654520  1
  O2-  O218  1  0.07744390  0.45118161  0.73816029  1
  O2-  O219  1  0.08512690  0.95506840  0.06721883  1
  O2-  O220  1  0.08596708  0.95408680  0.39610370  1
  O2-  O221  1  0.08587287  0.96763863  0.73783850  1
  O2-  O222  1  0.58733983  0.45618298  0.06044367  1
  O2-  O223  1  0.58179578  0.45660485  0.40037996  1
  O2-  O224  1  0.58011304  0.45079012  0.73485741  1
  O2-  O225  1  0.58487039  0.94982903  0.06272358  1
  O2-  O226  1  0.58720755  0.95711385  0.40042155  1
  O2-  O227  1  0.58722443  0.96232116  0.73335521  1
  O2-  O228  1  0.19704024  0.33346748  0.06063168  1
  O2-  O229  1  0.20880468  0.33307735  0.39876302  1
  O2-  O230  1  0.20724443  0.32928636  0.73996564  1
  O2-  O231  1  0.20189314  0.83423545  0.06643113  1
  O2-  O232  1  0.20754680  0.83624591  0.39623677  1
  O2-  O233  1  0.20836881  0.83687736  0.73853943  1
  O2-  O234  1  0.70730861  0.33750207  0.06210894  1
  O2-  O235  1  0.70314799  0.32801134  0.39827993  1
  O2-  O236  1  0.71255902  0.33000203  0.73622409  1
  O2-  O237  1  0.70477320  0.83190952  0.06231455  1
  O2-  O238  1  0.69775552  0.83225716  0.39546969  1
  O2-  O239  1  0.70129239  0.83808828  0.73106476  1
  O2-  O240  1  0.46298433  0.41497480  0.26218016  1
  O2-  O241  1  0.45295295  0.41346616  0.60470445  1
  O2-  O242  1  0.45925442  0.40870282  0.93461199  1
  O2-  O243  1  0.46499743  0.91327939  0.26757479  1
  O2-  O244  1  0.46010520  0.91395416  0.60112888  1
  O2-  O245  1  0.45525294  0.91577349  0.93589126  1
  O2-  O246  1  0.95650041  0.41538304  0.26415023  1
  O2-  O247  1  0.95195798  0.41406505  0.60837243  1
  O2-  O248  1  0.95682589  0.41635730  0.92789038  1
  O2-  O249  1  0.96154983  0.91936641  0.26216063  1
  O2-  O250  1  0.96402679  0.92198354  0.60128314  1
  O2-  O251  1  0.95747761  0.91557476  0.93952712  1
  O2-  O252  1  0.33412335  0.28733925  0.26384840  1
  O2-  O253  1  0.33335851  0.29362647  0.60457582  1
  O2-  O254  1  0.33326277  0.29461407  0.93778489  1
  O2-  O255  1  0.33698165  0.80533197  0.26934919  1
  O2-  O256  1  0.33163981  0.80578004  0.60848259  1
  O2-  O257  1  0.33140467  0.80112270  0.94110670  1
  O2-  O258  1  0.83255944  0.28499752  0.26787960  1
  O2-  O259  1  0.84108884  0.28534375  0.60380381  1
  O2-  O260  1  0.83121377  0.28628496  0.92894806  1
  O2-  O261  1  0.82657286  0.80113371  0.26414707  1
  O2-  O262  1  0.82655001  0.80979358  0.60282962  1
  O2-  O263  1  0.83766709  0.79644632  0.93866739  1
  O2-  O264  1  0.41755940  0.04131680  0.06896457  1
  O2-  O265  1  0.41889393  0.03953192  0.40067674  1
  O2-  O266  1  0.41867955  0.04457826  0.72647690  1
  O2-  O267  1  0.41785175  0.53518569  0.06667662  1
  O2-  O268  1  0.41785088  0.53797320  0.39961169  1
  O2-  O269  1  0.41697205  0.53712931  0.73613301  1
  O2-  O270  1  0.91673261  0.04431082  0.06682741  1
  O2-  O271  1  0.92039589  0.04142700  0.40078987  1
  O2-  O272  1  0.91262732  0.04547533  0.73094302  1
  O2-  O273  1  0.91406101  0.54430845  0.05799236  1
  O2-  O274  1  0.92082061  0.54688443  0.39535148  1
  O2-  O275  1  0.91687023  0.54492194  0.73691548  1
  O2-  O276  1  0.28920182  0.16773763  0.06621799  1
  O2-  O277  1  0.29331765  0.16705556  0.40356910  1
  O2-  O278  1  0.29958254  0.16445194  0.72913586  1
  O2-  O279  1  0.29527021  0.66754483  0.06685072  1
  O2-  O280  1  0.30589248  0.67646254  0.39497900  1
  O2-  O281  1  0.29850899  0.67173117  0.73501878  1
  O2-  O282  1  0.78432351  0.16658664  0.06672138  1
  O2-  O283  1  0.78909647  0.16275252  0.40476868  1
  O2-  O284  1  0.78943768  0.16089965  0.72959067  1
  O2-  O285  1  0.79324177  0.66404536  0.06051956  1
  O2-  O286  1  0.79245183  0.67170124  0.39640912  1
  O2-  O287  1  0.79227217  0.67538984  0.73153018  1
