# generated using pymatgen
data_Ca2Al2SiO7
_symmetry_space_group_name_H-M   'P 1'
_cell_length_a   15.46226042
_cell_length_b   15.46358371
_cell_length_c   15.28815390
_cell_angle_alpha   89.99519392
_cell_angle_beta   90.00052985
_cell_angle_gamma   89.99065212
_symmetry_Int_Tables_number   1
_chemical_formula_structural   Ca2Al2SiO7
_chemical_formula_sum   'Ca48 Al48 Si24 O168'
_cell_volume   3655.42747534
_cell_formula_units_Z   24
loop_
 _symmetry_equiv_pos_site_id
 _symmetry_equiv_pos_as_xyz
  1  'x, y, z'
loop_
 _atom_type_symbol
 _atom_type_oxidation_number
  Ca2+  2.0
  Al0+  0.0
  Si0+  0.0
  O2-  -2.0
loop_
 _atom_site_type_symbol
 _atom_site_label
 _atom_site_symmetry_multiplicity
 _atom_site_fract_x
 _atom_site_fract_y
 _atom_site_fract_z
 _atom_site_occupancy
  Ca2+  Ca0  1  0.16331464  0.08105362  0.17432561  1
  Ca2+  Ca1  1  0.16800652  0.08355026  0.51156390  1
  Ca2+  Ca2  1  0.16350369  0.08079933  0.82882424  1
  Ca2+  Ca3  1  0.17447977  0.58333742  0.17348489  1
  Ca2+  Ca4  1  0.17190573  0.57165269  0.50192686  1
  Ca2+  Ca5  1  0.16697956  0.57972392  0.83836912  1
  Ca2+  Ca6  1  0.66404561  0.08304723  0.16758253  1
  Ca2+  Ca7  1  0.66511548  0.08196743  0.50640861  1
  Ca2+  Ca8  1  0.66412519  0.08512927  0.83910150  1
  Ca2+  Ca9  1  0.67745251  0.57829943  0.17601240  1
  Ca2+  Ca10  1  0.67054445  0.58263341  0.50117865  1
  Ca2+  Ca11  1  0.67555023  0.58051207  0.83757938  1
  Ca2+  Ca12  1  0.08298232  0.33694319  0.17171253  1
  Ca2+  Ca13  1  0.08021384  0.33544783  0.49380467  1
  Ca2+  Ca14  1  0.07727644  0.33325526  0.82014836  1
  Ca2+  Ca15  1  0.07622541  0.82231657  0.15677958  1
  Ca2+  Ca16  1  0.08051632  0.83666763  0.50030228  1
  Ca2+  Ca17  1  0.07531619  0.82595280  0.82925963  1
  Ca2+  Ca18  1  0.58342239  0.34133775  0.16402261  1
  Ca2+  Ca19  1  0.57923985  0.33139580  0.49253929  1
  Ca2+  Ca20  1  0.58860043  0.32578779  0.82983087  1
  Ca2+  Ca21  1  0.57758330  0.82453005  0.17049266  1
  Ca2+  Ca22  1  0.57761868  0.81985725  0.49507270  1
  Ca2+  Ca23  1  0.58107469  0.82351306  0.82412276  1
  Ca2+  Ca24  1  0.33146032  0.42737726  0.17705263  1
  Ca2+  Ca25  1  0.32438906  0.40943213  0.49990297  1
  Ca2+  Ca26  1  0.32495550  0.41985427  0.83583477  1
  Ca2+  Ca27  1  0.33503288  0.91783200  0.17418494  1
  Ca2+  Ca28  1  0.32897397  0.92210021  0.50915437  1
  Ca2+  Ca29  1  0.32871658  0.92161564  0.83114647  1
  Ca2+  Ca30  1  0.82571312  0.42335016  0.17477469  1
  Ca2+  Ca31  1  0.83864699  0.42592435  0.50257268  1
  Ca2+  Ca32  1  0.83241017  0.42684498  0.83832233  1
  Ca2+  Ca33  1  0.83582867  0.91642820  0.16898663  1
  Ca2+  Ca34  1  0.83408967  0.91788027  0.50756586  1
  Ca2+  Ca35  1  0.83843019  0.91523342  0.83551356  1
  Ca2+  Ca36  1  0.42192806  0.17982672  0.16409855  1
  Ca2+  Ca37  1  0.41756474  0.16903759  0.49720433  1
  Ca2+  Ca38  1  0.42699557  0.16403192  0.82649296  1
  Ca2+  Ca39  1  0.41743345  0.65935048  0.16544934  1
  Ca2+  Ca40  1  0.42567234  0.66591930  0.48901855  1
  Ca2+  Ca41  1  0.42316817  0.65968545  0.82800776  1
  Ca2+  Ca42  1  0.91941223  0.17580678  0.16931896  1
  Ca2+  Ca43  1  0.92879569  0.18185221  0.49659885  1
  Ca2+  Ca44  1  0.92182397  0.17864733  0.82155246  1
  Ca2+  Ca45  1  0.91969437  0.66264964  0.15891977  1
  Ca2+  Ca46  1  0.91145688  0.66695128  0.49884628  1
  Ca2+  Ca47  1  0.90962856  0.67246974  0.82892765  1
  Al0+  Al48  1  -0.00081504  -0.00027197  -0.00183671  1
  Al0+  Al49  1  0.00005275  0.00080860  0.33069755  1
  Al0+  Al50  1  -0.00110944  -0.00022513  0.66532270  1
  Al0+  Al51  1  0.00095364  0.49848580  -0.00010073  1
  Al0+  Al52  1  -0.00007575  0.50089026  0.33568052  1
  Al0+  Al53  1  -0.00025655  0.50424309  0.67217992  1
  Al0+  Al54  1  0.49959835  0.00103313  -0.00173513  1
  Al0+  Al55  1  0.50005725  -0.00186026  0.33070027  1
  Al0+  Al56  1  0.50004149  -0.00125658  0.66725164  1
  Al0+  Al57  1  0.49673857  0.49915465  0.00286462  1
  Al0+  Al58  1  0.50338276  0.49959151  0.33151070  1
  Al0+  Al59  1  0.50193910  0.49750014  0.66270520  1
  Al0+  Al60  1  0.25138476  0.24817358  -0.00015879  1
  Al0+  Al61  1  0.25287137  0.24777781  0.32725220  1
  Al0+  Al62  1  0.25237213  0.24926853  0.67582591  1
  Al0+  Al63  1  0.24815841  0.75167706  -0.00126295  1
  Al0+  Al64  1  0.24842744  0.75255185  0.33530237  1
  Al0+  Al65  1  0.24917929  0.75136346  0.67157872  1
  Al0+  Al66  1  0.75055256  0.24758266  0.00043815  1
  Al0+  Al67  1  0.75282967  0.24804687  0.33367565  1
  Al0+  Al68  1  0.75020890  0.24992018  0.65753703  1
  Al0+  Al69  1  0.74732233  0.75186208  0.00110027  1
  Al0+  Al70  1  0.74771007  0.75211002  0.33251946  1
  Al0+  Al71  1  0.74895250  0.75027880  0.66213599  1
  Al0+  Al72  1  0.81849718  0.57231413  0.68106034  1
  Al0+  Al73  1  0.07241916  0.17886335  0.31799961  1
  Al0+  Al74  1  0.57109537  0.67788946  0.31598786  1
  Al0+  Al75  1  0.92669749  0.82016216  0.98484921  1
  Al0+  Al76  1  0.57024148  0.67732971  0.65361438  1
  Al0+  Al77  1  0.32262984  0.07123294  0.68298283  1
  Al0+  Al78  1  0.07160322  0.67671458  0.98463713  1
  Al0+  Al79  1  0.32244474  0.57386521  0.34865635  1
  Al0+  Al80  1  0.68025854  0.42660115  0.01339856  1
  Al0+  Al81  1  0.92968882  0.81984518  0.65183174  1
  Al0+  Al82  1  0.82088501  0.57289668  0.01504126  1
  Al0+  Al83  1  0.57108367  0.17713391  0.65229706  1
  Al0+  Al84  1  0.57012276  0.18053771  0.98680888  1
  Al0+  Al85  1  0.92942014  0.32382631  0.31635336  1
  Al0+  Al86  1  0.67935528  0.42611555  0.35003603  1
  Al0+  Al87  1  0.92983117  0.32623312  0.65188118  1
  Al0+  Al88  1  0.17542800  0.92810270  0.68405020  1
  Al0+  Al89  1  0.18149584  0.42789730  0.34729091  1
  Al0+  Al90  1  0.82133456  0.57309563  0.34976864  1
  Al0+  Al91  1  0.31826793  0.57185350  0.01238476  1
  Al0+  Al92  1  0.42682182  0.82041395  0.31951353  1
  Al0+  Al93  1  0.07264336  0.18049095  0.65423566  1
  Al0+  Al94  1  0.17918894  0.43014316  0.68050833  1
  Al0+  Al95  1  0.43085258  0.32055041  0.31988696  1
  Si0+  Si96  1  0.67996761  0.92971076  0.68165733  1
  Si0+  Si97  1  0.32277196  0.06972717  0.01785185  1
  Si0+  Si98  1  0.42860461  0.32095827  0.65109526  1
  Si0+  Si99  1  0.42708025  0.32320903  0.98117058  1
  Si0+  Si100  1  0.67838921  0.93135549  0.34929282  1
  Si0+  Si101  1  0.56803505  0.67863139  0.98503542  1
  Si0+  Si102  1  0.42713428  0.82075604  0.65205733  1
  Si0+  Si103  1  0.17693736  0.93013067  0.34775684  1
  Si0+  Si104  1  0.82155506  0.06947146  0.01511639  1
  Si0+  Si105  1  0.67739761  0.42573929  0.68231404  1
  Si0+  Si106  1  0.92849628  0.82225537  0.31914916  1
  Si0+  Si107  1  0.42816513  0.82317231  0.98359625  1
  Si0+  Si108  1  0.17833939  0.93195151  0.01649771  1
  Si0+  Si109  1  0.07454839  0.67889272  0.64861239  1
  Si0+  Si110  1  0.32188712  0.06911657  0.34655291  1
  Si0+  Si111  1  0.32437772  0.57154300  0.68119543  1
  Si0+  Si112  1  0.17755384  0.42453840  0.01692089  1
  Si0+  Si113  1  0.67588060  0.92949547  0.01557554  1
  Si0+  Si114  1  0.57331646  0.17601042  0.31690002  1
  Si0+  Si115  1  0.82348845  0.06942030  0.34990598  1
  Si0+  Si116  1  0.81941972  0.07181458  0.68090418  1
  Si0+  Si117  1  0.07225070  0.17774995  0.98417336  1
  Si0+  Si118  1  0.92968751  0.31893721  0.98571804  1
  Si0+  Si119  1  0.07030699  0.68014988  0.32082209  1
  O2-  O120  1  0.24955156  0.00161739  0.06114832  1
  O2-  O121  1  0.24947497  -0.00016569  0.38852381  1
  O2-  O122  1  0.24779095  0.00121718  0.73293041  1
  O2-  O123  1  0.24336374  0.49707167  0.05854971  1
  O2-  O124  1  0.25481706  0.49803375  0.39858574  1
  O2-  O125  1  0.25345206  0.50609193  0.72657130  1
  O2-  O126  1  0.75061209  -0.00243558  0.05707071  1
  O2-  O127  1  0.74956534  0.00145786  0.39228959  1
  O2-  O128  1  0.74774478  0.00263767  0.72588283  1
  O2-  O129  1  0.74956796  0.50036737  0.06429488  1
  O2-  O130  1  0.75100267  0.49892774  0.39927534  1
  O2-  O131  1  0.74662010  0.49392441  0.72627714  1
  O2-  O132  1  0.00340002  0.25279998  0.26644968  1
  O2-  O133  1  0.00684918  0.25760368  0.60428002  1
  O2-  O134  1  0.00601534  0.25325165  0.94351523  1
  O2-  O135  1  -0.00434139  0.74797655  0.27817693  1
  O2-  O136  1  0.00623173  0.74814489  0.60407878  1
  O2-  O137  1  -0.00614277  0.74361683  0.93544063  1
  O2-  O138  1  0.51084116  0.25018240  0.27334218  1
  O2-  O139  1  0.49639403  0.25116078  0.60695124  1
  O2-  O140  1  0.49842062  0.25653434  0.93805080  1
  O2-  O141  1  0.49250283  0.74430836  0.26660209  1
  O2-  O142  1  0.48932520  0.74652585  0.60891465  1
  O2-  O143  1  0.49602901  0.74897657  0.94167051  1
  O2-  O144  1  0.07078752  0.17449931  0.08902777  1
  O2-  O145  1  0.07043985  0.17426492  0.43068869  1
  O2-  O146  1  0.06685769  0.18096736  0.76864798  1
  O2-  O147  1  0.07395884  0.68195277  0.09875093  1
  O2-  O148  1  0.07218508  0.68396851  0.42567304  1
  O2-  O149  1  0.07483716  0.67979826  0.75413178  1
  O2-  O150  1  0.56690710  0.17630129  0.09949557  1
  O2-  O151  1  0.56889669  0.17087487  0.42223913  1
  O2-  O152  1  0.57158362  0.17746771  0.76565761  1
  O2-  O153  1  0.56775209  0.68128991  0.08952069  1
  O2-  O154  1  0.57341747  0.68415585  0.42948100  1
  O2-  O155  1  0.56942431  0.68012587  0.76771734  1
  O2-  O156  1  0.18211597  0.43097688  0.23343438  1
  O2-  O157  1  0.18120107  0.42924895  0.56785223  1
  O2-  O158  1  0.17957647  0.42179023  0.91123664  1
  O2-  O159  1  0.17508979  0.93149397  0.24227431  1
  O2-  O160  1  0.17761157  0.92894809  0.57002679  1
  O2-  O161  1  0.17833621  0.93429979  0.91200077  1
  O2-  O162  1  0.68206283  0.42718532  0.23622427  1
  O2-  O163  1  0.67493739  0.42623880  0.57741032  1
  O2-  O164  1  0.68335012  0.42529954  0.89941110  1
  O2-  O165  1  0.67853457  0.93273297  0.24376246  1
  O2-  O166  1  0.68099531  0.93092624  0.57648293  1
  O2-  O167  1  0.67300525  0.93083644  0.91051368  1
  O2-  O168  1  0.42528317  0.32062204  0.08657034  1
  O2-  O169  1  0.42744942  0.31307413  0.43279265  1
  O2-  O170  1  0.43124747  0.32302739  0.75686055  1
  O2-  O171  1  0.43036469  0.82650767  0.08836776  1
  O2-  O172  1  0.43093520  0.82493798  0.43274144  1
  O2-  O173  1  0.43069780  0.82240704  0.75824463  1
  O2-  O174  1  0.92862229  0.31601205  0.09045327  1
  O2-  O175  1  0.93098124  0.32194551  0.42943749  1
  O2-  O176  1  0.92780892  0.32205511  0.76650347  1
  O2-  O177  1  0.93098383  0.82535605  0.09872049  1
  O2-  O178  1  0.93054879  0.82608448  0.42399234  1
  O2-  O179  1  0.92749369  0.81854235  0.76459088  1
  O2-  O180  1  0.32280960  0.06637828  0.24101293  1
  O2-  O181  1  0.32540491  0.06761009  0.56907859  1
  O2-  O182  1  0.32473168  0.06767299  0.91338451  1
  O2-  O183  1  0.31621535  0.57438342  0.23484603  1
  O2-  O184  1  0.32432040  0.57104745  0.57619126  1
  O2-  O185  1  0.32003425  0.56921765  0.89890175  1
  O2-  O186  1  0.82453388  0.06612920  0.24428752  1
  O2-  O187  1  0.81788257  0.06853015  0.57588143  1
  O2-  O188  1  0.82120366  0.07028067  0.91005701  1
  O2-  O189  1  0.82147868  0.57496548  0.23613878  1
  O2-  O190  1  0.81623947  0.57436924  0.56858620  1
  O2-  O191  1  0.81700280  0.57340979  0.90129714  1
  O2-  O192  1  0.03766441  0.08192139  0.26237576  1
  O2-  O193  1  0.04034257  0.08353660  0.60184159  1
  O2-  O194  1  0.03958849  0.08791351  0.93631679  1
  O2-  O195  1  0.04599584  0.58836796  0.27287481  1
  O2-  O196  1  0.04716708  0.58598295  0.60395475  1
  O2-  O197  1  0.05221460  0.57512000  0.93460556  1
  O2-  O198  1  0.54191588  0.08495331  0.26817211  1
  O2-  O199  1  0.54140828  0.07949839  0.59924748  1
  O2-  O200  1  0.53710234  0.08423972  0.93199420  1
  O2-  O201  1  0.55152907  0.57832686  0.26354943  1
  O2-  O202  1  0.54547576  0.57987486  0.59955799  1
  O2-  O203  1  0.53983004  0.58667114  0.93807288  1
  O2-  O204  1  0.17113285  0.20118461  0.26290524  1
  O2-  O205  1  0.17563997  0.19974428  0.60873406  1
  O2-  O206  1  0.16689039  0.19926777  0.93948230  1
  O2-  O207  1  0.15989593  0.71268281  0.27163333  1
  O2-  O208  1  0.16883477  0.70452981  0.60363801  1
  O2-  O209  1  0.16744823  0.71249552  0.92992251  1
  O2-  O210  1  0.67001667  0.19243642  0.27430595  1
  O2-  O211  1  0.66676618  0.20422727  0.59566267  1
  O2-  O212  1  0.66885001  0.20552773  0.93324832  1
  O2-  O213  1  0.66612375  0.71785821  0.26161837  1
  O2-  O214  1  0.66169199  0.71716807  0.59763643  1
  O2-  O215  1  0.65905109  0.70963624  0.93798470  1
  O2-  O216  1  0.08261897  0.44542660  0.06137545  1
  O2-  O217  1  0.08377227  0.45816438  0.39939781  1
  O2-  O218  1  0.08402898  0.46173938  0.73700143  1
  O2-  O219  1  0.08665980  0.96139041  0.06418721  1
  O2-  O220  1  0.08555988  0.95936930  0.39538490  1
  O2-  O221  1  0.07709982  0.95784026  0.73714859  1
  O2-  O222  1  0.57921602  0.45122518  0.06163705  1
  O2-  O223  1  0.58002941  0.45207351  0.40139466  1
  O2-  O224  1  0.58387203  0.45136847  0.72968227  1
  O2-  O225  1  0.58636672  0.96262170  0.06480869  1
  O2-  O226  1  0.58717219  0.96056577  0.39709697  1
  O2-  O227  1  0.58773595  0.95421294  0.72988357  1
  O2-  O228  1  0.20552702  0.33111755  0.06308403  1
  O2-  O229  1  0.21051777  0.32746484  0.39633568  1
  O2-  O230  1  0.20999032  0.33521201  0.73813711  1
  O2-  O231  1  0.20563979  0.83982822  0.06309166  1
  O2-  O232  1  0.20189626  0.83913636  0.39699667  1
  O2-  O233  1  0.20499770  0.83050364  0.73937216  1
  O2-  O234  1  0.70878712  0.32802014  0.06667978  1
  O2-  O235  1  0.70370763  0.32471719  0.39971077  1
  O2-  O236  1  0.70305151  0.33056399  0.72574577  1
  O2-  O237  1  0.70056723  0.83800962  0.06454663  1
  O2-  O238  1  0.70632398  0.84030540  0.39692679  1
  O2-  O239  1  0.71048509  0.83915961  0.72942192  1
  O2-  O240  1  0.45693917  0.41766339  0.26531896  1
  O2-  O241  1  0.45388067  0.41303385  0.60246064  1
  O2-  O242  1  0.44874863  0.41758854  0.93529594  1
  O2-  O243  1  0.46276279  0.91609480  0.26286961  1
  O2-  O244  1  0.45909908  0.91150853  0.60483012  1
  O2-  O245  1  0.46069614  0.91285861  0.93482083  1
  O2-  O246  1  0.95727708  0.42257833  0.26389098  1
  O2-  O247  1  0.95592594  0.42611567  0.60268061  1
  O2-  O248  1  0.95245484  0.41216076  0.93917991  1
  O2-  O249  1  0.95987472  0.91184090  0.26912109  1
  O2-  O250  1  0.95750016  0.91726572  0.59789070  1
  O2-  O251  1  0.95936370  0.91816864  0.93213266  1
  O2-  O252  1  0.33847351  0.28456754  0.26070817  1
  O2-  O253  1  0.33473697  0.29408003  0.60766308  1
  O2-  O254  1  0.33439384  0.29285843  0.93492444  1
  O2-  O255  1  0.32535491  0.80180826  0.26804853  1
  O2-  O256  1  0.33064927  0.80349848  0.60948947  1
  O2-  O257  1  0.33483707  0.80032726  0.93787166  1
  O2-  O258  1  0.83283723  0.28741376  0.26320991  1
  O2-  O259  1  0.83429789  0.29305830  0.59710490  1
  O2-  O260  1  0.84067933  0.28431470  0.93748473  1
  O2-  O261  1  0.83475221  0.80122717  0.27310933  1
  O2-  O262  1  0.83363772  0.78986505  0.59657333  1
  O2-  O263  1  0.82488851  0.80015566  0.93422837  1
  O2-  O264  1  0.41321761  0.03833602  0.06592978  1
  O2-  O265  1  0.41335226  0.03964323  0.39394672  1
  O2-  O266  1  0.41970459  0.03645071  0.73767271  1
  O2-  O267  1  0.41405512  0.54109881  0.06778267  1
  O2-  O268  1  0.42395485  0.55116131  0.39488669  1
  O2-  O269  1  0.41728042  0.54192937  0.72788621  1
  O2-  O270  1  0.91274691  0.04075617  0.06384908  1
  O2-  O271  1  0.91316060  0.03609137  0.39773984  1
  O2-  O272  1  0.90998955  0.04258852  0.72944409  1
  O2-  O273  1  0.92123108  0.54543537  0.06438895  1
  O2-  O274  1  0.92049085  0.54775805  0.40223673  1
  O2-  O275  1  0.91609382  0.54803536  0.73611377  1
  O2-  O276  1  0.29702623  0.16312205  0.06342019  1
  O2-  O277  1  0.29611082  0.16098310  0.39285777  1
  O2-  O278  1  0.30050503  0.16869503  0.74049132  1
  O2-  O279  1  0.29097221  0.67041315  0.06499952  1
  O2-  O280  1  0.29129690  0.67189096  0.40159904  1
  O2-  O281  1  0.30373934  0.66665633  0.72685834  1
  O2-  O282  1  0.79172611  0.15917302  0.06499811  1
  O2-  O283  1  0.79948474  0.16155211  0.39680503  1
  O2-  O284  1  0.79201233  0.16453988  0.72692201  1
  O2-  O285  1  0.79310520  0.67256427  0.06650885  1
  O2-  O286  1  0.79154425  0.67323250  0.39986267  1
  O2-  O287  1  0.78202315  0.66823687  0.73401284  1
