# generated using pymatgen
data_Ca2Al2SiO7
_symmetry_space_group_name_H-M   'P 1'
_cell_length_a   15.45936134
_cell_length_b   15.45812390
_cell_length_c   15.28382975
_cell_angle_alpha   90.00052590
_cell_angle_beta   90.00820548
_cell_angle_gamma   90.01700369
_symmetry_Int_Tables_number   1
_chemical_formula_structural   Ca2Al2SiO7
_chemical_formula_sum   'Ca48 Al48 Si24 O168'
_cell_volume   3652.41821385
_cell_formula_units_Z   24
loop_
 _symmetry_equiv_pos_site_id
 _symmetry_equiv_pos_as_xyz
  1  'x, y, z'
loop_
 _atom_type_symbol
 _atom_type_oxidation_number
  Ca2+  2.0
  Al0+  0.0
  Si0+  0.0
  O2-  -2.0
loop_
 _atom_site_type_symbol
 _atom_site_label
 _atom_site_symmetry_multiplicity
 _atom_site_fract_x
 _atom_site_fract_y
 _atom_site_fract_z
 _atom_site_occupancy
  Ca2+  Ca0  1  0.17772299  0.08165890  0.17600644  1
  Ca2+  Ca1  1  0.16711588  0.08071442  0.49709062  1
  Ca2+  Ca2  1  0.17569346  0.08080483  0.84042027  1
  Ca2+  Ca3  1  0.17517594  0.58548504  0.16659667  1
  Ca2+  Ca4  1  0.17515600  0.58080230  0.50592962  1
  Ca2+  Ca5  1  0.16637052  0.57665232  0.84287125  1
  Ca2+  Ca6  1  0.66694474  0.07381626  0.17081879  1
  Ca2+  Ca7  1  0.66050547  0.07107787  0.50243444  1
  Ca2+  Ca8  1  0.67368789  0.07441362  0.84006370  1
  Ca2+  Ca9  1  0.65769176  0.57101837  0.17302151  1
  Ca2+  Ca10  1  0.65833804  0.58247897  0.50155909  1
  Ca2+  Ca11  1  0.66307563  0.57898733  0.83784705  1
  Ca2+  Ca12  1  0.07968284  0.33074061  0.15893328  1
  Ca2+  Ca13  1  0.08380853  0.32786829  0.49454700  1
  Ca2+  Ca14  1  0.08007045  0.34008735  0.83054088  1
  Ca2+  Ca15  1  0.08740953  0.83077020  0.16127432  1
  Ca2+  Ca16  1  0.08401005  0.83315112  0.49372258  1
  Ca2+  Ca17  1  0.08666489  0.81819964  0.82947456  1
  Ca2+  Ca18  1  0.58934367  0.32927888  0.16488136  1
  Ca2+  Ca19  1  0.57900971  0.32756644  0.49137815  1
  Ca2+  Ca20  1  0.57590494  0.33477700  0.82800503  1
  Ca2+  Ca21  1  0.57413832  0.83824784  0.16364720  1
  Ca2+  Ca22  1  0.58483542  0.82643766  0.49037311  1
  Ca2+  Ca23  1  0.58175169  0.83485127  0.83026941  1
  Ca2+  Ca24  1  0.33390090  0.43251061  0.16978655  1
  Ca2+  Ca25  1  0.33335640  0.42146607  0.50534135  1
  Ca2+  Ca26  1  0.32375064  0.42159267  0.84041295  1
  Ca2+  Ca27  1  0.33495288  0.92139845  0.17440794  1
  Ca2+  Ca28  1  0.33745394  0.91918861  0.49249140  1
  Ca2+  Ca29  1  0.33774788  0.92166649  0.84279936  1
  Ca2+  Ca30  1  0.82558823  0.41244829  0.16542992  1
  Ca2+  Ca31  1  0.82572040  0.41568280  0.49856369  1
  Ca2+  Ca32  1  0.82752809  0.41583647  0.84370499  1
  Ca2+  Ca33  1  0.82141906  0.91606135  0.17130508  1
  Ca2+  Ca34  1  0.82182504  0.92255442  0.50845333  1
  Ca2+  Ca35  1  0.82293560  0.92427582  0.83841436  1
  Ca2+  Ca36  1  0.42140275  0.15647908  0.16463960  1
  Ca2+  Ca37  1  0.41689318  0.17369117  0.49148006  1
  Ca2+  Ca38  1  0.41434981  0.17331326  0.82927766  1
  Ca2+  Ca39  1  0.41121823  0.67656075  0.16441937  1
  Ca2+  Ca40  1  0.42709426  0.67043681  0.48995915  1
  Ca2+  Ca41  1  0.41964145  0.67056863  0.83168470  1
  Ca2+  Ca42  1  0.92133214  0.16815865  0.15954922  1
  Ca2+  Ca43  1  0.92075780  0.16262559  0.49355594  1
  Ca2+  Ca44  1  0.90824588  0.16875705  0.83368639  1
  Ca2+  Ca45  1  0.92489105  0.66772959  0.15953140  1
  Ca2+  Ca46  1  0.92503189  0.66565558  0.49878527  1
  Ca2+  Ca47  1  0.92957594  0.66140519  0.83031172  1
  Al0+  Al48  1  -0.00007360  0.00020825  -0.00062779  1
  Al0+  Al49  1  0.00131519  0.00005720  0.33056384  1
  Al0+  Al50  1  0.00043298  0.00038780  0.67241553  1
  Al0+  Al51  1  -0.00147784  0.49747692  -0.00369502  1
  Al0+  Al52  1  -0.00134950  0.50005153  0.33243891  1
  Al0+  Al53  1  -0.00044506  0.49851018  0.66237754  1
  Al0+  Al54  1  0.50082594  -0.00042956  -0.00023490  1
  Al0+  Al55  1  0.50016506  0.00129838  0.33559242  1
  Al0+  Al56  1  0.49916743  0.00079036  0.67084679  1
  Al0+  Al57  1  0.49881753  0.49974007  0.00665331  1
  Al0+  Al58  1  0.49999170  0.49887964  0.33957336  1
  Al0+  Al59  1  0.49786769  0.50150925  0.66008230  1
  Al0+  Al60  1  0.25032574  0.24973761  0.00731402  1
  Al0+  Al61  1  0.24891749  0.25107248  0.33086410  1
  Al0+  Al62  1  0.24808314  0.25177723  0.66583768  1
  Al0+  Al63  1  0.25152034  0.75011962  -0.00816983  1
  Al0+  Al64  1  0.25107240  0.74937041  0.33951196  1
  Al0+  Al65  1  0.25174539  0.75027582  0.66144688  1
  Al0+  Al66  1  0.75136045  0.24888422  0.00145830  1
  Al0+  Al67  1  0.74936196  0.25192638  0.33410541  1
  Al0+  Al68  1  0.74966433  0.25019653  0.66767942  1
  Al0+  Al69  1  0.74997853  0.74919960  0.00255369  1
  Al0+  Al70  1  0.75264193  0.74759174  0.33311479  1
  Al0+  Al71  1  0.75092472  0.74914789  0.66790133  1
  Al0+  Al72  1  0.57139061  0.68104994  0.65396284  1
  Al0+  Al73  1  0.57024419  0.17984835  0.31971648  1
  Al0+  Al74  1  0.67731880  0.92683560  0.68266374  1
  Al0+  Al75  1  0.07179031  0.67739356  0.65048340  1
  Al0+  Al76  1  0.43128984  0.82137267  0.98542834  1
  Al0+  Al77  1  0.07104859  0.17862716  0.31872834  1
  Al0+  Al78  1  0.42745678  0.32012516  0.65400984  1
  Al0+  Al79  1  0.17899973  0.42994301  0.67946878  1
  Al0+  Al80  1  0.67801238  0.42970236  0.01171751  1
  Al0+  Al81  1  0.17824333  0.92894563  0.34777595  1
  Al0+  Al82  1  0.67907087  0.92730232  0.01700744  1
  Al0+  Al83  1  0.06996893  0.68051933  0.98689756  1
  Al0+  Al84  1  0.32089079  0.07120764  0.01273838  1
  Al0+  Al85  1  0.92974719  0.31748786  0.98515470  1
  Al0+  Al86  1  0.68012573  0.42934456  0.34907351  1
  Al0+  Al87  1  0.57375207  0.67665475  0.31648124  1
  Al0+  Al88  1  0.67943905  0.92803539  0.34769007  1
  Al0+  Al89  1  0.43034337  0.81962599  0.31839470  1
  Al0+  Al90  1  0.32028828  0.57086985  0.34961687  1
  Al0+  Al91  1  0.32188997  0.07306110  0.34989674  1
  Al0+  Al92  1  0.82255420  0.07223248  0.68207931  1
  Al0+  Al93  1  0.32051343  0.57310867  0.01389356  1
  Al0+  Al94  1  0.17610780  0.42918846  0.01614403  1
  Al0+  Al95  1  0.82202497  0.07135334  0.01738631  1
  Si0+  Si96  1  0.82267431  0.57141799  0.01515074  1
  Si0+  Si97  1  0.42841585  0.32269825  0.98703785  1
  Si0+  Si98  1  0.93096907  0.82192258  0.65084521  1
  Si0+  Si99  1  0.07055376  0.17846573  0.65290117  1
  Si0+  Si100  1  0.67758640  0.43026181  0.68040711  1
  Si0+  Si101  1  0.57254452  0.67525845  0.98500379  1
  Si0+  Si102  1  0.92509993  0.82347925  0.98231576  1
  Si0+  Si103  1  0.42796541  0.82616011  0.64828934  1
  Si0+  Si104  1  0.17570272  0.42915784  0.34961311  1
  Si0+  Si105  1  0.92806104  0.32256140  0.31580689  1
  Si0+  Si106  1  0.57060276  0.17986704  0.98445161  1
  Si0+  Si107  1  0.92644860  0.32053169  0.64991904  1
  Si0+  Si108  1  0.07124819  0.67871899  0.31909292  1
  Si0+  Si109  1  0.31884508  0.07194450  0.68099640  1
  Si0+  Si110  1  0.17873250  0.92751887  0.68258801  1
  Si0+  Si111  1  0.57203848  0.17909301  0.65138568  1
  Si0+  Si112  1  0.42701467  0.32270581  0.31477494  1
  Si0+  Si113  1  0.17883426  0.92716511  0.01236655  1
  Si0+  Si114  1  0.82199930  0.07157940  0.34859946  1
  Si0+  Si115  1  0.92990469  0.82146901  0.31876929  1
  Si0+  Si116  1  0.32255568  0.57265237  0.68379192  1
  Si0+  Si117  1  0.82509160  0.57201490  0.35130238  1
  Si0+  Si118  1  0.82192763  0.56942153  0.68114815  1
  Si0+  Si119  1  0.07477647  0.17721829  0.98197926  1
  O2-  O120  1  0.24361818  -0.00149744  0.05694386  1
  O2-  O121  1  0.24896156  0.00150367  0.39973064  1
  O2-  O122  1  0.25242731  -0.00350061  0.72367911  1
  O2-  O123  1  0.24802801  0.50155945  0.06446928  1
  O2-  O124  1  0.24559034  0.49519826  0.39536976  1
  O2-  O125  1  0.25042009  0.50718425  0.72720799  1
  O2-  O126  1  0.75369555  -0.00346746  0.06708815  1
  O2-  O127  1  0.75298380  0.00447747  0.39433177  1
  O2-  O128  1  0.74865548  0.00116788  0.72997519  1
  O2-  O129  1  0.74955591  0.50747730  0.05857590  1
  O2-  O130  1  0.75224851  0.50728424  0.39511248  1
  O2-  O131  1  0.74866583  0.50060298  0.72350215  1
  O2-  O132  1  -0.00301153  0.25401475  0.27282502  1
  O2-  O133  1  -0.00405281  0.24656244  0.61081928  1
  O2-  O134  1  0.00540135  0.24446649  0.93594462  1
  O2-  O135  1  0.00194659  0.75100288  0.27674566  1
  O2-  O136  1  -0.00009340  0.75492578  0.60348701  1
  O2-  O137  1  -0.00524254  0.75493716  0.93875077  1
  O2-  O138  1  0.49363618  0.25194809  0.27069000  1
  O2-  O139  1  0.50269674  0.24651047  0.60678512  1
  O2-  O140  1  0.49899059  0.25145707  0.94328056  1
  O2-  O141  1  0.50338527  0.74968360  0.26624015  1
  O2-  O142  1  0.49971712  0.75882376  0.60777835  1
  O2-  O143  1  0.50711377  0.74661819  0.94004909  1
  O2-  O144  1  0.07363927  0.17838503  0.08722023  1
  O2-  O145  1  0.06781654  0.17966725  0.43291059  1
  O2-  O146  1  0.07384763  0.17988546  0.75769802  1
  O2-  O147  1  0.06911692  0.68313251  0.10038581  1
  O2-  O148  1  0.06760441  0.67732349  0.42434624  1
  O2-  O149  1  0.06938935  0.67685214  0.76353623  1
  O2-  O150  1  0.57026527  0.18004903  0.08943382  1
  O2-  O151  1  0.57004834  0.18238497  0.43331922  1
  O2-  O152  1  0.57145549  0.18160388  0.75732080  1
  O2-  O153  1  0.57126089  0.67305159  0.08979524  1
  O2-  O154  1  0.57205934  0.67936694  0.43059780  1
  O2-  O155  1  0.56847533  0.67698627  0.76722356  1
  O2-  O156  1  0.17308623  0.43267986  0.24447425  1
  O2-  O157  1  0.18041567  0.42909341  0.56636283  1
  O2-  O158  1  0.17774408  0.43037899  0.90193603  1
  O2-  O159  1  0.17718167  0.92883491  0.23420293  1
  O2-  O160  1  0.17492464  0.92972188  0.57803858  1
  O2-  O161  1  0.18131775  0.92809775  0.90600985  1
  O2-  O162  1  0.68394744  0.42761403  0.23605596  1
  O2-  O163  1  0.68031566  0.42944663  0.57563345  1
  O2-  O164  1  0.67752962  0.43114623  0.89770161  1
  O2-  O165  1  0.68127027  0.92879322  0.23514159  1
  O2-  O166  1  0.67871086  0.92777867  0.56885247  1
  O2-  O167  1  0.67896482  0.92928365  0.90326405  1
  O2-  O168  1  0.43023959  0.32388341  0.09162783  1
  O2-  O169  1  0.42829379  0.32161125  0.42104396  1
  O2-  O170  1  0.42865442  0.31898154  0.76773311  1
  O2-  O171  1  0.42866482  0.82263940  0.09769259  1
  O2-  O172  1  0.43169853  0.81806193  0.43236077  1
  O2-  O173  1  0.42579600  0.82651597  0.75406971  1
  O2-  O174  1  0.92996068  0.31702906  0.09803024  1
  O2-  O175  1  0.92877997  0.32353342  0.42199420  1
  O2-  O176  1  0.92495795  0.32325173  0.75471268  1
  O2-  O177  1  0.92577897  0.82164991  0.08814225  1
  O2-  O178  1  0.93059558  0.82106072  0.42407809  1
  O2-  O179  1  0.93357936  0.81955607  0.75626393  1
  O2-  O180  1  0.32065800  0.07080838  0.23651123  1
  O2-  O181  1  0.31737742  0.07377153  0.57654526  1
  O2-  O182  1  0.31990326  0.07194526  0.89852430  1
  O2-  O183  1  0.31690994  0.57241985  0.23673172  1
  O2-  O184  1  0.32223971  0.57009510  0.57828733  1
  O2-  O185  1  0.32159395  0.57068468  0.89990130  1
  O2-  O186  1  0.82203672  0.06936366  0.24336728  1
  O2-  O187  1  0.82561872  0.07039193  0.56839195  1
  O2-  O188  1  0.81736847  0.07167166  0.90369800  1
  O2-  O189  1  0.83235821  0.56986991  0.24624042  1
  O2-  O190  1  0.82390274  0.56733793  0.57621807  1
  O2-  O191  1  0.82358853  0.56906447  0.90896804  1
  O2-  O192  1  0.04118986  0.08251079  0.26359120  1
  O2-  O193  1  0.04523427  0.08511252  0.60682147  1
  O2-  O194  1  0.05218182  0.08213183  0.93626799  1
  O2-  O195  1  0.04086857  0.58779830  0.27131778  1
  O2-  O196  1  0.03647920  0.58265125  0.59510837  1
  O2-  O197  1  0.03655464  0.58455500  0.93249063  1
  O2-  O198  1  0.54133478  0.08325902  0.26571942  1
  O2-  O199  1  0.54618069  0.08444230  0.60803349  1
  O2-  O200  1  0.54136684  0.08931823  0.93557363  1
  O2-  O201  1  0.54356268  0.57638394  0.26939335  1
  O2-  O202  1  0.53869892  0.58601325  0.59728787  1
  O2-  O203  1  0.54346121  0.58214516  0.93798126  1
  O2-  O204  1  0.16748796  0.20844027  0.26436309  1
  O2-  O205  1  0.15973620  0.21020873  0.60284295  1
  O2-  O206  1  0.16929433  0.20351830  0.93708311  1
  O2-  O207  1  0.16356684  0.70569489  0.27417353  1
  O2-  O208  1  0.16930638  0.70612615  0.59774525  1
  O2-  O209  1  0.16446487  0.71092684  0.92826103  1
  O2-  O210  1  0.66660584  0.21351616  0.26645429  1
  O2-  O211  1  0.66515854  0.20536167  0.60474509  1
  O2-  O212  1  0.66166343  0.20920449  0.93695974  1
  O2-  O213  1  0.67603610  0.69654772  0.26789044  1
  O2-  O214  1  0.67084273  0.70455792  0.60107572  1
  O2-  O215  1  0.66862768  0.69588882  0.94059196  1
  O2-  O216  1  0.07709128  0.45706813  0.06708857  1
  O2-  O217  1  0.08218574  0.45551464  0.39652189  1
  O2-  O218  1  0.08014621  0.45811603  0.73072019  1
  O2-  O219  1  0.08324265  0.94626316  0.05624843  1
  O2-  O220  1  0.07955679  0.95848327  0.40177287  1
  O2-  O221  1  0.08880150  0.95609661  0.73291494  1
  O2-  O222  1  0.58257933  0.45586934  0.06909324  1
  O2-  O223  1  0.58359162  0.45561132  0.40482165  1
  O2-  O224  1  0.58515603  0.45920400  0.72583995  1
  O2-  O225  1  0.58239875  0.96145597  0.06813783  1
  O2-  O226  1  0.58418224  0.96005246  0.40245357  1
  O2-  O227  1  0.57850752  0.95507909  0.73574215  1
  O2-  O228  1  0.20290288  0.33103946  0.06848810  1
  O2-  O229  1  0.19882342  0.33426133  0.39353622  1
  O2-  O230  1  0.20997829  0.33372778  0.73440007  1
  O2-  O231  1  0.20636855  0.83431153  0.05705760  1
  O2-  O232  1  0.20514776  0.83153994  0.40352930  1
  O2-  O233  1  0.20577163  0.83407869  0.72753611  1
  O2-  O234  1  0.71285451  0.33496627  0.06534264  1
  O2-  O235  1  0.71494897  0.33451040  0.40566596  1
  O2-  O236  1  0.70433681  0.33818173  0.72762591  1
  O2-  O237  1  0.70365421  0.82724384  0.06861145  1
  O2-  O238  1  0.71318076  0.83102159  0.39955465  1
  O2-  O239  1  0.70808451  0.82887211  0.73565147  1
  O2-  O240  1  0.45704627  0.41554107  0.27100979  1
  O2-  O241  1  0.45752162  0.41563221  0.59830498  1
  O2-  O242  1  0.45710572  0.41404918  0.93840255  1
  O2-  O243  1  0.45594597  0.91999439  0.26902697  1
  O2-  O244  1  0.45039028  0.92147166  0.60417231  1
  O2-  O245  1  0.46283777  0.91763729  0.92924210  1
  O2-  O246  1  0.95359051  0.41623032  0.26947301  1
  O2-  O247  1  0.95627582  0.41030455  0.59974262  1
  O2-  O248  1  0.95718603  0.41447364  0.92898012  1
  O2-  O249  1  0.95651281  0.91224507  0.26936506  1
  O2-  O250  1  0.95675359  0.91639492  0.60623020  1
  O2-  O251  1  0.94968016  0.91744671  0.93632215  1
  O2-  O252  1  0.33190592  0.30301787  0.27033837  1
  O2-  O253  1  0.33197329  0.28792295  0.59848038  1
  O2-  O254  1  0.33610050  0.29352780  0.94060765  1
  O2-  O255  1  0.33021647  0.78993559  0.26875521  1
  O2-  O256  1  0.33503142  0.80011351  0.60141746  1
  O2-  O257  1  0.33615560  0.79144128  0.92696591  1
  O2-  O258  1  0.83460748  0.29709036  0.27065290  1
  O2-  O259  1  0.83418548  0.29445522  0.60153667  1
  O2-  O260  1  0.83286843  0.28663923  0.92954117  1
  O2-  O261  1  0.84004089  0.79103275  0.26944199  1
  O2-  O262  1  0.83764554  0.79451349  0.60526568  1
  O2-  O263  1  0.83175187  0.79671979  0.93590953  1
  O2-  O264  1  0.41678026  0.03921405  0.06494171  1
  O2-  O265  1  0.41923576  0.04495169  0.40478177  1
  O2-  O266  1  0.41185892  0.04959736  0.72903103  1
  O2-  O267  1  0.41666463  0.54341963  0.06967940  1
  O2-  O268  1  0.41551747  0.53858176  0.40500399  1
  O2-  O269  1  0.41511316  0.54285090  0.72943003  1
  O2-  O270  1  0.92369016  0.04849663  0.06600724  1
  O2-  O271  1  0.91535024  0.04404731  0.39401173  1
  O2-  O272  1  0.92050539  0.04477972  0.73754622  1
  O2-  O273  1  0.91347739  0.54024475  0.06279403  1
  O2-  O274  1  0.91610259  0.54046811  0.40141249  1
  O2-  O275  1  0.91232050  0.53740863  0.72891006  1
  O2-  O276  1  0.29454489  0.16674469  0.06962997  1
  O2-  O277  1  0.29242754  0.17280524  0.40069723  1
  O2-  O278  1  0.28597556  0.16175312  0.72956203  1
  O2-  O279  1  0.28955609  0.67164793  0.06436738  1
  O2-  O280  1  0.28843280  0.66498102  0.40685525  1
  O2-  O281  1  0.30082066  0.66891241  0.72594640  1
  O2-  O282  1  0.79181837  0.16856687  0.07004544  1
  O2-  O283  1  0.79966657  0.16652406  0.39301817  1
  O2-  O284  1  0.79416296  0.17175451  0.73398003  1
  O2-  O285  1  0.80508502  0.66660395  0.06026975  1
  O2-  O286  1  0.80545671  0.66657074  0.39763183  1
  O2-  O287  1  0.79876988  0.66181608  0.72890946  1
