# generated using pymatgen
data_Ca2Al2SiO7
_symmetry_space_group_name_H-M   'P 1'
_cell_length_a   15.45365377
_cell_length_b   15.45355202
_cell_length_c   15.28064054
_cell_angle_alpha   89.99517158
_cell_angle_beta   90.00256692
_cell_angle_gamma   89.98849930
_symmetry_Int_Tables_number   1
_chemical_formula_structural   Ca2Al2SiO7
_chemical_formula_sum   'Ca48 Al48 Si24 O168'
_cell_volume   3649.22839171
_cell_formula_units_Z   24
loop_
 _symmetry_equiv_pos_site_id
 _symmetry_equiv_pos_as_xyz
  1  'x, y, z'
loop_
 _atom_type_symbol
 _atom_type_oxidation_number
  Ca2+  2.0
  Al0+  0.0
  Si0+  0.0
  O2-  -2.0
loop_
 _atom_site_type_symbol
 _atom_site_label
 _atom_site_symmetry_multiplicity
 _atom_site_fract_x
 _atom_site_fract_y
 _atom_site_fract_z
 _atom_site_occupancy
  Ca2+  Ca0  1  0.17307715  0.08593697  0.17135209  1
  Ca2+  Ca1  1  0.17254797  0.07940699  0.50989643  1
  Ca2+  Ca2  1  0.15664066  0.08086718  0.83452510  1
  Ca2+  Ca3  1  0.16210848  0.58385872  0.17123403  1
  Ca2+  Ca4  1  0.17063636  0.58192446  0.50880435  1
  Ca2+  Ca5  1  0.17029370  0.58201994  0.83564674  1
  Ca2+  Ca6  1  0.65433148  0.07485752  0.17063142  1
  Ca2+  Ca7  1  0.66847579  0.07835900  0.50228975  1
  Ca2+  Ca8  1  0.67131126  0.07863012  0.84073755  1
  Ca2+  Ca9  1  0.67509420  0.58704519  0.16978952  1
  Ca2+  Ca10  1  0.67047862  0.58888927  0.49920104  1
  Ca2+  Ca11  1  0.67396131  0.57858012  0.84856508  1
  Ca2+  Ca12  1  0.07622612  0.32758217  0.15512134  1
  Ca2+  Ca13  1  0.08155055  0.33543260  0.50340877  1
  Ca2+  Ca14  1  0.07339251  0.32562306  0.82714781  1
  Ca2+  Ca15  1  0.08268056  0.81914787  0.16202817  1
  Ca2+  Ca16  1  0.07929259  0.83387926  0.49979238  1
  Ca2+  Ca17  1  0.07907927  0.83053354  0.82543912  1
  Ca2+  Ca18  1  0.58121629  0.32333495  0.15557052  1
  Ca2+  Ca19  1  0.58238513  0.32452975  0.49416719  1
  Ca2+  Ca20  1  0.58507979  0.33402793  0.83549320  1
  Ca2+  Ca21  1  0.58593215  0.83042200  0.16513062  1
  Ca2+  Ca22  1  0.57197348  0.83267617  0.48973255  1
  Ca2+  Ca23  1  0.58277924  0.82942821  0.83162944  1
  Ca2+  Ca24  1  0.33490259  0.41441053  0.16756950  1
  Ca2+  Ca25  1  0.32567182  0.42652190  0.51231255  1
  Ca2+  Ca26  1  0.32998136  0.41690626  0.83553517  1
  Ca2+  Ca27  1  0.33630600  0.92292950  0.17458798  1
  Ca2+  Ca28  1  0.33261771  0.91615906  0.50466465  1
  Ca2+  Ca29  1  0.32832904  0.91222280  0.83201341  1
  Ca2+  Ca30  1  0.83259315  0.42327669  0.16493448  1
  Ca2+  Ca31  1  0.83545506  0.42150979  0.50297964  1
  Ca2+  Ca32  1  0.83334972  0.41809444  0.84258546  1
  Ca2+  Ca33  1  0.81837760  0.91542573  0.17012403  1
  Ca2+  Ca34  1  0.82796359  0.91840230  0.50772854  1
  Ca2+  Ca35  1  0.83521032  0.92261343  0.83764226  1
  Ca2+  Ca36  1  0.42425438  0.16745438  0.16180700  1
  Ca2+  Ca37  1  0.42035563  0.16388854  0.49095966  1
  Ca2+  Ca38  1  0.42244319  0.17094508  0.83684520  1
  Ca2+  Ca39  1  0.43064322  0.67159281  0.16279368  1
  Ca2+  Ca40  1  0.41604759  0.67691564  0.49432740  1
  Ca2+  Ca41  1  0.42364148  0.66737075  0.82697405  1
  Ca2+  Ca42  1  0.92232050  0.17402286  0.15565755  1
  Ca2+  Ca43  1  0.91860693  0.16663265  0.50472869  1
  Ca2+  Ca44  1  0.91845210  0.17505895  0.82387268  1
  Ca2+  Ca45  1  0.92216065  0.65771789  0.16229771  1
  Ca2+  Ca46  1  0.92108167  0.67039697  0.49381619  1
  Ca2+  Ca47  1  0.91869031  0.66899342  0.83169504  1
  Al0+  Al48  1  0.00086507  -0.00270125  0.00326818  1
  Al0+  Al49  1  -0.00067741  0.00039044  0.33102142  1
  Al0+  Al50  1  -0.00017121  0.00018842  0.66587132  1
  Al0+  Al51  1  0.00265150  0.49964099  -0.00477675  1
  Al0+  Al52  1  -0.00163451  0.49990520  0.33484134  1
  Al0+  Al53  1  -0.00008046  0.49843495  0.66745365  1
  Al0+  Al54  1  0.49794230  0.00095763  -0.00153676  1
  Al0+  Al55  1  0.49860517  0.00137459  0.33567373  1
  Al0+  Al56  1  0.49983151  -0.00182288  0.66462930  1
  Al0+  Al57  1  0.49948594  0.50093216  -0.00281077  1
  Al0+  Al58  1  0.49942312  0.50033415  0.33251733  1
  Al0+  Al59  1  0.50167694  0.49887345  0.66814904  1
  Al0+  Al60  1  0.25070853  0.24949378  -0.00642988  1
  Al0+  Al61  1  0.24882789  0.24993146  0.33935216  1
  Al0+  Al62  1  0.25133958  0.25016552  0.66767365  1
  Al0+  Al63  1  0.24941855  0.74948683  -0.00166656  1
  Al0+  Al64  1  0.24825199  0.75049433  0.32535040  1
  Al0+  Al65  1  0.25267007  0.75119814  0.67132616  1
  Al0+  Al66  1  0.74990407  0.24998414  -0.00228203  1
  Al0+  Al67  1  0.75023028  0.25025394  0.32901323  1
  Al0+  Al68  1  0.75123859  0.24974020  0.66504208  1
  Al0+  Al69  1  0.75031296  0.75136243  0.00411834  1
  Al0+  Al70  1  0.74980048  0.75076445  0.34108762  1
  Al0+  Al71  1  0.75018609  0.74919657  0.66354900  1
  Al0+  Al72  1  0.42975066  0.81981132  0.65303311  1
  Al0+  Al73  1  0.42912326  0.32281737  0.98450319  1
  Al0+  Al74  1  0.17785133  0.42805116  0.68449922  1
  Al0+  Al75  1  0.31894196  0.07036880  0.34691922  1
  Al0+  Al76  1  0.67791361  0.93092531  0.01303913  1
  Al0+  Al77  1  0.32233461  0.57195265  0.68263016  1
  Al0+  Al78  1  0.07181925  0.17626752  0.98579733  1
  Al0+  Al79  1  0.92824730  0.82133748  0.65356650  1
  Al0+  Al80  1  0.06839100  0.67906686  0.32139290  1
  Al0+  Al81  1  0.57264055  0.68111739  0.98702868  1
  Al0+  Al82  1  0.81930339  0.06975825  0.67968444  1
  Al0+  Al83  1  0.07193756  0.67874194  0.98396807  1
  Al0+  Al84  1  0.92748821  0.32225865  0.64841260  1
  Al0+  Al85  1  0.92881631  0.32048262  0.98523351  1
  Al0+  Al86  1  0.82076363  0.56949871  0.34925634  1
  Al0+  Al87  1  0.57054855  0.18036062  0.32078257  1
  Al0+  Al88  1  0.42821983  0.82198540  0.31675563  1
  Al0+  Al89  1  0.82293733  0.57056989  0.01461857  1
  Al0+  Al90  1  0.57288835  0.67829705  0.31837204  1
  Al0+  Al91  1  0.07211953  0.17864726  0.64958476  1
  Al0+  Al92  1  0.17978260  0.93094004  0.67988373  1
  Al0+  Al93  1  0.67665035  0.42742608  0.01594471  1
  Al0+  Al94  1  0.67942785  0.93065514  0.34920433  1
  Al0+  Al95  1  0.57133188  0.17694769  0.98361799  1
  Si0+  Si96  1  0.32104165  0.57198274  0.34579612  1
  Si0+  Si97  1  0.18193588  0.42918162  0.01501695  1
  Si0+  Si98  1  0.82058471  0.57220041  0.68139191  1
  Si0+  Si99  1  0.42564755  0.32237649  0.31985912  1
  Si0+  Si100  1  0.67685661  0.92700870  0.68345736  1
  Si0+  Si101  1  0.07181465  0.67901463  0.65178830  1
  Si0+  Si102  1  0.32511476  0.07274605  0.68538935  1
  Si0+  Si103  1  0.93029693  0.32126631  0.31752401  1
  Si0+  Si104  1  0.82313687  0.07197931  0.01695683  1
  Si0+  Si105  1  0.42982859  0.32193628  0.65056313  1
  Si0+  Si106  1  0.07232290  0.17885201  0.31933925  1
  Si0+  Si107  1  0.17834083  0.42962931  0.34780757  1
  Si0+  Si108  1  0.82451290  0.07446040  0.34955271  1
  Si0+  Si109  1  0.17652255  0.92657200  0.34868718  1
  Si0+  Si110  1  0.57059432  0.17914920  0.65148836  1
  Si0+  Si111  1  0.31859821  0.07086043  0.01423877  1
  Si0+  Si112  1  0.92667888  0.82387310  0.31661707  1
  Si0+  Si113  1  0.32135030  0.57321144  0.01740443  1
  Si0+  Si114  1  0.67710640  0.42631876  0.34992153  1
  Si0+  Si115  1  0.57257739  0.67573169  0.64970484  1
  Si0+  Si116  1  0.68015517  0.42822676  0.68034071  1
  Si0+  Si117  1  0.17803144  0.92634591  0.01702230  1
  Si0+  Si118  1  0.92799721  0.82106461  0.98509353  1
  Si0+  Si119  1  0.42763434  0.82247440  0.98258343  1
  O2-  O120  1  0.24723594  0.00001940  0.05728384  1
  O2-  O121  1  0.24425943  -0.00430746  0.39314323  1
  O2-  O122  1  0.25263590  0.00739149  0.72857765  1
  O2-  O123  1  0.25161213  0.50041997  0.06014581  1
  O2-  O124  1  0.25054123  0.50037737  0.38827946  1
  O2-  O125  1  0.25005151  0.50058854  0.73370472  1
  O2-  O126  1  0.75054622  0.00762068  0.06141328  1
  O2-  O127  1  0.75653104  0.00474555  0.39335221  1
  O2-  O128  1  0.74669257  -0.00613259  0.72785644  1
  O2-  O129  1  0.74885508  0.50015784  0.06503469  1
  O2-  O130  1  0.74273718  0.49730381  0.39581787  1
  O2-  O131  1  0.74957135  0.50089499  0.72195391  1
  O2-  O132  1  -0.00085630  0.24711733  0.27706223  1
  O2-  O133  1  0.00202449  0.25233330  0.59829538  1
  O2-  O134  1  -0.00416498  0.24341049  0.93643706  1
  O2-  O135  1  -0.00571189  0.75374130  0.27301939  1
  O2-  O136  1  0.00241869  0.74607246  0.60637477  1
  O2-  O137  1  -0.00358036  0.75290558  0.93963058  1
  O2-  O138  1  0.49644607  0.25651688  0.27578307  1
  O2-  O139  1  0.49741211  0.24787618  0.60827071  1
  O2-  O140  1  0.50494654  0.25461437  0.93415755  1
  O2-  O141  1  0.50191127  0.75124028  0.26795064  1
  O2-  O142  1  0.50364334  0.74445269  0.60653413  1
  O2-  O143  1  0.49733984  0.75462551  0.93922047  1
  O2-  O144  1  0.07313966  0.18005143  0.10061579  1
  O2-  O145  1  0.07396452  0.17924574  0.42383331  1
  O2-  O146  1  0.06739484  0.17849644  0.76270251  1
  O2-  O147  1  0.07282734  0.67954554  0.09741474  1
  O2-  O148  1  0.06916220  0.67885126  0.43444073  1
  O2-  O149  1  0.06987526  0.68042099  0.75735646  1
  O2-  O150  1  0.56499633  0.17403179  0.09716476  1
  O2-  O151  1  0.56979423  0.18222875  0.43465666  1
  O2-  O152  1  0.57038644  0.17997132  0.75619629  1
  O2-  O153  1  0.57181521  0.68283709  0.09982088  1
  O2-  O154  1  0.56854713  0.67817583  0.43224769  1
  O2-  O155  1  0.57374588  0.67617050  0.75536843  1
  O2-  O156  1  0.17834087  0.42763981  0.24247854  1
  O2-  O157  1  0.18034134  0.43158721  0.56964185  1
  O2-  O158  1  0.18354013  0.43046120  0.91059035  1
  O2-  O159  1  0.17601293  0.92855719  0.24279951  1
  O2-  O160  1  0.18209184  0.93039681  0.56648840  1
  O2-  O161  1  0.17788364  0.92451497  0.91210189  1
  O2-  O162  1  0.67880712  0.42378369  0.24514597  1
  O2-  O163  1  0.67888966  0.42828899  0.57490525  1
  O2-  O164  1  0.67807682  0.43115456  0.90162752  1
  O2-  O165  1  0.67986198  0.93192376  0.23591580  1
  O2-  O166  1  0.67596860  0.92954886  0.57787876  1
  O2-  O167  1  0.67986432  0.93106300  0.89980049  1
  O2-  O168  1  0.42468346  0.31753766  0.09858087  1
  O2-  O169  1  0.42543802  0.32146475  0.42575563  1
  O2-  O170  1  0.43242161  0.32342486  0.75516432  1
  O2-  O171  1  0.42616157  0.82240176  0.08804603  1
  O2-  O172  1  0.42611832  0.81908837  0.43046551  1
  O2-  O173  1  0.43266817  0.82050847  0.76622610  1
  O2-  O174  1  0.93370206  0.32086508  0.09988857  1
  O2-  O175  1  0.93126034  0.32283837  0.42240391  1
  O2-  O176  1  0.92440717  0.32098892  0.76119182  1
  O2-  O177  1  0.93078072  0.82257252  0.09078626  1
  O2-  O178  1  0.92975447  0.82495520  0.42237809  1
  O2-  O179  1  0.92777676  0.81857457  0.76671462  1
  O2-  O180  1  0.31585836  0.07310938  0.23350970  1
  O2-  O181  1  0.32675859  0.07107312  0.57955740  1
  O2-  O182  1  0.31996966  0.06924790  0.90932263  1
  O2-  O183  1  0.32089777  0.56955452  0.24065800  1
  O2-  O184  1  0.32097772  0.57070786  0.56797537  1
  O2-  O185  1  0.31940073  0.57515190  0.91265984  1
  O2-  O186  1  0.82766233  0.07449525  0.24415826  1
  O2-  O187  1  0.81509301  0.06951748  0.56618835  1
  O2-  O188  1  0.82513661  0.06779605  0.91141404  1
  O2-  O189  1  0.82523991  0.56505229  0.23683776  1
  O2-  O190  1  0.81960376  0.57265699  0.57609347  1
  O2-  O191  1  0.82174976  0.57145649  0.90051727  1
  O2-  O192  1  0.04847605  0.08600352  0.27138222  1
  O2-  O193  1  0.04158710  0.08120219  0.59600667  1
  O2-  O194  1  0.04904442  0.07444139  0.93836413  1
  O2-  O195  1  0.03759651  0.58209340  0.26701912  1
  O2-  O196  1  0.04730629  0.58487820  0.60671375  1
  O2-  O197  1  0.04472284  0.58258881  0.92935913  1
  O2-  O198  1  0.53581331  0.08557229  0.26761973  1
  O2-  O199  1  0.54438785  0.08652487  0.60477428  1
  O2-  O200  1  0.53542158  0.08177066  0.92802499  1
  O2-  O201  1  0.54440843  0.57914057  0.26637776  1
  O2-  O202  1  0.54872902  0.58140520  0.60383252  1
  O2-  O203  1  0.54181304  0.58517464  0.93275270  1
  O2-  O204  1  0.16339666  0.21031883  0.27201567  1
  O2-  O205  1  0.17323218  0.20446049  0.59931122  1
  O2-  O206  1  0.16803486  0.20562775  0.93137451  1
  O2-  O207  1  0.16342143  0.70789973  0.26304626  1
  O2-  O208  1  0.16587918  0.70589143  0.60806358  1
  O2-  O209  1  0.16781522  0.71180840  0.93017526  1
  O2-  O210  1  0.66746413  0.20730271  0.26556509  1
  O2-  O211  1  0.66054946  0.21020448  0.60281383  1
  O2-  O212  1  0.67161873  0.19865013  0.93306749  1
  O2-  O213  1  0.67326777  0.70595019  0.27023234  1
  O2-  O214  1  0.66583026  0.70134493  0.60315450  1
  O2-  O215  1  0.66911590  0.71235711  0.93302155  1
  O2-  O216  1  0.09025328  0.45738018  0.06256354  1
  O2-  O217  1  0.08780241  0.45898853  0.39613936  1
  O2-  O218  1  0.07859562  0.45490981  0.73579331  1
  O2-  O219  1  0.08619548  0.95029618  0.06688946  1
  O2-  O220  1  0.08187461  0.95162367  0.39343756  1
  O2-  O221  1  0.08293962  0.95921299  0.73445119  1
  O2-  O222  1  0.57607815  0.45286973  0.06623091  1
  O2-  O223  1  0.58152944  0.44803861  0.39544086  1
  O2-  O224  1  0.58805206  0.45320716  0.72821381  1
  O2-  O225  1  0.57987093  0.96043270  0.06599139  1
  O2-  O226  1  0.58371635  0.96407676  0.40326119  1
  O2-  O227  1  0.58392707  0.95460177  0.72971959  1
  O2-  O228  1  0.21050034  0.33664296  0.06200148  1
  O2-  O229  1  0.20501702  0.33881553  0.39794489  1
  O2-  O230  1  0.20800963  0.32946467  0.73548120  1
  O2-  O231  1  0.20927747  0.83556939  0.06523771  1
  O2-  O232  1  0.20207916  0.83229032  0.39325472  1
  O2-  O233  1  0.21216130  0.83604008  0.73640560  1
  O2-  O234  1  0.70386114  0.32748640  0.06735554  1
  O2-  O235  1  0.70691313  0.33357536  0.39717187  1
  O2-  O236  1  0.70847205  0.33699882  0.72769971  1
  O2-  O237  1  0.71123458  0.83655152  0.06971372  1
  O2-  O238  1  0.70793845  0.83492679  0.40596578  1
  O2-  O239  1  0.70106125  0.83166136  0.72649995  1
  O2-  O240  1  0.44687093  0.41675900  0.27407626  1
  O2-  O241  1  0.46067919  0.41260974  0.60156357  1
  O2-  O242  1  0.45073067  0.42226390  0.93127584  1
  O2-  O243  1  0.45610354  0.92119033  0.26654156  1
  O2-  O244  1  0.45984022  0.91652044  0.59768835  1
  O2-  O245  1  0.45105528  0.91600247  0.93632024  1
  O2-  O246  1  0.96263890  0.41100805  0.26968678  1
  O2-  O247  1  0.95629883  0.42151570  0.59581657  1
  O2-  O248  1  0.96245818  0.41600548  0.93108480  1
  O2-  O249  1  0.95154537  0.91714754  0.26862533  1
  O2-  O250  1  0.95946629  0.91627616  0.59787048  1
  O2-  O251  1  0.95536649  0.91428556  0.93912017  1
  O2-  O252  1  0.33191813  0.29506091  0.27429374  1
  O2-  O253  1  0.33688410  0.29820741  0.60390001  1
  O2-  O254  1  0.33401861  0.28874786  0.92835491  1
  O2-  O255  1  0.33040098  0.79473668  0.26206656  1
  O2-  O256  1  0.33259861  0.78993014  0.59936432  1
  O2-  O257  1  0.33461955  0.79447658  0.93679796  1
  O2-  O258  1  0.83813741  0.29615598  0.27009911  1
  O2-  O259  1  0.82993060  0.29088323  0.59377985  1
  O2-  O260  1  0.82914257  0.29854306  0.93352172  1
  O2-  O261  1  0.83221470  0.79852839  0.27423613  1
  O2-  O262  1  0.83193613  0.79103539  0.59774015  1
  O2-  O263  1  0.83469751  0.79726441  0.93887391  1
  O2-  O264  1  0.40954064  0.04171301  0.06280375  1
  O2-  O265  1  0.41453377  0.04127617  0.40292330  1
  O2-  O266  1  0.41730418  0.04205310  0.73190808  1
  O2-  O267  1  0.41334349  0.54610658  0.06415123  1
  O2-  O268  1  0.41255951  0.54595554  0.39513609  1
  O2-  O269  1  0.42118941  0.54135040  0.73407491  1
  O2-  O270  1  0.91542366  0.04276478  0.06576440  1
  O2-  O271  1  0.91888707  0.04963306  0.39573661  1
  O2-  O272  1  0.91571551  0.03997499  0.73315086  1
  O2-  O273  1  0.92239809  0.53961294  0.06571054  1
  O2-  O274  1  0.91591048  0.53463026  0.40510064  1
  O2-  O275  1  0.91299184  0.54610513  0.72743350  1
  O2-  O276  1  0.29052688  0.16284750  0.06162771  1
  O2-  O277  1  0.28875501  0.16650161  0.40406348  1
  O2-  O278  1  0.30524521  0.16824739  0.72890818  1
  O2-  O279  1  0.29096695  0.66439368  0.06517909  1
  O2-  O280  1  0.29048960  0.66403860  0.39115438  1
  O2-  O281  1  0.29622057  0.66955947  0.73720262  1
  O2-  O282  1  0.80315271  0.16754283  0.06032720  1
  O2-  O283  1  0.79746415  0.16820281  0.39488343  1
  O2-  O284  1  0.78691023  0.16621274  0.73305603  1
  O2-  O285  1  0.79683228  0.66944380  0.06790523  1
  O2-  O286  1  0.79439613  0.66658494  0.40472067  1
  O2-  O287  1  0.79273216  0.66406588  0.72896613  1
