# generated using pymatgen
data_Ca2Al2SiO7
_symmetry_space_group_name_H-M   'P 1'
_cell_length_a   15.46202154
_cell_length_b   15.46343573
_cell_length_c   15.28586089
_cell_angle_alpha   89.98847280
_cell_angle_beta   89.98434581
_cell_angle_gamma   89.97389227
_symmetry_Int_Tables_number   1
_chemical_formula_structural   Ca2Al2SiO7
_chemical_formula_sum   'Ca48 Al48 Si24 O168'
_cell_volume   3654.78724323
_cell_formula_units_Z   24
loop_
 _symmetry_equiv_pos_site_id
 _symmetry_equiv_pos_as_xyz
  1  'x, y, z'
loop_
 _atom_type_symbol
 _atom_type_oxidation_number
  Ca2+  2.0
  Al0+  0.0
  Si0+  0.0
  O2-  -2.0
loop_
 _atom_site_type_symbol
 _atom_site_label
 _atom_site_symmetry_multiplicity
 _atom_site_fract_x
 _atom_site_fract_y
 _atom_site_fract_z
 _atom_site_occupancy
  Ca2+  Ca0  1  0.17621218  0.09020784  0.17191646  1
  Ca2+  Ca1  1  0.17027239  0.08988395  0.50259377  1
  Ca2+  Ca2  1  0.17161158  0.08918187  0.84067324  1
  Ca2+  Ca3  1  0.16853728  0.58429279  0.17645613  1
  Ca2+  Ca4  1  0.17512220  0.59587331  0.50186399  1
  Ca2+  Ca5  1  0.17054197  0.58433507  0.83473597  1
  Ca2+  Ca6  1  0.66592209  0.08013680  0.17439111  1
  Ca2+  Ca7  1  0.66802511  0.07516578  0.50687996  1
  Ca2+  Ca8  1  0.66837181  0.08407052  0.83148565  1
  Ca2+  Ca9  1  0.67232172  0.58255793  0.16827687  1
  Ca2+  Ca10  1  0.67244007  0.57897492  0.50939916  1
  Ca2+  Ca11  1  0.67889016  0.58125294  0.83692857  1
  Ca2+  Ca12  1  0.08260371  0.32380122  0.16197383  1
  Ca2+  Ca13  1  0.08005752  0.32451480  0.50073822  1
  Ca2+  Ca14  1  0.07652333  0.32293872  0.83059263  1
  Ca2+  Ca15  1  0.07277724  0.82979789  0.16664083  1
  Ca2+  Ca16  1  0.06716429  0.83133713  0.49455635  1
  Ca2+  Ca17  1  0.06780103  0.83679147  0.82900660  1
  Ca2+  Ca18  1  0.58160152  0.31995905  0.16317138  1
  Ca2+  Ca19  1  0.58825931  0.31881007  0.49746583  1
  Ca2+  Ca20  1  0.58655622  0.32003907  0.82999408  1
  Ca2+  Ca21  1  0.57250010  0.84177151  0.16654652  1
  Ca2+  Ca22  1  0.57571251  0.84326578  0.49711495  1
  Ca2+  Ca23  1  0.57217201  0.83913785  0.82726025  1
  Ca2+  Ca24  1  0.33164376  0.42458597  0.17657510  1
  Ca2+  Ca25  1  0.33195361  0.43012259  0.50630157  1
  Ca2+  Ca26  1  0.33409918  0.42241784  0.83567273  1
  Ca2+  Ca27  1  0.33653684  0.92319024  0.17201018  1
  Ca2+  Ca28  1  0.33479395  0.91708912  0.50144941  1
  Ca2+  Ca29  1  0.33255698  0.91759330  0.83944040  1
  Ca2+  Ca30  1  0.84076516  0.41928872  0.16421428  1
  Ca2+  Ca31  1  0.83860127  0.42284066  0.50906614  1
  Ca2+  Ca32  1  0.84777636  0.42420444  0.83718858  1
  Ca2+  Ca33  1  0.82747699  0.91216327  0.17372334  1
  Ca2+  Ca34  1  0.82366912  0.91559039  0.50949042  1
  Ca2+  Ca35  1  0.83091459  0.91739038  0.83388478  1
  Ca2+  Ca36  1  0.42612877  0.15202735  0.16340597  1
  Ca2+  Ca37  1  0.42855102  0.15954605  0.49402794  1
  Ca2+  Ca38  1  0.42797864  0.15760519  0.83143641  1
  Ca2+  Ca39  1  0.41148672  0.67920578  0.16526895  1
  Ca2+  Ca40  1  0.41109775  0.67622806  0.49477469  1
  Ca2+  Ca41  1  0.41462220  0.67780444  0.82505066  1
  Ca2+  Ca42  1  0.93124383  0.16927625  0.15690518  1
  Ca2+  Ca43  1  0.92588082  0.16065235  0.49891789  1
  Ca2+  Ca44  1  0.92376145  0.17234381  0.82002632  1
  Ca2+  Ca45  1  0.91398634  0.67649475  0.16242889  1
  Ca2+  Ca46  1  0.91402257  0.67602738  0.49478394  1
  Ca2+  Ca47  1  0.90784731  0.67410503  0.82884818  1
  Al0+  Al48  1  0.00099287  -0.00256836  -0.00560061  1
  Al0+  Al49  1  0.00080391  0.00106895  0.32337564  1
  Al0+  Al50  1  0.00014375  -0.00183427  0.66106133  1
  Al0+  Al51  1  0.00258157  0.50047977  0.00413748  1
  Al0+  Al52  1  0.00090759  0.49912124  0.33250011  1
  Al0+  Al53  1  0.00382863  0.49852408  0.66806497  1
  Al0+  Al54  1  0.49961115  -0.00115534  -0.00494285  1
  Al0+  Al55  1  0.50024526  -0.00044649  0.33376164  1
  Al0+  Al56  1  0.49887423  -0.00050433  0.66246446  1
  Al0+  Al57  1  0.50235597  0.49977205  0.00245105  1
  Al0+  Al58  1  0.50069167  0.49976375  0.33879106  1
  Al0+  Al59  1  0.50000186  0.50094887  0.67402834  1
  Al0+  Al60  1  0.25280933  0.25188398  0.00226094  1
  Al0+  Al61  1  0.25080197  0.25277197  0.33680945  1
  Al0+  Al62  1  0.25109160  0.25206193  0.66514151  1
  Al0+  Al63  1  0.24879499  0.75163677  -0.00225961  1
  Al0+  Al64  1  0.24853209  0.75220995  0.32949317  1
  Al0+  Al65  1  0.25005427  0.75249979  0.66916089  1
  Al0+  Al66  1  0.74979854  0.25100836  -0.00553358  1
  Al0+  Al67  1  0.74991696  0.25027911  0.32857689  1
  Al0+  Al68  1  0.75024508  0.24967661  0.66133484  1
  Al0+  Al69  1  0.74889219  0.74849059  0.00222346  1
  Al0+  Al70  1  0.74647761  0.74915135  0.33484743  1
  Al0+  Al71  1  0.74580578  0.74849127  0.67189081  1
  Al0+  Al72  1  0.67650146  0.92949117  0.68391842  1
  Al0+  Al73  1  0.07319710  0.18004089  0.31814420  1
  Al0+  Al74  1  0.07409205  0.17833155  0.98509027  1
  Al0+  Al75  1  0.32028659  0.06905058  0.01275728  1
  Al0+  Al76  1  0.57002995  0.17847817  0.98571644  1
  Al0+  Al77  1  0.06992420  0.67894436  0.31974160  1
  Al0+  Al78  1  0.92950207  0.32262340  0.65069218  1
  Al0+  Al79  1  0.92649168  0.81921915  0.98473903  1
  Al0+  Al80  1  0.92514864  0.81855763  0.65338979  1
  Al0+  Al81  1  0.92435618  0.82073044  0.31852455  1
  Al0+  Al82  1  0.43013059  0.81990166  0.31968060  1
  Al0+  Al83  1  0.07286555  0.17714419  0.65051600  1
  Al0+  Al84  1  0.82109779  0.57003032  0.01613547  1
  Al0+  Al85  1  0.32017841  0.57300760  0.68247246  1
  Al0+  Al86  1  0.42844817  0.81982224  0.65121805  1
  Al0+  Al87  1  0.42970731  0.81900594  0.98579007  1
  Al0+  Al88  1  0.31984172  0.07078343  0.34814136  1
  Al0+  Al89  1  0.68012427  0.92965295  0.34619986  1
  Al0+  Al90  1  0.56966288  0.17977694  0.65123954  1
  Al0+  Al91  1  0.31975712  0.57321064  0.34688362  1
  Al0+  Al92  1  0.56951892  0.17911947  0.31901649  1
  Al0+  Al93  1  0.93059432  0.32129944  0.98533260  1
  Al0+  Al94  1  0.82259241  0.07039613  0.68029367  1
  Al0+  Al95  1  0.82223193  0.56922552  0.67945153  1
  Si0+  Si96  1  0.17878024  0.92941106  0.68069687  1
  Si0+  Si97  1  0.07200631  0.67796684  0.98296125  1
  Si0+  Si98  1  0.82396024  0.07352972  0.34598122  1
  Si0+  Si99  1  0.18181372  0.43084041  0.01688167  1
  Si0+  Si100  1  0.57019687  0.67616951  0.65113184  1
  Si0+  Si101  1  0.82053990  0.56928550  0.34813033  1
  Si0+  Si102  1  0.67725865  0.42552611  0.01901677  1
  Si0+  Si103  1  0.82244100  0.07248472  0.01298109  1
  Si0+  Si104  1  0.42873856  0.32596404  0.98449793  1
  Si0+  Si105  1  0.67915464  0.42700812  0.34866982  1
  Si0+  Si106  1  0.17692076  0.42857134  0.35302352  1
  Si0+  Si107  1  0.32002255  0.07184140  0.68047885  1
  Si0+  Si108  1  0.17586900  0.92893029  0.34977048  1
  Si0+  Si109  1  0.42938056  0.32416314  0.31891529  1
  Si0+  Si110  1  0.67784299  0.42616988  0.68415148  1
  Si0+  Si111  1  0.17535089  0.92630692  0.01813994  1
  Si0+  Si112  1  0.92758629  0.32245558  0.31568960  1
  Si0+  Si113  1  0.67982203  0.93053651  0.01479842  1
  Si0+  Si114  1  0.42827836  0.32517695  0.65041971  1
  Si0+  Si115  1  0.57175985  0.67558081  0.98330039  1
  Si0+  Si116  1  0.07216462  0.67880020  0.65291139  1
  Si0+  Si117  1  0.57166185  0.67361212  0.31733913  1
  Si0+  Si118  1  0.18025583  0.42621784  0.68670630  1
  Si0+  Si119  1  0.32231122  0.57334695  0.01570377  1
  O2-  O120  1  0.24228089  -0.00202799  0.06053492  1
  O2-  O121  1  0.24206459  -0.00036692  0.39547425  1
  O2-  O122  1  0.24533781  0.00515752  0.72248441  1
  O2-  O123  1  0.25319468  0.50180383  0.05928709  1
  O2-  O124  1  0.24343361  0.50073890  0.39527166  1
  O2-  O125  1  0.24785069  0.49687764  0.73059022  1
  O2-  O126  1  0.75223574  0.00075878  0.05675675  1
  O2-  O127  1  0.75888680  0.00134774  0.38999642  1
  O2-  O128  1  0.75094136  -0.00064511  0.73353030  1
  O2-  O129  1  0.74762183  0.49338330  0.06276479  1
  O2-  O130  1  0.75086624  0.49734605  0.39073114  1
  O2-  O131  1  0.75071518  0.49118707  0.72718184  1
  O2-  O132  1  -0.00456157  0.25236432  0.27301945  1
  O2-  O133  1  -0.00291510  0.24617998  0.60135317  1
  O2-  O134  1  -0.00396410  0.24359061  0.93532204  1
  O2-  O135  1  -0.00447606  0.74743710  0.26864535  1
  O2-  O136  1  -0.00294875  0.73999360  0.60885719  1
  O2-  O137  1  0.00198809  0.74472675  0.93864543  1
  O2-  O138  1  0.49270242  0.25196177  0.27236326  1
  O2-  O139  1  0.49593805  0.25636897  0.60551430  1
  O2-  O140  1  0.49557999  0.25516671  0.94131698  1
  O2-  O141  1  0.50302078  0.74265474  0.27364841  1
  O2-  O142  1  0.50228500  0.74420365  0.60528858  1
  O2-  O143  1  0.50081389  0.74137440  0.93884526  1
  O2-  O144  1  0.07533251  0.18267784  0.09880779  1
  O2-  O145  1  0.07293423  0.18174179  0.43086966  1
  O2-  O146  1  0.07629997  0.17994098  0.76383918  1
  O2-  O147  1  0.07334969  0.67915284  0.08844436  1
  O2-  O148  1  0.06809829  0.68076336  0.43347206  1
  O2-  O149  1  0.07431506  0.68213924  0.75867450  1
  O2-  O150  1  0.56858943  0.17771052  0.09897604  1
  O2-  O151  1  0.57018464  0.18092835  0.43175041  1
  O2-  O152  1  0.56649996  0.17978020  0.76458248  1
  O2-  O153  1  0.57097092  0.67474431  0.08908343  1
  O2-  O154  1  0.57251833  0.67024375  0.42253678  1
  O2-  O155  1  0.56792925  0.67542303  0.75680694  1
  O2-  O156  1  0.17922922  0.42785303  0.24699608  1
  O2-  O157  1  0.18214221  0.42446253  0.58139371  1
  O2-  O158  1  0.18341383  0.43232728  0.91199283  1
  O2-  O159  1  0.17737168  0.92855866  0.24412480  1
  O2-  O160  1  0.18101505  0.92619563  0.57574921  1
  O2-  O161  1  0.17708267  0.92304919  0.91233419  1
  O2-  O162  1  0.67811114  0.42762597  0.24363958  1
  O2-  O163  1  0.67470696  0.42996981  0.57822270  1
  O2-  O164  1  0.67227872  0.42742264  0.91404401  1
  O2-  O165  1  0.67882477  0.93195991  0.23228375  1
  O2-  O166  1  0.67589379  0.93169706  0.57023073  1
  O2-  O167  1  0.67884365  0.93060606  0.91009642  1
  O2-  O168  1  0.43016601  0.33145020  0.08992427  1
  O2-  O169  1  0.43346856  0.32675226  0.42419036  1
  O2-  O170  1  0.42866336  0.32497545  0.75630481  1
  O2-  O171  1  0.43132650  0.81944509  0.09894687  1
  O2-  O172  1  0.43073393  0.81920683  0.43252173  1
  O2-  O173  1  0.42783396  0.81928073  0.76456720  1
  O2-  O174  1  0.93427009  0.32030381  0.09937155  1
  O2-  O175  1  0.92685921  0.32483024  0.42086019  1
  O2-  O176  1  0.93432935  0.32376742  0.76398810  1
  O2-  O177  1  0.92535911  0.81770062  0.09766871  1
  O2-  O178  1  0.92342455  0.81832771  0.43209102  1
  O2-  O179  1  0.92777158  0.81824693  0.76662049  1
  O2-  O180  1  0.32103950  0.06785199  0.23483522  1
  O2-  O181  1  0.32062479  0.07066782  0.57536913  1
  O2-  O182  1  0.32111911  0.06656158  0.89925737  1
  O2-  O183  1  0.31979588  0.57002413  0.23323458  1
  O2-  O184  1  0.31786573  0.57326030  0.56939059  1
  O2-  O185  1  0.32075336  0.57252180  0.91070933  1
  O2-  O186  1  0.82093330  0.07529060  0.23978301  1
  O2-  O187  1  0.82242171  0.06781531  0.56640116  1
  O2-  O188  1  0.82088724  0.07196075  0.90834029  1
  O2-  O189  1  0.81928374  0.56826517  0.24294956  1
  O2-  O190  1  0.81895128  0.56894598  0.56579807  1
  O2-  O191  1  0.81930345  0.56965728  0.90322933  1
  O2-  O192  1  0.04755068  0.08375563  0.26127441  1
  O2-  O193  1  0.04849403  0.07845602  0.59655807  1
  O2-  O194  1  0.05483346  0.07696098  0.93592975  1
  O2-  O195  1  0.04686276  0.57851344  0.26770216  1
  O2-  O196  1  0.05754679  0.58226776  0.60997928  1
  O2-  O197  1  0.04940677  0.58339379  0.93886335  1
  O2-  O198  1  0.53791949  0.08335001  0.26484254  1
  O2-  O199  1  0.53498840  0.08514055  0.59684883  1
  O2-  O200  1  0.53654203  0.08431600  0.92966318  1
  O2-  O201  1  0.54690944  0.58006683  0.27015344  1
  O2-  O202  1  0.54571343  0.58156960  0.60613987  1
  O2-  O203  1  0.55011686  0.58079102  0.93791245  1
  O2-  O204  1  0.16988423  0.21523485  0.26618765  1
  O2-  O205  1  0.17076102  0.21071111  0.59812769  1
  O2-  O206  1  0.17159542  0.21314810  0.93377913  1
  O2-  O207  1  0.16655064  0.70872207  0.26408473  1
  O2-  O208  1  0.16251346  0.71305782  0.60577374  1
  O2-  O209  1  0.16517313  0.70398194  0.93578893  1
  O2-  O210  1  0.66523534  0.21178740  0.26370226  1
  O2-  O211  1  0.66571300  0.20865970  0.59586798  1
  O2-  O212  1  0.66569104  0.20920717  0.93059392  1
  O2-  O213  1  0.66451129  0.69986302  0.27026468  1
  O2-  O214  1  0.66387168  0.70017178  0.60544657  1
  O2-  O215  1  0.66434561  0.70390386  0.93793600  1
  O2-  O216  1  0.09153302  0.45901559  0.06702134  1
  O2-  O217  1  0.08212132  0.45088509  0.39796114  1
  O2-  O218  1  0.08746453  0.45204194  0.73371390  1
  O2-  O219  1  0.08027194  0.94783229  0.06317844  1
  O2-  O220  1  0.08024473  0.95269254  0.39294407  1
  O2-  O221  1  0.08558172  0.95249966  0.72704617  1
  O2-  O222  1  0.58475199  0.45345828  0.06812364  1
  O2-  O223  1  0.58874529  0.45444009  0.39882426  1
  O2-  O224  1  0.58637452  0.45452396  0.73390121  1
  O2-  O225  1  0.58825746  0.96108649  0.06121460  1
  O2-  O226  1  0.58541412  0.96410457  0.40071545  1
  O2-  O227  1  0.57799375  0.96239411  0.73534095  1
  O2-  O228  1  0.21057568  0.34001853  0.06614314  1
  O2-  O229  1  0.20631971  0.33760395  0.40176015  1
  O2-  O230  1  0.20966631  0.33432883  0.73501969  1
  O2-  O231  1  0.20443702  0.83342161  0.06483103  1
  O2-  O232  1  0.20414022  0.83645354  0.39604236  1
  O2-  O233  1  0.21137234  0.84123913  0.73251131  1
  O2-  O234  1  0.70252125  0.33145314  0.06498107  1
  O2-  O235  1  0.70724413  0.33490834  0.39558489  1
  O2-  O236  1  0.69887570  0.33088451  0.72726740  1
  O2-  O237  1  0.70517717  0.83790791  0.06218462  1
  O2-  O238  1  0.70350907  0.83079052  0.40019793  1
  O2-  O239  1  0.69909887  0.82960864  0.73620587  1
  O2-  O240  1  0.45930498  0.41611525  0.27084940  1
  O2-  O241  1  0.45412668  0.41975839  0.60640763  1
  O2-  O242  1  0.45554737  0.41882495  0.93640837  1
  O2-  O243  1  0.46479154  0.91474505  0.26496732  1
  O2-  O244  1  0.45887936  0.91564077  0.59669783  1
  O2-  O245  1  0.46342561  0.91302437  0.92979421  1
  O2-  O246  1  0.95525498  0.41532069  0.26890675  1
  O2-  O247  1  0.96375143  0.41976704  0.59678026  1
  O2-  O248  1  0.96591106  0.41897372  0.93527804  1
  O2-  O249  1  0.95228046  0.91818341  0.26365847  1
  O2-  O250  1  0.95967657  0.91230258  0.59742600  1
  O2-  O251  1  0.95681102  0.91518450  0.92977492  1
  O2-  O252  1  0.33359213  0.30509151  0.27558444  1
  O2-  O253  1  0.33466549  0.30191684  0.60437498  1
  O2-  O254  1  0.33502946  0.30247842  0.93896774  1
  O2-  O255  1  0.33377592  0.79148811  0.26445697  1
  O2-  O256  1  0.33143986  0.78849164  0.59868854  1
  O2-  O257  1  0.33185135  0.79131821  0.93248320  1
  O2-  O258  1  0.83380206  0.30002558  0.26840283  1
  O2-  O259  1  0.82879984  0.30326942  0.59953483  1
  O2-  O260  1  0.82911655  0.30443280  0.93547440  1
  O2-  O261  1  0.82617608  0.78987546  0.26568985  1
  O2-  O262  1  0.82707369  0.78876208  0.60263872  1
  O2-  O263  1  0.82987380  0.78646782  0.93250618  1
  O2-  O264  1  0.41640947  0.03287369  0.06563344  1
  O2-  O265  1  0.41518641  0.03600477  0.40163011  1
  O2-  O266  1  0.41009684  0.03904402  0.72748426  1
  O2-  O267  1  0.41530172  0.54753651  0.06174781  1
  O2-  O268  1  0.41613613  0.54169443  0.40139217  1
  O2-  O269  1  0.41660309  0.54366554  0.73827663  1
  O2-  O270  1  0.91575762  0.04523900  0.05838407  1
  O2-  O271  1  0.91996393  0.05179635  0.38806510  1
  O2-  O272  1  0.92236933  0.04250557  0.73141104  1
  O2-  O273  1  0.91848822  0.54091041  0.07034625  1
  O2-  O274  1  0.91310955  0.54265217  0.39441527  1
  O2-  O275  1  0.92088653  0.54294189  0.73237934  1
  O2-  O276  1  0.29724157  0.16861257  0.06581970  1
  O2-  O277  1  0.29497409  0.16979029  0.40083826  1
  O2-  O278  1  0.29784623  0.16579853  0.72676472  1
  O2-  O279  1  0.29246753  0.66524222  0.06191945  1
  O2-  O280  1  0.28826063  0.67031805  0.39954787  1
  O2-  O281  1  0.28606314  0.66826765  0.73759156  1
  O2-  O282  1  0.79441703  0.16482601  0.05962917  1
  O2-  O283  1  0.79599517  0.16673434  0.39160739  1
  O2-  O284  1  0.79398341  0.17053211  0.73039095  1
  O2-  O285  1  0.78546393  0.66506495  0.07164959  1
  O2-  O286  1  0.79097668  0.66034097  0.39545049  1
  O2-  O287  1  0.78655964  0.66289532  0.73603521  1
