# generated using pymatgen
data_Ca2Al2SiO7
_symmetry_space_group_name_H-M   'P 1'
_cell_length_a   15.47089632
_cell_length_b   15.46951092
_cell_length_c   15.29194503
_cell_angle_alpha   90.00655527
_cell_angle_beta   90.02444506
_cell_angle_gamma   90.00403684
_symmetry_Int_Tables_number   1
_chemical_formula_structural   Ca2Al2SiO7
_chemical_formula_sum   'Ca48 Al48 Si24 O168'
_cell_volume   3659.77801138
_cell_formula_units_Z   24
loop_
 _symmetry_equiv_pos_site_id
 _symmetry_equiv_pos_as_xyz
  1  'x, y, z'
loop_
 _atom_type_symbol
 _atom_type_oxidation_number
  Ca2+  2.0
  Al0+  0.0
  Si0+  0.0
  O2-  -2.0
loop_
 _atom_site_type_symbol
 _atom_site_label
 _atom_site_symmetry_multiplicity
 _atom_site_fract_x
 _atom_site_fract_y
 _atom_site_fract_z
 _atom_site_occupancy
  Ca2+  Ca0  1  0.15807614  0.07131991  0.16519035  1
  Ca2+  Ca1  1  0.16271840  0.07334436  0.50791284  1
  Ca2+  Ca2  1  0.15674044  0.07733120  0.83689825  1
  Ca2+  Ca3  1  0.16706707  0.57691856  0.16995741  1
  Ca2+  Ca4  1  0.15725762  0.57929637  0.50004039  1
  Ca2+  Ca5  1  0.17281498  0.57720873  0.84687964  1
  Ca2+  Ca6  1  0.66351335  0.07794200  0.16471751  1
  Ca2+  Ca7  1  0.67592725  0.07299631  0.51325955  1
  Ca2+  Ca8  1  0.67225235  0.07454934  0.84055380  1
  Ca2+  Ca9  1  0.67004919  0.58977244  0.16232038  1
  Ca2+  Ca10  1  0.67065252  0.58774761  0.50967340  1
  Ca2+  Ca11  1  0.67463011  0.58359640  0.84208717  1
  Ca2+  Ca12  1  0.08449645  0.32968916  0.15423369  1
  Ca2+  Ca13  1  0.07815118  0.33132727  0.49797199  1
  Ca2+  Ca14  1  0.07722886  0.32789424  0.82932283  1
  Ca2+  Ca15  1  0.08322964  0.83163431  0.15800074  1
  Ca2+  Ca16  1  0.07868628  0.83525696  0.49609418  1
  Ca2+  Ca17  1  0.07280293  0.84021438  0.82924695  1
  Ca2+  Ca18  1  0.58670699  0.32712377  0.15390450  1
  Ca2+  Ca19  1  0.58104882  0.33242735  0.49709174  1
  Ca2+  Ca20  1  0.59367539  0.32796666  0.83592502  1
  Ca2+  Ca21  1  0.57694665  0.82455107  0.15239519  1
  Ca2+  Ca22  1  0.59229315  0.82204392  0.49895279  1
  Ca2+  Ca23  1  0.58996390  0.82421413  0.83157742  1
  Ca2+  Ca24  1  0.32327208  0.42051228  0.16532741  1
  Ca2+  Ca25  1  0.32539964  0.41794900  0.50248192  1
  Ca2+  Ca26  1  0.32752187  0.42434177  0.84424683  1
  Ca2+  Ca27  1  0.32351593  0.90902442  0.16453229  1
  Ca2+  Ca28  1  0.31919566  0.91088925  0.50295420  1
  Ca2+  Ca29  1  0.32144816  0.91120413  0.84119857  1
  Ca2+  Ca30  1  0.83386929  0.41972686  0.16126635  1
  Ca2+  Ca31  1  0.83481358  0.42542961  0.50910349  1
  Ca2+  Ca32  1  0.83759678  0.42585101  0.84164225  1
  Ca2+  Ca33  1  0.82923423  0.90936902  0.16077197  1
  Ca2+  Ca34  1  0.83082367  0.92001984  0.51451106  1
  Ca2+  Ca35  1  0.82690118  0.91225762  0.83673246  1
  Ca2+  Ca36  1  0.42246350  0.16869795  0.15736993  1
  Ca2+  Ca37  1  0.41642444  0.16734397  0.49890592  1
  Ca2+  Ca38  1  0.42318549  0.16400373  0.83561546  1
  Ca2+  Ca39  1  0.42465785  0.66780029  0.15571900  1
  Ca2+  Ca40  1  0.43022756  0.66677423  0.49572710  1
  Ca2+  Ca41  1  0.42451536  0.66723615  0.83477691  1
  Ca2+  Ca42  1  0.92404544  0.17624862  0.15250567  1
  Ca2+  Ca43  1  0.91799590  0.16629784  0.50552398  1
  Ca2+  Ca44  1  0.92222405  0.17635506  0.82784953  1
  Ca2+  Ca45  1  0.92277088  0.67026909  0.15960358  1
  Ca2+  Ca46  1  0.91777423  0.67283191  0.50090916  1
  Ca2+  Ca47  1  0.90596757  0.67474357  0.83137480  1
  Al0+  Al48  1  -0.00086033  -0.00016770  -0.00180597  1
  Al0+  Al49  1  -0.00195706  0.00266727  0.33648360  1
  Al0+  Al50  1  -0.00063346  0.00170541  0.66553409  1
  Al0+  Al51  1  -0.00022279  0.50063416  0.00529318  1
  Al0+  Al52  1  -0.00163937  0.50186482  0.33433129  1
  Al0+  Al53  1  -0.00085779  0.49939645  0.66831774  1
  Al0+  Al54  1  0.49864626  -0.00016948  -0.00354034  1
  Al0+  Al55  1  0.50026163  0.00003972  0.33596360  1
  Al0+  Al56  1  0.49684419  -0.00156538  0.66706905  1
  Al0+  Al57  1  0.50067313  0.49916135  0.00401171  1
  Al0+  Al58  1  0.49963505  0.49848942  0.32899271  1
  Al0+  Al59  1  0.49919299  0.49983420  0.66148712  1
  Al0+  Al60  1  0.25201622  0.24785225  -0.00096696  1
  Al0+  Al61  1  0.24927129  0.25062747  0.33737521  1
  Al0+  Al62  1  0.25063861  0.24913472  0.66259219  1
  Al0+  Al63  1  0.25148075  0.74968696  0.00468560  1
  Al0+  Al64  1  0.25078345  0.74907399  0.33584310  1
  Al0+  Al65  1  0.25190030  0.74855441  0.66942973  1
  Al0+  Al66  1  0.75195642  0.25030849  -0.00459402  1
  Al0+  Al67  1  0.74986614  0.25131472  0.33480399  1
  Al0+  Al68  1  0.74938209  0.24987278  0.66292533  1
  Al0+  Al69  1  0.75043317  0.75012402  0.00301943  1
  Al0+  Al70  1  0.75061037  0.74989405  0.32957831  1
  Al0+  Al71  1  0.75120427  0.74849082  0.66420144  1
  Al0+  Al72  1  0.07057314  0.67994286  0.32047756  1
  Al0+  Al73  1  0.92996571  0.32383023  0.98512313  1
  Al0+  Al74  1  0.56965117  0.68062487  0.65319805  1
  Al0+  Al75  1  0.82133696  0.57323163  0.01750804  1
  Al0+  Al76  1  0.17738087  0.93053928  0.01289931  1
  Al0+  Al77  1  0.32213814  0.57205727  0.01574347  1
  Al0+  Al78  1  0.17809324  0.42991558  0.34920414  1
  Al0+  Al79  1  0.92774782  0.32328453  0.64943337  1
  Al0+  Al80  1  0.68065861  0.42729651  0.01401674  1
  Al0+  Al81  1  0.17894695  0.42732779  0.01315732  1
  Al0+  Al82  1  0.57184902  0.67868493  0.31733405  1
  Al0+  Al83  1  0.93075068  0.81977235  0.65381690  1
  Al0+  Al84  1  0.17960082  0.92882114  0.68080385  1
  Al0+  Al85  1  0.17840349  0.92865177  0.34752340  1
  Al0+  Al86  1  0.67847675  0.92746230  0.68169168  1
  Al0+  Al87  1  0.07173386  0.17990537  0.64876322  1
  Al0+  Al88  1  0.82134519  0.07343490  0.68371465  1
  Al0+  Al89  1  0.07327320  0.17846049  0.98557320  1
  Al0+  Al90  1  0.57215039  0.17830290  0.98631954  1
  Al0+  Al91  1  0.67762547  0.92965821  0.01421113  1
  Al0+  Al92  1  0.57098784  0.67800241  0.98359202  1
  Al0+  Al93  1  0.82089852  0.56924834  0.67957691  1
  Al0+  Al94  1  0.42666087  0.82141877  0.98409372  1
  Al0+  Al95  1  0.93018483  0.81951929  0.98674828  1
  Si0+  Si96  1  0.42956532  0.32076233  0.65053913  1
  Si0+  Si97  1  0.42858742  0.82282432  0.31759206  1
  Si0+  Si98  1  0.82107930  0.07128273  0.01698609  1
  Si0+  Si99  1  0.17981242  0.42904507  0.68062180  1
  Si0+  Si100  1  0.92850725  0.32180431  0.31816892  1
  Si0+  Si101  1  0.42711906  0.31951932  0.31757110  1
  Si0+  Si102  1  0.32321779  0.07169302  0.01662650  1
  Si0+  Si103  1  0.32383667  0.57067435  0.35225430  1
  Si0+  Si104  1  0.81881053  0.57148253  0.34991596  1
  Si0+  Si105  1  0.07569870  0.67742619  0.65286093  1
  Si0+  Si106  1  0.32327863  0.56908034  0.68018966  1
  Si0+  Si107  1  0.42494811  0.82227443  0.64781723  1
  Si0+  Si108  1  0.42863790  0.32146297  0.98368821  1
  Si0+  Si109  1  0.68001061  0.92932393  0.34759272  1
  Si0+  Si110  1  0.67467575  0.42835480  0.68036515  1
  Si0+  Si111  1  0.07307325  0.67799315  0.98538197  1
  Si0+  Si112  1  0.92918689  0.82522260  0.31644621  1
  Si0+  Si113  1  0.32304739  0.07228008  0.35056562  1
  Si0+  Si114  1  0.57074077  0.17983316  0.32021112  1
  Si0+  Si115  1  0.32172635  0.07428808  0.68434529  1
  Si0+  Si116  1  0.67839980  0.42740794  0.34893108  1
  Si0+  Si117  1  0.57043270  0.17675460  0.65044615  1
  Si0+  Si118  1  0.81916033  0.07438440  0.34841220  1
  Si0+  Si119  1  0.07063304  0.17984574  0.31820710  1
  O2-  O120  1  0.25279933  0.00468748  0.06046254  1
  O2-  O121  1  0.25428504  0.00331959  0.39368405  1
  O2-  O122  1  0.25351549  0.00504307  0.72666341  1
  O2-  O123  1  0.24780625  0.50160837  0.06478492  1
  O2-  O124  1  0.25154990  0.50586267  0.39777106  1
  O2-  O125  1  0.24747740  0.50323576  0.72161301  1
  O2-  O126  1  0.75153981  0.00437291  0.06357887  1
  O2-  O127  1  0.75113060  -0.00009340  0.38957637  1
  O2-  O128  1  0.74891276  0.00090930  0.73164181  1
  O2-  O129  1  0.74940404  0.50028336  0.06745812  1
  O2-  O130  1  0.74488363  0.50222211  0.39124304  1
  O2-  O131  1  0.74746894  0.49212284  0.72300136  1
  O2-  O132  1  0.00117972  0.25234886  0.27649963  1
  O2-  O133  1  -0.00068663  0.25149569  0.59759950  1
  O2-  O134  1  0.00470058  0.25399597  0.93724398  1
  O2-  O135  1  0.00179735  0.76006680  0.27404081  1
  O2-  O136  1  0.00935751  0.74840668  0.60804176  1
  O2-  O137  1  0.00443465  0.74495618  0.93958129  1
  O2-  O138  1  0.49889632  0.24880515  0.27679238  1
  O2-  O139  1  0.50030394  0.24903459  0.60778148  1
  O2-  O140  1  0.50008698  0.25571634  0.93921240  1
  O2-  O141  1  0.49663205  0.75384544  0.27364377  1
  O2-  O142  1  0.49800580  0.75775900  0.60412552  1
  O2-  O143  1  0.50026014  0.75139333  0.93396743  1
  O2-  O144  1  0.07024144  0.17794877  0.10040653  1
  O2-  O145  1  0.06938650  0.17902252  0.42301060  1
  O2-  O146  1  0.07544295  0.18438772  0.76135456  1
  O2-  O147  1  0.07212130  0.68023667  0.09148074  1
  O2-  O148  1  0.06498523  0.67882713  0.43383702  1
  O2-  O149  1  0.07874852  0.67636689  0.75778537  1
  O2-  O150  1  0.56908125  0.17891950  0.10047772  1
  O2-  O151  1  0.56969342  0.18151379  0.42545442  1
  O2-  O152  1  0.56964051  0.17741901  0.75492303  1
  O2-  O153  1  0.56945931  0.68113915  0.09759813  1
  O2-  O154  1  0.57276218  0.67991265  0.43102009  1
  O2-  O155  1  0.56692439  0.67641611  0.76489504  1
  O2-  O156  1  0.18079398  0.42719931  0.23708673  1
  O2-  O157  1  0.18129011  0.42981124  0.57493607  1
  O2-  O158  1  0.18257822  0.42856313  0.89909680  1
  O2-  O159  1  0.17751734  0.93111588  0.23483546  1
  O2-  O160  1  0.18200546  0.92882695  0.56691894  1
  O2-  O161  1  0.17742636  0.93164260  0.90025346  1
  O2-  O162  1  0.68090220  0.42020783  0.24503990  1
  O2-  O163  1  0.67142589  0.43154537  0.57381321  1
  O2-  O164  1  0.68185148  0.42670827  0.90043553  1
  O2-  O165  1  0.67835709  0.93140940  0.24285212  1
  O2-  O166  1  0.68080151  0.92904037  0.56661913  1
  O2-  O167  1  0.67938689  0.93000967  0.90182888  1
  O2-  O168  1  0.42743391  0.31712986  0.08968139  1
  O2-  O169  1  0.42870163  0.31909207  0.42326564  1
  O2-  O170  1  0.42853833  0.32191434  0.75480598  1
  O2-  O171  1  0.42841071  0.82101798  0.09850857  1
  O2-  O172  1  0.43021821  0.82313396  0.42340560  1
  O2-  O173  1  0.42032966  0.81999177  0.75233202  1
  O2-  O174  1  0.92925903  0.31937481  0.09989610  1
  O2-  O175  1  0.92746006  0.32060401  0.42310817  1
  O2-  O176  1  0.93141499  0.32587388  0.76189858  1
  O2-  O177  1  0.93281735  0.81983654  0.10056414  1
  O2-  O178  1  0.92673742  0.82483573  0.42213372  1
  O2-  O179  1  0.92925144  0.81730811  0.76620089  1
  O2-  O180  1  0.32678080  0.07458419  0.24572463  1
  O2-  O181  1  0.32271216  0.07534819  0.57821776  1
  O2-  O182  1  0.32447209  0.07282894  0.91133595  1
  O2-  O183  1  0.32509181  0.56721931  0.24749322  1
  O2-  O184  1  0.32591264  0.56552674  0.57488971  1
  O2-  O185  1  0.32059951  0.56927439  0.90129199  1
  O2-  O186  1  0.81734312  0.07900614  0.24385063  1
  O2-  O187  1  0.81722517  0.07141871  0.56861627  1
  O2-  O188  1  0.81977497  0.07048606  0.91205000  1
  O2-  O189  1  0.81959669  0.57110028  0.24556862  1
  O2-  O190  1  0.81861489  0.56969978  0.56539290  1
  O2-  O191  1  0.81952734  0.57327309  0.90412583  1
  O2-  O192  1  0.04014994  0.08843897  0.27134819  1
  O2-  O193  1  0.04190088  0.08200825  0.59507793  1
  O2-  O194  1  0.04013488  0.08230664  0.93294876  1
  O2-  O195  1  0.03561135  0.58461105  0.26631316  1
  O2-  O196  1  0.04591029  0.58498346  0.60610494  1
  O2-  O197  1  0.05015137  0.58322637  0.94188520  1
  O2-  O198  1  0.54498720  0.08670499  0.27433823  1
  O2-  O199  1  0.54013749  0.08585880  0.60146353  1
  O2-  O200  1  0.53798802  0.08474030  0.93022541  1
  O2-  O201  1  0.54336368  0.58046377  0.26604302  1
  O2-  O202  1  0.53577372  0.58493724  0.59622351  1
  O2-  O203  1  0.54334596  0.57808699  0.93419689  1
  O2-  O204  1  0.16418577  0.20571948  0.27401185  1
  O2-  O205  1  0.17075259  0.20813437  0.59439138  1
  O2-  O206  1  0.17345212  0.20037630  0.93432697  1
  O2-  O207  1  0.17068678  0.70307014  0.27037149  1
  O2-  O208  1  0.17012465  0.69865630  0.60526574  1
  O2-  O209  1  0.16718235  0.70215352  0.94126149  1
  O2-  O210  1  0.66200954  0.20945335  0.27341352  1
  O2-  O211  1  0.66108950  0.20362102  0.60009244  1
  O2-  O212  1  0.66757888  0.20767898  0.93088527  1
  O2-  O213  1  0.66844245  0.70989057  0.26446271  1
  O2-  O214  1  0.66551579  0.71086070  0.59672712  1
  O2-  O215  1  0.66979104  0.70816948  0.93428069  1
  O2-  O216  1  0.08119297  0.45225947  0.06785060  1
  O2-  O217  1  0.08095243  0.46153322  0.40274205  1
  O2-  O218  1  0.08762414  0.45335468  0.72682184  1
  O2-  O219  1  0.08174098  0.96255931  0.06912905  1
  O2-  O220  1  0.08132429  0.96099108  0.40073653  1
  O2-  O221  1  0.08251382  0.95919130  0.73153479  1
  O2-  O222  1  0.58088921  0.44931268  0.06718792  1
  O2-  O223  1  0.58376201  0.45047363  0.39365288  1
  O2-  O224  1  0.58197199  0.45563284  0.72634338  1
  O2-  O225  1  0.58107247  0.96243545  0.06770481  1
  O2-  O226  1  0.58833695  0.95664439  0.39611300  1
  O2-  O227  1  0.57732246  0.95217916  0.72935667  1
  O2-  O228  1  0.21162009  0.32961487  0.06626349  1
  O2-  O229  1  0.21169251  0.33406193  0.40462901  1
  O2-  O230  1  0.21286013  0.33813592  0.72505251  1
  O2-  O231  1  0.20858791  0.83471173  0.06811596  1
  O2-  O232  1  0.20877969  0.83193054  0.40254786  1
  O2-  O233  1  0.21029077  0.83163802  0.73322954  1
  O2-  O234  1  0.71035013  0.32839866  0.06776740  1
  O2-  O235  1  0.70846273  0.33720312  0.40011454  1
  O2-  O236  1  0.69403477  0.33178409  0.72072894  1
  O2-  O237  1  0.71070592  0.83521687  0.07049216  1
  O2-  O238  1  0.70902386  0.83701695  0.39358011  1
  O2-  O239  1  0.70997119  0.82987117  0.73181963  1
  O2-  O240  1  0.45356647  0.41083489  0.27019923  1
  O2-  O241  1  0.45848435  0.41035529  0.59849324  1
  O2-  O242  1  0.45055105  0.41587602  0.93939825  1
  O2-  O243  1  0.45397932  0.91740918  0.27313584  1
  O2-  O244  1  0.44422100  0.91815496  0.60283660  1
  O2-  O245  1  0.44947329  0.92091381  0.93260077  1
  O2-  O246  1  0.95336640  0.41462379  0.27305672  1
  O2-  O247  1  0.95917303  0.42142890  0.59540461  1
  O2-  O248  1  0.95546714  0.42374747  0.93523140  1
  O2-  O249  1  0.94923045  0.92098889  0.27242406  1
  O2-  O250  1  0.95762585  0.91708193  0.59902484  1
  O2-  O251  1  0.95954889  0.91576598  0.93314762  1
  O2-  O252  1  0.33561908  0.29022245  0.27102747  1
  O2-  O253  1  0.33934640  0.29192673  0.59966465  1
  O2-  O254  1  0.33765370  0.29219921  0.93469032  1
  O2-  O255  1  0.33411747  0.79858637  0.27358750  1
  O2-  O256  1  0.33410078  0.78968664  0.59851852  1
  O2-  O257  1  0.32866652  0.79027478  0.93193093  1
  O2-  O258  1  0.83670246  0.29135096  0.27206705  1
  O2-  O259  1  0.82800369  0.29679720  0.59563282  1
  O2-  O260  1  0.83356532  0.29356369  0.93091374  1
  O2-  O261  1  0.83720614  0.79467250  0.26995654  1
  O2-  O262  1  0.83662940  0.78546860  0.59589457  1
  O2-  O263  1  0.83329820  0.78927717  0.93470590  1
  O2-  O264  1  0.41576738  0.04564428  0.06480066  1
  O2-  O265  1  0.41690337  0.04762107  0.39903751  1
  O2-  O266  1  0.41586811  0.05027294  0.72942658  1
  O2-  O267  1  0.41855322  0.54100631  0.07055356  1
  O2-  O268  1  0.41634658  0.53844280  0.39882537  1
  O2-  O269  1  0.41218060  0.53423150  0.72816741  1
  O2-  O270  1  0.91335005  0.04326566  0.06458718  1
  O2-  O271  1  0.91146634  0.04943967  0.39607294  1
  O2-  O272  1  0.92101017  0.04929932  0.73245961  1
  O2-  O273  1  0.91938055  0.54561072  0.07217212  1
  O2-  O274  1  0.90904133  0.54087303  0.39838049  1
  O2-  O275  1  0.91803078  0.54235526  0.73396716  1
  O2-  O276  1  0.30070703  0.16554876  0.06393590  1
  O2-  O277  1  0.29725278  0.16541059  0.39827899  1
  O2-  O278  1  0.29806049  0.16878938  0.72929190  1
  O2-  O279  1  0.29602774  0.66936006  0.07124269  1
  O2-  O280  1  0.30391492  0.66588439  0.39714405  1
  O2-  O281  1  0.30196790  0.66210780  0.72643421  1
  O2-  O282  1  0.79545098  0.16503972  0.06257202  1
  O2-  O283  1  0.78785297  0.16411320  0.39879309  1
  O2-  O284  1  0.79151239  0.17272928  0.73300107  1
  O2-  O285  1  0.79158742  0.66984079  0.07366705  1
  O2-  O286  1  0.79238830  0.66479373  0.39608191  1
  O2-  O287  1  0.78762451  0.66456062  0.73191408  1
