# generated using pymatgen
data_Ca2Al2SiO7
_symmetry_space_group_name_H-M   'P 1'
_cell_length_a   15.46468748
_cell_length_b   15.46506267
_cell_length_c   15.28813106
_cell_angle_alpha   89.99667097
_cell_angle_beta   89.97828507
_cell_angle_gamma   89.99632992
_symmetry_Int_Tables_number   1
_chemical_formula_structural   Ca2Al2SiO7
_chemical_formula_sum   'Ca48 Al48 Si24 O168'
_cell_volume   3656.34524440
_cell_formula_units_Z   24
loop_
 _symmetry_equiv_pos_site_id
 _symmetry_equiv_pos_as_xyz
  1  'x, y, z'
loop_
 _atom_type_symbol
 _atom_type_oxidation_number
  Ca2+  2.0
  Al0+  0.0
  Si0+  0.0
  O2-  -2.0
loop_
 _atom_site_type_symbol
 _atom_site_label
 _atom_site_symmetry_multiplicity
 _atom_site_fract_x
 _atom_site_fract_y
 _atom_site_fract_z
 _atom_site_occupancy
  Ca2+  Ca0  1  0.16498763  0.07955839  0.17125486  1
  Ca2+  Ca1  1  0.16973330  0.09158645  0.49780136  1
  Ca2+  Ca2  1  0.16186487  0.08013167  0.84022108  1
  Ca2+  Ca3  1  0.17528561  0.57868125  0.17839924  1
  Ca2+  Ca4  1  0.16612923  0.58386866  0.49458274  1
  Ca2+  Ca5  1  0.17228714  0.58046699  0.84395070  1
  Ca2+  Ca6  1  0.67380392  0.08384478  0.16917172  1
  Ca2+  Ca7  1  0.68094844  0.07547278  0.50776810  1
  Ca2+  Ca8  1  0.67566733  0.07398902  0.84349850  1
  Ca2+  Ca9  1  0.67734804  0.58748317  0.16772880  1
  Ca2+  Ca10  1  0.67204944  0.58535513  0.49713007  1
  Ca2+  Ca11  1  0.67193894  0.58169842  0.84130001  1
  Ca2+  Ca12  1  0.09156005  0.32198072  0.16575996  1
  Ca2+  Ca13  1  0.08679271  0.32353847  0.49245342  1
  Ca2+  Ca14  1  0.08219721  0.31980685  0.83142686  1
  Ca2+  Ca15  1  0.07226384  0.83427021  0.16279648  1
  Ca2+  Ca16  1  0.07009928  0.82933054  0.49115915  1
  Ca2+  Ca17  1  0.06954752  0.84091140  0.83354920  1
  Ca2+  Ca18  1  0.57247331  0.32802915  0.15838241  1
  Ca2+  Ca19  1  0.57630721  0.33035592  0.49066900  1
  Ca2+  Ca20  1  0.58268036  0.32776094  0.83699199  1
  Ca2+  Ca21  1  0.57070337  0.84012560  0.16089822  1
  Ca2+  Ca22  1  0.58048238  0.83648273  0.49543851  1
  Ca2+  Ca23  1  0.58266893  0.84232976  0.83531458  1
  Ca2+  Ca24  1  0.33497230  0.42268038  0.17550144  1
  Ca2+  Ca25  1  0.32781890  0.41503184  0.49452605  1
  Ca2+  Ca26  1  0.33486207  0.42255499  0.84308586  1
  Ca2+  Ca27  1  0.32828693  0.91615026  0.17303305  1
  Ca2+  Ca28  1  0.33512011  0.92081123  0.49800817  1
  Ca2+  Ca29  1  0.32248381  0.91555268  0.84617549  1
  Ca2+  Ca30  1  0.83745266  0.42892445  0.17180372  1
  Ca2+  Ca31  1  0.84101362  0.42589276  0.49723361  1
  Ca2+  Ca32  1  0.83549998  0.42623875  0.84201438  1
  Ca2+  Ca33  1  0.83389752  0.92221175  0.16811500  1
  Ca2+  Ca34  1  0.83884565  0.92203080  0.50438470  1
  Ca2+  Ca35  1  0.82976750  0.92180126  0.84138841  1
  Ca2+  Ca36  1  0.41496963  0.17610174  0.16015620  1
  Ca2+  Ca37  1  0.41747943  0.17022387  0.48702566  1
  Ca2+  Ca38  1  0.42508220  0.16608220  0.83737889  1
  Ca2+  Ca39  1  0.40855628  0.67345283  0.16197648  1
  Ca2+  Ca40  1  0.41889600  0.67287445  0.48870218  1
  Ca2+  Ca41  1  0.41232165  0.67249700  0.83699057  1
  Ca2+  Ca42  1  0.92460976  0.15700873  0.16249928  1
  Ca2+  Ca43  1  0.92561018  0.15761830  0.49414615  1
  Ca2+  Ca44  1  0.92560785  0.15093687  0.83177285  1
  Ca2+  Ca45  1  0.91473807  0.67402397  0.16237901  1
  Ca2+  Ca46  1  0.91809646  0.67777561  0.48789208  1
  Ca2+  Ca47  1  0.90590339  0.68154909  0.83291932  1
  Al0+  Al48  1  0.00023795  -0.00216856  0.00005360  1
  Al0+  Al49  1  -0.00008703  -0.00124006  0.33035364  1
  Al0+  Al50  1  0.00333533  -0.00114931  0.65922189  1
  Al0+  Al51  1  0.00191909  0.49873062  0.00391954  1
  Al0+  Al52  1  0.00069874  0.49851769  0.34014110  1
  Al0+  Al53  1  0.00256962  0.49849254  0.66942628  1
  Al0+  Al54  1  0.49867037  0.00121592  -0.00618465  1
  Al0+  Al55  1  0.50031764  -0.00039276  0.33401434  1
  Al0+  Al56  1  0.50023728  0.00207662  0.66856757  1
  Al0+  Al57  1  0.49993391  0.50171350  -0.00052273  1
  Al0+  Al58  1  0.50039821  0.50015562  0.33355703  1
  Al0+  Al59  1  0.49999725  0.50164388  0.66625340  1
  Al0+  Al60  1  0.24904691  0.25023544  -0.01163923  1
  Al0+  Al61  1  0.25089661  0.24965720  0.33270614  1
  Al0+  Al62  1  0.25001769  0.25181953  0.66550056  1
  Al0+  Al63  1  0.24828646  0.74924450  0.00349463  1
  Al0+  Al64  1  0.24912409  0.74943744  0.33349948  1
  Al0+  Al65  1  0.25105723  0.74983963  0.66655950  1
  Al0+  Al66  1  0.75056405  0.25098528  -0.00078724  1
  Al0+  Al67  1  0.75181505  0.24867515  0.33925647  1
  Al0+  Al68  1  0.75114917  0.25197771  0.66906027  1
  Al0+  Al69  1  0.74771670  0.75112611  0.00393617  1
  Al0+  Al70  1  0.74820722  0.75003008  0.33380565  1
  Al0+  Al71  1  0.74708910  0.74994518  0.66406751  1
  Al0+  Al72  1  0.42987737  0.82160248  0.32079411  1
  Al0+  Al73  1  0.32074341  0.57000707  0.01394348  1
  Al0+  Al74  1  0.32244280  0.57297614  0.35039889  1
  Al0+  Al75  1  0.82143105  0.57112911  0.01298588  1
  Al0+  Al76  1  0.43034469  0.32005574  0.32021989  1
  Al0+  Al77  1  0.67585789  0.92969238  0.01752463  1
  Al0+  Al78  1  0.06973607  0.18028567  0.65059275  1
  Al0+  Al79  1  0.57391110  0.17819472  0.98450914  1
  Al0+  Al80  1  0.92719777  0.82056496  0.31565991  1
  Al0+  Al81  1  0.17975842  0.42739079  0.34893002  1
  Al0+  Al82  1  0.32065898  0.06969813  0.34417154  1
  Al0+  Al83  1  0.82160955  0.07155172  0.01591964  1
  Al0+  Al84  1  0.92882458  0.81830412  0.65267822  1
  Al0+  Al85  1  0.42907363  0.32292687  0.98347915  1
  Al0+  Al86  1  0.06827646  0.17876065  0.98623623  1
  Al0+  Al87  1  0.82472285  0.06989193  0.68195738  1
  Al0+  Al88  1  0.92791403  0.81867706  0.98588762  1
  Al0+  Al89  1  0.07008742  0.18038532  0.31867026  1
  Al0+  Al90  1  0.82243740  0.06982805  0.34839502  1
  Al0+  Al91  1  0.42617352  0.82076103  0.98631803  1
  Al0+  Al92  1  0.07046223  0.67605583  0.31830424  1
  Al0+  Al93  1  0.17844614  0.92955983  0.01384939  1
  Al0+  Al94  1  0.82062175  0.57201076  0.34762265  1
  Al0+  Al95  1  0.67740070  0.92826978  0.68269311  1
  Si0+  Si96  1  0.32144678  0.57110677  0.68253058  1
  Si0+  Si97  1  0.42771515  0.82175329  0.65237627  1
  Si0+  Si98  1  0.57445776  0.17778979  0.31897224  1
  Si0+  Si99  1  0.67614025  0.43024099  0.68171937  1
  Si0+  Si100  1  0.57169998  0.67700054  0.31571385  1
  Si0+  Si101  1  0.18292145  0.92829409  0.67998401  1
  Si0+  Si102  1  0.17916635  0.42550490  0.01583573  1
  Si0+  Si103  1  0.56922538  0.67757759  0.65098006  1
  Si0+  Si104  1  0.67849779  0.42719714  0.34982708  1
  Si0+  Si105  1  0.92602521  0.32186508  0.31778980  1
  Si0+  Si106  1  0.92802530  0.32512791  0.98450156  1
  Si0+  Si107  1  0.17755906  0.92776304  0.35142483  1
  Si0+  Si108  1  0.07106760  0.67613252  0.98403387  1
  Si0+  Si109  1  0.43133632  0.32228267  0.65035709  1
  Si0+  Si110  1  0.82093364  0.57000245  0.68037942  1
  Si0+  Si111  1  0.67762918  0.42796831  0.01648851  1
  Si0+  Si112  1  0.57188430  0.17955339  0.65041073  1
  Si0+  Si113  1  0.67679166  0.92863093  0.35018668  1
  Si0+  Si114  1  0.57136695  0.67974026  0.98303259  1
  Si0+  Si115  1  0.07447922  0.67565017  0.65151240  1
  Si0+  Si116  1  0.32124699  0.07400620  0.68214853  1
  Si0+  Si117  1  0.92714611  0.32625919  0.64956771  1
  Si0+  Si118  1  0.18042795  0.42792205  0.68459204  1
  Si0+  Si119  1  0.32060079  0.07348030  0.01358159  1
  O2-  O120  1  0.25472075  0.00341019  0.05872799  1
  O2-  O121  1  0.24768095  -0.00439939  0.39561074  1
  O2-  O122  1  0.25279717  0.00025107  0.72324970  1
  O2-  O123  1  0.24888216  0.49279508  0.05900769  1
  O2-  O124  1  0.24936276  0.50188579  0.40066408  1
  O2-  O125  1  0.24912467  0.50185863  0.72542569  1
  O2-  O126  1  0.74676639  0.00281133  0.06652351  1
  O2-  O127  1  0.74866621  -0.00623157  0.39432370  1
  O2-  O128  1  0.75159079  -0.00134699  0.73136488  1
  O2-  O129  1  0.74919249  0.49385854  0.05959521  1
  O2-  O130  1  0.74718771  0.49573227  0.39518947  1
  O2-  O131  1  0.75216959  0.49669239  0.72290621  1
  O2-  O132  1  -0.00638130  0.25340986  0.27250448  1
  O2-  O133  1  -0.00907679  0.25259780  0.60665531  1
  O2-  O134  1  -0.00892172  0.25165126  0.93947740  1
  O2-  O135  1  -0.00216504  0.74618550  0.26718337  1
  O2-  O136  1  0.00197728  0.74043847  0.60863174  1
  O2-  O137  1  0.00061017  0.74175202  0.93777978  1
  O2-  O138  1  0.50590189  0.24623855  0.27483714  1
  O2-  O139  1  0.50067633  0.25020639  0.60725450  1
  O2-  O140  1  0.50143029  0.25082412  0.93387774  1
  O2-  O141  1  0.50074693  0.74378498  0.27345635  1
  O2-  O142  1  0.50124136  0.75275763  0.61132232  1
  O2-  O143  1  0.50266821  0.74821708  0.93786847  1
  O2-  O144  1  0.07110938  0.18062573  0.09880001  1
  O2-  O145  1  0.06982149  0.18208505  0.43212281  1
  O2-  O146  1  0.07132372  0.18139603  0.76357662  1
  O2-  O147  1  0.06995842  0.67593917  0.08891261  1
  O2-  O148  1  0.06761726  0.67995505  0.43297971  1
  O2-  O149  1  0.07777621  0.67546221  0.75695363  1
  O2-  O150  1  0.57238627  0.18114444  0.09813037  1
  O2-  O151  1  0.57266479  0.18003030  0.42533298  1
  O2-  O152  1  0.57018715  0.18113670  0.75498978  1
  O2-  O153  1  0.57110423  0.67786959  0.08813177  1
  O2-  O154  1  0.57211304  0.67776602  0.42219729  1
  O2-  O155  1  0.56778924  0.67088736  0.75547550  1
  O2-  O156  1  0.18377131  0.42545220  0.23566012  1
  O2-  O157  1  0.18156024  0.42550915  0.58015641  1
  O2-  O158  1  0.17856210  0.42820588  0.90938281  1
  O2-  O159  1  0.17773201  0.92929082  0.24602815  1
  O2-  O160  1  0.18665351  0.92517008  0.57529886  1
  O2-  O161  1  0.17826491  0.93109588  0.89956021  1
  O2-  O162  1  0.67900776  0.42682064  0.24472207  1
  O2-  O163  1  0.67116110  0.43300815  0.57702721  1
  O2-  O164  1  0.67791501  0.43087991  0.91002628  1
  O2-  O165  1  0.67297857  0.93110693  0.24525912  1
  O2-  O166  1  0.67352069  0.93074267  0.56917071  1
  O2-  O167  1  0.67913558  0.92905683  0.90369386  1
  O2-  O168  1  0.42916593  0.32229520  0.09678111  1
  O2-  O169  1  0.43233446  0.31790692  0.43436342  1
  O2-  O170  1  0.43329311  0.32419051  0.75501778  1
  O2-  O171  1  0.42573021  0.81900536  0.09892590  1
  O2-  O172  1  0.43417581  0.82234274  0.43499182  1
  O2-  O173  1  0.42358264  0.81901255  0.75711005  1
  O2-  O174  1  0.93099783  0.33034266  0.08950743  1
  O2-  O175  1  0.92575280  0.32054580  0.42381457  1
  O2-  O176  1  0.93088411  0.33521583  0.75461726  1
  O2-  O177  1  0.92871100  0.81831488  0.09803859  1
  O2-  O178  1  0.92854292  0.82008552  0.43004328  1
  O2-  O179  1  0.92921992  0.81766072  0.76586721  1
  O2-  O180  1  0.32034706  0.06939017  0.23157215  1
  O2-  O181  1  0.32232619  0.07467559  0.57701356  1
  O2-  O182  1  0.31786695  0.07182770  0.90702681  1
  O2-  O183  1  0.32329948  0.57063547  0.23729001  1
  O2-  O184  1  0.32296712  0.57158918  0.57816771  1
  O2-  O185  1  0.31820821  0.56966972  0.89949940  1
  O2-  O186  1  0.82041646  0.07216930  0.23601760  1
  O2-  O187  1  0.82283889  0.06802235  0.56823895  1
  O2-  O188  1  0.82294727  0.06748954  0.90216571  1
  O2-  O189  1  0.81829085  0.57089280  0.23487895  1
  O2-  O190  1  0.81942577  0.56907048  0.57548273  1
  O2-  O191  1  0.81829737  0.56991596  0.89880557  1
  O2-  O192  1  0.04163348  0.08311857  0.26648672  1
  O2-  O193  1  0.04591570  0.08299690  0.59508111  1
  O2-  O194  1  0.03862726  0.08213215  0.93142601  1
  O2-  O195  1  0.04643574  0.57483201  0.27029378  1
  O2-  O196  1  0.05266120  0.58010094  0.60766285  1
  O2-  O197  1  0.04930967  0.58081228  0.93837663  1
  O2-  O198  1  0.54930603  0.08444723  0.27458215  1
  O2-  O199  1  0.54291867  0.08793494  0.60310268  1
  O2-  O200  1  0.54231394  0.08271870  0.92691557  1
  O2-  O201  1  0.55068290  0.58238550  0.27087706  1
  O2-  O202  1  0.53760229  0.58809335  0.60012689  1
  O2-  O203  1  0.54609095  0.58644812  0.93499676  1
  O2-  O204  1  0.16622516  0.21206217  0.26561330  1
  O2-  O205  1  0.16669383  0.21573952  0.59843068  1
  O2-  O206  1  0.16249015  0.21011162  0.92668927  1
  O2-  O207  1  0.16999991  0.70235304  0.26830668  1
  O2-  O208  1  0.16718190  0.70443211  0.60447265  1
  O2-  O209  1  0.16377001  0.70409930  0.93731719  1
  O2-  O210  1  0.66820153  0.20426520  0.27466653  1
  O2-  O211  1  0.66443309  0.20798128  0.60437144  1
  O2-  O212  1  0.67138130  0.20884515  0.92915328  1
  O2-  O213  1  0.66435661  0.70377757  0.26969469  1
  O2-  O214  1  0.66096466  0.70213715  0.60162598  1
  O2-  O215  1  0.66424701  0.70538373  0.93528295  1
  O2-  O216  1  0.08624638  0.44934968  0.06283907  1
  O2-  O217  1  0.08115185  0.45060071  0.40512194  1
  O2-  O218  1  0.08795674  0.45321011  0.73277037  1
  O2-  O219  1  0.08398063  0.96150401  0.06894574  1
  O2-  O220  1  0.08505754  0.95622825  0.39776884  1
  O2-  O221  1  0.09063966  0.95695635  0.72487817  1
  O2-  O222  1  0.58560295  0.45745864  0.06258733  1
  O2-  O223  1  0.58601646  0.45476713  0.39793460  1
  O2-  O224  1  0.58707529  0.46398627  0.73165970  1
  O2-  O225  1  0.57500284  0.95752808  0.06547562  1
  O2-  O226  1  0.58523260  0.95723089  0.39974743  1
  O2-  O227  1  0.57869169  0.95866391  0.73543647  1
  O2-  O228  1  0.20473691  0.33061547  0.05766219  1
  O2-  O229  1  0.21463502  0.33158908  0.40462536  1
  O2-  O230  1  0.21198103  0.33770252  0.73331166  1
  O2-  O231  1  0.20790004  0.83346106  0.06766658  1
  O2-  O232  1  0.20236509  0.83450037  0.39813583  1
  O2-  O233  1  0.21109288  0.83710045  0.72952798  1
  O2-  O234  1  0.69850790  0.33373629  0.06142309  1
  O2-  O235  1  0.70304989  0.33468310  0.39942468  1
  O2-  O236  1  0.69911705  0.33733484  0.72883717  1
  O2-  O237  1  0.70161673  0.83086736  0.06943423  1
  O2-  O238  1  0.69759535  0.83328509  0.39493576  1
  O2-  O239  1  0.69901698  0.82616657  0.73159245  1
  O2-  O240  1  0.46046373  0.41719189  0.26793727  1
  O2-  O241  1  0.46084367  0.41394292  0.60318088  1
  O2-  O242  1  0.45994115  0.42114567  0.92975885  1
  O2-  O243  1  0.46191724  0.91731952  0.26611158  1
  O2-  O244  1  0.45303197  0.91544925  0.60710449  1
  O2-  O245  1  0.45201639  0.91760649  0.93029346  1
  O2-  O246  1  0.95103940  0.41642063  0.27477793  1
  O2-  O247  1  0.95885438  0.41776697  0.60082969  1
  O2-  O248  1  0.95939364  0.41636494  0.93444628  1
  O2-  O249  1  0.95915490  0.91737277  0.26325953  1
  O2-  O250  1  0.96478534  0.91192586  0.59673905  1
  O2-  O251  1  0.96347792  0.91320646  0.93109228  1
  O2-  O252  1  0.33551806  0.28788156  0.26627948  1
  O2-  O253  1  0.33855290  0.29501147  0.60531609  1
  O2-  O254  1  0.33240356  0.29524049  0.92607083  1
  O2-  O255  1  0.33147993  0.79552671  0.27004030  1
  O2-  O256  1  0.33774809  0.79091293  0.60290436  1
  O2-  O257  1  0.33069409  0.78532827  0.93096386  1
  O2-  O258  1  0.83130719  0.29885194  0.27327501  1
  O2-  O259  1  0.83030103  0.30888097  0.60673659  1
  O2-  O260  1  0.83211810  0.30825564  0.93996057  1
  O2-  O261  1  0.82711539  0.79385957  0.26678016  1
  O2-  O262  1  0.83127454  0.78915662  0.59937839  1
  O2-  O263  1  0.83065352  0.78688444  0.93294528  1
  O2-  O264  1  0.41584672  0.05299892  0.05592533  1
  O2-  O265  1  0.41718924  0.03993602  0.40134723  1
  O2-  O266  1  0.41376604  0.04876841  0.72886812  1
  O2-  O267  1  0.41912077  0.54420232  0.06565748  1
  O2-  O268  1  0.42167668  0.54398576  0.40294198  1
  O2-  O269  1  0.41271582  0.54088713  0.73005416  1
  O2-  O270  1  0.91845526  0.03819554  0.06767336  1
  O2-  O271  1  0.91916339  0.03725124  0.40135476  1
  O2-  O272  1  0.92456539  0.03892600  0.73042454  1
  O2-  O273  1  0.91825827  0.54148478  0.06643150  1
  O2-  O274  1  0.91533674  0.54109718  0.40513036  1
  O2-  O275  1  0.91388178  0.54486415  0.72728565  1
  O2-  O276  1  0.29286308  0.16794615  0.05570566  1
  O2-  O277  1  0.28949567  0.16486683  0.40106571  1
  O2-  O278  1  0.29152678  0.16524934  0.72933014  1
  O2-  O279  1  0.28824852  0.66493016  0.06787826  1
  O2-  O280  1  0.29435423  0.67163101  0.40455709  1
  O2-  O281  1  0.29495835  0.66378701  0.72973735  1
  O2-  O282  1  0.79959777  0.17343495  0.06482151  1
  O2-  O283  1  0.79351629  0.16646723  0.40486180  1
  O2-  O284  1  0.80164473  0.17230932  0.73013961  1
  O2-  O285  1  0.78671995  0.66487700  0.06787295  1
  O2-  O286  1  0.78558052  0.66683485  0.40359250  1
  O2-  O287  1  0.78842208  0.66046173  0.72689738  1
