# generated using pymatgen
data_Ca2Al2SiO7
_symmetry_space_group_name_H-M   'P 1'
_cell_length_a   15.46557866
_cell_length_b   15.46634277
_cell_length_c   15.29026942
_cell_angle_alpha   89.99068660
_cell_angle_beta   90.00418262
_cell_angle_gamma   89.98164704
_symmetry_Int_Tables_number   1
_chemical_formula_structural   Ca2Al2SiO7
_chemical_formula_sum   'Ca48 Al48 Si24 O168'
_cell_volume   3657.37013116
_cell_formula_units_Z   24
loop_
 _symmetry_equiv_pos_site_id
 _symmetry_equiv_pos_as_xyz
  1  'x, y, z'
loop_
 _atom_type_symbol
 _atom_type_oxidation_number
  Ca2+  2.0
  Al0+  0.0
  Si0+  0.0
  O2-  -2.0
loop_
 _atom_site_type_symbol
 _atom_site_label
 _atom_site_symmetry_multiplicity
 _atom_site_fract_x
 _atom_site_fract_y
 _atom_site_fract_z
 _atom_site_occupancy
  Ca2+  Ca0  1  0.16185586  0.07891256  0.17475094  1
  Ca2+  Ca1  1  0.15725478  0.07139896  0.50174322  1
  Ca2+  Ca2  1  0.15806857  0.07771801  0.83537722  1
  Ca2+  Ca3  1  0.16777951  0.58063633  0.18101273  1
  Ca2+  Ca4  1  0.17497422  0.59578251  0.50287975  1
  Ca2+  Ca5  1  0.17055550  0.59505017  0.83394386  1
  Ca2+  Ca6  1  0.67178278  0.07904626  0.17052820  1
  Ca2+  Ca7  1  0.66764449  0.08339990  0.50320389  1
  Ca2+  Ca8  1  0.67825316  0.07098404  0.84685407  1
  Ca2+  Ca9  1  0.66794573  0.58476417  0.17780461  1
  Ca2+  Ca10  1  0.67018537  0.58923541  0.49361070  1
  Ca2+  Ca11  1  0.66705890  0.58644835  0.84006741  1
  Ca2+  Ca12  1  0.09346119  0.32345854  0.16445824  1
  Ca2+  Ca13  1  0.09557603  0.32132858  0.49492326  1
  Ca2+  Ca14  1  0.08514268  0.31937536  0.83055545  1
  Ca2+  Ca15  1  0.07749782  0.82341700  0.16743891  1
  Ca2+  Ca16  1  0.07985699  0.82858853  0.49405288  1
  Ca2+  Ca17  1  0.07468520  0.83036882  0.82576060  1
  Ca2+  Ca18  1  0.58188847  0.33304153  0.16560713  1
  Ca2+  Ca19  1  0.58534374  0.32888019  0.48973965  1
  Ca2+  Ca20  1  0.57570548  0.33492050  0.83281022  1
  Ca2+  Ca21  1  0.58199494  0.82322185  0.16425665  1
  Ca2+  Ca22  1  0.56611633  0.82999819  0.48973703  1
  Ca2+  Ca23  1  0.58184211  0.83194938  0.83178724  1
  Ca2+  Ca24  1  0.32988548  0.42231356  0.17590298  1
  Ca2+  Ca25  1  0.32824320  0.43076475  0.49830086  1
  Ca2+  Ca26  1  0.33381067  0.42250524  0.83725747  1
  Ca2+  Ca27  1  0.32491171  0.91477255  0.17709918  1
  Ca2+  Ca28  1  0.32015890  0.90411149  0.50300802  1
  Ca2+  Ca29  1  0.32703740  0.91194946  0.83111046  1
  Ca2+  Ca30  1  0.82703837  0.42757832  0.17979024  1
  Ca2+  Ca31  1  0.83182730  0.42432822  0.49562284  1
  Ca2+  Ca32  1  0.83235269  0.41967723  0.83734657  1
  Ca2+  Ca33  1  0.83684058  0.91363324  0.16647802  1
  Ca2+  Ca34  1  0.83688330  0.91103882  0.50194332  1
  Ca2+  Ca35  1  0.83496633  0.91550593  0.84445624  1
  Ca2+  Ca36  1  0.42250664  0.17353527  0.16420318  1
  Ca2+  Ca37  1  0.42361966  0.16849751  0.49092192  1
  Ca2+  Ca38  1  0.41426183  0.17429046  0.83282674  1
  Ca2+  Ca39  1  0.42230216  0.66467312  0.16883781  1
  Ca2+  Ca40  1  0.41252277  0.67205092  0.49324108  1
  Ca2+  Ca41  1  0.42217039  0.67053597  0.82696659  1
  Ca2+  Ca42  1  0.92624857  0.16509564  0.16384820  1
  Ca2+  Ca43  1  0.92822810  0.16780128  0.49484541  1
  Ca2+  Ca44  1  0.92587988  0.15781806  0.83349105  1
  Ca2+  Ca45  1  0.92151005  0.67167928  0.16165750  1
  Ca2+  Ca46  1  0.92422026  0.67696992  0.49012921  1
  Ca2+  Ca47  1  0.92680499  0.67738462  0.82829148  1
  Al0+  Al48  1  0.00054830  0.00017751  -0.00097518  1
  Al0+  Al49  1  -0.00051022  0.00163146  0.32998783  1
  Al0+  Al50  1  -0.00041280  0.00123372  0.66419538  1
  Al0+  Al51  1  0.00172039  0.49753866  -0.00376833  1
  Al0+  Al52  1  -0.00144820  0.49689361  0.34182710  1
  Al0+  Al53  1  -0.00055808  0.49775744  0.66629814  1
  Al0+  Al54  1  0.50003411  0.00050755  0.00409593  1
  Al0+  Al55  1  0.50051009  0.00176736  0.32454930  1
  Al0+  Al56  1  0.50009562  0.00083735  0.66572161  1
  Al0+  Al57  1  0.49888402  0.50073828  -0.00812012  1
  Al0+  Al58  1  0.49862722  0.49944992  0.33969550  1
  Al0+  Al59  1  0.49921470  0.49876105  0.67056178  1
  Al0+  Al60  1  0.25092997  0.25049552  -0.00874767  1
  Al0+  Al61  1  0.25297209  0.24954697  0.33344355  1
  Al0+  Al62  1  0.25204254  0.25111174  0.66230003  1
  Al0+  Al63  1  0.25299897  0.75015443  0.00027323  1
  Al0+  Al64  1  0.24731353  0.75191689  0.33270183  1
  Al0+  Al65  1  0.25142812  0.75122412  0.67296579  1
  Al0+  Al66  1  0.75011705  0.24898968  0.00366153  1
  Al0+  Al67  1  0.75128715  0.24883979  0.33289827  1
  Al0+  Al68  1  0.75031959  0.24997165  0.67068049  1
  Al0+  Al69  1  0.74888235  0.74895639  -0.00345876  1
  Al0+  Al70  1  0.74779335  0.75266779  0.33274444  1
  Al0+  Al71  1  0.74946410  0.74853718  0.66564814  1
  Al0+  Al72  1  0.17698267  0.42547769  0.34782994  1
  Al0+  Al73  1  0.92792229  0.82206586  0.31710764  1
  Al0+  Al74  1  0.07160832  0.18189709  0.31976987  1
  Al0+  Al75  1  0.67821694  0.92592742  0.01772582  1
  Al0+  Al76  1  0.07421003  0.67532099  0.98531165  1
  Al0+  Al77  1  0.56913735  0.68033653  0.98605954  1
  Al0+  Al78  1  0.31946072  0.57039292  0.68366648  1
  Al0+  Al79  1  0.42536841  0.82163322  0.31713371  1
  Al0+  Al80  1  0.07208744  0.67868639  0.65167211  1
  Al0+  Al81  1  0.07023675  0.67590137  0.32058829  1
  Al0+  Al82  1  0.17923283  0.93183118  0.68162808  1
  Al0+  Al83  1  0.31819448  0.57234624  0.34757575  1
  Al0+  Al84  1  0.17817142  0.93180360  0.34571671  1
  Al0+  Al85  1  0.82344450  0.07053403  0.01816761  1
  Al0+  Al86  1  0.93093524  0.81893156  0.98528477  1
  Al0+  Al87  1  0.07069963  0.18068142  0.65152767  1
  Al0+  Al88  1  0.57450392  0.17867573  0.31886872  1
  Al0+  Al89  1  0.56870388  0.67851655  0.32037222  1
  Al0+  Al90  1  0.43103469  0.32001077  0.98612541  1
  Al0+  Al91  1  0.92733942  0.82138486  0.65123048  1
  Al0+  Al92  1  0.67845594  0.42812120  0.34742757  1
  Al0+  Al93  1  0.82148612  0.57547309  0.34847118  1
  Al0+  Al94  1  0.06991626  0.17981585  0.98621645  1
  Al0+  Al95  1  0.43149631  0.82142806  0.65441393  1
  Si0+  Si96  1  0.57118994  0.18116048  0.65433978  1
  Si0+  Si97  1  0.42736636  0.82544927  0.98259291  1
  Si0+  Si98  1  0.32161012  0.57039775  0.01451063  1
  Si0+  Si99  1  0.18059421  0.42747909  0.01232714  1
  Si0+  Si100  1  0.67650841  0.93037115  0.34953760  1
  Si0+  Si101  1  0.67985266  0.42744569  0.68438784  1
  Si0+  Si102  1  0.32039531  0.07440779  0.01424966  1
  Si0+  Si103  1  0.82092208  0.57128035  0.68369152  1
  Si0+  Si104  1  0.18096631  0.92942519  0.01530416  1
  Si0+  Si105  1  0.32493693  0.07455095  0.68345001  1
  Si0+  Si106  1  0.82157141  0.56832736  0.01216955  1
  Si0+  Si107  1  0.82033033  0.07008428  0.35011576  1
  Si0+  Si108  1  0.17785930  0.42472313  0.68566347  1
  Si0+  Si109  1  0.81946102  0.07085313  0.68135124  1
  Si0+  Si110  1  0.67714343  0.92904593  0.67974606  1
  Si0+  Si111  1  0.57192387  0.67526430  0.64936338  1
  Si0+  Si112  1  0.42999873  0.32131232  0.31810461  1
  Si0+  Si113  1  0.32453420  0.07191182  0.34857097  1
  Si0+  Si114  1  0.92476448  0.32188561  0.64942977  1
  Si0+  Si115  1  0.43024100  0.32267279  0.64891786  1
  Si0+  Si116  1  0.57376151  0.17683836  0.98222952  1
  Si0+  Si117  1  0.92651923  0.32148476  0.31770642  1
  Si0+  Si118  1  0.92545555  0.32262412  0.98420056  1
  Si0+  Si119  1  0.67652603  0.43005867  0.01305181  1
  O2-  O120  1  0.25334699  0.00027675  0.05645347  1
  O2-  O121  1  0.25678191  0.00318443  0.39293283  1
  O2-  O122  1  0.25394717  0.00840290  0.72786845  1
  O2-  O123  1  0.24484538  0.50454874  0.05455442  1
  O2-  O124  1  0.24087239  0.50501145  0.39757573  1
  O2-  O125  1  0.24148861  0.49789231  0.73075558  1
  O2-  O126  1  0.75087200  -0.00174006  0.06711381  1
  O2-  O127  1  0.74918714  -0.00058577  0.39314072  1
  O2-  O128  1  0.75253885  -0.00464985  0.72221301  1
  O2-  O129  1  0.75101755  0.49664679  0.05437537  1
  O2-  O130  1  0.74809627  0.50247514  0.39741652  1
  O2-  O131  1  0.74907257  0.50012571  0.72652446  1
  O2-  O132  1  0.00198687  0.26097083  0.27274559  1
  O2-  O133  1  -0.00169139  0.25832021  0.60617114  1
  O2-  O134  1  -0.00850768  0.25128564  0.94016558  1
  O2-  O135  1  -0.00508161  0.74396685  0.26974870  1
  O2-  O136  1  -0.00126587  0.74911316  0.60218137  1
  O2-  O137  1  0.00419256  0.74882784  0.93502497  1
  O2-  O138  1  0.50124904  0.25524334  0.27393796  1
  O2-  O139  1  0.50061859  0.25027797  0.60885366  1
  O2-  O140  1  0.50551257  0.24542347  0.93708920  1
  O2-  O141  1  0.49691990  0.74896409  0.26809474  1
  O2-  O142  1  0.50410598  0.74516736  0.60743648  1
  O2-  O143  1  0.49810660  0.75835283  0.93935926  1
  O2-  O144  1  0.07331134  0.18279130  0.09884363  1
  O2-  O145  1  0.06840880  0.18005799  0.43279635  1
  O2-  O146  1  0.06808914  0.18040235  0.76493732  1
  O2-  O147  1  0.07240655  0.67194425  0.09832853  1
  O2-  O148  1  0.07169867  0.68173356  0.43377015  1
  O2-  O149  1  0.06918018  0.68209459  0.76553375  1
  O2-  O150  1  0.57303752  0.17882159  0.08741953  1
  O2-  O151  1  0.57249312  0.17878661  0.43300765  1
  O2-  O152  1  0.57062139  0.18360384  0.75924253  1
  O2-  O153  1  0.56624325  0.67483597  0.09821215  1
  O2-  O154  1  0.56836229  0.68244844  0.43407228  1
  O2-  O155  1  0.57212822  0.67571373  0.75543748  1
  O2-  O156  1  0.18408022  0.42186919  0.23362266  1
  O2-  O157  1  0.18319660  0.41950499  0.58096433  1
  O2-  O158  1  0.18375981  0.42380887  0.90738122  1
  O2-  O159  1  0.17832571  0.93445029  0.23215561  1
  O2-  O160  1  0.17912629  0.93313653  0.56896139  1
  O2-  O161  1  0.18174964  0.93050432  0.90997295  1
  O2-  O162  1  0.68051221  0.42722097  0.23330285  1
  O2-  O163  1  0.68048429  0.42211348  0.58022569  1
  O2-  O164  1  0.67713122  0.43117275  0.90729602  1
  O2-  O165  1  0.67559343  0.93209739  0.24497036  1
  O2-  O166  1  0.67416373  0.93356113  0.57488734  1
  O2-  O167  1  0.67782717  0.92912948  0.90294681  1
  O2-  O168  1  0.43243981  0.31930625  0.09874505  1
  O2-  O169  1  0.43015774  0.31813160  0.42392332  1
  O2-  O170  1  0.43151431  0.32243789  0.75437766  1
  O2-  O171  1  0.42378902  0.82403200  0.08747888  1
  O2-  O172  1  0.42728513  0.82262758  0.43098897  1
  O2-  O173  1  0.43570457  0.82217830  0.76783230  1
  O2-  O174  1  0.92626243  0.32642861  0.08909754  1
  O2-  O175  1  0.92032772  0.31436937  0.42303365  1
  O2-  O176  1  0.92069086  0.31933154  0.75527290  1
  O2-  O177  1  0.93194180  0.81674670  0.09825721  1
  O2-  O178  1  0.93029683  0.82389058  0.43067522  1
  O2-  O179  1  0.92569067  0.82118556  0.76476056  1
  O2-  O180  1  0.32290420  0.07390110  0.24260478  1
  O2-  O181  1  0.32984159  0.07575140  0.57855311  1
  O2-  O182  1  0.31951524  0.07576031  0.90897840  1
  O2-  O183  1  0.32132519  0.56746933  0.23344244  1
  O2-  O184  1  0.32311168  0.56831156  0.57135518  1
  O2-  O185  1  0.32336835  0.56825174  0.90930937  1
  O2-  O186  1  0.82000404  0.07107477  0.24546532  1
  O2-  O187  1  0.81553509  0.07608973  0.57643379  1
  O2-  O188  1  0.82138105  0.07058790  0.90363528  1
  O2-  O189  1  0.81993676  0.57278303  0.23413181  1
  O2-  O190  1  0.81872410  0.57108313  0.57930445  1
  O2-  O191  1  0.81985154  0.56521183  0.90661115  1
  O2-  O192  1  0.03509339  0.08850997  0.26451185  1
  O2-  O193  1  0.03557701  0.08643729  0.59728970  1
  O2-  O194  1  0.04003971  0.08374064  0.93129675  1
  O2-  O195  1  0.04895151  0.57279137  0.27429982  1
  O2-  O196  1  0.04985111  0.57626448  0.60473799  1
  O2-  O197  1  0.04707135  0.57675320  0.93089888  1
  O2-  O198  1  0.54239759  0.08562928  0.26045593  1
  O2-  O199  1  0.54538586  0.08934888  0.60656129  1
  O2-  O200  1  0.54677191  0.08320389  0.93711316  1
  O2-  O201  1  0.54320826  0.57787303  0.27056350  1
  O2-  O202  1  0.54642338  0.58064086  0.60669232  1
  O2-  O203  1  0.53619709  0.58621527  0.92734243  1
  O2-  O204  1  0.17039581  0.20773671  0.26731104  1
  O2-  O205  1  0.16903132  0.20812205  0.59927495  1
  O2-  O206  1  0.16389006  0.21338983  0.92871122  1
  O2-  O207  1  0.16638419  0.70785837  0.26586778  1
  O2-  O208  1  0.17147404  0.70931815  0.60443384  1
  O2-  O209  1  0.17421645  0.70393685  0.93579760  1
  O2-  O210  1  0.67036681  0.20844923  0.26415404  1
  O2-  O211  1  0.66304412  0.20998124  0.60749755  1
  O2-  O212  1  0.66756002  0.20285818  0.93642758  1
  O2-  O213  1  0.66619338  0.70835120  0.26727462  1
  O2-  O214  1  0.66608114  0.69906670  0.60526679  1
  O2-  O215  1  0.66572346  0.70713370  0.92966951  1
  O2-  O216  1  0.08574423  0.44637057  0.05738495  1
  O2-  O217  1  0.07500657  0.43560366  0.39881348  1
  O2-  O218  1  0.08032649  0.44125307  0.72785372  1
  O2-  O219  1  0.08999131  0.95948922  0.06119281  1
  O2-  O220  1  0.08336979  0.96837989  0.39982358  1
  O2-  O221  1  0.08233191  0.96531680  0.73512874  1
  O2-  O222  1  0.58529384  0.46124581  0.05846108  1
  O2-  O223  1  0.58030447  0.45124906  0.40285550  1
  O2-  O224  1  0.58755652  0.45408157  0.73204459  1
  O2-  O225  1  0.57913426  0.95491772  0.06949967  1
  O2-  O226  1  0.58508396  0.96287002  0.39585318  1
  O2-  O227  1  0.58819036  0.96190615  0.73033812  1
  O2-  O228  1  0.21553038  0.33755048  0.05941128  1
  O2-  O229  1  0.21673902  0.33075945  0.40299463  1
  O2-  O230  1  0.21087079  0.33289025  0.73315433  1
  O2-  O231  1  0.20951625  0.83750668  0.06235555  1
  O2-  O232  1  0.20689577  0.83549437  0.40024030  1
  O2-  O233  1  0.21259391  0.83773880  0.73885291  1
  O2-  O234  1  0.69788050  0.33602332  0.05831352  1
  O2-  O235  1  0.71057674  0.33005084  0.40103783  1
  O2-  O236  1  0.70921824  0.33693069  0.73535110  1
  O2-  O237  1  0.70541222  0.82616652  0.06780563  1
  O2-  O238  1  0.70081578  0.83876430  0.39815496  1
  O2-  O239  1  0.69922263  0.83458123  0.72488918  1
  O2-  O240  1  0.45336403  0.41521602  0.27318895  1
  O2-  O241  1  0.46168514  0.41326934  0.60273904  1
  O2-  O242  1  0.46362974  0.41370074  0.92707743  1
  O2-  O243  1  0.45402188  0.91957925  0.26384777  1
  O2-  O244  1  0.46198519  0.91799876  0.59996493  1
  O2-  O245  1  0.45023730  0.92053654  0.93784175  1
  O2-  O246  1  0.94214213  0.41852945  0.27671965  1
  O2-  O247  1  0.94379701  0.41724459  0.60569153  1
  O2-  O248  1  0.95414121  0.41321638  0.93312711  1
  O2-  O249  1  0.96051202  0.91873892  0.26397143  1
  O2-  O250  1  0.95269606  0.92095017  0.60054140  1
  O2-  O251  1  0.95791251  0.91836561  0.93381488  1
  O2-  O252  1  0.33916008  0.29166914  0.26915854  1
  O2-  O253  1  0.33907943  0.29625106  0.60137724  1
  O2-  O254  1  0.33737446  0.28761420  0.92698210  1
  O2-  O255  1  0.32769112  0.79466292  0.26380866  1
  O2-  O256  1  0.33410993  0.79089559  0.60453481  1
  O2-  O257  1  0.33545251  0.79651811  0.93490233  1
  O2-  O258  1  0.83707217  0.28891641  0.26740059  1
  O2-  O259  1  0.83288788  0.29007756  0.60312089  1
  O2-  O260  1  0.83034004  0.30010302  0.93852664  1
  O2-  O261  1  0.82683068  0.80081122  0.26794877  1
  O2-  O262  1  0.82770417  0.79365004  0.59967534  1
  O2-  O263  1  0.83232689  0.79094959  0.93249458  1
  O2-  O264  1  0.41411583  0.05289288  0.06074425  1
  O2-  O265  1  0.41985192  0.04913133  0.39265706  1
  O2-  O266  1  0.41756613  0.04688170  0.73240116  1
  O2-  O267  1  0.41161207  0.53463082  0.06011584  1
  O2-  O268  1  0.41411813  0.53986970  0.40371694  1
  O2-  O269  1  0.41590592  0.53506621  0.73827108  1
  O2-  O270  1  0.92271444  0.04360860  0.06978401  1
  O2-  O271  1  0.91181144  0.04199854  0.39757200  1
  O2-  O272  1  0.91219321  0.04635341  0.72753437  1
  O2-  O273  1  0.91374175  0.54002109  0.05855685  1
  O2-  O274  1  0.91705546  0.54462081  0.40594166  1
  O2-  O275  1  0.91235206  0.54184366  0.73172233  1
  O2-  O276  1  0.28943482  0.16565881  0.06082538  1
  O2-  O277  1  0.30047056  0.16515539  0.39569230  1
  O2-  O278  1  0.30093243  0.16973752  0.72807599  1
  O2-  O279  1  0.30239667  0.66461488  0.06040108  1
  O2-  O280  1  0.29288199  0.67157015  0.39986517  1
  O2-  O281  1  0.29288263  0.66687185  0.74029049  1
  O2-  O282  1  0.79541573  0.17016489  0.06982141  1
  O2-  O283  1  0.79142311  0.16102292  0.39873319  1
  O2-  O284  1  0.78804717  0.16048508  0.73207608  1
  O2-  O285  1  0.79272877  0.65970848  0.05744964  1
  O2-  O286  1  0.78968070  0.67268088  0.40280437  1
  O2-  O287  1  0.79160260  0.66255744  0.73237647  1
