# generated using pymatgen
data_Ca2Al2SiO7
_symmetry_space_group_name_H-M   'P 1'
_cell_length_a   15.46355027
_cell_length_b   15.46296412
_cell_length_c   15.28838332
_cell_angle_alpha   90.00249556
_cell_angle_beta   90.00375631
_cell_angle_gamma   90.00253227
_symmetry_Int_Tables_number   1
_chemical_formula_structural   Ca2Al2SiO7
_chemical_formula_sum   'Ca48 Al48 Si24 O168'
_cell_volume   3655.64083694
_cell_formula_units_Z   24
loop_
 _symmetry_equiv_pos_site_id
 _symmetry_equiv_pos_as_xyz
  1  'x, y, z'
loop_
 _atom_type_symbol
 _atom_type_oxidation_number
  Ca2+  2.0
  Al0+  0.0
  Si0+  0.0
  O2-  -2.0
loop_
 _atom_site_type_symbol
 _atom_site_label
 _atom_site_symmetry_multiplicity
 _atom_site_fract_x
 _atom_site_fract_y
 _atom_site_fract_z
 _atom_site_occupancy
  Ca2+  Ca0  1  0.16226447  0.08286431  0.17167086  1
  Ca2+  Ca1  1  0.15974797  0.07723519  0.50616408  1
  Ca2+  Ca2  1  0.16252858  0.07398088  0.83507621  1
  Ca2+  Ca3  1  0.17207941  0.57254441  0.17370623  1
  Ca2+  Ca4  1  0.16564109  0.57834929  0.50401104  1
  Ca2+  Ca5  1  0.17116498  0.57939234  0.83497839  1
  Ca2+  Ca6  1  0.67486132  0.09204231  0.17071072  1
  Ca2+  Ca7  1  0.67879967  0.08919032  0.50234515  1
  Ca2+  Ca8  1  0.67680321  0.08313612  0.83940626  1
  Ca2+  Ca9  1  0.67667113  0.57406554  0.17818543  1
  Ca2+  Ca10  1  0.67311807  0.57217538  0.50142693  1
  Ca2+  Ca11  1  0.66314469  0.57575852  0.83442340  1
  Ca2+  Ca12  1  0.07573116  0.33857912  0.16425381  1
  Ca2+  Ca13  1  0.08129083  0.33145898  0.48794965  1
  Ca2+  Ca14  1  0.08043313  0.34034350  0.83142080  1
  Ca2+  Ca15  1  0.07680702  0.82348008  0.16447292  1
  Ca2+  Ca16  1  0.08514694  0.82244927  0.50153560  1
  Ca2+  Ca17  1  0.07807017  0.82869222  0.82294447  1
  Ca2+  Ca18  1  0.58502471  0.32611478  0.16103048  1
  Ca2+  Ca19  1  0.58764853  0.33403645  0.49338872  1
  Ca2+  Ca20  1  0.58123302  0.33166829  0.83189879  1
  Ca2+  Ca21  1  0.58262352  0.82897177  0.16309880  1
  Ca2+  Ca22  1  0.57515884  0.83326691  0.49892406  1
  Ca2+  Ca23  1  0.57506617  0.82949637  0.82617132  1
  Ca2+  Ca24  1  0.32686050  0.42017836  0.17087440  1
  Ca2+  Ca25  1  0.31984324  0.42554856  0.50638969  1
  Ca2+  Ca26  1  0.32252794  0.42385781  0.84251948  1
  Ca2+  Ca27  1  0.33186094  0.92061848  0.17121095  1
  Ca2+  Ca28  1  0.32707614  0.91779649  0.50881260  1
  Ca2+  Ca29  1  0.32697610  0.90930312  0.83191318  1
  Ca2+  Ca30  1  0.83179791  0.41206756  0.17656902  1
  Ca2+  Ca31  1  0.82737751  0.41294934  0.49772992  1
  Ca2+  Ca32  1  0.82955325  0.41385563  0.83580059  1
  Ca2+  Ca33  1  0.83994923  0.92756279  0.16907728  1
  Ca2+  Ca34  1  0.84433979  0.93032578  0.50486510  1
  Ca2+  Ca35  1  0.84616337  0.92635224  0.83807060  1
  Ca2+  Ca36  1  0.42915345  0.17651849  0.15837821  1
  Ca2+  Ca37  1  0.42615308  0.17104390  0.48982950  1
  Ca2+  Ca38  1  0.42042216  0.17343988  0.83235761  1
  Ca2+  Ca39  1  0.41335243  0.65879395  0.16538457  1
  Ca2+  Ca40  1  0.40292751  0.66876220  0.50013589  1
  Ca2+  Ca41  1  0.41002863  0.66536149  0.82595728  1
  Ca2+  Ca42  1  0.91451979  0.17592257  0.16664030  1
  Ca2+  Ca43  1  0.91865585  0.16982166  0.49073489  1
  Ca2+  Ca44  1  0.91073618  0.16917279  0.83365326  1
  Ca2+  Ca45  1  0.92254418  0.66233245  0.16246027  1
  Ca2+  Ca46  1  0.92785201  0.66431143  0.49327826  1
  Ca2+  Ca47  1  0.92239694  0.68083571  0.82176625  1
  Al0+  Al48  1  -0.00050869  -0.00001554  0.00366458  1
  Al0+  Al49  1  0.00014771  -0.00077708  0.33376568  1
  Al0+  Al50  1  0.00149397  0.00208675  0.67271412  1
  Al0+  Al51  1  0.00084505  0.49971585  -0.00405871  1
  Al0+  Al52  1  0.00049883  0.50062041  0.33078531  1
  Al0+  Al53  1  -0.00278789  0.50042659  0.66627458  1
  Al0+  Al54  1  0.50104504  -0.00212330  -0.00415903  1
  Al0+  Al55  1  0.49959332  0.00003361  0.32857489  1
  Al0+  Al56  1  0.50332296  0.00037000  0.66227038  1
  Al0+  Al57  1  0.50008828  0.49906126  0.00042764  1
  Al0+  Al58  1  0.49894138  0.50306960  0.34084976  1
  Al0+  Al59  1  0.50099366  0.49867128  0.67261160  1
  Al0+  Al60  1  0.24985165  0.24774967  -0.00055429  1
  Al0+  Al61  1  0.25227794  0.24837867  0.33253599  1
  Al0+  Al62  1  0.25126888  0.25092282  0.66886968  1
  Al0+  Al63  1  0.24995203  0.74936022  0.00529109  1
  Al0+  Al64  1  0.24766345  0.75248798  0.32933424  1
  Al0+  Al65  1  0.24925556  0.75171812  0.66635790  1
  Al0+  Al66  1  0.75215213  0.24801673  -0.00444318  1
  Al0+  Al67  1  0.75064919  0.24770755  0.33429205  1
  Al0+  Al68  1  0.75070440  0.24950257  0.67475900  1
  Al0+  Al69  1  0.74855540  0.75149390  -0.00555473  1
  Al0+  Al70  1  0.74713663  0.75189774  0.33693561  1
  Al0+  Al71  1  0.74797895  0.75341740  0.65987744  1
  Al0+  Al72  1  0.93081812  0.31986530  0.32044905  1
  Al0+  Al73  1  0.92935070  0.82058065  0.98735997  1
  Al0+  Al74  1  0.31948575  0.57335011  0.35007867  1
  Al0+  Al75  1  0.42976722  0.82004074  0.65298881  1
  Al0+  Al76  1  0.81966626  0.06806822  0.34695634  1
  Al0+  Al77  1  0.68100903  0.42986020  0.68257165  1
  Al0+  Al78  1  0.57101934  0.17991723  0.32032532  1
  Al0+  Al79  1  0.06925482  0.67864215  0.65127375  1
  Al0+  Al80  1  0.18181461  0.93153397  0.68014041  1
  Al0+  Al81  1  0.32168038  0.57095716  0.01686356  1
  Al0+  Al82  1  0.82068369  0.06855786  0.68222551  1
  Al0+  Al83  1  0.57216837  0.17813868  0.98211374  1
  Al0+  Al84  1  0.82325015  0.57430802  0.34680719  1
  Al0+  Al85  1  0.07057571  0.67899127  0.31758805  1
  Al0+  Al86  1  0.07384298  0.17593736  0.31945794  1
  Al0+  Al87  1  0.17664563  0.42646762  0.01682020  1
  Al0+  Al88  1  0.67988185  0.42774836  0.34606769  1
  Al0+  Al89  1  0.82017465  0.06987782  0.01703021  1
  Al0+  Al90  1  0.42802053  0.32197021  0.98401502  1
  Al0+  Al91  1  0.17511899  0.42632856  0.68260535  1
  Al0+  Al92  1  0.31866165  0.57057833  0.68187621  1
  Al0+  Al93  1  0.17872915  0.42642833  0.34768387  1
  Al0+  Al94  1  0.93049741  0.32148227  0.98453131  1
  Al0+  Al95  1  0.92807683  0.82577697  0.64996083  1
  Si0+  Si96  1  0.07220401  0.17624082  0.98276625  1
  Si0+  Si97  1  0.81949810  0.57381878  0.01030960  1
  Si0+  Si98  1  0.32378441  0.07021747  0.34648976  1
  Si0+  Si99  1  0.17987572  0.93133615  0.34785816  1
  Si0+  Si100  1  0.42919594  0.32163382  0.65070955  1
  Si0+  Si101  1  0.57100722  0.67859775  0.98581619  1
  Si0+  Si102  1  0.42772642  0.82010443  0.98569066  1
  Si0+  Si103  1  0.32668394  0.07301268  0.68243162  1
  Si0+  Si104  1  0.07242865  0.18071870  0.65490647  1
  Si0+  Si105  1  0.57199504  0.67471916  0.64778916  1
  Si0+  Si106  1  0.67542545  0.92772083  0.68351886  1
  Si0+  Si107  1  0.42882058  0.32477247  0.31858949  1
  Si0+  Si108  1  0.42854575  0.82067946  0.31669139  1
  Si0+  Si109  1  0.57115213  0.67906299  0.31869755  1
  Si0+  Si110  1  0.07279106  0.67907455  0.98249645  1
  Si0+  Si111  1  0.67378516  0.92744120  0.35109585  1
  Si0+  Si112  1  0.92762517  0.31977341  0.65267843  1
  Si0+  Si113  1  0.57197370  0.18132317  0.65079590  1
  Si0+  Si114  1  0.32354969  0.06957613  0.01456751  1
  Si0+  Si115  1  0.68134731  0.42925236  0.01408197  1
  Si0+  Si116  1  0.92597274  0.82190225  0.31744083  1
  Si0+  Si117  1  0.17950006  0.92956242  0.01733112  1
  Si0+  Si118  1  0.67586105  0.92646804  0.01670761  1
  Si0+  Si119  1  0.82113118  0.57555345  0.68288955  1
  O2-  O120  1  0.25113264  0.00057113  0.05870881  1
  O2-  O121  1  0.24749346  0.00599179  0.38949678  1
  O2-  O122  1  0.25786661  0.00503813  0.72790296  1
  O2-  O123  1  0.25093405  0.49736156  0.06487344  1
  O2-  O124  1  0.24835957  0.50032474  0.39825812  1
  O2-  O125  1  0.24721250  0.49866629  0.73174472  1
  O2-  O126  1  0.74358981  -0.00476031  0.06140144  1
  O2-  O127  1  0.74530317  -0.00689523  0.39446195  1
  O2-  O128  1  0.74981877  -0.01069493  0.72805913  1
  O2-  O129  1  0.75329519  0.49953143  0.05498934  1
  O2-  O130  1  0.75311235  0.49934855  0.39532620  1
  O2-  O131  1  0.75217277  0.50812623  0.72924907  1
  O2-  O132  1  0.00597072  0.25122695  0.26932672  1
  O2-  O133  1  0.00606858  0.25585706  0.61309993  1
  O2-  O134  1  0.00811782  0.24889751  0.93826039  1
  O2-  O135  1  -0.01146805  0.74790527  0.27278826  1
  O2-  O136  1  -0.00595675  0.74822085  0.60094513  1
  O2-  O137  1  0.00204580  0.74570835  0.93888859  1
  O2-  O138  1  0.49968631  0.25801838  0.27427761  1
  O2-  O139  1  0.49915640  0.24966397  0.60757578  1
  O2-  O140  1  0.50012665  0.25018387  0.93221470  1
  O2-  O141  1  0.49864235  0.74862046  0.27518428  1
  O2-  O142  1  0.50170281  0.74320428  0.60496646  1
  O2-  O143  1  0.49637388  0.74665688  0.94452426  1
  O2-  O144  1  0.07013360  0.17271687  0.08792243  1
  O2-  O145  1  0.07026786  0.17257981  0.43343821  1
  O2-  O146  1  0.07156746  0.17792021  0.75995856  1
  O2-  O147  1  0.07244289  0.68112972  0.08823120  1
  O2-  O148  1  0.07419910  0.68365049  0.43013580  1
  O2-  O149  1  0.06899357  0.68178126  0.76532087  1
  O2-  O150  1  0.57100672  0.17962601  0.09582622  1
  O2-  O151  1  0.56824071  0.17804690  0.43382843  1
  O2-  O152  1  0.57049531  0.18155623  0.75564470  1
  O2-  O153  1  0.57404224  0.68123803  0.09086387  1
  O2-  O154  1  0.57270545  0.68159510  0.42321891  1
  O2-  O155  1  0.57280319  0.67663917  0.75396522  1
  O2-  O156  1  0.18112253  0.42646515  0.23436250  1
  O2-  O157  1  0.17744357  0.42181047  0.56949073  1
  O2-  O158  1  0.17657392  0.43023429  0.90330741  1
  O2-  O159  1  0.18249359  0.93067258  0.24227286  1
  O2-  O160  1  0.18244592  0.93401701  0.56685294  1
  O2-  O161  1  0.18065830  0.92909048  0.91225787  1
  O2-  O162  1  0.67931944  0.42957752  0.23193711  1
  O2-  O163  1  0.68292201  0.42715153  0.56986834  1
  O2-  O164  1  0.68080483  0.43157147  0.90878136  1
  O2-  O165  1  0.67097652  0.92640179  0.24546428  1
  O2-  O166  1  0.66854765  0.93287281  0.57842283  1
  O2-  O167  1  0.67304456  0.92492236  0.91144027  1
  O2-  O168  1  0.43182730  0.32077483  0.09784340  1
  O2-  O169  1  0.42864950  0.32027172  0.42448898  1
  O2-  O170  1  0.42990266  0.31918481  0.75555157  1
  O2-  O171  1  0.42951484  0.82340462  0.09086940  1
  O2-  O172  1  0.42887014  0.82371789  0.42148632  1
  O2-  O173  1  0.43191442  0.82083211  0.76647494  1
  O2-  O174  1  0.92665024  0.32065749  0.09692794  1
  O2-  O175  1  0.92837731  0.31567344  0.43447708  1
  O2-  O176  1  0.92563849  0.31708144  0.75795596  1
  O2-  O177  1  0.93096494  0.81873340  0.10054694  1
  O2-  O178  1  0.93047076  0.82516937  0.42253309  1
  O2-  O179  1  0.93262002  0.82512864  0.76393237  1
  O2-  O180  1  0.32724854  0.06454856  0.24141863  1
  O2-  O181  1  0.32642511  0.07186975  0.57658679  1
  O2-  O182  1  0.32378166  0.06633495  0.90947895  1
  O2-  O183  1  0.32006438  0.57212451  0.23666718  1
  O2-  O184  1  0.31710854  0.56927005  0.56868754  1
  O2-  O185  1  0.31981340  0.57516045  0.90376458  1
  O2-  O186  1  0.81891523  0.06707728  0.23405522  1
  O2-  O187  1  0.81894198  0.07133512  0.56917090  1
  O2-  O188  1  0.82014744  0.06734006  0.90384623  1
  O2-  O189  1  0.81819658  0.57674222  0.23236066  1
  O2-  O190  1  0.82049830  0.57285583  0.57766074  1
  O2-  O191  1  0.81410603  0.57520037  0.90535186  1
  O2-  O192  1  0.04276362  0.07823075  0.26530257  1
  O2-  O193  1  0.04042553  0.09040651  0.60746820  1
  O2-  O194  1  0.04109450  0.08395827  0.93617275  1
  O2-  O195  1  0.04463073  0.58232490  0.26223602  1
  O2-  O196  1  0.04169153  0.57940479  0.59867040  1
  O2-  O197  1  0.05015425  0.58537552  0.93694933  1
  O2-  O198  1  0.53748111  0.08454394  0.26472636  1
  O2-  O199  1  0.54773012  0.08893633  0.60296064  1
  O2-  O200  1  0.54349863  0.07874344  0.93037584  1
  O2-  O201  1  0.54405820  0.58683755  0.27145695  1
  O2-  O202  1  0.54795390  0.57993607  0.60438585  1
  O2-  O203  1  0.54675161  0.58614418  0.93854898  1
  O2-  O204  1  0.17584917  0.19473860  0.26894395  1
  O2-  O205  1  0.16682791  0.20029826  0.60799912  1
  O2-  O206  1  0.16825821  0.19260815  0.93817072  1
  O2-  O207  1  0.16303787  0.71984167  0.26094432  1
  O2-  O208  1  0.16589952  0.71324384  0.59925385  1
  O2-  O209  1  0.16582562  0.71022963  0.93853951  1
  O2-  O210  1  0.66725169  0.20850507  0.26620907  1
  O2-  O211  1  0.66372207  0.21333461  0.60603961  1
  O2-  O212  1  0.66948059  0.20744030  0.92887356  1
  O2-  O213  1  0.66166916  0.70904532  0.26865044  1
  O2-  O214  1  0.66420081  0.70174423  0.59974008  1
  O2-  O215  1  0.65943402  0.70941608  0.93336605  1
  O2-  O216  1  0.07744543  0.45761423  0.06736445  1
  O2-  O217  1  0.07915805  0.45262681  0.39763059  1
  O2-  O218  1  0.07530207  0.45372360  0.73316057  1
  O2-  O219  1  0.08923557  0.95889697  0.06607190  1
  O2-  O220  1  0.08800988  0.95549618  0.39574854  1
  O2-  O221  1  0.08812740  0.96517347  0.73785995  1
  O2-  O222  1  0.58993243  0.45715560  0.06115182  1
  O2-  O223  1  0.58306028  0.45795993  0.40128984  1
  O2-  O224  1  0.58481230  0.45853702  0.73873280  1
  O2-  O225  1  0.58135711  0.94985086  0.06311215  1
  O2-  O226  1  0.58066162  0.95645581  0.39691498  1
  O2-  O227  1  0.58460868  0.95947668  0.73303748  1
  O2-  O228  1  0.20134061  0.32511230  0.06545853  1
  O2-  O229  1  0.20754438  0.32690162  0.39985457  1
  O2-  O230  1  0.20475082  0.32777275  0.73598853  1
  O2-  O231  1  0.20850025  0.83895834  0.06631366  1
  O2-  O232  1  0.21353695  0.84201427  0.39504751  1
  O2-  O233  1  0.21334983  0.83666608  0.73619106  1
  O2-  O234  1  0.70921739  0.33663196  0.05831788  1
  O2-  O235  1  0.70801916  0.33019611  0.40042980  1
  O2-  O236  1  0.71492537  0.33582726  0.73927623  1
  O2-  O237  1  0.70217816  0.83241658  0.06252482  1
  O2-  O238  1  0.69364240  0.83329511  0.39777178  1
  O2-  O239  1  0.69187884  0.83037544  0.72538859  1
  O2-  O240  1  0.45175446  0.42013769  0.27590698  1
  O2-  O241  1  0.45984762  0.41303724  0.60522346  1
  O2-  O242  1  0.45806700  0.42023710  0.93125856  1
  O2-  O243  1  0.45850169  0.91093635  0.26648178  1
  O2-  O244  1  0.46234126  0.91637892  0.59755804  1
  O2-  O245  1  0.45625924  0.90997067  0.93537212  1
  O2-  O246  1  0.95175373  0.41957575  0.26696303  1
  O2-  O247  1  0.94501785  0.41450045  0.60793122  1
  O2-  O248  1  0.95622593  0.41919012  0.92856661  1
  O2-  O249  1  0.96004032  0.91213257  0.26917970  1
  O2-  O250  1  0.96474106  0.92304740  0.59980936  1
  O2-  O251  1  0.96400602  0.91682351  0.93554601  1
  O2-  O252  1  0.33752481  0.29506660  0.27065207  1
  O2-  O253  1  0.33716373  0.29388496  0.60325124  1
  O2-  O254  1  0.33007378  0.29037875  0.93133322  1
  O2-  O255  1  0.33718199  0.79571083  0.26716165  1
  O2-  O256  1  0.33290701  0.79360814  0.59820733  1
  O2-  O257  1  0.33452177  0.79426751  0.94003482  1
  O2-  O258  1  0.83368191  0.28659185  0.26704608  1
  O2-  O259  1  0.83808550  0.28348262  0.60636121  1
  O2-  O260  1  0.83584436  0.28718243  0.92856496  1
  O2-  O261  1  0.82856414  0.80565003  0.27540978  1
  O2-  O262  1  0.82550231  0.80950007  0.60076854  1
  O2-  O263  1  0.83186664  0.79451208  0.93202074  1
  O2-  O264  1  0.41440832  0.03762739  0.06214236  1
  O2-  O265  1  0.41268915  0.03584225  0.39620081  1
  O2-  O266  1  0.42032253  0.04654062  0.72747222  1
  O2-  O267  1  0.42224932  0.54493198  0.06803795  1
  O2-  O268  1  0.41890565  0.55139625  0.40348034  1
  O2-  O269  1  0.41835809  0.54453967  0.73343623  1
  O2-  O270  1  0.91611114  0.03689390  0.07104793  1
  O2-  O271  1  0.91659588  0.03679489  0.40096653  1
  O2-  O272  1  0.91724257  0.04181775  0.73817626  1
  O2-  O273  1  0.91390876  0.55082681  0.05350018  1
  O2-  O274  1  0.92207590  0.54910119  0.39786109  1
  O2-  O275  1  0.91355961  0.54928652  0.73029319  1
  O2-  O276  1  0.29880016  0.16146121  0.06222538  1
  O2-  O277  1  0.30521667  0.16384230  0.39319913  1
  O2-  O278  1  0.30163021  0.16624199  0.72863165  1
  O2-  O279  1  0.29445558  0.67018341  0.07065398  1
  O2-  O280  1  0.28999537  0.67398761  0.39783947  1
  O2-  O281  1  0.29250757  0.67037290  0.73292464  1
  O2-  O282  1  0.78824884  0.16740772  0.06808304  1
  O2-  O283  1  0.78767781  0.16305089  0.40247246  1
  O2-  O284  1  0.78485060  0.16221376  0.73835667  1
  O2-  O285  1  0.78830190  0.66420216  0.05866915  1
  O2-  O286  1  0.79194747  0.67148680  0.40105848  1
  O2-  O287  1  0.79620449  0.67140634  0.72540034  1
