# generated using pymatgen
data_Ca2Al2SiO7
_symmetry_space_group_name_H-M   'P 1'
_cell_length_a   15.47790767
_cell_length_b   15.47357255
_cell_length_c   15.29728723
_cell_angle_alpha   89.97952287
_cell_angle_beta   90.01403481
_cell_angle_gamma   89.99386477
_symmetry_Int_Tables_number   1
_chemical_formula_structural   Ca2Al2SiO7
_chemical_formula_sum   'Ca48 Al48 Si24 O168'
_cell_volume   3663.67739896
_cell_formula_units_Z   24
loop_
 _symmetry_equiv_pos_site_id
 _symmetry_equiv_pos_as_xyz
  1  'x, y, z'
loop_
 _atom_type_symbol
 _atom_type_oxidation_number
  Ca2+  2.0
  Al0+  0.0
  Si0+  0.0
  O2-  -2.0
loop_
 _atom_site_type_symbol
 _atom_site_label
 _atom_site_symmetry_multiplicity
 _atom_site_fract_x
 _atom_site_fract_y
 _atom_site_fract_z
 _atom_site_occupancy
  Ca2+  Ca0  1  0.17443329  0.08275231  0.18251119  1
  Ca2+  Ca1  1  0.17051999  0.07920445  0.49777402  1
  Ca2+  Ca2  1  0.17117029  0.07854441  0.83371339  1
  Ca2+  Ca3  1  0.17104817  0.57969364  0.17155719  1
  Ca2+  Ca4  1  0.17180909  0.58319622  0.50456785  1
  Ca2+  Ca5  1  0.17221681  0.58056430  0.83635162  1
  Ca2+  Ca6  1  0.67274890  0.08595337  0.17195909  1
  Ca2+  Ca7  1  0.66562883  0.08450025  0.50469545  1
  Ca2+  Ca8  1  0.66083497  0.07716014  0.84076546  1
  Ca2+  Ca9  1  0.66344100  0.57600527  0.17466745  1
  Ca2+  Ca10  1  0.66921341  0.58300114  0.50239736  1
  Ca2+  Ca11  1  0.67354113  0.58340884  0.84160500  1
  Ca2+  Ca12  1  0.08070539  0.32486112  0.16721358  1
  Ca2+  Ca13  1  0.07398623  0.32769839  0.49502023  1
  Ca2+  Ca14  1  0.07227523  0.33093003  0.82448721  1
  Ca2+  Ca15  1  0.07356658  0.84361604  0.16939946  1
  Ca2+  Ca16  1  0.07794184  0.84048192  0.49099860  1
  Ca2+  Ca17  1  0.08024133  0.83222660  0.82652266  1
  Ca2+  Ca18  1  0.59448108  0.32492559  0.16748654  1
  Ca2+  Ca19  1  0.57854319  0.32437277  0.49205566  1
  Ca2+  Ca20  1  0.59035234  0.32248142  0.82932824  1
  Ca2+  Ca21  1  0.59576379  0.82142646  0.16206403  1
  Ca2+  Ca22  1  0.59721118  0.82213066  0.50003528  1
  Ca2+  Ca23  1  0.58991515  0.82780711  0.82517614  1
  Ca2+  Ca24  1  0.33554377  0.41285637  0.17589603  1
  Ca2+  Ca25  1  0.33817674  0.40904833  0.50259438  1
  Ca2+  Ca26  1  0.33638336  0.41235700  0.83344792  1
  Ca2+  Ca27  1  0.32600146  0.92432570  0.17803622  1
  Ca2+  Ca28  1  0.32399555  0.91429348  0.50665841  1
  Ca2+  Ca29  1  0.32902643  0.90493667  0.83120216  1
  Ca2+  Ca30  1  0.81834376  0.42755692  0.17139136  1
  Ca2+  Ca31  1  0.82940433  0.42541355  0.50359267  1
  Ca2+  Ca32  1  0.82778626  0.42398816  0.83858246  1
  Ca2+  Ca33  1  0.82793293  0.92346466  0.16888810  1
  Ca2+  Ca34  1  0.83054064  0.92230381  0.49933734  1
  Ca2+  Ca35  1  0.81737375  0.92415883  0.83746746  1
  Ca2+  Ca36  1  0.42773517  0.16619153  0.16883729  1
  Ca2+  Ca37  1  0.42601505  0.17053405  0.49395022  1
  Ca2+  Ca38  1  0.43027141  0.17217546  0.82677041  1
  Ca2+  Ca39  1  0.43095073  0.66735142  0.16507840  1
  Ca2+  Ca40  1  0.42925228  0.67405977  0.49850074  1
  Ca2+  Ca41  1  0.43493682  0.67174567  0.82621764  1
  Ca2+  Ca42  1  0.91932737  0.15418270  0.16450444  1
  Ca2+  Ca43  1  0.91708343  0.16944609  0.49092206  1
  Ca2+  Ca44  1  0.90920956  0.17361813  0.82903937  1
  Ca2+  Ca45  1  0.90707842  0.66945342  0.16708107  1
  Ca2+  Ca46  1  0.90933895  0.67247444  0.49197185  1
  Ca2+  Ca47  1  0.91259775  0.66217431  0.82817093  1
  Al0+  Al48  1  0.00105364  -0.00198565  -0.00295646  1
  Al0+  Al49  1  -0.00230677  -0.00035982  0.33198531  1
  Al0+  Al50  1  0.00180314  -0.00102352  0.67334199  1
  Al0+  Al51  1  0.00197424  0.49900941  0.00369732  1
  Al0+  Al52  1  0.00117235  0.50106276  0.33499151  1
  Al0+  Al53  1  0.00155843  0.49945102  0.66604023  1
  Al0+  Al54  1  0.49544714  -0.00096454  0.00048665  1
  Al0+  Al55  1  0.49900467  0.00005730  0.33445926  1
  Al0+  Al56  1  0.49741403  -0.00006373  0.66463952  1
  Al0+  Al57  1  0.49819155  0.50151360  -0.00096970  1
  Al0+  Al58  1  0.49815383  0.50122448  0.33196756  1
  Al0+  Al59  1  0.50087937  0.50021644  0.66273339  1
  Al0+  Al60  1  0.24874525  0.24809661  -0.00146621  1
  Al0+  Al61  1  0.24810154  0.24900789  0.33140220  1
  Al0+  Al62  1  0.24824517  0.24822548  0.66732962  1
  Al0+  Al63  1  0.24780860  0.74735737  0.00163793  1
  Al0+  Al64  1  0.24845470  0.74789888  0.33540201  1
  Al0+  Al65  1  0.25084139  0.74767055  0.66968070  1
  Al0+  Al66  1  0.75257068  0.25182365  0.00223276  1
  Al0+  Al67  1  0.74942668  0.25329123  0.33780832  1
  Al0+  Al68  1  0.75243340  0.25396072  0.65709921  1
  Al0+  Al69  1  0.75346832  0.75305320  -0.00074995  1
  Al0+  Al70  1  0.75220770  0.75069851  0.32575340  1
  Al0+  Al71  1  0.75394877  0.75227509  0.67066923  1
  Al0+  Al72  1  0.32279245  0.07243123  0.35030428  1
  Al0+  Al73  1  0.82123931  0.57067953  0.68031271  1
  Al0+  Al74  1  0.42703629  0.82055506  0.65199396  1
  Al0+  Al75  1  0.06615454  0.18024899  0.32041414  1
  Al0+  Al76  1  0.67860122  0.93220211  0.67782389  1
  Al0+  Al77  1  0.82019117  0.57227698  0.34878871  1
  Al0+  Al78  1  0.93019820  0.32259171  0.65199639  1
  Al0+  Al79  1  0.57208235  0.17971776  0.98767717  1
  Al0+  Al80  1  0.42896652  0.32006563  0.31808943  1
  Al0+  Al81  1  0.17885534  0.92904595  0.34764463  1
  Al0+  Al82  1  0.82068437  0.07159682  0.01291728  1
  Al0+  Al83  1  0.67636966  0.43026233  0.01393798  1
  Al0+  Al84  1  0.57013811  0.68246230  0.31923289  1
  Al0+  Al85  1  0.82326983  0.57186061  0.01506722  1
  Al0+  Al86  1  0.42754519  0.32080896  0.65373571  1
  Al0+  Al87  1  0.67490933  0.92967760  0.01471137  1
  Al0+  Al88  1  0.57274715  0.17780487  0.65215233  1
  Al0+  Al89  1  0.93013360  0.82053606  0.31848152  1
  Al0+  Al90  1  0.17978587  0.92790417  0.68259407  1
  Al0+  Al91  1  0.81912675  0.07123031  0.34643271  1
  Al0+  Al92  1  0.57381235  0.17728533  0.31718005  1
  Al0+  Al93  1  0.57248726  0.68081532  0.98621391  1
  Al0+  Al94  1  0.67556541  0.43036040  0.35181721  1
  Al0+  Al95  1  0.57602604  0.68148750  0.65183799  1
  Si0+  Si96  1  0.93240805  0.82092750  0.65285429  1
  Si0+  Si97  1  0.07141578  0.67690655  0.98386162  1
  Si0+  Si98  1  0.07405156  0.67622363  0.31565011  1
  Si0+  Si99  1  0.32046454  0.57075676  0.34987702  1
  Si0+  Si100  1  0.32089265  0.07331466  0.68599452  1
  Si0+  Si101  1  0.17897065  0.42821275  0.34931784  1
  Si0+  Si102  1  0.07250064  0.17698608  0.98292414  1
  Si0+  Si103  1  0.92752807  0.32574917  0.31457774  1
  Si0+  Si104  1  0.67745635  0.42841274  0.68293727  1
  Si0+  Si105  1  0.42357648  0.82028322  0.98522099  1
  Si0+  Si106  1  0.31834073  0.07246249  0.01560255  1
  Si0+  Si107  1  0.17966740  0.42819411  0.68175916  1
  Si0+  Si108  1  0.67769973  0.92723884  0.34792254  1
  Si0+  Si109  1  0.07222810  0.67825559  0.65272129  1
  Si0+  Si110  1  0.93177645  0.82183882  0.98060821  1
  Si0+  Si111  1  0.42355001  0.82151306  0.31733358  1
  Si0+  Si112  1  0.93280836  0.32149309  0.98589786  1
  Si0+  Si113  1  0.17976872  0.42686635  0.01519241  1
  Si0+  Si114  1  0.31923174  0.56992659  0.01534637  1
  Si0+  Si115  1  0.42472830  0.32127671  0.98395615  1
  Si0+  Si116  1  0.07040252  0.17597300  0.65073464  1
  Si0+  Si117  1  0.82231865  0.07501049  0.68090472  1
  Si0+  Si118  1  0.32226987  0.57018722  0.68290415  1
  Si0+  Si119  1  0.17984153  0.92729959  0.01501631  1
  O2-  O120  1  0.24955899  -0.00151457  0.05645970  1
  O2-  O121  1  0.25409234  -0.00392366  0.39888985  1
  O2-  O122  1  0.25628889  -0.00008818  0.73099673  1
  O2-  O123  1  0.25383432  0.49374546  0.05804415  1
  O2-  O124  1  0.25078093  0.49791248  0.39170887  1
  O2-  O125  1  0.25473106  0.49453945  0.72497118  1
  O2-  O126  1  0.74375469  0.00549740  0.06332793  1
  O2-  O127  1  0.73908432  0.00232900  0.39248409  1
  O2-  O128  1  0.74737005  0.01322362  0.72437425  1
  O2-  O129  1  0.74332977  0.50813006  0.06292216  1
  O2-  O130  1  0.74918125  0.50160663  0.40077895  1
  O2-  O131  1  0.74422502  0.49906358  0.72741275  1
  O2-  O132  1  -0.00973810  0.25162829  0.26951485  1
  O2-  O133  1  -0.00062350  0.24195595  0.60732687  1
  O2-  O134  1  -0.00059183  0.24603573  0.94201076  1
  O2-  O135  1  0.00537581  0.74479068  0.27213579  1
  O2-  O136  1  0.00331718  0.74999581  0.61031439  1
  O2-  O137  1  -0.00105487  0.74523625  0.94031821  1
  O2-  O138  1  0.50265524  0.25106822  0.26720103  1
  O2-  O139  1  0.50024368  0.25058488  0.60432749  1
  O2-  O140  1  0.49876238  0.25763376  0.94210286  1
  O2-  O141  1  0.49740544  0.75954039  0.27199098  1
  O2-  O142  1  0.50553378  0.75593644  0.60225218  1
  O2-  O143  1  0.49972279  0.75942795  0.94205917  1
  O2-  O144  1  0.07546879  0.17761023  0.08760324  1
  O2-  O145  1  0.06554357  0.18263968  0.43345990  1
  O2-  O146  1  0.07114464  0.17828391  0.75707798  1
  O2-  O147  1  0.07626432  0.67663899  0.08821336  1
  O2-  O148  1  0.07629313  0.67440955  0.42119776  1
  O2-  O149  1  0.07250044  0.67748235  0.75832738  1
  O2-  O150  1  0.57059146  0.17932099  0.09987740  1
  O2-  O151  1  0.57257703  0.17774351  0.43024735  1
  O2-  O152  1  0.57285049  0.17935726  0.76662457  1
  O2-  O153  1  0.56778048  0.67949088  0.09916214  1
  O2-  O154  1  0.57069900  0.68329411  0.43206892  1
  O2-  O155  1  0.57515543  0.68128035  0.76572927  1
  O2-  O156  1  0.17849229  0.43009676  0.24365504  1
  O2-  O157  1  0.17774457  0.43094937  0.57705964  1
  O2-  O158  1  0.17835216  0.42855577  0.90993802  1
  O2-  O159  1  0.17998942  0.93103167  0.23323324  1
  O2-  O160  1  0.17687433  0.92798732  0.57055862  1
  O2-  O161  1  0.18090806  0.92614777  0.90980073  1
  O2-  O162  1  0.67644710  0.43229167  0.23797915  1
  O2-  O163  1  0.67869602  0.42906122  0.57802044  1
  O2-  O164  1  0.68021031  0.42809380  0.90002601  1
  O2-  O165  1  0.68145512  0.92536897  0.24244836  1
  O2-  O166  1  0.68658920  0.92823924  0.56519706  1
  O2-  O167  1  0.67811320  0.92978806  0.90075457  1
  O2-  O168  1  0.41495435  0.31711845  0.08824654  1
  O2-  O169  1  0.42794632  0.31782376  0.43133391  1
  O2-  O170  1  0.42620825  0.31827808  0.76782607  1
  O2-  O171  1  0.41449316  0.81509841  0.09004671  1
  O2-  O172  1  0.41759103  0.81507749  0.42211664  1
  O2-  O173  1  0.42393775  0.81293340  0.76584333  1
  O2-  O174  1  0.93896268  0.32384262  0.09023194  1
  O2-  O175  1  0.93421469  0.32738905  0.42013736  1
  O2-  O176  1  0.93298978  0.32316344  0.76591352  1
  O2-  O177  1  0.93649986  0.82601796  0.08515265  1
  O2-  O178  1  0.93165658  0.82040921  0.43204956  1
  O2-  O179  1  0.93497591  0.81980172  0.75809827  1
  O2-  O180  1  0.31866069  0.07173467  0.23568157  1
  O2-  O181  1  0.31513292  0.07720690  0.58142820  1
  O2-  O182  1  0.31507094  0.07630117  0.91074312  1
  O2-  O183  1  0.31706979  0.57147482  0.24432789  1
  O2-  O184  1  0.31756828  0.57304051  0.57819337  1
  O2-  O185  1  0.31503378  0.57110005  0.91029457  1
  O2-  O186  1  0.82202692  0.06636652  0.23356605  1
  O2-  O187  1  0.82762294  0.07056922  0.57578563  1
  O2-  O188  1  0.82349481  0.06999317  0.89900103  1
  O2-  O189  1  0.81920788  0.57088415  0.23540219  1
  O2-  O190  1  0.82415005  0.57054348  0.56804263  1
  O2-  O191  1  0.82699245  0.56616580  0.90127074  1
  O2-  O192  1  0.03798217  0.08405970  0.26469776  1
  O2-  O193  1  0.04789423  0.08083780  0.60784156  1
  O2-  O194  1  0.04829635  0.08419905  0.93559258  1
  O2-  O195  1  0.04995221  0.58223178  0.26894140  1
  O2-  O196  1  0.04657837  0.58665425  0.60489602  1
  O2-  O197  1  0.04712145  0.58348874  0.93695086  1
  O2-  O198  1  0.54572953  0.07743722  0.26548878  1
  O2-  O199  1  0.54551095  0.07937985  0.60019730  1
  O2-  O200  1  0.53669420  0.08304154  0.93487450  1
  O2-  O201  1  0.53358550  0.58766100  0.26587701  1
  O2-  O202  1  0.54493745  0.58359171  0.60095300  1
  O2-  O203  1  0.53699191  0.58514535  0.93189961  1
  O2-  O204  1  0.16104398  0.21447977  0.26445237  1
  O2-  O205  1  0.16234288  0.20526802  0.60513519  1
  O2-  O206  1  0.16212240  0.20875770  0.93298324  1
  O2-  O207  1  0.16734078  0.70097005  0.26785293  1
  O2-  O208  1  0.16437918  0.70391074  0.60628172  1
  O2-  O209  1  0.16215984  0.70745997  0.93442292  1
  O2-  O210  1  0.67315541  0.20799492  0.26619475  1
  O2-  O211  1  0.67080581  0.20458711  0.59890391  1
  O2-  O212  1  0.67006065  0.20913150  0.93462825  1
  O2-  O213  1  0.66571584  0.71150605  0.26304283  1
  O2-  O214  1  0.67456959  0.71187841  0.60006677  1
  O2-  O215  1  0.67089688  0.70869962  0.93430626  1
  O2-  O216  1  0.09133135  0.45881376  0.06555762  1
  O2-  O217  1  0.08861237  0.45804850  0.39792937  1
  O2-  O218  1  0.09106615  0.46195057  0.73233015  1
  O2-  O219  1  0.08768058  0.95552269  0.05985310  1
  O2-  O220  1  0.08159529  0.96121101  0.39913798  1
  O2-  O221  1  0.08471978  0.95984278  0.74091687  1
  O2-  O222  1  0.57527901  0.45228850  0.06433274  1
  O2-  O223  1  0.57686155  0.46051853  0.40234172  1
  O2-  O224  1  0.58225454  0.44951263  0.72763780  1
  O2-  O225  1  0.57272965  0.94653061  0.06404328  1
  O2-  O226  1  0.58105084  0.94124190  0.39078937  1
  O2-  O227  1  0.57863766  0.95273029  0.73031703  1
  O2-  O228  1  0.20354849  0.33343270  0.06120466  1
  O2-  O229  1  0.20471943  0.33667062  0.39660962  1
  O2-  O230  1  0.20162478  0.33520318  0.73046140  1
  O2-  O231  1  0.20516380  0.83484237  0.06208093  1
  O2-  O232  1  0.20086378  0.82778203  0.39810555  1
  O2-  O233  1  0.20924103  0.83005110  0.73731391  1
  O2-  O234  1  0.71279743  0.33510916  0.06800682  1
  O2-  O235  1  0.70350649  0.33237121  0.40440469  1
  O2-  O236  1  0.70886704  0.33517553  0.72754487  1
  O2-  O237  1  0.71244706  0.83402901  0.06692905  1
  O2-  O238  1  0.71392162  0.83690606  0.39348563  1
  O2-  O239  1  0.71784206  0.83932610  0.73489465  1
  O2-  O240  1  0.44985197  0.42131831  0.26749208  1
  O2-  O241  1  0.44819866  0.42128281  0.60269651  1
  O2-  O242  1  0.44241166  0.41802358  0.94148912  1
  O2-  O243  1  0.44156543  0.91802711  0.27554676  1
  O2-  O244  1  0.44030543  0.92294196  0.60480002  1
  O2-  O245  1  0.43760427  0.91705662  0.94196116  1
  O2-  O246  1  0.96229958  0.41626353  0.26764857  1
  O2-  O247  1  0.97045357  0.41535714  0.59726253  1
  O2-  O248  1  0.96775119  0.41087911  0.93697610  1
  O2-  O249  1  0.96370957  0.91484716  0.26182353  1
  O2-  O250  1  0.96152076  0.91327351  0.60754589  1
  O2-  O251  1  0.96660892  0.91020584  0.92996766  1
  O2-  O252  1  0.32957903  0.29233705  0.26558438  1
  O2-  O253  1  0.32706350  0.29444318  0.60337857  1
  O2-  O254  1  0.33268111  0.29113193  0.93436456  1
  O2-  O255  1  0.33224516  0.78959322  0.26855828  1
  O2-  O256  1  0.33074346  0.78352473  0.59933836  1
  O2-  O257  1  0.33286924  0.78552670  0.93616955  1
  O2-  O258  1  0.83141645  0.30700143  0.27404428  1
  O2-  O259  1  0.83483885  0.29956521  0.59433216  1
  O2-  O260  1  0.84068019  0.29739002  0.93810884  1
  O2-  O261  1  0.83656265  0.79006098  0.25932814  1
  O2-  O262  1  0.84182761  0.79301376  0.60532300  1
  O2-  O263  1  0.83929552  0.79893252  0.93304874  1
  O2-  O264  1  0.40982132  0.04681280  0.06313298  1
  O2-  O265  1  0.42246979  0.04943894  0.40168918  1
  O2-  O266  1  0.41585240  0.05273968  0.73045625  1
  O2-  O267  1  0.41174970  0.54824604  0.06263808  1
  O2-  O268  1  0.41146679  0.54556703  0.39793959  1
  O2-  O269  1  0.41492360  0.54567532  0.73022496  1
  O2-  O270  1  0.91961920  0.03683158  0.06304245  1
  O2-  O271  1  0.91334635  0.03475188  0.40122420  1
  O2-  O272  1  0.91336872  0.04441266  0.73034353  1
  O2-  O273  1  0.92043870  0.53876907  0.06861660  1
  O2-  O274  1  0.92121460  0.54653312  0.39891613  1
  O2-  O275  1  0.91906710  0.53813304  0.73312815  1
  O2-  O276  1  0.28541361  0.16220425  0.06399760  1
  O2-  O277  1  0.28513624  0.16836999  0.40183841  1
  O2-  O278  1  0.28759340  0.16394890  0.73578877  1
  O2-  O279  1  0.28336306  0.65812280  0.06476982  1
  O2-  O280  1  0.28847561  0.66013061  0.39903198  1
  O2-  O281  1  0.28748274  0.65758933  0.73440262  1
  O2-  O282  1  0.80334134  0.17200294  0.06468688  1
  O2-  O283  1  0.79843145  0.17041105  0.39887602  1
  O2-  O284  1  0.80403086  0.17240133  0.72168814  1
  O2-  O285  1  0.80680134  0.67493714  0.06012190  1
  O2-  O286  1  0.79313183  0.67274614  0.39758098  1
  O2-  O287  1  0.79559701  0.66812475  0.73526654  1
