# generated using pymatgen
data_Ca2Al2SiO7
_symmetry_space_group_name_H-M   'P 1'
_cell_length_a   15.46024047
_cell_length_b   15.45909822
_cell_length_c   15.28507538
_cell_angle_alpha   90.00393738
_cell_angle_beta   89.99388493
_cell_angle_gamma   89.99894829
_symmetry_Int_Tables_number   1
_chemical_formula_structural   Ca2Al2SiO7
_chemical_formula_sum   'Ca48 Al48 Si24 O168'
_cell_volume   3653.15401678
_cell_formula_units_Z   24
loop_
 _symmetry_equiv_pos_site_id
 _symmetry_equiv_pos_as_xyz
  1  'x, y, z'
loop_
 _atom_type_symbol
 _atom_type_oxidation_number
  Ca2+  2.0
  Al0+  0.0
  Si0+  0.0
  O2-  -2.0
loop_
 _atom_site_type_symbol
 _atom_site_label
 _atom_site_symmetry_multiplicity
 _atom_site_fract_x
 _atom_site_fract_y
 _atom_site_fract_z
 _atom_site_occupancy
  Ca2+  Ca0  1  0.16583972  0.06777038  0.16856605  1
  Ca2+  Ca1  1  0.15615151  0.07241661  0.50610192  1
  Ca2+  Ca2  1  0.15775577  0.07277539  0.83600289  1
  Ca2+  Ca3  1  0.17196907  0.58862936  0.16675635  1
  Ca2+  Ca4  1  0.16741540  0.58141578  0.50250260  1
  Ca2+  Ca5  1  0.16629268  0.57013067  0.84347938  1
  Ca2+  Ca6  1  0.66576286  0.08352579  0.16481170  1
  Ca2+  Ca7  1  0.67191116  0.08451812  0.50407387  1
  Ca2+  Ca8  1  0.67845103  0.08295380  0.84317381  1
  Ca2+  Ca9  1  0.67381277  0.58367706  0.17238646  1
  Ca2+  Ca10  1  0.68205095  0.58597598  0.50537199  1
  Ca2+  Ca11  1  0.67448609  0.58380231  0.83403479  1
  Ca2+  Ca12  1  0.08464044  0.33332767  0.16073243  1
  Ca2+  Ca13  1  0.08320682  0.33260379  0.50563194  1
  Ca2+  Ca14  1  0.08590805  0.32732115  0.82250522  1
  Ca2+  Ca15  1  0.08085305  0.82557182  0.15941030  1
  Ca2+  Ca16  1  0.07353196  0.83458983  0.49294023  1
  Ca2+  Ca17  1  0.07819864  0.83380215  0.83037301  1
  Ca2+  Ca18  1  0.57899038  0.32306799  0.15736304  1
  Ca2+  Ca19  1  0.57876305  0.32876211  0.49577907  1
  Ca2+  Ca20  1  0.57153158  0.33262469  0.83179809  1
  Ca2+  Ca21  1  0.57614612  0.83355042  0.15539734  1
  Ca2+  Ca22  1  0.58034082  0.83246207  0.49655658  1
  Ca2+  Ca23  1  0.57923730  0.84073462  0.83706322  1
  Ca2+  Ca24  1  0.33284818  0.42434325  0.16605055  1
  Ca2+  Ca25  1  0.32963792  0.42064751  0.50730582  1
  Ca2+  Ca26  1  0.32652574  0.41443410  0.84155397  1
  Ca2+  Ca27  1  0.31941646  0.90306298  0.16676955  1
  Ca2+  Ca28  1  0.31639176  0.91628564  0.50464007  1
  Ca2+  Ca29  1  0.32136911  0.91362569  0.84109562  1
  Ca2+  Ca30  1  0.83308465  0.42540322  0.17307413  1
  Ca2+  Ca31  1  0.84133551  0.42920989  0.50718101  1
  Ca2+  Ca32  1  0.84369996  0.42337960  0.83415691  1
  Ca2+  Ca33  1  0.83521152  0.91536475  0.16427748  1
  Ca2+  Ca34  1  0.83834721  0.91909258  0.50920457  1
  Ca2+  Ca35  1  0.83704892  0.92592879  0.84140587  1
  Ca2+  Ca36  1  0.42815737  0.16886640  0.15552111  1
  Ca2+  Ca37  1  0.41962867  0.17337494  0.49514910  1
  Ca2+  Ca38  1  0.41808286  0.17538282  0.83006192  1
  Ca2+  Ca39  1  0.41143677  0.66692275  0.15850947  1
  Ca2+  Ca40  1  0.41596735  0.66438291  0.49535839  1
  Ca2+  Ca41  1  0.41168262  0.66860479  0.83762205  1
  Ca2+  Ca42  1  0.91565044  0.16725507  0.16087256  1
  Ca2+  Ca43  1  0.91923433  0.16683320  0.50537094  1
  Ca2+  Ca44  1  0.91818448  0.16835828  0.82434693  1
  Ca2+  Ca45  1  0.92626957  0.67496879  0.16155893  1
  Ca2+  Ca46  1  0.91986167  0.67429605  0.49087872  1
  Ca2+  Ca47  1  0.92030201  0.67737715  0.82855376  1
  Al0+  Al48  1  -0.00061292  0.00109873  0.00720974  1
  Al0+  Al49  1  -0.00273193  0.00174347  0.33319084  1
  Al0+  Al50  1  -0.00174912  -0.00063100  0.66763229  1
  Al0+  Al51  1  0.00123248  0.50036558  0.00284638  1
  Al0+  Al52  1  0.00093374  0.50040000  0.33361006  1
  Al0+  Al53  1  0.00227949  0.50069982  0.67228369  1
  Al0+  Al54  1  0.50234939  -0.00071932  -0.00706829  1
  Al0+  Al55  1  0.49995207  0.00102156  0.33078704  1
  Al0+  Al56  1  0.49847865  -0.00075048  0.66374146  1
  Al0+  Al57  1  0.50121193  0.49958833  -0.00065800  1
  Al0+  Al58  1  0.49919117  0.49919498  0.33729460  1
  Al0+  Al59  1  0.50198726  0.50104695  0.66146964  1
  Al0+  Al60  1  0.24940495  0.24917473  0.00203117  1
  Al0+  Al61  1  0.24966954  0.25056270  0.33169845  1
  Al0+  Al62  1  0.25180306  0.24886032  0.65859628  1
  Al0+  Al63  1  0.25027202  0.74707182  -0.00285697  1
  Al0+  Al64  1  0.24838607  0.74869743  0.34178220  1
  Al0+  Al65  1  0.25067685  0.75007855  0.67005960  1
  Al0+  Al66  1  0.75112548  0.25064291  -0.00008810  1
  Al0+  Al67  1  0.74861444  0.24888410  0.33018603  1
  Al0+  Al68  1  0.74905941  0.25176008  0.66608517  1
  Al0+  Al69  1  0.75029811  0.75202401  0.00012443  1
  Al0+  Al70  1  0.74841443  0.75150501  0.33356896  1
  Al0+  Al71  1  0.74903038  0.74987684  0.66815274  1
  Al0+  Al72  1  0.17978498  0.92851335  0.01346090  1
  Al0+  Al73  1  0.57344574  0.17828744  0.98157415  1
  Al0+  Al74  1  0.82236085  0.57163345  0.68184328  1
  Al0+  Al75  1  0.42853630  0.32110997  0.98538976  1
  Al0+  Al76  1  0.07040896  0.17769012  0.65204095  1
  Al0+  Al77  1  0.07196350  0.67782084  0.98251511  1
  Al0+  Al78  1  0.42848474  0.81973110  0.98687593  1
  Al0+  Al79  1  0.92809403  0.32388355  0.65245276  1
  Al0+  Al80  1  0.17859497  0.93005104  0.68148055  1
  Al0+  Al81  1  0.07206073  0.67840507  0.31852002  1
  Al0+  Al82  1  0.17745869  0.42588187  0.01655310  1
  Al0+  Al83  1  0.32047713  0.56970996  0.34885286  1
  Al0+  Al84  1  0.67831060  0.92898553  0.01561306  1
  Al0+  Al85  1  0.17823784  0.93046034  0.34776880  1
  Al0+  Al86  1  0.92657207  0.82339572  0.31686036  1
  Al0+  Al87  1  0.18204072  0.42891987  0.67936417  1
  Al0+  Al88  1  0.82101020  0.07265872  0.01756335  1
  Al0+  Al89  1  0.82059527  0.57148394  0.34627611  1
  Al0+  Al90  1  0.57051535  0.17915717  0.31801153  1
  Al0+  Al91  1  0.42919174  0.32181723  0.65059505  1
  Al0+  Al92  1  0.92965090  0.82213422  0.98367809  1
  Al0+  Al93  1  0.92934634  0.81953401  0.65358794  1
  Al0+  Al94  1  0.32157628  0.56905123  0.01381196  1
  Al0+  Al95  1  0.81837728  0.07097193  0.67904790  1
  Si0+  Si96  1  0.42920862  0.81901908  0.32115937  1
  Si0+  Si97  1  0.57433014  0.67685529  0.98330053  1
  Si0+  Si98  1  0.81925422  0.07264013  0.35021549  1
  Si0+  Si99  1  0.07031299  0.17922086  0.98799652  1
  Si0+  Si100  1  0.32537109  0.57176942  0.68443844  1
  Si0+  Si101  1  0.57166706  0.17732232  0.64921557  1
  Si0+  Si102  1  0.32267714  0.07281291  0.34867052  1
  Si0+  Si103  1  0.67985486  0.43014202  0.01421150  1
  Si0+  Si104  1  0.67496805  0.92722801  0.68267308  1
  Si0+  Si105  1  0.57077242  0.67820445  0.31982932  1
  Si0+  Si106  1  0.67618934  0.92985050  0.34869832  1
  Si0+  Si107  1  0.57092498  0.67989087  0.65028424  1
  Si0+  Si108  1  0.42737959  0.82107042  0.64990278  1
  Si0+  Si109  1  0.92917943  0.32206436  0.98749437  1
  Si0+  Si110  1  0.82148803  0.57220666  0.01560549  1
  Si0+  Si111  1  0.32304079  0.07163249  0.01438739  1
  Si0+  Si112  1  0.67932412  0.42677973  0.34995864  1
  Si0+  Si113  1  0.32414241  0.07140262  0.68189867  1
  Si0+  Si114  1  0.17740939  0.42452879  0.35244028  1
  Si0+  Si115  1  0.42747829  0.32344284  0.31489463  1
  Si0+  Si116  1  0.67708126  0.42940338  0.68307198  1
  Si0+  Si117  1  0.07086408  0.17860612  0.31712169  1
  Si0+  Si118  1  0.92955531  0.32089421  0.31894298  1
  Si0+  Si119  1  0.07331893  0.67793212  0.65059442  1
  O2-  O120  1  0.25820722  0.00009164  0.06035663  1
  O2-  O121  1  0.25172750  0.00741247  0.39425632  1
  O2-  O122  1  0.25387878  0.00520210  0.72672121  1
  O2-  O123  1  0.24930971  0.49845347  0.06543185  1
  O2-  O124  1  0.24684268  0.49370643  0.39459624  1
  O2-  O125  1  0.25744347  0.50232912  0.72674511  1
  O2-  O126  1  0.74898087  0.00067195  0.06814856  1
  O2-  O127  1  0.75043334  -0.00210720  0.39044749  1
  O2-  O128  1  0.74257361  -0.00282298  0.72471658  1
  O2-  O129  1  0.74988794  0.50142036  0.05768805  1
  O2-  O130  1  0.74677654  0.49606735  0.39469909  1
  O2-  O131  1  0.75061837  0.49280702  0.72783990  1
  O2-  O132  1  0.00150038  0.25156429  0.27541713  1
  O2-  O133  1  -0.00061012  0.25143146  0.60153620  1
  O2-  O134  1  0.00164115  0.25261717  0.94667971  1
  O2-  O135  1  0.00024814  0.75155810  0.26966204  1
  O2-  O136  1  0.00399135  0.74550116  0.60559806  1
  O2-  O137  1  0.00134426  0.75089950  0.93248259  1
  O2-  O138  1  0.49454327  0.25276723  0.27211479  1
  O2-  O139  1  0.50340562  0.24599419  0.60412121  1
  O2-  O140  1  0.49850109  0.24803155  0.93364628  1
  O2-  O141  1  0.49815040  0.74671217  0.27753598  1
  O2-  O142  1  0.49885497  0.75022948  0.60789546  1
  O2-  O143  1  0.50509099  0.74589380  0.94051315  1
  O2-  O144  1  0.06904879  0.17979317  0.09371565  1
  O2-  O145  1  0.06943802  0.17709501  0.42184757  1
  O2-  O146  1  0.06925096  0.17760399  0.76581322  1
  O2-  O147  1  0.07023504  0.67831866  0.09629705  1
  O2-  O148  1  0.07044645  0.67827870  0.43251044  1
  O2-  O149  1  0.07271417  0.67920707  0.75578061  1
  O2-  O150  1  0.57232453  0.18186157  0.09565805  1
  O2-  O151  1  0.57034575  0.18101954  0.43145050  1
  O2-  O152  1  0.57009007  0.17685755  0.75401794  1
  O2-  O153  1  0.57534504  0.67557519  0.08927237  1
  O2-  O154  1  0.57160712  0.68090481  0.42517268  1
  O2-  O155  1  0.57167422  0.67838829  0.75494995  1
  O2-  O156  1  0.17802800  0.42021121  0.24742885  1
  O2-  O157  1  0.18298442  0.43206354  0.56587595  1
  O2-  O158  1  0.17744144  0.42378932  0.90300528  1
  O2-  O159  1  0.18102189  0.92980912  0.23477369  1
  O2-  O160  1  0.17987545  0.92994115  0.56799746  1
  O2-  O161  1  0.17919247  0.93176456  0.90048225  1
  O2-  O162  1  0.68064019  0.42765285  0.24406301  1
  O2-  O163  1  0.67471354  0.43356474  0.57730368  1
  O2-  O164  1  0.68030533  0.43186591  0.90923941  1
  O2-  O165  1  0.67157309  0.92986429  0.24453899  1
  O2-  O166  1  0.67309479  0.92722396  0.57632777  1
  O2-  O167  1  0.67970784  0.92976808  0.90195662  1
  O2-  O168  1  0.43248097  0.32099511  0.09928046  1
  O2-  O169  1  0.42917387  0.32312544  0.42070877  1
  O2-  O170  1  0.43055363  0.32209806  0.76315227  1
  O2-  O171  1  0.42877483  0.81680213  0.10067571  1
  O2-  O172  1  0.43277797  0.81897793  0.42671307  1
  O2-  O173  1  0.42754166  0.82177428  0.75445315  1
  O2-  O174  1  0.92799825  0.32165613  0.09330874  1
  O2-  O175  1  0.92857973  0.32039863  0.42359613  1
  O2-  O176  1  0.92996649  0.32263440  0.76612687  1
  O2-  O177  1  0.92983285  0.81890496  0.09725592  1
  O2-  O178  1  0.92667385  0.82312506  0.43098362  1
  O2-  O179  1  0.92934588  0.82016480  0.76604336  1
  O2-  O180  1  0.32283876  0.07187146  0.24335628  1
  O2-  O181  1  0.32838729  0.06652409  0.57605867  1
  O2-  O182  1  0.31865955  0.07297208  0.90880331  1
  O2-  O183  1  0.32434512  0.56935053  0.23662872  1
  O2-  O184  1  0.32540487  0.57197066  0.57841573  1
  O2-  O185  1  0.32271838  0.56653966  0.90031598  1
  O2-  O186  1  0.81853441  0.07679325  0.24578855  1
  O2-  O187  1  0.81630431  0.06928986  0.56510488  1
  O2-  O188  1  0.82184364  0.07448920  0.90409553  1
  O2-  O189  1  0.81691927  0.56831543  0.23303671  1
  O2-  O190  1  0.81939202  0.57308653  0.56850189  1
  O2-  O191  1  0.82050150  0.57047366  0.91047972  1
  O2-  O192  1  0.03994229  0.08868412  0.26839413  1
  O2-  O193  1  0.03565862  0.08190151  0.59710863  1
  O2-  O194  1  0.03997249  0.08845302  0.94128926  1
  O2-  O195  1  0.04522157  0.57899585  0.26629454  1
  O2-  O196  1  0.04870104  0.58378314  0.60615926  1
  O2-  O197  1  0.04064656  0.57867062  0.93224984  1
  O2-  O198  1  0.54036025  0.08231020  0.26387996  1
  O2-  O199  1  0.54599315  0.08339412  0.60189029  1
  O2-  O200  1  0.55002208  0.07957100  0.92863424  1
  O2-  O201  1  0.54684342  0.58424142  0.27479779  1
  O2-  O202  1  0.54485256  0.58928013  0.59928650  1
  O2-  O203  1  0.54898536  0.58405353  0.93572972  1
  O2-  O204  1  0.16387245  0.20374743  0.27037001  1
  O2-  O205  1  0.16886831  0.20163660  0.59638975  1
  O2-  O206  1  0.16266168  0.20293670  0.94058368  1
  O2-  O207  1  0.17190113  0.70796067  0.26896318  1
  O2-  O208  1  0.16827970  0.70308512  0.60604113  1
  O2-  O209  1  0.17073350  0.70180205  0.93006072  1
  O2-  O210  1  0.66637353  0.21099759  0.26298973  1
  O2-  O211  1  0.66465096  0.20386417  0.60222928  1
  O2-  O212  1  0.67095025  0.21216553  0.93043387  1
  O2-  O213  1  0.66087818  0.70742241  0.27062423  1
  O2-  O214  1  0.66136911  0.71014757  0.60100789  1
  O2-  O215  1  0.66668828  0.70359291  0.93562330  1
  O2-  O216  1  0.07896444  0.45418096  0.07068157  1
  O2-  O217  1  0.08357049  0.45066867  0.39732424  1
  O2-  O218  1  0.08626574  0.45742213  0.73538482  1
  O2-  O219  1  0.08658038  0.96330233  0.07053840  1
  O2-  O220  1  0.08112887  0.96377963  0.40001161  1
  O2-  O221  1  0.08315004  0.96243720  0.73501772  1
  O2-  O222  1  0.58905172  0.45728663  0.06372275  1
  O2-  O223  1  0.58529629  0.45074327  0.39579123  1
  O2-  O224  1  0.58613676  0.46298298  0.73034232  1
  O2-  O225  1  0.57787683  0.95550168  0.06666085  1
  O2-  O226  1  0.58562350  0.96049651  0.39881832  1
  O2-  O227  1  0.58011166  0.95150358  0.72702323  1
  O2-  O228  1  0.20526296  0.32754414  0.07100396  1
  O2-  O229  1  0.20320984  0.33065591  0.39922200  1
  O2-  O230  1  0.21131285  0.32951553  0.72823322  1
  O2-  O231  1  0.21168177  0.83155947  0.06529415  1
  O2-  O232  1  0.21096898  0.83626360  0.40476506  1
  O2-  O233  1  0.21186517  0.83383531  0.73464479  1
  O2-  O234  1  0.70949380  0.33962669  0.06280497  1
  O2-  O235  1  0.70571302  0.33325547  0.39568235  1
  O2-  O236  1  0.69480378  0.33376076  0.72674802  1
  O2-  O237  1  0.70381351  0.82921979  0.06887325  1
  O2-  O238  1  0.69966144  0.83681791  0.39644282  1
  O2-  O239  1  0.69844281  0.83360770  0.72818781  1
  O2-  O240  1  0.45623421  0.41673473  0.27017012  1
  O2-  O241  1  0.46255614  0.41785582  0.59549001  1
  O2-  O242  1  0.46107314  0.41822116  0.93197780  1
  O2-  O243  1  0.45725158  0.91041729  0.27406922  1
  O2-  O244  1  0.45507890  0.91224701  0.60021898  1
  O2-  O245  1  0.45759556  0.91506941  0.92953159  1
  O2-  O246  1  0.95558323  0.41268037  0.27061959  1
  O2-  O247  1  0.95991727  0.42227422  0.60039055  1
  O2-  O248  1  0.95435466  0.41455330  0.94125896  1
  O2-  O249  1  0.95172318  0.92369165  0.26675892  1
  O2-  O250  1  0.96019979  0.91563134  0.59926491  1
  O2-  O251  1  0.95856587  0.92275070  0.93615430  1
  O2-  O252  1  0.33256456  0.30057973  0.27088999  1
  O2-  O253  1  0.33527823  0.29083825  0.59187342  1
  O2-  O254  1  0.32925592  0.29234893  0.93449534  1
  O2-  O255  1  0.33662775  0.79103359  0.27724422  1
  O2-  O256  1  0.33613414  0.79164839  0.60171651  1
  O2-  O257  1  0.33474221  0.78687072  0.92941601  1
  O2-  O258  1  0.83813163  0.29189889  0.27086787  1
  O2-  O259  1  0.82814604  0.29924732  0.59969237  1
  O2-  O260  1  0.83833655  0.29529323  0.93878383  1
  O2-  O261  1  0.82701332  0.79482495  0.26619782  1
  O2-  O262  1  0.83057832  0.79110231  0.60124214  1
  O2-  O263  1  0.83012709  0.79420569  0.93278355  1
  O2-  O264  1  0.41892563  0.04958363  0.05601419  1
  O2-  O265  1  0.41565325  0.04496315  0.39576210  1
  O2-  O266  1  0.41689717  0.04403618  0.72929509  1
  O2-  O267  1  0.42157497  0.54286561  0.06685220  1
  O2-  O268  1  0.41825599  0.54084531  0.40441765  1
  O2-  O269  1  0.42066989  0.54827386  0.72702769  1
  O2-  O270  1  0.91810648  0.04496253  0.07366555  1
  O2-  O271  1  0.91187361  0.04815900  0.39716949  1
  O2-  O272  1  0.91390906  0.03968392  0.73318152  1
  O2-  O273  1  0.91155767  0.54200087  0.06424691  1
  O2-  O274  1  0.91702515  0.53992996  0.39977867  1
  O2-  O275  1  0.91805256  0.54311779  0.73748921  1
  O2-  O276  1  0.29540083  0.16302564  0.06397109  1
  O2-  O277  1  0.30009945  0.16822081  0.39322252  1
  O2-  O278  1  0.30197698  0.16691256  0.72351420  1
  O2-  O279  1  0.29385055  0.66762932  0.06661900  1
  O2-  O280  1  0.29135950  0.66499211  0.40686849  1
  O2-  O281  1  0.30099234  0.66603890  0.72903460  1
  O2-  O282  1  0.79235662  0.17205599  0.07046230  1
  O2-  O283  1  0.78727916  0.16339607  0.39810905  1
  O2-  O284  1  0.79104072  0.16935790  0.73160124  1
  O2-  O285  1  0.79232751  0.66314144  0.06271732  1
  O2-  O286  1  0.78639368  0.66744409  0.40031520  1
  O2-  O287  1  0.78416246  0.66567649  0.73633859  1
