# generated using pymatgen
data_Ca2Al2SiO7
_symmetry_space_group_name_H-M   'P 1'
_cell_length_a   15.45972752
_cell_length_b   15.45995585
_cell_length_c   15.28508659
_cell_angle_alpha   90.00696180
_cell_angle_beta   89.99334430
_cell_angle_gamma   89.97991483
_symmetry_Int_Tables_number   1
_chemical_formula_structural   Ca2Al2SiO7
_chemical_formula_sum   'Ca48 Al48 Si24 O168'
_cell_volume   3653.23790356
_cell_formula_units_Z   24
loop_
 _symmetry_equiv_pos_site_id
 _symmetry_equiv_pos_as_xyz
  1  'x, y, z'
loop_
 _atom_type_symbol
 _atom_type_oxidation_number
  Ca2+  2.0
  Al0+  0.0
  Si0+  0.0
  O2-  -2.0
loop_
 _atom_site_type_symbol
 _atom_site_label
 _atom_site_symmetry_multiplicity
 _atom_site_fract_x
 _atom_site_fract_y
 _atom_site_fract_z
 _atom_site_occupancy
  Ca2+  Ca0  1  0.17219229  0.07329614  0.17201072  1
  Ca2+  Ca1  1  0.17311257  0.08019286  0.50977828  1
  Ca2+  Ca2  1  0.15680647  0.06888357  0.83169417  1
  Ca2+  Ca3  1  0.16514774  0.57765228  0.17124537  1
  Ca2+  Ca4  1  0.16543791  0.57213249  0.50876634  1
  Ca2+  Ca5  1  0.15804786  0.58161146  0.83345010  1
  Ca2+  Ca6  1  0.67260345  0.08456064  0.16697571  1
  Ca2+  Ca7  1  0.67033308  0.07796303  0.51381333  1
  Ca2+  Ca8  1  0.67385850  0.08351979  0.83152631  1
  Ca2+  Ca9  1  0.67819564  0.59016834  0.17300891  1
  Ca2+  Ca10  1  0.66732954  0.59210135  0.50413405  1
  Ca2+  Ca11  1  0.67239804  0.58574470  0.83606634  1
  Ca2+  Ca12  1  0.07978213  0.33323592  0.16185250  1
  Ca2+  Ca13  1  0.08568478  0.33299579  0.50252284  1
  Ca2+  Ca14  1  0.07118215  0.32767281  0.82191694  1
  Ca2+  Ca15  1  0.08556302  0.82538186  0.15632947  1
  Ca2+  Ca16  1  0.08029353  0.83538523  0.50513197  1
  Ca2+  Ca17  1  0.08431222  0.82561291  0.82338053  1
  Ca2+  Ca18  1  0.57612606  0.33576242  0.16649499  1
  Ca2+  Ca19  1  0.57190000  0.32798662  0.50051315  1
  Ca2+  Ca20  1  0.57903946  0.32657382  0.82127285  1
  Ca2+  Ca21  1  0.57208426  0.83288622  0.16693978  1
  Ca2+  Ca22  1  0.57983441  0.83040457  0.49786119  1
  Ca2+  Ca23  1  0.57474436  0.83328676  0.82291714  1
  Ca2+  Ca24  1  0.32563862  0.41634599  0.17925422  1
  Ca2+  Ca25  1  0.32704053  0.41049767  0.50725848  1
  Ca2+  Ca26  1  0.32816491  0.41397871  0.83102511  1
  Ca2+  Ca27  1  0.33398191  0.91608397  0.16978060  1
  Ca2+  Ca28  1  0.33563748  0.91743439  0.50682816  1
  Ca2+  Ca29  1  0.32506021  0.90613827  0.83540954  1
  Ca2+  Ca30  1  0.83793218  0.42794084  0.16896116  1
  Ca2+  Ca31  1  0.83477148  0.42296252  0.50544919  1
  Ca2+  Ca32  1  0.83750234  0.41802876  0.83894695  1
  Ca2+  Ca33  1  0.83421167  0.92347476  0.16927222  1
  Ca2+  Ca34  1  0.82665248  0.91941289  0.51607373  1
  Ca2+  Ca35  1  0.83553540  0.92526520  0.83093417  1
  Ca2+  Ca36  1  0.41134585  0.16839046  0.17027337  1
  Ca2+  Ca37  1  0.41462462  0.17079095  0.49781361  1
  Ca2+  Ca38  1  0.42405031  0.17206364  0.82295119  1
  Ca2+  Ca39  1  0.41754070  0.67701126  0.16193703  1
  Ca2+  Ca40  1  0.42688333  0.67800773  0.49708960  1
  Ca2+  Ca41  1  0.42177757  0.67721259  0.82381002  1
  Ca2+  Ca42  1  0.91631618  0.17405681  0.15658344  1
  Ca2+  Ca43  1  0.92167693  0.16564224  0.50463270  1
  Ca2+  Ca44  1  0.91399870  0.17236814  0.82320921  1
  Ca2+  Ca45  1  0.92012478  0.66185004  0.16037316  1
  Ca2+  Ca46  1  0.91831261  0.66926140  0.50125645  1
  Ca2+  Ca47  1  0.92606243  0.66905551  0.82660017  1
  Al0+  Al48  1  0.00053452  -0.00103725  0.01179540  1
  Al0+  Al49  1  0.00089880  0.00055607  0.33142780  1
  Al0+  Al50  1  0.00103580  0.00087443  0.66625731  1
  Al0+  Al51  1  -0.00073228  0.49860420  -0.00293740  1
  Al0+  Al52  1  -0.00146316  0.50002250  0.34174219  1
  Al0+  Al53  1  0.00073421  0.49918463  0.66428545  1
  Al0+  Al54  1  0.49896978  0.00106318  -0.00267938  1
  Al0+  Al55  1  0.50105060  0.00075054  0.33220646  1
  Al0+  Al56  1  0.50094317  0.00094935  0.66554775  1
  Al0+  Al57  1  0.49909214  0.50049210  0.00065008  1
  Al0+  Al58  1  0.50181248  0.49917290  0.32453498  1
  Al0+  Al59  1  0.50018103  0.50121446  0.66129192  1
  Al0+  Al60  1  0.24937545  0.24817949  -0.00051203  1
  Al0+  Al61  1  0.24918444  0.24672702  0.33565648  1
  Al0+  Al62  1  0.24749880  0.25047800  0.66899721  1
  Al0+  Al63  1  0.24977780  0.74788778  -0.00267898  1
  Al0+  Al64  1  0.24807466  0.74836884  0.33053081  1
  Al0+  Al65  1  0.25160301  0.74782756  0.66122059  1
  Al0+  Al66  1  0.74794778  0.25070776  0.00266655  1
  Al0+  Al67  1  0.75114221  0.25257043  0.33265393  1
  Al0+  Al68  1  0.74919861  0.25289632  0.66102863  1
  Al0+  Al69  1  0.74966432  0.75102261  0.00607191  1
  Al0+  Al70  1  0.75204845  0.75203224  0.33251967  1
  Al0+  Al71  1  0.75090220  0.75093929  0.66808850  1
  Al0+  Al72  1  0.57325663  0.67925760  0.65384039  1
  Al0+  Al73  1  0.06908883  0.67906793  0.98728680  1
  Al0+  Al74  1  0.42994112  0.82061405  0.98480787  1
  Al0+  Al75  1  0.67739070  0.92726843  0.68270455  1
  Al0+  Al76  1  0.82071524  0.56984496  0.01204679  1
  Al0+  Al77  1  0.57389483  0.67943303  0.31575210  1
  Al0+  Al78  1  0.42782199  0.82194752  0.31689191  1
  Al0+  Al79  1  0.07199466  0.67773338  0.64937845  1
  Al0+  Al80  1  0.18074803  0.92691483  0.01383184  1
  Al0+  Al81  1  0.17870032  0.42858007  0.68364290  1
  Al0+  Al82  1  0.81982192  0.07177897  0.01463459  1
  Al0+  Al83  1  0.92937298  0.31893815  0.98807122  1
  Al0+  Al84  1  0.18160498  0.92772425  0.67884449  1
  Al0+  Al85  1  0.42829537  0.82237057  0.65165594  1
  Al0+  Al86  1  0.57153799  0.17868834  0.65202075  1
  Al0+  Al87  1  0.18038850  0.42953941  0.34718189  1
  Al0+  Al88  1  0.82108305  0.07317553  0.68015646  1
  Al0+  Al89  1  0.42746035  0.31856152  0.31913482  1
  Al0+  Al90  1  0.32057489  0.06756163  0.34741060  1
  Al0+  Al91  1  0.81881438  0.57169078  0.34965671  1
  Al0+  Al92  1  0.42732514  0.32115397  0.65326722  1
  Al0+  Al93  1  0.93022744  0.82159958  0.65418607  1
  Al0+  Al94  1  0.92750669  0.32228459  0.64954669  1
  Al0+  Al95  1  0.07020930  0.17766280  0.65245657  1
  Si0+  Si96  1  0.17648533  0.92533552  0.35050312  1
  Si0+  Si97  1  0.32433565  0.57286232  0.34857940  1
  Si0+  Si98  1  0.32346596  0.07309444  0.01674177  1
  Si0+  Si99  1  0.82289272  0.07406113  0.34827559  1
  Si0+  Si100  1  0.32256527  0.07290533  0.68472239  1
  Si0+  Si101  1  0.57020364  0.18058812  0.98595196  1
  Si0+  Si102  1  0.32205310  0.56958873  0.01496983  1
  Si0+  Si103  1  0.67525833  0.92909995  0.01876196  1
  Si0+  Si104  1  0.82151759  0.57105934  0.68260529  1
  Si0+  Si105  1  0.57419261  0.17875173  0.31487239  1
  Si0+  Si106  1  0.92986482  0.32168615  0.31725308  1
  Si0+  Si107  1  0.07047989  0.17798542  0.31608532  1
  Si0+  Si108  1  0.93034565  0.82276770  0.31675063  1
  Si0+  Si109  1  0.42671321  0.32240948  0.98580995  1
  Si0+  Si110  1  0.67774833  0.43082197  0.68009902  1
  Si0+  Si111  1  0.07229200  0.17556945  0.98536432  1
  Si0+  Si112  1  0.18000307  0.42832412  0.01415931  1
  Si0+  Si113  1  0.67515312  0.42790758  0.01742397  1
  Si0+  Si114  1  0.32308641  0.57041716  0.68312441  1
  Si0+  Si115  1  0.68193506  0.93229400  0.34702785  1
  Si0+  Si116  1  0.57367923  0.67775600  0.98399357  1
  Si0+  Si117  1  0.92651631  0.82464098  0.98581048  1
  Si0+  Si118  1  0.67652056  0.42701051  0.35103106  1
  Si0+  Si119  1  0.06807371  0.67705555  0.31835208  1
  O2-  O120  1  0.25519150  0.00287079  0.05934684  1
  O2-  O121  1  0.24988047  -0.01093449  0.39314100  1
  O2-  O122  1  0.25685942  0.00101808  0.72842674  1
  O2-  O123  1  0.25308704  0.49632606  0.05783865  1
  O2-  O124  1  0.25845218  0.50156131  0.39277685  1
  O2-  O125  1  0.25329800  0.50370799  0.73016100  1
  O2-  O126  1  0.74723665  -0.00475484  0.06312532  1
  O2-  O127  1  0.75136023  0.00449364  0.38944436  1
  O2-  O128  1  0.74955291  0.00071037  0.73071607  1
  O2-  O129  1  0.74350291  0.49778949  0.06040189  1
  O2-  O130  1  0.74034930  0.50023481  0.39505668  1
  O2-  O131  1  0.74953160  0.50029952  0.72374535  1
  O2-  O132  1  -0.00107397  0.24902961  0.27408250  1
  O2-  O133  1  -0.00029809  0.25014743  0.60018996  1
  O2-  O134  1  0.00055569  0.24107241  0.94226738  1
  O2-  O135  1  0.00164172  0.75183551  0.27472054  1
  O2-  O136  1  0.00091577  0.75076997  0.59992863  1
  O2-  O137  1  -0.00521872  0.75523824  0.94306584  1
  O2-  O138  1  0.50434203  0.24651819  0.27008329  1
  O2-  O139  1  0.49519729  0.24602695  0.60261556  1
  O2-  O140  1  0.49865454  0.25209287  0.94528819  1
  O2-  O141  1  0.49691092  0.74674849  0.26617426  1
  O2-  O142  1  0.50465030  0.75403796  0.60403595  1
  O2-  O143  1  0.50695733  0.74753572  0.93998148  1
  O2-  O144  1  0.07411655  0.17961384  0.09164206  1
  O2-  O145  1  0.06906952  0.17532799  0.42036669  1
  O2-  O146  1  0.06836079  0.17827141  0.76650370  1
  O2-  O147  1  0.06835247  0.67746670  0.10127058  1
  O2-  O148  1  0.06648076  0.67643518  0.42258306  1
  O2-  O149  1  0.06867385  0.67784637  0.76333373  1
  O2-  O150  1  0.57038544  0.18121427  0.09139623  1
  O2-  O151  1  0.57645544  0.17954329  0.41951179  1
  O2-  O152  1  0.57200896  0.18314363  0.76647648  1
  O2-  O153  1  0.57175938  0.67697035  0.08945040  1
  O2-  O154  1  0.57491735  0.68429500  0.42867328  1
  O2-  O155  1  0.57078488  0.67673281  0.76789662  1
  O2-  O156  1  0.17869928  0.43176126  0.23280595  1
  O2-  O157  1  0.18032677  0.42968955  0.57045216  1
  O2-  O158  1  0.18091992  0.42810349  0.90976747  1
  O2-  O159  1  0.17339859  0.92758148  0.24452646  1
  O2-  O160  1  0.18238649  0.93037709  0.56566057  1
  O2-  O161  1  0.17985534  0.92692100  0.90123485  1
  O2-  O162  1  0.68099932  0.42284276  0.24514308  1
  O2-  O163  1  0.67726189  0.43177369  0.57517228  1
  O2-  O164  1  0.67282994  0.42688977  0.91198198  1
  O2-  O165  1  0.68407582  0.93418293  0.24136354  1
  O2-  O166  1  0.67981110  0.92777830  0.56839226  1
  O2-  O167  1  0.67331315  0.93010924  0.91406822  1
  O2-  O168  1  0.42531014  0.32195720  0.09097363  1
  O2-  O169  1  0.42690819  0.31561301  0.43113933  1
  O2-  O170  1  0.43147860  0.32124395  0.76789814  1
  O2-  O171  1  0.43054532  0.81949583  0.09803372  1
  O2-  O172  1  0.43052656  0.82327169  0.42946187  1
  O2-  O173  1  0.42724292  0.81796613  0.76562454  1
  O2-  O174  1  0.93354631  0.32038247  0.10197953  1
  O2-  O175  1  0.92892936  0.32090601  0.42148310  1
  O2-  O176  1  0.92769310  0.32238251  0.76361208  1
  O2-  O177  1  0.92835486  0.82385922  0.09226562  1
  O2-  O178  1  0.93001042  0.82534856  0.42112208  1
  O2-  O179  1  0.93079863  0.81974697  0.76810139  1
  O2-  O180  1  0.31647219  0.06852470  0.23366870  1
  O2-  O181  1  0.32033812  0.07362243  0.57892161  1
  O2-  O182  1  0.32537702  0.07784910  0.91208744  1
  O2-  O183  1  0.31926247  0.57244628  0.24210880  1
  O2-  O184  1  0.32335904  0.56807885  0.57762541  1
  O2-  O185  1  0.32515765  0.56744651  0.91045689  1
  O2-  O186  1  0.82225628  0.07336193  0.24266287  1
  O2-  O187  1  0.81945002  0.07088618  0.56592246  1
  O2-  O188  1  0.81819504  0.07416098  0.90262023  1
  O2-  O189  1  0.82246353  0.56824269  0.23607931  1
  O2-  O190  1  0.82067945  0.57068030  0.57739324  1
  O2-  O191  1  0.82009005  0.56789262  0.89931160  1
  O2-  O192  1  0.04218434  0.08648002  0.26648104  1
  O2-  O193  1  0.04265809  0.08116654  0.59599579  1
  O2-  O194  1  0.04857443  0.07956451  0.94518139  1
  O2-  O195  1  0.03538924  0.58602176  0.27132059  1
  O2-  O196  1  0.04045505  0.58091347  0.59664436  1
  O2-  O197  1  0.03725855  0.58361462  0.93260167  1
  O2-  O198  1  0.54884830  0.08567485  0.26759953  1
  O2-  O199  1  0.54806906  0.07997226  0.59936930  1
  O2-  O200  1  0.54312177  0.08942912  0.93812922  1
  O2-  O201  1  0.55494782  0.57828156  0.26365982  1
  O2-  O202  1  0.54351998  0.58310916  0.59743419  1
  O2-  O203  1  0.54774196  0.58332346  0.93926591  1
  O2-  O204  1  0.16147502  0.20656393  0.26808055  1
  O2-  O205  1  0.16839147  0.20684898  0.60035384  1
  O2-  O206  1  0.16520849  0.20189228  0.93894477  1
  O2-  O207  1  0.16148847  0.69920686  0.27057109  1
  O2-  O208  1  0.17048187  0.70185502  0.59661523  1
  O2-  O209  1  0.16587174  0.70622265  0.93330779  1
  O2-  O210  1  0.66759510  0.20716416  0.26741726  1
  O2-  O211  1  0.66624685  0.21147086  0.59577828  1
  O2-  O212  1  0.66109206  0.20957067  0.93854536  1
  O2-  O213  1  0.67129750  0.71420742  0.26239790  1
  O2-  O214  1  0.67224921  0.70408236  0.60192187  1
  O2-  O215  1  0.66903789  0.70126159  0.94107980  1
  O2-  O216  1  0.08903806  0.45886357  0.06171595  1
  O2-  O217  1  0.08564175  0.46199718  0.40232719  1
  O2-  O218  1  0.08149702  0.46096273  0.73638573  1
  O2-  O219  1  0.08574457  0.95561064  0.07355747  1
  O2-  O220  1  0.08408631  0.95725672  0.39571589  1
  O2-  O221  1  0.08540365  0.95975711  0.73321895  1
  O2-  O222  1  0.58111097  0.45274659  0.06468663  1
  O2-  O223  1  0.57979256  0.44639221  0.39229017  1
  O2-  O224  1  0.58635418  0.45874270  0.72909532  1
  O2-  O225  1  0.58339504  0.96089540  0.06614475  1
  O2-  O226  1  0.58965715  0.95831609  0.39301173  1
  O2-  O227  1  0.57903495  0.95652418  0.73560182  1
  O2-  O228  1  0.20568418  0.33524138  0.06174376  1
  O2-  O229  1  0.20803027  0.33164402  0.39855686  1
  O2-  O230  1  0.20829653  0.33240064  0.73967638  1
  O2-  O231  1  0.21235148  0.83004166  0.06807438  1
  O2-  O232  1  0.19462432  0.82881634  0.39262545  1
  O2-  O233  1  0.21053449  0.82924915  0.73097721  1
  O2-  O234  1  0.70034334  0.33527287  0.06565576  1
  O2-  O235  1  0.70748873  0.33514419  0.39810795  1
  O2-  O236  1  0.70506823  0.33909967  0.72798320  1
  O2-  O237  1  0.69809454  0.83513796  0.06613209  1
  O2-  O238  1  0.71217957  0.84145488  0.39334836  1
  O2-  O239  1  0.70662053  0.82970114  0.73741428  1
  O2-  O240  1  0.45507092  0.41516226  0.26215310  1
  O2-  O241  1  0.45834653  0.41717651  0.59857223  1
  O2-  O242  1  0.45298581  0.41481544  0.93940177  1
  O2-  O243  1  0.46100477  0.91960982  0.26309686  1
  O2-  O244  1  0.45189499  0.92211170  0.60147052  1
  O2-  O245  1  0.45646129  0.91904068  0.93300763  1
  O2-  O246  1  0.96120599  0.41363677  0.27174113  1
  O2-  O247  1  0.95826007  0.41917827  0.59622067  1
  O2-  O248  1  0.96247661  0.41306993  0.93249155  1
  O2-  O249  1  0.95780724  0.91486461  0.26770524  1
  O2-  O250  1  0.95776223  0.91891959  0.59937649  1
  O2-  O251  1  0.95273541  0.91932527  0.94377800  1
  O2-  O252  1  0.33159499  0.28400532  0.26398562  1
  O2-  O253  1  0.32795487  0.29570908  0.60349927  1
  O2-  O254  1  0.33516363  0.29398649  0.93831234  1
  O2-  O255  1  0.32718322  0.79560188  0.26501583  1
  O2-  O256  1  0.33336461  0.79016155  0.59541525  1
  O2-  O257  1  0.33485578  0.78532508  0.93214681  1
  O2-  O258  1  0.83749097  0.29582829  0.26888483  1
  O2-  O259  1  0.82963030  0.29789794  0.59494122  1
  O2-  O260  1  0.82987930  0.29362516  0.93786988  1
  O2-  O261  1  0.83934182  0.79536955  0.26797947  1
  O2-  O262  1  0.83249398  0.79262761  0.60086656  1
  O2-  O263  1  0.83114801  0.80151249  0.94349541  1
  O2-  O264  1  0.41695984  0.04811976  0.06414613  1
  O2-  O265  1  0.42016697  0.04416848  0.39864436  1
  O2-  O266  1  0.41784612  0.05201427  0.72882909  1
  O2-  O267  1  0.41411949  0.54441143  0.06451250  1
  O2-  O268  1  0.42065504  0.55047682  0.38869586  1
  O2-  O269  1  0.41629926  0.54292911  0.73027803  1
  O2-  O270  1  0.91570517  0.04414070  0.07331843  1
  O2-  O271  1  0.91547852  0.04540401  0.39270671  1
  O2-  O272  1  0.91923861  0.04507775  0.73323406  1
  O2-  O273  1  0.91623696  0.53438696  0.06754243  1
  O2-  O274  1  0.91262609  0.53690733  0.40550129  1
  O2-  O275  1  0.91284866  0.54108572  0.72897421  1
  O2-  O276  1  0.29518087  0.16618091  0.06512235  1
  O2-  O277  1  0.28554417  0.16192654  0.40195242  1
  O2-  O278  1  0.29520601  0.16544527  0.73213657  1
  O2-  O279  1  0.29058423  0.65971632  0.06310939  1
  O2-  O280  1  0.29629806  0.66587766  0.39404188  1
  O2-  O281  1  0.29798353  0.66435136  0.72834410  1
  O2-  O282  1  0.78536327  0.16724183  0.07135014  1
  O2-  O283  1  0.79787718  0.16729257  0.39305797  1
  O2-  O284  1  0.79069955  0.17274687  0.73055646  1
  O2-  O285  1  0.79480470  0.66744269  0.06859236  1
  O2-  O286  1  0.79304517  0.67087215  0.40072821  1
  O2-  O287  1  0.79513278  0.66228608  0.73124361  1
