# generated using pymatgen
data_Ca2Al2SiO7
_symmetry_space_group_name_H-M   'P 1'
_cell_length_a   15.46531669
_cell_length_b   15.46437680
_cell_length_c   15.28861706
_cell_angle_alpha   90.00525237
_cell_angle_beta   90.00518042
_cell_angle_gamma   90.01215837
_symmetry_Int_Tables_number   1
_chemical_formula_structural   Ca2Al2SiO7
_chemical_formula_sum   'Ca48 Al48 Si24 O168'
_cell_volume   3656.44824249
_cell_formula_units_Z   24
loop_
 _symmetry_equiv_pos_site_id
 _symmetry_equiv_pos_as_xyz
  1  'x, y, z'
loop_
 _atom_type_symbol
 _atom_type_oxidation_number
  Ca2+  2.0
  Al0+  0.0
  Si0+  0.0
  O2-  -2.0
loop_
 _atom_site_type_symbol
 _atom_site_label
 _atom_site_symmetry_multiplicity
 _atom_site_fract_x
 _atom_site_fract_y
 _atom_site_fract_z
 _atom_site_occupancy
  Ca2+  Ca0  1  0.18248413  0.08694696  0.17085805  1
  Ca2+  Ca1  1  0.18477258  0.07841469  0.50790202  1
  Ca2+  Ca2  1  0.18068510  0.08036742  0.83641076  1
  Ca2+  Ca3  1  0.15835920  0.57594290  0.16954647  1
  Ca2+  Ca4  1  0.17010993  0.57589051  0.50452992  1
  Ca2+  Ca5  1  0.17133571  0.57739840  0.83587965  1
  Ca2+  Ca6  1  0.66925531  0.08016002  0.17042304  1
  Ca2+  Ca7  1  0.66257104  0.08552550  0.49778452  1
  Ca2+  Ca8  1  0.66679064  0.08221507  0.84361001  1
  Ca2+  Ca9  1  0.66339846  0.57643716  0.16654108  1
  Ca2+  Ca10  1  0.66546105  0.57479292  0.50662349  1
  Ca2+  Ca11  1  0.65885971  0.56819980  0.83801214  1
  Ca2+  Ca12  1  0.08456625  0.33629257  0.16122046  1
  Ca2+  Ca13  1  0.08527047  0.33926984  0.49466764  1
  Ca2+  Ca14  1  0.08579156  0.33786446  0.83264568  1
  Ca2+  Ca15  1  0.08035006  0.82050582  0.15586812  1
  Ca2+  Ca16  1  0.09151161  0.82713380  0.49326499  1
  Ca2+  Ca17  1  0.08133729  0.83559244  0.83007270  1
  Ca2+  Ca18  1  0.57318714  0.32248231  0.15727818  1
  Ca2+  Ca19  1  0.57576934  0.32405845  0.49313491  1
  Ca2+  Ca20  1  0.58554876  0.32300359  0.82861795  1
  Ca2+  Ca21  1  0.58392466  0.84280596  0.16596610  1
  Ca2+  Ca22  1  0.57154496  0.83571116  0.49366423  1
  Ca2+  Ca23  1  0.57861456  0.83642710  0.82837174  1
  Ca2+  Ca24  1  0.32571884  0.40787522  0.17120889  1
  Ca2+  Ca25  1  0.32583982  0.41794728  0.50590662  1
  Ca2+  Ca26  1  0.32613087  0.41543799  0.84069835  1
  Ca2+  Ca27  1  0.34220257  0.92970520  0.17187172  1
  Ca2+  Ca28  1  0.33924820  0.92367874  0.50558481  1
  Ca2+  Ca29  1  0.33914447  0.92719958  0.83318381  1
  Ca2+  Ca30  1  0.82375277  0.41265612  0.16646371  1
  Ca2+  Ca31  1  0.82530242  0.41738013  0.50546205  1
  Ca2+  Ca32  1  0.81880935  0.41381046  0.83778125  1
  Ca2+  Ca33  1  0.82594246  0.92231812  0.16965512  1
  Ca2+  Ca34  1  0.82709575  0.92095934  0.49880042  1
  Ca2+  Ca35  1  0.82636181  0.92209714  0.84732776  1
  Ca2+  Ca36  1  0.42149549  0.16998649  0.16188983  1
  Ca2+  Ca37  1  0.42419076  0.16408580  0.49187017  1
  Ca2+  Ca38  1  0.42379922  0.16478845  0.83268072  1
  Ca2+  Ca39  1  0.41481094  0.67732747  0.16536276  1
  Ca2+  Ca40  1  0.40388766  0.67846092  0.49956740  1
  Ca2+  Ca41  1  0.41225301  0.67244515  0.82609535  1
  Ca2+  Ca42  1  0.91536805  0.16029876  0.16296393  1
  Ca2+  Ca43  1  0.91971911  0.16652692  0.49519452  1
  Ca2+  Ca44  1  0.91662755  0.16412132  0.83119887  1
  Ca2+  Ca45  1  0.92580029  0.67228720  0.15764853  1
  Ca2+  Ca46  1  0.92584228  0.66868883  0.49066642  1
  Ca2+  Ca47  1  0.92094504  0.67075609  0.83519910  1
  Al0+  Al48  1  0.00087562  -0.00080502  -0.00113547  1
  Al0+  Al49  1  -0.00151580  -0.00005274  0.33621230  1
  Al0+  Al50  1  -0.00033531  0.00112965  0.66631825  1
  Al0+  Al51  1  0.00062401  0.50029651  -0.00291039  1
  Al0+  Al52  1  -0.00053214  0.49952326  0.33273516  1
  Al0+  Al53  1  -0.00135871  0.50169615  0.66873742  1
  Al0+  Al54  1  0.50069660  0.00144088  0.00342611  1
  Al0+  Al55  1  0.50202846  -0.00071290  0.33331004  1
  Al0+  Al56  1  0.50227734  -0.00048942  0.66216162  1
  Al0+  Al57  1  0.49613639  0.50118939  0.00278792  1
  Al0+  Al58  1  0.49733275  0.50178711  0.33161381  1
  Al0+  Al59  1  0.50065765  0.49907287  0.67354475  1
  Al0+  Al60  1  0.24915688  0.25105852  0.00355003  1
  Al0+  Al61  1  0.24841901  0.24948067  0.34063210  1
  Al0+  Al62  1  0.25026330  0.24885273  0.67403149  1
  Al0+  Al63  1  0.25048904  0.74854813  -0.00596594  1
  Al0+  Al64  1  0.25039976  0.74808188  0.32044800  1
  Al0+  Al65  1  0.24734627  0.74933588  0.66899602  1
  Al0+  Al66  1  0.75005241  0.25011291  0.00485034  1
  Al0+  Al67  1  0.75113899  0.24999001  0.33422385  1
  Al0+  Al68  1  0.75093664  0.25015792  0.66412481  1
  Al0+  Al69  1  0.74998907  0.74903190  -0.00153995  1
  Al0+  Al70  1  0.75049396  0.74954584  0.33752079  1
  Al0+  Al71  1  0.75148905  0.75059915  0.66428268  1
  Al0+  Al72  1  0.17901126  0.43043234  0.34703941  1
  Al0+  Al73  1  0.57188502  0.18007758  0.65144146  1
  Al0+  Al74  1  0.82360959  0.07171987  0.01403841  1
  Al0+  Al75  1  0.67949355  0.92803732  0.35180599  1
  Al0+  Al76  1  0.68033421  0.42855957  0.67905728  1
  Al0+  Al77  1  0.07001925  0.67873685  0.31899419  1
  Al0+  Al78  1  0.82236715  0.07291367  0.35178907  1
  Al0+  Al79  1  0.92884909  0.82164361  0.98404733  1
  Al0+  Al80  1  0.17981316  0.43185240  0.01549274  1
  Al0+  Al81  1  0.07191586  0.67749152  0.97961883  1
  Al0+  Al82  1  0.42626610  0.32161205  0.98377670  1
  Al0+  Al83  1  0.67612399  0.42829595  0.01527166  1
  Al0+  Al84  1  0.32101569  0.57151388  0.68124237  1
  Al0+  Al85  1  0.31990525  0.06991391  0.01492307  1
  Al0+  Al86  1  0.17718143  0.92894553  0.68042500  1
  Al0+  Al87  1  0.57114446  0.17998514  0.98463462  1
  Al0+  Al88  1  0.32566842  0.06983871  0.68280164  1
  Al0+  Al89  1  0.42948554  0.81847884  0.65404134  1
  Al0+  Al90  1  0.42568492  0.32215172  0.32014203  1
  Al0+  Al91  1  0.32090102  0.06994447  0.34724358  1
  Al0+  Al92  1  0.67844472  0.92738797  0.01396555  1
  Al0+  Al93  1  0.43102773  0.82021286  0.31855106  1
  Al0+  Al94  1  0.57214601  0.17982625  0.31630525  1
  Al0+  Al95  1  0.17765615  0.42848189  0.68302764  1
  Si0+  Si96  1  0.32201875  0.57543908  0.01986886  1
  Si0+  Si97  1  0.57114100  0.67742151  0.98523568  1
  Si0+  Si98  1  0.57550955  0.67666013  0.31705347  1
  Si0+  Si99  1  0.17860103  0.92618582  0.01615053  1
  Si0+  Si100  1  0.06820888  0.67952039  0.64959418  1
  Si0+  Si101  1  0.92663977  0.82223790  0.31691723  1
  Si0+  Si102  1  0.32215465  0.57482102  0.34847691  1
  Si0+  Si103  1  0.43087184  0.82196888  0.98443841  1
  Si0+  Si104  1  0.68083452  0.92838073  0.68073367  1
  Si0+  Si105  1  0.93043845  0.32124170  0.65211537  1
  Si0+  Si106  1  0.07040529  0.17848906  0.32063658  1
  Si0+  Si107  1  0.17880726  0.92566915  0.34469337  1
  Si0+  Si108  1  0.67724991  0.42990836  0.34752690  1
  Si0+  Si109  1  0.82181231  0.57419629  0.68361957  1
  Si0+  Si110  1  0.92767297  0.82359480  0.64870523  1
  Si0+  Si111  1  0.92967287  0.32132475  0.31836542  1
  Si0+  Si112  1  0.07193675  0.17889365  0.65226505  1
  Si0+  Si113  1  0.82073541  0.56996276  0.01592717  1
  Si0+  Si114  1  0.07179420  0.17903214  0.98585842  1
  Si0+  Si115  1  0.42645635  0.32301060  0.65170537  1
  Si0+  Si116  1  0.82091851  0.07085987  0.68113266  1
  Si0+  Si117  1  0.92861692  0.32075856  0.98529064  1
  Si0+  Si118  1  0.57363734  0.67563856  0.65115819  1
  Si0+  Si119  1  0.82117505  0.56935388  0.34702454  1
  O2-  O120  1  0.24671926  -0.00645472  0.06221116  1
  O2-  O121  1  0.24695674  -0.00719886  0.39152253  1
  O2-  O122  1  0.25176813  -0.00213446  0.73071551  1
  O2-  O123  1  0.25401517  0.50590600  0.06332100  1
  O2-  O124  1  0.25673882  0.50249368  0.39183792  1
  O2-  O125  1  0.25353529  0.49605456  0.73262513  1
  O2-  O126  1  0.75149024  -0.00067078  0.06209365  1
  O2-  O127  1  0.74924456  0.00257600  0.40234057  1
  O2-  O128  1  0.75125037  -0.00065938  0.72304420  1
  O2-  O129  1  0.75125229  0.50325684  0.06205536  1
  O2-  O130  1  0.74654616  0.50285993  0.39039784  1
  O2-  O131  1  0.75068291  0.50772840  0.72646815  1
  O2-  O132  1  -0.00124007  0.24847711  0.27705794  1
  O2-  O133  1  0.00569415  0.25498315  0.60958105  1
  O2-  O134  1  -0.00309255  0.24683659  0.94374359  1
  O2-  O135  1  -0.00171348  0.75667321  0.27351747  1
  O2-  O136  1  -0.00021505  0.75334853  0.60666296  1
  O2-  O137  1  0.00268046  0.75306359  0.93081667  1
  O2-  O138  1  0.49844220  0.25162695  0.26916717  1
  O2-  O139  1  0.49365854  0.25293431  0.60727941  1
  O2-  O140  1  0.50135155  0.25337441  0.93302338  1
  O2-  O141  1  0.50860049  0.74702811  0.27320228  1
  O2-  O142  1  0.50258757  0.74133732  0.60677285  1
  O2-  O143  1  0.50213302  0.75042618  0.94332103  1
  O2-  O144  1  0.07236572  0.18118594  0.09121776  1
  O2-  O145  1  0.06913483  0.18062626  0.42593035  1
  O2-  O146  1  0.06742605  0.17661356  0.75724520  1
  O2-  O147  1  0.06767545  0.67654407  0.09344767  1
  O2-  O148  1  0.06807283  0.67875792  0.43270713  1
  O2-  O149  1  0.06449955  0.67744820  0.75393857  1
  O2-  O150  1  0.57075143  0.17975139  0.09765101  1
  O2-  O151  1  0.57147279  0.18378234  0.43051457  1
  O2-  O152  1  0.57697092  0.18024675  0.76399548  1
  O2-  O153  1  0.57038326  0.67612088  0.09035049  1
  O2-  O154  1  0.57690448  0.67420488  0.42256521  1
  O2-  O155  1  0.57733751  0.67881273  0.75664678  1
  O2-  O156  1  0.17441013  0.43196837  0.23440003  1
  O2-  O157  1  0.17426696  0.43223203  0.56930276  1
  O2-  O158  1  0.17914370  0.43240048  0.90275327  1
  O2-  O159  1  0.17877850  0.92853292  0.23931248  1
  O2-  O160  1  0.17573517  0.93114993  0.56639532  1
  O2-  O161  1  0.17959993  0.92902458  0.91057032  1
  O2-  O162  1  0.67996817  0.43143197  0.24264953  1
  O2-  O163  1  0.68419254  0.43014724  0.56549475  1
  O2-  O164  1  0.67997316  0.42876000  0.90201671  1
  O2-  O165  1  0.68395982  0.92510345  0.23886101  1
  O2-  O166  1  0.68287775  0.92636311  0.57608737  1
  O2-  O167  1  0.67838463  0.92782364  0.89949442  1
  O2-  O168  1  0.42595865  0.31866726  0.09733411  1
  O2-  O169  1  0.42802092  0.32385330  0.43420696  1
  O2-  O170  1  0.42841391  0.32342874  0.75691368  1
  O2-  O171  1  0.43034373  0.82080412  0.08948517  1
  O2-  O172  1  0.42831764  0.81702368  0.43175837  1
  O2-  O173  1  0.43432842  0.81941871  0.76730161  1
  O2-  O174  1  0.92999391  0.32347134  0.09053846  1
  O2-  O175  1  0.93029865  0.32437946  0.42385322  1
  O2-  O176  1  0.92731197  0.31889153  0.75702587  1
  O2-  O177  1  0.93016235  0.81827540  0.09774363  1
  O2-  O178  1  0.92661114  0.81919858  0.42311169  1
  O2-  O179  1  0.92533042  0.82310257  0.75317547  1
  O2-  O180  1  0.31845779  0.07100228  0.23416441  1
  O2-  O181  1  0.32441745  0.06879079  0.56904797  1
  O2-  O182  1  0.32029815  0.06786439  0.90195403  1
  O2-  O183  1  0.32159757  0.57738584  0.24337188  1
  O2-  O184  1  0.31643981  0.57271654  0.56731400  1
  O2-  O185  1  0.32193752  0.57703350  0.91437173  1
  O2-  O186  1  0.82599458  0.07124812  0.23912630  1
  O2-  O187  1  0.82268479  0.07060304  0.57636535  1
  O2-  O188  1  0.82290495  0.07183776  0.89962228  1
  O2-  O189  1  0.82200966  0.56693952  0.24227886  1
  O2-  O190  1  0.82329252  0.57259624  0.57748076  1
  O2-  O191  1  0.81949304  0.56769164  0.91019189  1
  O2-  O192  1  0.04412549  0.08620047  0.27329074  1
  O2-  O193  1  0.03837525  0.08998328  0.60226426  1
  O2-  O194  1  0.04805460  0.08664171  0.93775730  1
  O2-  O195  1  0.03251492  0.58401686  0.26546718  1
  O2-  O196  1  0.03607393  0.58856863  0.60140284  1
  O2-  O197  1  0.03769532  0.58071127  0.92649349  1
  O2-  O198  1  0.54694772  0.07991949  0.26746733  1
  O2-  O199  1  0.54390574  0.08298584  0.59727992  1
  O2-  O200  1  0.54091812  0.08104298  0.93280740  1
  O2-  O201  1  0.54792225  0.58438557  0.26904464  1
  O2-  O202  1  0.55232996  0.57995125  0.60741619  1
  O2-  O203  1  0.54032536  0.58699614  0.93668545  1
  O2-  O204  1  0.16133096  0.20793063  0.27350707  1
  O2-  O205  1  0.16600610  0.20177424  0.60718373  1
  O2-  O206  1  0.16063293  0.21193853  0.93675537  1
  O2-  O207  1  0.16490978  0.70444292  0.26034658  1
  O2-  O208  1  0.16055423  0.70495351  0.60263400  1
  O2-  O209  1  0.17145737  0.70302964  0.92795354  1
  O2-  O210  1  0.67169029  0.20925602  0.26648964  1
  O2-  O211  1  0.66789176  0.21395451  0.59655126  1
  O2-  O212  1  0.67154359  0.20829289  0.93435516  1
  O2-  O213  1  0.67038773  0.69918942  0.27167966  1
  O2-  O214  1  0.66715666  0.70233408  0.60363300  1
  O2-  O215  1  0.66373645  0.70005119  0.93726711  1
  O2-  O216  1  0.08131810  0.46176773  0.06726706  1
  O2-  O217  1  0.08223073  0.46339090  0.40126702  1
  O2-  O218  1  0.07884710  0.45948330  0.73443415  1
  O2-  O219  1  0.08456079  0.95017323  0.06104062  1
  O2-  O220  1  0.08454181  0.94794179  0.39109135  1
  O2-  O221  1  0.07941722  0.96080083  0.73388273  1
  O2-  O222  1  0.58066893  0.46194719  0.06889193  1
  O2-  O223  1  0.58516068  0.45721848  0.39451414  1
  O2-  O224  1  0.58467503  0.45476876  0.73591426  1
  O2-  O225  1  0.58157212  0.95629627  0.06818526  1
  O2-  O226  1  0.58075445  0.95516973  0.40378749  1
  O2-  O227  1  0.58918109  0.95579766  0.72677714  1
  O2-  O228  1  0.20760153  0.33463463  0.06956344  1
  O2-  O229  1  0.20450714  0.33391242  0.40343395  1
  O2-  O230  1  0.19857762  0.32838967  0.73493404  1
  O2-  O231  1  0.20330833  0.83092486  0.05863982  1
  O2-  O232  1  0.20454220  0.83044881  0.38740616  1
  O2-  O233  1  0.19828632  0.82927274  0.73187860  1
  O2-  O234  1  0.71139093  0.33494007  0.07123354  1
  O2-  O235  1  0.70964662  0.34019984  0.39539795  1
  O2-  O236  1  0.71940048  0.33475975  0.73307105  1
  O2-  O237  1  0.70471881  0.82758121  0.06549830  1
  O2-  O238  1  0.70895261  0.82914604  0.40582930  1
  O2-  O239  1  0.70824917  0.83583464  0.72748353  1
  O2-  O240  1  0.44955989  0.42263782  0.26854183  1
  O2-  O241  1  0.45381540  0.41714736  0.60677334  1
  O2-  O242  1  0.44879056  0.42378926  0.93610362  1
  O2-  O243  1  0.46222900  0.91600010  0.26462765  1
  O2-  O244  1  0.46367944  0.91292933  0.59838833  1
  O2-  O245  1  0.46010104  0.91305282  0.93737756  1
  O2-  O246  1  0.95876407  0.41156028  0.26906528  1
  O2-  O247  1  0.95321360  0.41522523  0.60523338  1
  O2-  O248  1  0.95839976  0.41064846  0.93555580  1
  O2-  O249  1  0.94830807  0.91757018  0.27384847  1
  O2-  O250  1  0.95366540  0.91616093  0.60179656  1
  O2-  O251  1  0.95519865  0.92094532  0.93059249  1
  O2-  O252  1  0.32606596  0.29220495  0.27046689  1
  O2-  O253  1  0.33050319  0.30004344  0.60863561  1
  O2-  O254  1  0.32804814  0.29016781  0.93218613  1
  O2-  O255  1  0.33718315  0.78862763  0.25949559  1
  O2-  O256  1  0.33112161  0.78952829  0.60146117  1
  O2-  O257  1  0.33936676  0.79457346  0.93643470  1
  O2-  O258  1  0.83756577  0.29587861  0.27094614  1
  O2-  O259  1  0.84158189  0.28935619  0.60094888  1
  O2-  O260  1  0.83641717  0.29477514  0.93795619  1
  O2-  O261  1  0.83451581  0.79165688  0.27150547  1
  O2-  O262  1  0.83690030  0.79339669  0.59940241  1
  O2-  O263  1  0.83106724  0.78963379  0.92995051  1
  O2-  O264  1  0.41545304  0.03852517  0.06905571  1
  O2-  O265  1  0.41738999  0.03906499  0.39945828  1
  O2-  O266  1  0.42332138  0.03736119  0.73479130  1
  O2-  O267  1  0.41582983  0.55371640  0.06658628  1
  O2-  O268  1  0.41738713  0.55591873  0.39470657  1
  O2-  O269  1  0.42186852  0.55275358  0.73316516  1
  O2-  O270  1  0.92301339  0.04484225  0.06641282  1
  O2-  O271  1  0.92101328  0.04324166  0.40653342  1
  O2-  O272  1  0.91281136  0.04443254  0.72843179  1
  O2-  O273  1  0.91352790  0.54154836  0.06132535  1
  O2-  O274  1  0.90992196  0.53622204  0.39766287  1
  O2-  O275  1  0.91327175  0.54577483  0.73112186  1
  O2-  O276  1  0.28415863  0.16446324  0.06884537  1
  O2-  O277  1  0.28678404  0.16357735  0.40463896  1
  O2-  O278  1  0.29645642  0.16719331  0.73621198  1
  O2-  O279  1  0.29528189  0.66963045  0.06470085  1
  O2-  O280  1  0.28972455  0.66714410  0.39385123  1
  O2-  O281  1  0.28830970  0.66757287  0.73602100  1
  O2-  O282  1  0.79899118  0.17024801  0.06766874  1
  O2-  O283  1  0.79746852  0.17340708  0.40390711  1
  O2-  O284  1  0.79423962  0.16329482  0.72696359  1
  O2-  O285  1  0.79613827  0.66345980  0.06183778  1
  O2-  O286  1  0.79941013  0.66180429  0.39603077  1
  O2-  O287  1  0.79946915  0.66904530  0.72825543  1
