# generated using pymatgen
data_Ca2Al2SiO7
_symmetry_space_group_name_H-M   'P 1'
_cell_length_a   15.46296033
_cell_length_b   15.46297700
_cell_length_c   15.28757843
_cell_angle_alpha   90.02634634
_cell_angle_beta   89.99360629
_cell_angle_gamma   89.98859830
_symmetry_Int_Tables_number   1
_chemical_formula_structural   Ca2Al2SiO7
_chemical_formula_sum   'Ca48 Al48 Si24 O168'
_cell_volume   3655.31149747
_cell_formula_units_Z   24
loop_
 _symmetry_equiv_pos_site_id
 _symmetry_equiv_pos_as_xyz
  1  'x, y, z'
loop_
 _atom_type_symbol
 _atom_type_oxidation_number
  Ca2+  2.0
  Al0+  0.0
  Si0+  0.0
  O2-  -2.0
loop_
 _atom_site_type_symbol
 _atom_site_label
 _atom_site_symmetry_multiplicity
 _atom_site_fract_x
 _atom_site_fract_y
 _atom_site_fract_z
 _atom_site_occupancy
  Ca2+  Ca0  1  0.17665311  0.07701977  0.17968455  1
  Ca2+  Ca1  1  0.17920787  0.07372558  0.50259829  1
  Ca2+  Ca2  1  0.17231762  0.07651402  0.82951899  1
  Ca2+  Ca3  1  0.16869858  0.57893890  0.17763933  1
  Ca2+  Ca4  1  0.16293151  0.58055887  0.49683423  1
  Ca2+  Ca5  1  0.17109674  0.58333903  0.83545864  1
  Ca2+  Ca6  1  0.66146231  0.07555084  0.17465269  1
  Ca2+  Ca7  1  0.66082028  0.07911584  0.49561826  1
  Ca2+  Ca8  1  0.66548481  0.07503608  0.83772713  1
  Ca2+  Ca9  1  0.66551715  0.57693771  0.17731690  1
  Ca2+  Ca10  1  0.65982582  0.57667734  0.50607839  1
  Ca2+  Ca11  1  0.66653669  0.58521799  0.82801390  1
  Ca2+  Ca12  1  0.07200436  0.34169525  0.16727449  1
  Ca2+  Ca13  1  0.07760232  0.33462355  0.48952874  1
  Ca2+  Ca14  1  0.07668901  0.33236936  0.83125007  1
  Ca2+  Ca15  1  0.08609633  0.83193797  0.17038097  1
  Ca2+  Ca16  1  0.07615185  0.83723880  0.49148623  1
  Ca2+  Ca17  1  0.07735345  0.83505841  0.82204670  1
  Ca2+  Ca18  1  0.57599059  0.33036832  0.16827067  1
  Ca2+  Ca19  1  0.57652974  0.33219394  0.49017099  1
  Ca2+  Ca20  1  0.57382690  0.33515743  0.82443517  1
  Ca2+  Ca21  1  0.57526448  0.84132666  0.16681635  1
  Ca2+  Ca22  1  0.57987289  0.82381613  0.48995040  1
  Ca2+  Ca23  1  0.57632859  0.83228239  0.82554549  1
  Ca2+  Ca24  1  0.33029141  0.41273713  0.17732381  1
  Ca2+  Ca25  1  0.33198241  0.41072893  0.50354181  1
  Ca2+  Ca26  1  0.33873444  0.41536757  0.83625203  1
  Ca2+  Ca27  1  0.33484186  0.92023167  0.18116221  1
  Ca2+  Ca28  1  0.33443696  0.92162662  0.50547782  1
  Ca2+  Ca29  1  0.33888437  0.91739569  0.83501927  1
  Ca2+  Ca30  1  0.83002122  0.41484040  0.17789316  1
  Ca2+  Ca31  1  0.82108902  0.42233041  0.50478308  1
  Ca2+  Ca32  1  0.82788451  0.42156464  0.83515987  1
  Ca2+  Ca33  1  0.82193051  0.91476042  0.17537621  1
  Ca2+  Ca34  1  0.83019044  0.90601546  0.50127796  1
  Ca2+  Ca35  1  0.82714116  0.91359620  0.83741914  1
  Ca2+  Ca36  1  0.41695400  0.17121193  0.17062942  1
  Ca2+  Ca37  1  0.41464222  0.17164239  0.49377190  1
  Ca2+  Ca38  1  0.41313158  0.17508997  0.82845259  1
  Ca2+  Ca39  1  0.42151720  0.67752823  0.16857748  1
  Ca2+  Ca40  1  0.42554554  0.67600304  0.49545303  1
  Ca2+  Ca41  1  0.42402412  0.67839610  0.82437436  1
  Ca2+  Ca42  1  0.91418612  0.17890169  0.16676442  1
  Ca2+  Ca43  1  0.91844967  0.17356530  0.49144442  1
  Ca2+  Ca44  1  0.91616478  0.17093376  0.83121357  1
  Ca2+  Ca45  1  0.92130184  0.67029053  0.17400191  1
  Ca2+  Ca46  1  0.91947068  0.67270585  0.49505412  1
  Ca2+  Ca47  1  0.91595949  0.67116497  0.82395066  1
  Al0+  Al48  1  0.00049869  0.00057152  0.00118669  1
  Al0+  Al49  1  -0.00072340  0.00232842  0.33032132  1
  Al0+  Al50  1  0.00054664  0.00065435  0.66714319  1
  Al0+  Al51  1  0.00014570  0.50003770  -0.00535881  1
  Al0+  Al52  1  0.00057936  0.50161342  0.33091902  1
  Al0+  Al53  1  -0.00183528  0.50030283  0.67198042  1
  Al0+  Al54  1  0.49923773  0.00084187  -0.00033883  1
  Al0+  Al55  1  0.50252595  0.00182748  0.33647896  1
  Al0+  Al56  1  0.49998053  0.00374237  0.67013264  1
  Al0+  Al57  1  0.50082412  0.50155696  -0.00226560  1
  Al0+  Al58  1  0.49883104  0.50097841  0.32992090  1
  Al0+  Al59  1  0.49740276  0.49892068  0.66506723  1
  Al0+  Al60  1  0.24851631  0.24859000  -0.00307748  1
  Al0+  Al61  1  0.24828408  0.24950598  0.33859895  1
  Al0+  Al62  1  0.24830020  0.24748478  0.66885551  1
  Al0+  Al63  1  0.25114323  0.74872317  -0.00406569  1
  Al0+  Al64  1  0.24916477  0.74836279  0.33068174  1
  Al0+  Al65  1  0.24814160  0.74753372  0.66735331  1
  Al0+  Al66  1  0.75061586  0.25041645  -0.00544047  1
  Al0+  Al67  1  0.74858782  0.25031005  0.32996660  1
  Al0+  Al68  1  0.74896650  0.25019506  0.67227400  1
  Al0+  Al69  1  0.75156809  0.74814284  0.00636687  1
  Al0+  Al70  1  0.75252515  0.74889661  0.32917497  1
  Al0+  Al71  1  0.75145193  0.74794441  0.66469625  1
  Al0+  Al72  1  0.93047343  0.82137601  0.65444556  1
  Al0+  Al73  1  0.32302409  0.07033683  0.34913375  1
  Al0+  Al74  1  0.17873102  0.42983859  0.34605593  1
  Al0+  Al75  1  0.67758318  0.42894608  0.34517328  1
  Al0+  Al76  1  0.17898251  0.92712173  0.68186984  1
  Al0+  Al77  1  0.42745582  0.82403092  0.65170072  1
  Al0+  Al78  1  0.92869456  0.32149724  0.98344652  1
  Al0+  Al79  1  0.42603053  0.32104315  0.31981339  1
  Al0+  Al80  1  0.82064224  0.57103697  0.68223930  1
  Al0+  Al81  1  0.57148011  0.17934408  0.31856868  1
  Al0+  Al82  1  0.17772954  0.92627384  0.34717236  1
  Al0+  Al83  1  0.67611272  0.42837992  0.68306913  1
  Al0+  Al84  1  0.67960414  0.92981552  0.01349123  1
  Al0+  Al85  1  0.07159280  0.67955738  0.31872778  1
  Al0+  Al86  1  0.43028436  0.82122405  0.98571817  1
  Al0+  Al87  1  0.92906457  0.82451076  0.31626084  1
  Al0+  Al88  1  0.43060660  0.82211079  0.32090391  1
  Al0+  Al89  1  0.32240698  0.07073419  0.68510528  1
  Al0+  Al90  1  0.42816829  0.31892737  0.65285333  1
  Al0+  Al91  1  0.42885819  0.32101873  0.98624950  1
  Al0+  Al92  1  0.68130627  0.92803676  0.34806880  1
  Al0+  Al93  1  0.57096545  0.68025567  0.65187257  1
  Al0+  Al94  1  0.92921615  0.32140883  0.32287710  1
  Al0+  Al95  1  0.57298775  0.67760083  0.31740650  1
  Si0+  Si96  1  0.67906364  0.42899488  0.01509906  1
  Si0+  Si97  1  0.92949955  0.82043737  0.98578256  1
  Si0+  Si98  1  0.82166736  0.07343606  0.34888968  1
  Si0+  Si99  1  0.17958303  0.42934399  0.01349824  1
  Si0+  Si100  1  0.32249069  0.57211108  0.35055506  1
  Si0+  Si101  1  0.07193381  0.17896113  0.31683763  1
  Si0+  Si102  1  0.32137389  0.57135269  0.01453145  1
  Si0+  Si103  1  0.07128649  0.67945773  0.98292105  1
  Si0+  Si104  1  0.07173681  0.17626730  0.98154290  1
  Si0+  Si105  1  0.31929124  0.07097145  0.01577463  1
  Si0+  Si106  1  0.82359162  0.56948548  0.01763701  1
  Si0+  Si107  1  0.57533624  0.17843064  0.65070271  1
  Si0+  Si108  1  0.17860117  0.92704780  0.01464844  1
  Si0+  Si109  1  0.82327744  0.07351830  0.01701525  1
  Si0+  Si110  1  0.57129632  0.17818509  0.98186579  1
  Si0+  Si111  1  0.07224631  0.67495570  0.65086799  1
  Si0+  Si112  1  0.17747714  0.42767593  0.68340652  1
  Si0+  Si113  1  0.82296233  0.07246022  0.68192430  1
  Si0+  Si114  1  0.32024973  0.56970664  0.68246074  1
  Si0+  Si115  1  0.68078880  0.92899638  0.67987804  1
  Si0+  Si116  1  0.92827573  0.32157797  0.65235986  1
  Si0+  Si117  1  0.57467781  0.67784944  0.98290611  1
  Si0+  Si118  1  0.06904069  0.17996218  0.65125869  1
  Si0+  Si119  1  0.82250282  0.57077093  0.34940250  1
  O2-  O120  1  0.25056223  -0.00307038  0.05644136  1
  O2-  O121  1  0.25419467  -0.00651075  0.39649475  1
  O2-  O122  1  0.25591282  -0.00747050  0.73496352  1
  O2-  O123  1  0.25368205  0.49642826  0.05608429  1
  O2-  O124  1  0.25552181  0.50085243  0.39451728  1
  O2-  O125  1  0.24907262  0.49796487  0.72571391  1
  O2-  O126  1  0.75440444  0.00522545  0.05999983  1
  O2-  O127  1  0.75883460  0.00045138  0.39468680  1
  O2-  O128  1  0.75173203  0.00072329  0.72256252  1
  O2-  O129  1  0.75196313  0.49813198  0.05797881  1
  O2-  O130  1  0.74896593  0.50678611  0.39209701  1
  O2-  O131  1  0.74830538  0.50018456  0.73415886  1
  O2-  O132  1  0.00418414  0.24860736  0.27269566  1
  O2-  O133  1  -0.00143291  0.25137909  0.60901929  1
  O2-  O134  1  0.00177926  0.24448833  0.93738111  1
  O2-  O135  1  0.00438965  0.75526365  0.26689405  1
  O2-  O136  1  0.00719902  0.74800609  0.60990708  1
  O2-  O137  1  0.00180744  0.75204685  0.94136111  1
  O2-  O138  1  0.49854617  0.25055553  0.26860212  1
  O2-  O139  1  0.50555996  0.24667321  0.60865781  1
  O2-  O140  1  0.50505869  0.24904620  0.93763701  1
  O2-  O141  1  0.50430953  0.75306782  0.26784712  1
  O2-  O142  1  0.50254535  0.75549649  0.60264186  1
  O2-  O143  1  0.50810640  0.74917789  0.94003219  1
  O2-  O144  1  0.07298041  0.17605721  0.08656756  1
  O2-  O145  1  0.06927865  0.18001386  0.42256135  1
  O2-  O146  1  0.06701701  0.18159223  0.75695650  1
  O2-  O147  1  0.07217026  0.67733050  0.08722449  1
  O2-  O148  1  0.06638015  0.67407519  0.43181975  1
  O2-  O149  1  0.07064058  0.67307813  0.75735395  1
  O2-  O150  1  0.57116192  0.17772782  0.08686542  1
  O2-  O151  1  0.57399437  0.18174649  0.43199398  1
  O2-  O152  1  0.57711736  0.17848943  0.75685170  1
  O2-  O153  1  0.57304160  0.67433214  0.08784403  1
  O2-  O154  1  0.57055228  0.67720366  0.43070662  1
  O2-  O155  1  0.57018232  0.68317689  0.76636864  1
  O2-  O156  1  0.17751703  0.43188342  0.23221043  1
  O2-  O157  1  0.17434981  0.42789408  0.57883674  1
  O2-  O158  1  0.17847930  0.43163611  0.90802047  1
  O2-  O159  1  0.17936156  0.93069366  0.23235755  1
  O2-  O160  1  0.17454793  0.93203926  0.56952661  1
  O2-  O161  1  0.17618175  0.92814505  0.90978259  1
  O2-  O162  1  0.68123206  0.42866372  0.23116252  1
  O2-  O163  1  0.67862947  0.42646086  0.56993829  1
  O2-  O164  1  0.67922739  0.43091909  0.91024542  1
  O2-  O165  1  0.68117198  0.93149230  0.23465001  1
  O2-  O166  1  0.68211716  0.92950317  0.57536691  1
  O2-  O167  1  0.68280618  0.93038531  0.89954191  1
  O2-  O168  1  0.42681391  0.32003184  0.09840155  1
  O2-  O169  1  0.42652588  0.31946740  0.43315163  1
  O2-  O170  1  0.42848023  0.31782039  0.76673225  1
  O2-  O171  1  0.42750624  0.82046831  0.09811636  1
  O2-  O172  1  0.43137580  0.82040815  0.43399281  1
  O2-  O173  1  0.43093095  0.82060920  0.76619127  1
  O2-  O174  1  0.93014713  0.32295349  0.09624288  1
  O2-  O175  1  0.93039496  0.31953662  0.43619919  1
  O2-  O176  1  0.93086818  0.31959411  0.75788599  1
  O2-  O177  1  0.93089612  0.81947907  0.09005127  1
  O2-  O178  1  0.92920021  0.82184921  0.42979851  1
  O2-  O179  1  0.93051496  0.82081120  0.76878596  1
  O2-  O180  1  0.31946227  0.07184181  0.23438958  1
  O2-  O181  1  0.31833828  0.07533825  0.57270237  1
  O2-  O182  1  0.31760731  0.07213383  0.91088544  1
  O2-  O183  1  0.32038656  0.57146411  0.24419350  1
  O2-  O184  1  0.31908343  0.56909256  0.57801841  1
  O2-  O185  1  0.31820865  0.57175632  0.90918145  1
  O2-  O186  1  0.81987908  0.07497519  0.24308280  1
  O2-  O187  1  0.82513364  0.07684743  0.57763577  1
  O2-  O188  1  0.82472972  0.07177685  0.91090126  1
  O2-  O189  1  0.82460414  0.56656175  0.24299231  1
  O2-  O190  1  0.82603297  0.56695939  0.56968998  1
  O2-  O191  1  0.82474184  0.57099627  0.91278700  1
  O2-  O192  1  0.04575159  0.08744853  0.26723262  1
  O2-  O193  1  0.03953912  0.08950415  0.60411760  1
  O2-  O194  1  0.04508115  0.08281745  0.93423359  1
  O2-  O195  1  0.03760590  0.58390739  0.26138536  1
  O2-  O196  1  0.04245534  0.58204835  0.60568741  1
  O2-  O197  1  0.04228933  0.58862096  0.93366625  1
  O2-  O198  1  0.54344548  0.08148750  0.26494089  1
  O2-  O199  1  0.55107375  0.08431054  0.60631277  1
  O2-  O200  1  0.54258227  0.08603941  0.93430847  1
  O2-  O201  1  0.54050252  0.58168490  0.26144782  1
  O2-  O202  1  0.53840973  0.58255276  0.60158948  1
  O2-  O203  1  0.54611756  0.58592130  0.93453395  1
  O2-  O204  1  0.16497600  0.20468895  0.27106053  1
  O2-  O205  1  0.16005595  0.20881610  0.60491291  1
  O2-  O206  1  0.16329062  0.20474637  0.93269482  1
  O2-  O207  1  0.17024615  0.70116615  0.26275867  1
  O2-  O208  1  0.16712526  0.69315187  0.60632308  1
  O2-  O209  1  0.16307426  0.70531486  0.93399798  1
  O2-  O210  1  0.66828810  0.20787574  0.26187909  1
  O2-  O211  1  0.66955075  0.20278656  0.60544324  1
  O2-  O212  1  0.66627570  0.19960769  0.93598272  1
  O2-  O213  1  0.67311546  0.69896003  0.26591016  1
  O2-  O214  1  0.67064311  0.70282604  0.60062748  1
  O2-  O215  1  0.67044002  0.70124198  0.93986045  1
  O2-  O216  1  0.08798990  0.46134394  0.05912340  1
  O2-  O217  1  0.08307488  0.46371921  0.40098103  1
  O2-  O218  1  0.08681164  0.45683620  0.73366008  1
  O2-  O219  1  0.08658655  0.95528641  0.06184738  1
  O2-  O220  1  0.07943258  0.95988483  0.39733454  1
  O2-  O221  1  0.08241747  0.96420676  0.73741425  1
  O2-  O222  1  0.58714900  0.45817773  0.06159493  1
  O2-  O223  1  0.57976425  0.45721613  0.39724707  1
  O2-  O224  1  0.57734485  0.45776485  0.73576207  1
  O2-  O225  1  0.58271379  0.96212095  0.06591340  1
  O2-  O226  1  0.58706295  0.96128051  0.40361747  1
  O2-  O227  1  0.59003521  0.95795539  0.72942917  1
  O2-  O228  1  0.20211645  0.33530598  0.05821115  1
  O2-  O229  1  0.20311957  0.33313235  0.40215895  1
  O2-  O230  1  0.20387059  0.33605199  0.73188511  1
  O2-  O231  1  0.20447634  0.83328492  0.05866414  1
  O2-  O232  1  0.19610201  0.82449039  0.39563494  1
  O2-  O233  1  0.19678581  0.82491006  0.73283319  1
  O2-  O234  1  0.70570510  0.33512493  0.05863587  1
  O2-  O235  1  0.71168302  0.33347729  0.39857500  1
  O2-  O236  1  0.70639091  0.33074759  0.73864765  1
  O2-  O237  1  0.71041687  0.83341077  0.06748021  1
  O2-  O238  1  0.71262087  0.83029748  0.39939625  1
  O2-  O239  1  0.71014643  0.83818362  0.72812377  1
  O2-  O240  1  0.45183080  0.41943414  0.26628608  1
  O2-  O241  1  0.45300894  0.41679358  0.60068918  1
  O2-  O242  1  0.45780184  0.41911163  0.93312668  1
  O2-  O243  1  0.45876537  0.92067951  0.26871784  1
  O2-  O244  1  0.45109586  0.92584803  0.60598700  1
  O2-  O245  1  0.45877060  0.91896261  0.93248122  1
  O2-  O246  1  0.96143286  0.41586476  0.26605196  1
  O2-  O247  1  0.95732333  0.41363251  0.60801172  1
  O2-  O248  1  0.96368103  0.41624288  0.92756032  1
  O2-  O249  1  0.95195263  0.92431164  0.26306391  1
  O2-  O250  1  0.95752439  0.91919114  0.60178971  1
  O2-  O251  1  0.95405534  0.91432835  0.93990902  1
  O2-  O252  1  0.32681171  0.29183655  0.26804249  1
  O2-  O253  1  0.32980484  0.28863014  0.60255323  1
  O2-  O254  1  0.33156231  0.29008781  0.93231654  1
  O2-  O255  1  0.33264139  0.79248976  0.26751439  1
  O2-  O256  1  0.32860429  0.79242786  0.60301603  1
  O2-  O257  1  0.33449439  0.78732931  0.93063042  1
  O2-  O258  1  0.83550319  0.28827387  0.26542338  1
  O2-  O259  1  0.83558100  0.29317085  0.60861651  1
  O2-  O260  1  0.83255214  0.29182692  0.92760549  1
  O2-  O261  1  0.83386041  0.79032410  0.26039243  1
  O2-  O262  1  0.83543886  0.78925754  0.60026599  1
  O2-  O263  1  0.83776806  0.78968920  0.93961071  1
  O2-  O264  1  0.41235857  0.04653795  0.06109741  1
  O2-  O265  1  0.42195787  0.04815988  0.40190075  1
  O2-  O266  1  0.42299853  0.05112576  0.73937748  1
  O2-  O267  1  0.41487156  0.54794855  0.05989450  1
  O2-  O268  1  0.41612781  0.54846501  0.39584194  1
  O2-  O269  1  0.41046174  0.54115018  0.73254485  1
  O2-  O270  1  0.91737434  0.04928125  0.06283314  1
  O2-  O271  1  0.91752242  0.05476236  0.39285313  1
  O2-  O272  1  0.91342208  0.04442893  0.73224828  1
  O2-  O273  1  0.91608991  0.53976178  0.06278385  1
  O2-  O274  1  0.91374664  0.54000748  0.39613241  1
  O2-  O275  1  0.91803908  0.54113368  0.73981818  1
  O2-  O276  1  0.28743421  0.16202660  0.06264899  1
  O2-  O277  1  0.28848205  0.16619974  0.40333181  1
  O2-  O278  1  0.28350489  0.16639096  0.74030581  1
  O2-  O279  1  0.28860993  0.66153339  0.06214303  1
  O2-  O280  1  0.29340471  0.66391041  0.39737600  1
  O2-  O281  1  0.29117054  0.66014838  0.73310277  1
  O2-  O282  1  0.79847218  0.16874741  0.06019300  1
  O2-  O283  1  0.79177012  0.16497644  0.39685783  1
  O2-  O284  1  0.79462042  0.16267045  0.73365353  1
  O2-  O285  1  0.79791786  0.66094808  0.06652940  1
  O2-  O286  1  0.80371868  0.66653824  0.39199065  1
  O2-  O287  1  0.79253092  0.66965546  0.73742927  1
