# generated using pymatgen
data_Ca2Al2SiO7
_symmetry_space_group_name_H-M   'P 1'
_cell_length_a   15.46268995
_cell_length_b   15.46375129
_cell_length_c   15.28762886
_cell_angle_alpha   89.98725101
_cell_angle_beta   89.99725519
_cell_angle_gamma   89.98619946
_symmetry_Int_Tables_number   1
_chemical_formula_structural   Ca2Al2SiO7
_chemical_formula_sum   'Ca48 Al48 Si24 O168'
_cell_volume   3655.44295108
_cell_formula_units_Z   24
loop_
 _symmetry_equiv_pos_site_id
 _symmetry_equiv_pos_as_xyz
  1  'x, y, z'
loop_
 _atom_type_symbol
 _atom_type_oxidation_number
  Ca2+  2.0
  Al0+  0.0
  Si0+  0.0
  O2-  -2.0
loop_
 _atom_site_type_symbol
 _atom_site_label
 _atom_site_symmetry_multiplicity
 _atom_site_fract_x
 _atom_site_fract_y
 _atom_site_fract_z
 _atom_site_occupancy
  Ca2+  Ca0  1  0.16637755  0.07652497  0.16974608  1
  Ca2+  Ca1  1  0.16962323  0.07942694  0.51252717  1
  Ca2+  Ca2  1  0.16940817  0.07514070  0.83287770  1
  Ca2+  Ca3  1  0.17408069  0.58483465  0.17500874  1
  Ca2+  Ca4  1  0.17559609  0.58498866  0.50805384  1
  Ca2+  Ca5  1  0.17381514  0.57955311  0.83085771  1
  Ca2+  Ca6  1  0.66434850  0.08262380  0.16850179  1
  Ca2+  Ca7  1  0.67145982  0.08204603  0.51210540  1
  Ca2+  Ca8  1  0.66999474  0.09252242  0.83588087  1
  Ca2+  Ca9  1  0.66272238  0.58738085  0.16557679  1
  Ca2+  Ca10  1  0.66947153  0.58834418  0.50764048  1
  Ca2+  Ca11  1  0.67253035  0.58792408  0.84067766  1
  Ca2+  Ca12  1  0.08630686  0.32506121  0.16392647  1
  Ca2+  Ca13  1  0.08729440  0.32744659  0.50303604  1
  Ca2+  Ca14  1  0.07753814  0.33105816  0.81862038  1
  Ca2+  Ca15  1  0.08132572  0.82754924  0.16081105  1
  Ca2+  Ca16  1  0.08594249  0.82979085  0.49809896  1
  Ca2+  Ca17  1  0.08263132  0.83960242  0.83292419  1
  Ca2+  Ca18  1  0.57917260  0.33135554  0.15431871  1
  Ca2+  Ca19  1  0.58576948  0.32688911  0.50300136  1
  Ca2+  Ca20  1  0.58522688  0.32828856  0.83397484  1
  Ca2+  Ca21  1  0.57142447  0.82312652  0.15943990  1
  Ca2+  Ca22  1  0.57078087  0.82149695  0.49784809  1
  Ca2+  Ca23  1  0.57334154  0.82466340  0.82630441  1
  Ca2+  Ca24  1  0.34049434  0.42391533  0.17169778  1
  Ca2+  Ca25  1  0.32795849  0.43089069  0.50891350  1
  Ca2+  Ca26  1  0.33370042  0.41627281  0.83368759  1
  Ca2+  Ca27  1  0.33313072  0.90832055  0.16730947  1
  Ca2+  Ca28  1  0.32947409  0.91621295  0.51196584  1
  Ca2+  Ca29  1  0.32873809  0.91308060  0.83441891  1
  Ca2+  Ca30  1  0.82442926  0.42178731  0.16407079  1
  Ca2+  Ca31  1  0.83343950  0.42169918  0.51108196  1
  Ca2+  Ca32  1  0.82988764  0.42661009  0.83786932  1
  Ca2+  Ca33  1  0.83235910  0.91209294  0.16616216  1
  Ca2+  Ca34  1  0.82992973  0.92361832  0.50955488  1
  Ca2+  Ca35  1  0.83461843  0.92265366  0.83829111  1
  Ca2+  Ca36  1  0.42398203  0.17606724  0.15464714  1
  Ca2+  Ca37  1  0.41719452  0.16222918  0.50277904  1
  Ca2+  Ca38  1  0.42456539  0.16828404  0.82733328  1
  Ca2+  Ca39  1  0.42165736  0.67123293  0.16160393  1
  Ca2+  Ca40  1  0.41307352  0.67261412  0.49484095  1
  Ca2+  Ca41  1  0.42373257  0.67192015  0.82526413  1
  Ca2+  Ca42  1  0.92433621  0.16556957  0.16430338  1
  Ca2+  Ca43  1  0.92766139  0.16758226  0.50354891  1
  Ca2+  Ca44  1  0.92120082  0.17399868  0.81960872  1
  Ca2+  Ca45  1  0.92275301  0.66821902  0.15876351  1
  Ca2+  Ca46  1  0.92367437  0.66317153  0.49795296  1
  Ca2+  Ca47  1  0.90919005  0.66965323  0.82930383  1
  Al0+  Al48  1  0.00204204  -0.00196070  0.00315585  1
  Al0+  Al49  1  -0.00027453  0.00238223  0.33020134  1
  Al0+  Al50  1  -0.00168515  0.00103491  0.67020485  1
  Al0+  Al51  1  0.00169338  0.49930034  0.00607551  1
  Al0+  Al52  1  -0.00211899  0.49788766  0.32775792  1
  Al0+  Al53  1  -0.00226992  0.50144598  0.67041211  1
  Al0+  Al54  1  0.50130785  0.00075062  -0.00555105  1
  Al0+  Al55  1  0.49993892  -0.00040392  0.33091128  1
  Al0+  Al56  1  0.49941821  -0.00153422  0.66190967  1
  Al0+  Al57  1  0.50018041  0.49867457  -0.00393617  1
  Al0+  Al58  1  0.50078896  0.49937783  0.33775220  1
  Al0+  Al59  1  0.50204430  0.49810500  0.66651745  1
  Al0+  Al60  1  0.25115517  0.24784322  -0.00245842  1
  Al0+  Al61  1  0.24913129  0.24866621  0.32844059  1
  Al0+  Al62  1  0.25049625  0.24863469  0.66951884  1
  Al0+  Al63  1  0.24769254  0.74919116  0.00141556  1
  Al0+  Al64  1  0.24730504  0.75043954  0.33016603  1
  Al0+  Al65  1  0.24803640  0.74943560  0.67294667  1
  Al0+  Al66  1  0.75343123  0.25235587  0.00393673  1
  Al0+  Al67  1  0.75141499  0.25090226  0.33410535  1
  Al0+  Al68  1  0.75091274  0.25102506  0.66165786  1
  Al0+  Al69  1  0.75310980  0.75346180  -0.00114314  1
  Al0+  Al70  1  0.74818717  0.75075526  0.33312560  1
  Al0+  Al71  1  0.74874851  0.75151855  0.66518600  1
  Al0+  Al72  1  0.42583467  0.82070779  0.98289974  1
  Al0+  Al73  1  0.57437840  0.17944137  0.98596225  1
  Al0+  Al74  1  0.67905240  0.43035312  0.01519457  1
  Al0+  Al75  1  0.18047703  0.92964920  0.01751936  1
  Al0+  Al76  1  0.81908424  0.57259470  0.67888621  1
  Al0+  Al77  1  0.81902593  0.07161464  0.68001855  1
  Al0+  Al78  1  0.17887341  0.42938893  0.68000058  1
  Al0+  Al79  1  0.31919582  0.57094386  0.34610119  1
  Al0+  Al80  1  0.57162223  0.67919249  0.98439746  1
  Al0+  Al81  1  0.92936883  0.32384438  0.65197959  1
  Al0+  Al82  1  0.57149367  0.67712283  0.31752116  1
  Al0+  Al83  1  0.06933496  0.67796210  0.32127195  1
  Al0+  Al84  1  0.82165740  0.57472717  0.01742571  1
  Al0+  Al85  1  0.57227758  0.67670986  0.65103965  1
  Al0+  Al86  1  0.32419577  0.07113533  0.68186899  1
  Al0+  Al87  1  0.42751359  0.32192829  0.98400901  1
  Al0+  Al88  1  0.42574601  0.81827634  0.65107397  1
  Al0+  Al89  1  0.42724687  0.82187713  0.31759746  1
  Al0+  Al90  1  0.07084439  0.17972799  0.31792860  1
  Al0+  Al91  1  0.57035371  0.17954357  0.65243743  1
  Al0+  Al92  1  0.93139030  0.82040583  0.98614161  1
  Al0+  Al93  1  0.32353620  0.57141234  0.68298047  1
  Al0+  Al94  1  0.17759223  0.92811580  0.68153137  1
  Al0+  Al95  1  0.07234370  0.17784243  0.65346059  1
  Si0+  Si96  1  0.43014240  0.31960361  0.32132972  1
  Si0+  Si97  1  0.32116748  0.07223344  0.34609223  1
  Si0+  Si98  1  0.07158082  0.67518494  0.98183117  1
  Si0+  Si99  1  0.31955776  0.56892046  0.01490419  1
  Si0+  Si100  1  0.57284446  0.17924040  0.31939422  1
  Si0+  Si101  1  0.32370114  0.07192701  0.01799740  1
  Si0+  Si102  1  0.42635186  0.32210674  0.64764395  1
  Si0+  Si103  1  0.67851918  0.42617455  0.68268829  1
  Si0+  Si104  1  0.67865128  0.93050154  0.01516740  1
  Si0+  Si105  1  0.82113731  0.07156939  0.34902144  1
  Si0+  Si106  1  0.07057636  0.17765040  0.98471230  1
  Si0+  Si107  1  0.93245085  0.32127930  0.98632246  1
  Si0+  Si108  1  0.17639612  0.42551897  0.34813297  1
  Si0+  Si109  1  0.92792931  0.82252323  0.65219306  1
  Si0+  Si110  1  0.82220055  0.07166369  0.01679184  1
  Si0+  Si111  1  0.92776296  0.82306310  0.31880687  1
  Si0+  Si112  1  0.92534267  0.32193674  0.31275850  1
  Si0+  Si113  1  0.06888011  0.67938998  0.65437919  1
  Si0+  Si114  1  0.67853441  0.92903233  0.68362717  1
  Si0+  Si115  1  0.17871539  0.42542875  0.01641022  1
  Si0+  Si116  1  0.82114143  0.57128650  0.34794411  1
  Si0+  Si117  1  0.67819628  0.92967082  0.34870696  1
  Si0+  Si118  1  0.17801686  0.93084048  0.34732858  1
  Si0+  Si119  1  0.67944816  0.42749559  0.35050467  1
  O2-  O120  1  0.25831958  0.00117438  0.06499524  1
  O2-  O121  1  0.25194584  -0.00073240  0.38789791  1
  O2-  O122  1  0.25184816  -0.00134024  0.73035888  1
  O2-  O123  1  0.25057781  0.49545985  0.05845075  1
  O2-  O124  1  0.24133617  0.49783922  0.39113402  1
  O2-  O125  1  0.25432720  0.49598450  0.73245626  1
  O2-  O126  1  0.74795931  0.00387506  0.05921355  1
  O2-  O127  1  0.74971647  0.00093948  0.39080091  1
  O2-  O128  1  0.74315430  0.00059822  0.72977413  1
  O2-  O129  1  0.74586410  0.50645965  0.06782904  1
  O2-  O130  1  0.74916370  0.50114959  0.39043087  1
  O2-  O131  1  0.74181204  0.50069936  0.72455911  1
  O2-  O132  1  -0.00316424  0.25487300  0.27000816  1
  O2-  O133  1  0.00342522  0.25304667  0.60295691  1
  O2-  O134  1  0.00438445  0.25256464  0.94312720  1
  O2-  O135  1  -0.00653498  0.75175904  0.27496410  1
  O2-  O136  1  -0.00061787  0.75188357  0.61099576  1
  O2-  O137  1  0.00079091  0.74185539  0.93819334  1
  O2-  O138  1  0.50135841  0.24923552  0.27792295  1
  O2-  O139  1  0.49411581  0.25175266  0.60328097  1
  O2-  O140  1  0.50070616  0.24967427  0.93699452  1
  O2-  O141  1  0.49765332  0.74768895  0.26894304  1
  O2-  O142  1  0.49398141  0.74218643  0.60153799  1
  O2-  O143  1  0.49815422  0.74898166  0.93431857  1
  O2-  O144  1  0.06840050  0.17868090  0.09060124  1
  O2-  O145  1  0.07028591  0.17757158  0.43001216  1
  O2-  O146  1  0.06757808  0.17744189  0.76718032  1
  O2-  O147  1  0.07159740  0.67642013  0.08804614  1
  O2-  O148  1  0.06826798  0.67944701  0.43456993  1
  O2-  O149  1  0.06701159  0.67825952  0.75925803  1
  O2-  O150  1  0.57276462  0.18039119  0.10083253  1
  O2-  O151  1  0.57445623  0.17908965  0.42406999  1
  O2-  O152  1  0.57341760  0.18382142  0.76473366  1
  O2-  O153  1  0.56849115  0.68110797  0.09835996  1
  O2-  O154  1  0.57454407  0.67954637  0.43043847  1
  O2-  O155  1  0.57613466  0.68198063  0.76397397  1
  O2-  O156  1  0.17999070  0.42386071  0.24213557  1
  O2-  O157  1  0.17911243  0.43311731  0.56579012  1
  O2-  O158  1  0.17539734  0.42581472  0.91202130  1
  O2-  O159  1  0.17568607  0.93286159  0.24228872  1
  O2-  O160  1  0.17574897  0.92829200  0.56699694  1
  O2-  O161  1  0.17646353  0.93406208  0.90550457  1
  O2-  O162  1  0.68013690  0.42253117  0.24598798  1
  O2-  O163  1  0.68164525  0.42413486  0.57629430  1
  O2-  O164  1  0.68557596  0.42507589  0.90256187  1
  O2-  O165  1  0.67939923  0.93176991  0.24346489  1
  O2-  O166  1  0.68384865  0.92999860  0.57732196  1
  O2-  O167  1  0.68179239  0.93077739  0.91065767  1
  O2-  O168  1  0.42723334  0.32015928  0.09904783  1
  O2-  O169  1  0.42998941  0.31738248  0.42591328  1
  O2-  O170  1  0.42773338  0.32210993  0.75277827  1
  O2-  O171  1  0.42739821  0.81823053  0.09691414  1
  O2-  O172  1  0.42775959  0.82413859  0.43057737  1
  O2-  O173  1  0.42784736  0.81821898  0.76420588  1
  O2-  O174  1  0.93370840  0.31833957  0.09188060  1
  O2-  O175  1  0.92181476  0.32228359  0.41754140  1
  O2-  O176  1  0.92962569  0.32256397  0.76600899  1
  O2-  O177  1  0.93421530  0.82179772  0.09987231  1
  O2-  O178  1  0.92873015  0.82549302  0.42448314  1
  O2-  O179  1  0.92673680  0.82261171  0.75694498  1
  O2-  O180  1  0.32033473  0.07462670  0.24114973  1
  O2-  O181  1  0.32203920  0.06922774  0.56694506  1
  O2-  O182  1  0.32034203  0.07467878  0.91334093  1
  O2-  O183  1  0.31957612  0.56742654  0.23253503  1
  O2-  O184  1  0.31876639  0.57261363  0.56886615  1
  O2-  O185  1  0.31641971  0.56889222  0.91039562  1
  O2-  O186  1  0.82079249  0.07184788  0.24360792  1
  O2-  O187  1  0.81941569  0.06790510  0.56616873  1
  O2-  O188  1  0.82376340  0.07200191  0.91221911  1
  O2-  O189  1  0.82184577  0.57052633  0.24337126  1
  O2-  O190  1  0.82087377  0.57175821  0.56489931  1
  O2-  O191  1  0.82346307  0.57128631  0.90419188  1
  O2-  O192  1  0.03637119  0.08478997  0.26140625  1
  O2-  O193  1  0.03709988  0.08135100  0.59941756  1
  O2-  O194  1  0.03769046  0.08747881  0.93992558  1
  O2-  O195  1  0.04186475  0.58108245  0.26522430  1
  O2-  O196  1  0.03836774  0.58979276  0.60496984  1
  O2-  O197  1  0.04915937  0.57959469  0.93932679  1
  O2-  O198  1  0.54643168  0.08749494  0.27146883  1
  O2-  O199  1  0.54389617  0.08241895  0.59660296  1
  O2-  O200  1  0.55117297  0.08092751  0.93301906  1
  O2-  O201  1  0.54559142  0.57630270  0.26823960  1
  O2-  O202  1  0.55458673  0.57438244  0.60196845  1
  O2-  O203  1  0.54817956  0.57953397  0.93388712  1
  O2-  O204  1  0.16659440  0.20980944  0.26044110  1
  O2-  O205  1  0.17170042  0.20271497  0.60065112  1
  O2-  O206  1  0.16421919  0.19972697  0.94054708  1
  O2-  O207  1  0.16318164  0.71051979  0.26374989  1
  O2-  O208  1  0.16052741  0.70669023  0.60706416  1
  O2-  O209  1  0.16366795  0.70383780  0.93632441  1
  O2-  O210  1  0.66500211  0.20702574  0.27239336  1
  O2-  O211  1  0.66529981  0.21272722  0.59514141  1
  O2-  O212  1  0.67406650  0.20928536  0.93671881  1
  O2-  O213  1  0.67001698  0.70804918  0.26504982  1
  O2-  O214  1  0.66825121  0.71338834  0.59580004  1
  O2-  O215  1  0.67084360  0.70958095  0.93590338  1
  O2-  O216  1  0.08843237  0.45310220  0.06780200  1
  O2-  O217  1  0.07956891  0.44556936  0.38915725  1
  O2-  O218  1  0.08249395  0.46187583  0.73463945  1
  O2-  O219  1  0.08520867  0.96470824  0.07374330  1
  O2-  O220  1  0.08617144  0.96095975  0.39395007  1
  O2-  O221  1  0.08010000  0.95860357  0.73533777  1
  O2-  O222  1  0.57786827  0.45250929  0.06663523  1
  O2-  O223  1  0.58756194  0.45123204  0.39919577  1
  O2-  O224  1  0.58282559  0.44260051  0.72648382  1
  O2-  O225  1  0.58652766  0.95746817  0.06342571  1
  O2-  O226  1  0.58694410  0.95926181  0.39598968  1
  O2-  O227  1  0.58344208  0.95039950  0.72555087  1
  O2-  O228  1  0.20501557  0.33219282  0.06314502  1
  O2-  O229  1  0.20573378  0.33261413  0.39371358  1
  O2-  O230  1  0.20139571  0.32964747  0.73198151  1
  O2-  O231  1  0.20589160  0.83046555  0.07052780  1
  O2-  O232  1  0.20155558  0.83765974  0.39326973  1
  O2-  O233  1  0.20102557  0.83017535  0.73686482  1
  O2-  O234  1  0.71437919  0.33408591  0.07251721  1
  O2-  O235  1  0.71033813  0.33626983  0.39901955  1
  O2-  O236  1  0.71054743  0.33527544  0.72919816  1
  O2-  O237  1  0.71090509  0.84129572  0.06526720  1
  O2-  O238  1  0.70639399  0.83836755  0.39696345  1
  O2-  O239  1  0.70936179  0.83780661  0.73015794  1
  O2-  O240  1  0.45909999  0.41100541  0.27430668  1
  O2-  O241  1  0.45424682  0.41480427  0.60043537  1
  O2-  O242  1  0.45335346  0.41923684  0.93016843  1
  O2-  O243  1  0.45824132  0.92013500  0.26365598  1
  O2-  O244  1  0.45646411  0.91564262  0.59711077  1
  O2-  O245  1  0.45286220  0.92019393  0.93335306  1
  O2-  O246  1  0.94814696  0.41525092  0.26505325  1
  O2-  O247  1  0.95741577  0.42244397  0.59865808  1
  O2-  O248  1  0.95901321  0.41414604  0.94143087  1
  O2-  O249  1  0.95464642  0.91545806  0.27075356  1
  O2-  O250  1  0.95569091  0.91378957  0.60385459  1
  O2-  O251  1  0.96535465  0.91669567  0.93325161  1
  O2-  O252  1  0.33899127  0.29314208  0.27158289  1
  O2-  O253  1  0.33263343  0.29758271  0.60176074  1
  O2-  O254  1  0.32918805  0.29290718  0.93131635  1
  O2-  O255  1  0.32811793  0.79582260  0.26580799  1
  O2-  O256  1  0.32491316  0.79241083  0.60092150  1
  O2-  O257  1  0.32617442  0.79247764  0.93394971  1
  O2-  O258  1  0.83346828  0.29084179  0.26497841  1
  O2-  O259  1  0.83356407  0.29291875  0.59573639  1
  O2-  O260  1  0.84120830  0.29229082  0.94062778  1
  O2-  O261  1  0.83322707  0.80019582  0.27376232  1
  O2-  O262  1  0.83741438  0.79485982  0.60215931  1
  O2-  O263  1  0.83394405  0.79777792  0.93145165  1
  O2-  O264  1  0.41984111  0.05076143  0.06166733  1
  O2-  O265  1  0.41492466  0.04821481  0.39187995  1
  O2-  O266  1  0.42366900  0.04439922  0.73276848  1
  O2-  O267  1  0.41200379  0.54198219  0.06133025  1
  O2-  O268  1  0.41475408  0.53814986  0.40099511  1
  O2-  O269  1  0.42341507  0.54497733  0.73285496  1
  O2-  O270  1  0.91174630  0.03833826  0.06629422  1
  O2-  O271  1  0.91312523  0.04263335  0.39533218  1
  O2-  O272  1  0.91336758  0.03943561  0.73606461  1
  O2-  O273  1  0.91940096  0.54082577  0.07137421  1
  O2-  O274  1  0.91336947  0.54143954  0.39431996  1
  O2-  O275  1  0.91380645  0.54225588  0.73553171  1
  O2-  O276  1  0.29431202  0.16489047  0.06580910  1
  O2-  O277  1  0.29136049  0.16346506  0.39358562  1
  O2-  O278  1  0.29835229  0.16954483  0.73490319  1
  O2-  O279  1  0.28823619  0.65918368  0.06362048  1
  O2-  O280  1  0.28647531  0.66790718  0.39820183  1
  O2-  O281  1  0.28892962  0.66600985  0.73811548  1
  O2-  O282  1  0.79837151  0.16359996  0.06647441  1
  O2-  O283  1  0.79373280  0.16372238  0.39548818  1
  O2-  O284  1  0.79026362  0.16947635  0.73167194  1
  O2-  O285  1  0.79958530  0.67567977  0.06870726  1
  O2-  O286  1  0.79670474  0.66479999  0.39433166  1
  O2-  O287  1  0.79121605  0.67045654  0.73173071  1
