# generated using pymatgen
data_Ca2Al2SiO7
_symmetry_space_group_name_H-M   'P 1'
_cell_length_a   15.45556046
_cell_length_b   15.45502732
_cell_length_c   15.28136338
_cell_angle_alpha   89.99942835
_cell_angle_beta   90.00100652
_cell_angle_gamma   90.00106132
_symmetry_Int_Tables_number   1
_chemical_formula_structural   Ca2Al2SiO7
_chemical_formula_sum   'Ca48 Al48 Si24 O168'
_cell_volume   3650.19981241
_cell_formula_units_Z   24
loop_
 _symmetry_equiv_pos_site_id
 _symmetry_equiv_pos_as_xyz
  1  'x, y, z'
loop_
 _atom_type_symbol
 _atom_type_oxidation_number
  Ca2+  2.0
  Al0+  0.0
  Si0+  0.0
  O2-  -2.0
loop_
 _atom_site_type_symbol
 _atom_site_label
 _atom_site_symmetry_multiplicity
 _atom_site_fract_x
 _atom_site_fract_y
 _atom_site_fract_z
 _atom_site_occupancy
  Ca2+  Ca0  1  0.16933562  0.08999521  0.17242125  1
  Ca2+  Ca1  1  0.17549142  0.08496111  0.50419384  1
  Ca2+  Ca2  1  0.16860566  0.07978275  0.83541673  1
  Ca2+  Ca3  1  0.16489390  0.56865725  0.17130652  1
  Ca2+  Ca4  1  0.16103315  0.57721836  0.50509919  1
  Ca2+  Ca5  1  0.16535711  0.57877047  0.83840766  1
  Ca2+  Ca6  1  0.67418018  0.08241883  0.16663750  1
  Ca2+  Ca7  1  0.67127068  0.07791557  0.51516102  1
  Ca2+  Ca8  1  0.67641178  0.08620626  0.83373683  1
  Ca2+  Ca9  1  0.66669998  0.58096633  0.16787118  1
  Ca2+  Ca10  1  0.67844773  0.57875322  0.50954246  1
  Ca2+  Ca11  1  0.66017015  0.57827893  0.83588907  1
  Ca2+  Ca12  1  0.08639729  0.32637027  0.16507942  1
  Ca2+  Ca13  1  0.07651827  0.32810403  0.48762468  1
  Ca2+  Ca14  1  0.08555033  0.32800647  0.83320513  1
  Ca2+  Ca15  1  0.07039442  0.83515550  0.16110103  1
  Ca2+  Ca16  1  0.08066984  0.82996464  0.49844877  1
  Ca2+  Ca17  1  0.07848274  0.83165826  0.82575011  1
  Ca2+  Ca18  1  0.57176211  0.33875972  0.15963448  1
  Ca2+  Ca19  1  0.58193711  0.32871312  0.49955206  1
  Ca2+  Ca20  1  0.58349448  0.33461181  0.82692925  1
  Ca2+  Ca21  1  0.57651727  0.82536597  0.15594390  1
  Ca2+  Ca22  1  0.59459527  0.82843259  0.50170332  1
  Ca2+  Ca23  1  0.58506673  0.82590366  0.82776072  1
  Ca2+  Ca24  1  0.32532791  0.40502838  0.16970644  1
  Ca2+  Ca25  1  0.32836402  0.41063859  0.49708001  1
  Ca2+  Ca26  1  0.33037358  0.41678513  0.84271333  1
  Ca2+  Ca27  1  0.33334601  0.92219514  0.17359092  1
  Ca2+  Ca28  1  0.32727697  0.92965613  0.51051033  1
  Ca2+  Ca29  1  0.33234820  0.91834653  0.83446583  1
  Ca2+  Ca30  1  0.82870788  0.42170521  0.17390398  1
  Ca2+  Ca31  1  0.83437519  0.42425402  0.50718208  1
  Ca2+  Ca32  1  0.81987193  0.42196568  0.83595479  1
  Ca2+  Ca33  1  0.84027224  0.91753590  0.16704877  1
  Ca2+  Ca34  1  0.83218617  0.92275895  0.50734586  1
  Ca2+  Ca35  1  0.83241925  0.92396521  0.83605318  1
  Ca2+  Ca36  1  0.41202228  0.17529444  0.16484423  1
  Ca2+  Ca37  1  0.41863483  0.16449039  0.49667062  1
  Ca2+  Ca38  1  0.42079589  0.17343464  0.82626834  1
  Ca2+  Ca39  1  0.42242157  0.67237846  0.15516833  1
  Ca2+  Ca40  1  0.42503839  0.66682231  0.50032597  1
  Ca2+  Ca41  1  0.42762683  0.66954446  0.83085627  1
  Ca2+  Ca42  1  0.92882709  0.16806373  0.15970357  1
  Ca2+  Ca43  1  0.92009807  0.17156026  0.49193625  1
  Ca2+  Ca44  1  0.91680585  0.16121860  0.83097124  1
  Ca2+  Ca45  1  0.90938369  0.67615029  0.16523157  1
  Ca2+  Ca46  1  0.91466604  0.66785288  0.49612225  1
  Ca2+  Ca47  1  0.91902006  0.66931272  0.82604629  1
  Al0+  Al48  1  0.00147651  0.00037894  -0.00429320  1
  Al0+  Al49  1  0.00049480  -0.00213937  0.32709496  1
  Al0+  Al50  1  0.00230554  0.00037896  0.67070594  1
  Al0+  Al51  1  -0.00118714  0.49851106  0.00621120  1
  Al0+  Al52  1  -0.00073490  0.49995087  0.33726291  1
  Al0+  Al53  1  -0.00030426  0.50041656  0.66811967  1
  Al0+  Al54  1  0.50066220  0.00136384  -0.00150486  1
  Al0+  Al55  1  0.50082096  -0.00127252  0.33729914  1
  Al0+  Al56  1  0.49948001  0.00213120  0.67116753  1
  Al0+  Al57  1  0.49873106  0.50068369  -0.00282636  1
  Al0+  Al58  1  0.49954258  0.49868679  0.33041751  1
  Al0+  Al59  1  0.49743789  0.50160315  0.66226805  1
  Al0+  Al60  1  0.24964328  0.24925766  -0.00598057  1
  Al0+  Al61  1  0.25171344  0.24923194  0.33663555  1
  Al0+  Al62  1  0.24920118  0.25015181  0.66934719  1
  Al0+  Al63  1  0.24936808  0.75078414  -0.00106256  1
  Al0+  Al64  1  0.25093040  0.74844115  0.33304557  1
  Al0+  Al65  1  0.24874055  0.74872735  0.66446238  1
  Al0+  Al66  1  0.75104692  0.25106627  0.01214791  1
  Al0+  Al67  1  0.74927860  0.24913328  0.32956481  1
  Al0+  Al68  1  0.74868847  0.25191734  0.66849964  1
  Al0+  Al69  1  0.75021495  0.75097268  -0.00860143  1
  Al0+  Al70  1  0.75049319  0.74846520  0.33193380  1
  Al0+  Al71  1  0.75127908  0.75114500  0.66852118  1
  Al0+  Al72  1  0.42978301  0.31874728  0.98553863  1
  Al0+  Al73  1  0.06997858  0.18118596  0.98350556  1
  Al0+  Al74  1  0.93034309  0.82090512  0.98322192  1
  Al0+  Al75  1  0.82218908  0.07322201  0.67969675  1
  Al0+  Al76  1  0.82297685  0.57149441  0.68279512  1
  Al0+  Al77  1  0.18078478  0.42981766  0.34814622  1
  Al0+  Al78  1  0.92635388  0.32391474  0.31792101  1
  Al0+  Al79  1  0.67698565  0.43083648  0.67975231  1
  Al0+  Al80  1  0.07045755  0.17981559  0.31956368  1
  Al0+  Al81  1  0.67692084  0.43028065  0.01574573  1
  Al0+  Al82  1  0.32054361  0.06956841  0.34675267  1
  Al0+  Al83  1  0.32108567  0.07329918  0.68496415  1
  Al0+  Al84  1  0.57004214  0.67958603  0.98384978  1
  Al0+  Al85  1  0.18011592  0.92734132  0.68186043  1
  Al0+  Al86  1  0.57105573  0.18010785  0.65455674  1
  Al0+  Al87  1  0.43189266  0.31848591  0.32020576  1
  Al0+  Al88  1  0.17943220  0.42771403  0.01386723  1
  Al0+  Al89  1  0.67854611  0.92806822  0.68235389  1
  Al0+  Al90  1  0.81848793  0.57060486  0.34684294  1
  Al0+  Al91  1  0.57192985  0.67972571  0.65008013  1
  Al0+  Al92  1  0.82285779  0.06946792  0.01659152  1
  Al0+  Al93  1  0.07091759  0.67770820  0.65283254  1
  Al0+  Al94  1  0.42618993  0.82483327  0.98464469  1
  Al0+  Al95  1  0.92963061  0.81853500  0.32032277  1
  Si0+  Si96  1  0.57311536  0.17342221  0.31590524  1
  Si0+  Si97  1  0.92577100  0.32331922  0.98368376  1
  Si0+  Si98  1  0.67999271  0.92917232  0.34662479  1
  Si0+  Si99  1  0.67832111  0.92723251  0.01696085  1
  Si0+  Si100  1  0.17941091  0.92827916  0.01610780  1
  Si0+  Si101  1  0.42528858  0.32256232  0.64832281  1
  Si0+  Si102  1  0.92959288  0.32050954  0.65426675  1
  Si0+  Si103  1  0.17863290  0.42941837  0.68174187  1
  Si0+  Si104  1  0.67515653  0.42668094  0.34995838  1
  Si0+  Si105  1  0.32079027  0.57261428  0.01599812  1
  Si0+  Si106  1  0.92968337  0.82340594  0.64954952  1
  Si0+  Si107  1  0.82258646  0.07031280  0.34616256  1
  Si0+  Si108  1  0.42860778  0.82193723  0.32111562  1
  Si0+  Si109  1  0.57559547  0.17883798  0.98491916  1
  Si0+  Si110  1  0.32121632  0.07060015  0.01493639  1
  Si0+  Si111  1  0.82156296  0.57364265  0.01698958  1
  Si0+  Si112  1  0.32404066  0.57416701  0.35057519  1
  Si0+  Si113  1  0.07168950  0.17873344  0.65127818  1
  Si0+  Si114  1  0.07086084  0.67546937  0.98577171  1
  Si0+  Si115  1  0.07451350  0.67635999  0.31616343  1
  Si0+  Si116  1  0.17643871  0.92532445  0.34847173  1
  Si0+  Si117  1  0.57021387  0.68007721  0.31893904  1
  Si0+  Si118  1  0.32068786  0.57107499  0.68091120  1
  Si0+  Si119  1  0.42768360  0.82240990  0.64874257  1
  O2-  O120  1  0.25422957  -0.00426796  0.05794092  1
  O2-  O121  1  0.24582855  -0.00635259  0.39154691  1
  O2-  O122  1  0.25136080  -0.00125000  0.73419062  1
  O2-  O123  1  0.25247987  0.50416073  0.06102776  1
  O2-  O124  1  0.25290327  0.50789114  0.39478662  1
  O2-  O125  1  0.25053217  0.49943935  0.72342224  1
  O2-  O126  1  0.74759452  -0.00568931  0.06338457  1
  O2-  O127  1  0.74850308  0.00280832  0.38839674  1
  O2-  O128  1  0.75047012  0.00112003  0.73034059  1
  O2-  O129  1  0.75211837  0.50550209  0.06114221  1
  O2-  O130  1  0.74887700  0.49043433  0.39284421  1
  O2-  O131  1  0.74516482  0.50548375  0.73161821  1
  O2-  O132  1  -0.00232245  0.25071398  0.26845432  1
  O2-  O133  1  -0.00159436  0.24758626  0.61070417  1
  O2-  O134  1  -0.00648437  0.25473419  0.93731741  1
  O2-  O135  1  0.00637500  0.74575061  0.27246568  1
  O2-  O136  1  -0.00337366  0.75259716  0.60568185  1
  O2-  O137  1  0.00317076  0.74329473  0.93945348  1
  O2-  O138  1  0.50775074  0.24547346  0.27218124  1
  O2-  O139  1  0.49468163  0.25318713  0.60676472  1
  O2-  O140  1  0.50805177  0.24803505  0.93998086  1
  O2-  O141  1  0.49587070  0.74819783  0.27785507  1
  O2-  O142  1  0.50036783  0.75821453  0.60262154  1
  O2-  O143  1  0.49952540  0.75430475  0.93547569  1
  O2-  O144  1  0.07235868  0.18173432  0.09657901  1
  O2-  O145  1  0.06834582  0.17976410  0.43367240  1
  O2-  O146  1  0.07357221  0.18093874  0.75630709  1
  O2-  O147  1  0.07087410  0.67693027  0.09155647  1
  O2-  O148  1  0.07553576  0.67839245  0.42167105  1
  O2-  O149  1  0.07022087  0.67626505  0.76604074  1
  O2-  O150  1  0.57237723  0.17718782  0.09095471  1
  O2-  O151  1  0.57284384  0.17120020  0.42136305  1
  O2-  O152  1  0.57168793  0.18445021  0.76755039  1
  O2-  O153  1  0.56836087  0.68113753  0.09871679  1
  O2-  O154  1  0.57127286  0.68162389  0.42390458  1
  O2-  O155  1  0.56661138  0.67723879  0.76232475  1
  O2-  O156  1  0.18388037  0.42904145  0.23509765  1
  O2-  O157  1  0.17898390  0.42881180  0.57655114  1
  O2-  O158  1  0.18102134  0.43000395  0.90031028  1
  O2-  O159  1  0.17839370  0.92374131  0.24256410  1
  O2-  O160  1  0.18047423  0.92916462  0.56769578  1
  O2-  O161  1  0.17904843  0.92830480  0.91142622  1
  O2-  O162  1  0.67168127  0.43156923  0.24437943  1
  O2-  O163  1  0.67984595  0.42963251  0.56585829  1
  O2-  O164  1  0.67737333  0.43028876  0.90292039  1
  O2-  O165  1  0.67829570  0.92881434  0.24149668  1
  O2-  O166  1  0.68249836  0.92920133  0.56742515  1
  O2-  O167  1  0.67802300  0.92856916  0.91212628  1
  O2-  O168  1  0.42788762  0.31551685  0.09887855  1
  O2-  O169  1  0.43280862  0.31826024  0.43318621  1
  O2-  O170  1  0.42301064  0.32341802  0.75387211  1
  O2-  O171  1  0.42743886  0.82326283  0.09951199  1
  O2-  O172  1  0.42958066  0.82255052  0.42578047  1
  O2-  O173  1  0.42585522  0.81743923  0.75401211  1
  O2-  O174  1  0.92785772  0.32246880  0.08918781  1
  O2-  O175  1  0.92758001  0.32115837  0.43236359  1
  O2-  O176  1  0.93252953  0.32137123  0.75930586  1
  O2-  O177  1  0.93125954  0.81967534  0.09696714  1
  O2-  O178  1  0.92873331  0.81948094  0.43303631  1
  O2-  O179  1  0.93256358  0.82404143  0.75501584  1
  O2-  O180  1  0.32110645  0.06730517  0.23315043  1
  O2-  O181  1  0.31792337  0.07460262  0.57090087  1
  O2-  O182  1  0.31878987  0.07124354  0.91040339  1
  O2-  O183  1  0.32455330  0.57722552  0.24523948  1
  O2-  O184  1  0.32099428  0.57037442  0.57554532  1
  O2-  O185  1  0.31900981  0.57205734  0.91022357  1
  O2-  O186  1  0.82246843  0.06716098  0.24109765  1
  O2-  O187  1  0.82279307  0.07240206  0.56520098  1
  O2-  O188  1  0.82104469  0.06905742  0.90389165  1
  O2-  O189  1  0.81211825  0.57508560  0.23373516  1
  O2-  O190  1  0.82381937  0.56769437  0.56881333  1
  O2-  O191  1  0.82454515  0.57130187  0.91191953  1
  O2-  O192  1  0.04519211  0.08099429  0.26549915  1
  O2-  O193  1  0.04750147  0.08567401  0.60510777  1
  O2-  O194  1  0.04060130  0.08462957  0.92978438  1
  O2-  O195  1  0.04812105  0.58280627  0.27179239  1
  O2-  O196  1  0.03972873  0.58092628  0.59823596  1
  O2-  O197  1  0.04608129  0.58091464  0.94100714  1
  O2-  O198  1  0.54459887  0.08049865  0.26918026  1
  O2-  O199  1  0.54229334  0.08226560  0.60062393  1
  O2-  O200  1  0.55084992  0.08520884  0.93930916  1
  O2-  O201  1  0.54417020  0.58778265  0.27188312  1
  O2-  O202  1  0.53584707  0.58514832  0.59387176  1
  O2-  O203  1  0.53712374  0.58338778  0.93008135  1
  O2-  O204  1  0.16902975  0.21002380  0.26844924  1
  O2-  O205  1  0.16261924  0.21038272  0.60396254  1
  O2-  O206  1  0.16433927  0.21416483  0.92700648  1
  O2-  O207  1  0.16923837  0.69903766  0.26978465  1
  O2-  O208  1  0.16760279  0.70590450  0.59653015  1
  O2-  O209  1  0.16510232  0.69977706  0.94060421  1
  O2-  O210  1  0.66763165  0.19481559  0.27001049  1
  O2-  O211  1  0.66701914  0.21187863  0.59804425  1
  O2-  O212  1  0.67064274  0.20451012  0.94323831  1
  O2-  O213  1  0.65934513  0.71203612  0.26960394  1
  O2-  O214  1  0.67007238  0.70944875  0.59738461  1
  O2-  O215  1  0.66822146  0.70433113  0.93027986  1
  O2-  O216  1  0.08266396  0.45586114  0.06961069  1
  O2-  O217  1  0.08373879  0.45818816  0.40271195  1
  O2-  O218  1  0.08829369  0.45836598  0.73026360  1
  O2-  O219  1  0.08915615  0.96052904  0.06351022  1
  O2-  O220  1  0.08248705  0.95072470  0.39338920  1
  O2-  O221  1  0.08302737  0.95654574  0.73616045  1
  O2-  O222  1  0.57987278  0.46326823  0.06887636  1
  O2-  O223  1  0.58316609  0.45649975  0.39699289  1
  O2-  O224  1  0.57602751  0.45626582  0.72912075  1
  O2-  O225  1  0.58442968  0.95400854  0.06403046  1
  O2-  O226  1  0.58832879  0.95304608  0.39633592  1
  O2-  O227  1  0.57943310  0.95262249  0.73374923  1
  O2-  O228  1  0.21461499  0.33136115  0.06575302  1
  O2-  O229  1  0.21504778  0.33530399  0.40394117  1
  O2-  O230  1  0.20548801  0.33792491  0.72967087  1
  O2-  O231  1  0.20270283  0.83508815  0.06419444  1
  O2-  O232  1  0.20132204  0.83104840  0.39415896  1
  O2-  O233  1  0.20668791  0.82778788  0.73358604  1
  O2-  O234  1  0.70524356  0.33503778  0.07369797  1
  O2-  O235  1  0.69462524  0.32942186  0.39126447  1
  O2-  O236  1  0.70813968  0.33473228  0.73462338  1
  O2-  O237  1  0.70357128  0.83244945  0.06147708  1
  O2-  O238  1  0.71087172  0.83821747  0.39361954  1
  O2-  O239  1  0.70634153  0.83037608  0.73545070  1
  O2-  O240  1  0.45824055  0.41636968  0.26476400  1
  O2-  O241  1  0.44878096  0.41599867  0.60108553  1
  O2-  O242  1  0.45471214  0.41719619  0.93342115  1
  O2-  O243  1  0.45957944  0.91222935  0.27221424  1
  O2-  O244  1  0.44802836  0.91880013  0.60695472  1
  O2-  O245  1  0.45189322  0.92416929  0.93316535  1
  O2-  O246  1  0.95415776  0.42315440  0.26695750  1
  O2-  O247  1  0.96118732  0.41075483  0.60584762  1
  O2-  O248  1  0.95187823  0.41747704  0.93915557  1
  O2-  O249  1  0.95963467  0.91371668  0.26259649  1
  O2-  O250  1  0.95853978  0.91669032  0.60327079  1
  O2-  O251  1  0.96539264  0.91530420  0.92934920  1
  O2-  O252  1  0.33610750  0.28448935  0.26704336  1
  O2-  O253  1  0.33156345  0.29460899  0.60261100  1
  O2-  O254  1  0.33575797  0.28561939  0.92883031  1
  O2-  O255  1  0.33568158  0.79810701  0.27303096  1
  O2-  O256  1  0.33619360  0.79138823  0.60082691  1
  O2-  O257  1  0.32771348  0.79583314  0.93217239  1
  O2-  O258  1  0.82656237  0.29919950  0.26571676  1
  O2-  O259  1  0.83755696  0.29581208  0.60635674  1
  O2-  O260  1  0.83087756  0.29723491  0.94132872  1
  O2-  O261  1  0.83389736  0.78582123  0.26430675  1
  O2-  O262  1  0.83528459  0.80062746  0.60438029  1
  O2-  O263  1  0.83345120  0.79539402  0.92898282  1
  O2-  O264  1  0.41493514  0.04846583  0.06218322  1
  O2-  O265  1  0.41702946  0.03801148  0.40174215  1
  O2-  O266  1  0.41992235  0.04925807  0.73718048  1
  O2-  O267  1  0.41417436  0.54765999  0.06197564  1
  O2-  O268  1  0.41680214  0.54448186  0.39672677  1
  O2-  O269  1  0.41171728  0.54315387  0.72898905  1
  O2-  O270  1  0.92005991  0.03597212  0.06838451  1
  O2-  O271  1  0.91377941  0.03947264  0.39286170  1
  O2-  O272  1  0.92041813  0.04606057  0.73289401  1
  O2-  O273  1  0.91425429  0.54854010  0.06606970  1
  O2-  O274  1  0.91708088  0.54714760  0.40004036  1
  O2-  O275  1  0.91907699  0.53783017  0.73749370  1
  O2-  O276  1  0.28754636  0.16098027  0.06150617  1
  O2-  O277  1  0.28996551  0.16432221  0.40318949  1
  O2-  O278  1  0.28942032  0.17097596  0.73787620  1
  O2-  O279  1  0.29635851  0.66692045  0.06278095  1
  O2-  O280  1  0.30225401  0.66873725  0.39767231  1
  O2-  O281  1  0.29240647  0.66201584  0.72852189  1
  O2-  O282  1  0.79366458  0.16503460  0.07381776  1
  O2-  O283  1  0.79878491  0.16432055  0.39121497  1
  O2-  O284  1  0.79317217  0.17045367  0.73394665  1
  O2-  O285  1  0.79484137  0.66861630  0.06023451  1
  O2-  O286  1  0.78315393  0.66565375  0.40214974  1
  O2-  O287  1  0.80254963  0.67241989  0.73112403  1
