# generated using pymatgen
data_Ca2Al2SiO7
_symmetry_space_group_name_H-M   'P 1'
_cell_length_a   15.46490851
_cell_length_b   15.46622263
_cell_length_c   15.29087846
_cell_angle_alpha   89.99990546
_cell_angle_beta   89.99633063
_cell_angle_gamma   89.99690164
_symmetry_Int_Tables_number   1
_chemical_formula_structural   Ca2Al2SiO7
_chemical_formula_sum   'Ca48 Al48 Si24 O168'
_cell_volume   3657.32914911
_cell_formula_units_Z   24
loop_
 _symmetry_equiv_pos_site_id
 _symmetry_equiv_pos_as_xyz
  1  'x, y, z'
loop_
 _atom_type_symbol
 _atom_type_oxidation_number
  Ca2+  2.0
  Al0+  0.0
  Si0+  0.0
  O2-  -2.0
loop_
 _atom_site_type_symbol
 _atom_site_label
 _atom_site_symmetry_multiplicity
 _atom_site_fract_x
 _atom_site_fract_y
 _atom_site_fract_z
 _atom_site_occupancy
  Ca2+  Ca0  1  0.16876813  0.09029587  0.17448929  1
  Ca2+  Ca1  1  0.17003435  0.08884951  0.49671705  1
  Ca2+  Ca2  1  0.16301549  0.08137666  0.84148591  1
  Ca2+  Ca3  1  0.16693675  0.57725162  0.17083169  1
  Ca2+  Ca4  1  0.16361129  0.58421179  0.49679397  1
  Ca2+  Ca5  1  0.17397232  0.57992522  0.84729207  1
  Ca2+  Ca6  1  0.66549840  0.07768831  0.17110393  1
  Ca2+  Ca7  1  0.66810928  0.07097333  0.50302325  1
  Ca2+  Ca8  1  0.66140477  0.07686358  0.83774925  1
  Ca2+  Ca9  1  0.67414722  0.57570439  0.16721286  1
  Ca2+  Ca10  1  0.68034259  0.57930988  0.49949254  1
  Ca2+  Ca11  1  0.67726375  0.58090128  0.84481386  1
  Ca2+  Ca12  1  0.08864593  0.32892227  0.15947656  1
  Ca2+  Ca13  1  0.07987453  0.33245340  0.49331527  1
  Ca2+  Ca14  1  0.06963837  0.34697879  0.83803130  1
  Ca2+  Ca15  1  0.07240189  0.82051811  0.16150767  1
  Ca2+  Ca16  1  0.07193027  0.82431502  0.48561029  1
  Ca2+  Ca17  1  0.07699606  0.82609207  0.83732384  1
  Ca2+  Ca18  1  0.57987223  0.33733552  0.15444954  1
  Ca2+  Ca19  1  0.58320827  0.33538187  0.49261229  1
  Ca2+  Ca20  1  0.58327997  0.33554659  0.83699675  1
  Ca2+  Ca21  1  0.58425943  0.82513309  0.16182750  1
  Ca2+  Ca22  1  0.58288221  0.83784832  0.49737565  1
  Ca2+  Ca23  1  0.58103483  0.82559717  0.82999392  1
  Ca2+  Ca24  1  0.32676042  0.42426373  0.16801725  1
  Ca2+  Ca25  1  0.32542567  0.42344736  0.49506592  1
  Ca2+  Ca26  1  0.32700576  0.41943967  0.84793873  1
  Ca2+  Ca27  1  0.33091578  0.92640289  0.17306693  1
  Ca2+  Ca28  1  0.33459629  0.92167322  0.50439942  1
  Ca2+  Ca29  1  0.33593164  0.91569747  0.83560877  1
  Ca2+  Ca30  1  0.83058318  0.42352022  0.16965574  1
  Ca2+  Ca31  1  0.83993142  0.42733370  0.50318053  1
  Ca2+  Ca32  1  0.83351216  0.42261051  0.84315742  1
  Ca2+  Ca33  1  0.83238852  0.91186246  0.17230951  1
  Ca2+  Ca34  1  0.82191798  0.90756503  0.50119353  1
  Ca2+  Ca35  1  0.82970951  0.91497397  0.83994346  1
  Ca2+  Ca36  1  0.42147869  0.17392009  0.15912830  1
  Ca2+  Ca37  1  0.41705168  0.16704907  0.49314192  1
  Ca2+  Ca38  1  0.42094366  0.17440750  0.83888063  1
  Ca2+  Ca39  1  0.42184188  0.65641279  0.15921700  1
  Ca2+  Ca40  1  0.41482058  0.67311899  0.49335304  1
  Ca2+  Ca41  1  0.42592264  0.66157839  0.83226836  1
  Ca2+  Ca42  1  0.92776375  0.17508807  0.15786579  1
  Ca2+  Ca43  1  0.92056275  0.17515565  0.49317307  1
  Ca2+  Ca44  1  0.91927810  0.18215358  0.83437996  1
  Ca2+  Ca45  1  0.91579010  0.66943698  0.16134283  1
  Ca2+  Ca46  1  0.91590072  0.66669314  0.49027339  1
  Ca2+  Ca47  1  0.91770930  0.65844146  0.83559802  1
  Al0+  Al48  1  -0.00158317  -0.00140618  -0.00663912  1
  Al0+  Al49  1  -0.00018241  0.00170303  0.32731705  1
  Al0+  Al50  1  0.00138646  -0.00054610  0.66588437  1
  Al0+  Al51  1  0.00170049  0.50075492  0.00183743  1
  Al0+  Al52  1  0.00004924  0.49922125  0.33695573  1
  Al0+  Al53  1  0.00117300  0.49938015  0.66536330  1
  Al0+  Al54  1  0.49947249  0.00042684  -0.00225575  1
  Al0+  Al55  1  0.49957391  0.00093758  0.34048442  1
  Al0+  Al56  1  0.49955185  -0.00011179  0.66842345  1
  Al0+  Al57  1  0.50054651  0.50047111  -0.00527921  1
  Al0+  Al58  1  0.49824001  0.50118115  0.34204708  1
  Al0+  Al59  1  0.50109787  0.49951484  0.66202696  1
  Al0+  Al60  1  0.25319539  0.24803210  -0.00479093  1
  Al0+  Al61  1  0.25237385  0.25152458  0.33924998  1
  Al0+  Al62  1  0.25161616  0.24959376  0.66808267  1
  Al0+  Al63  1  0.24856363  0.75380600  0.00169048  1
  Al0+  Al64  1  0.24891790  0.75287334  0.33219039  1
  Al0+  Al65  1  0.25133464  0.75126473  0.66301063  1
  Al0+  Al66  1  0.75071223  0.24534488  -0.00458643  1
  Al0+  Al67  1  0.74857887  0.24668414  0.33610011  1
  Al0+  Al68  1  0.75070697  0.24964640  0.65964725  1
  Al0+  Al69  1  0.74664958  0.75044860  -0.00428811  1
  Al0+  Al70  1  0.74586186  0.74949097  0.33785097  1
  Al0+  Al71  1  0.75001609  0.74885042  0.67542360  1
  Al0+  Al72  1  0.56892757  0.67859905  0.98752168  1
  Al0+  Al73  1  0.93055546  0.32118549  0.65082504  1
  Al0+  Al74  1  0.07235232  0.18235212  0.32084765  1
  Al0+  Al75  1  0.43104063  0.32215762  0.98606317  1
  Al0+  Al76  1  0.17882969  0.42896181  0.34877427  1
  Al0+  Al77  1  0.92918842  0.32236756  0.98798488  1
  Al0+  Al78  1  0.57280740  0.17626994  0.98566874  1
  Al0+  Al79  1  0.92655062  0.81918127  0.98334782  1
  Al0+  Al80  1  0.07214386  0.67810058  0.98504787  1
  Al0+  Al81  1  0.67768038  0.42580686  0.34776679  1
  Al0+  Al82  1  0.67989925  0.42563425  0.01155152  1
  Al0+  Al83  1  0.07349428  0.17840896  0.98501438  1
  Al0+  Al84  1  0.17955787  0.42781023  0.01403192  1
  Al0+  Al85  1  0.92451953  0.81963613  0.31969087  1
  Al0+  Al86  1  0.82156798  0.57214770  0.01585562  1
  Al0+  Al87  1  0.68004374  0.92953725  0.34563025  1
  Al0+  Al88  1  0.82032432  0.56961665  0.34735964  1
  Al0+  Al89  1  0.07176282  0.67662076  0.31735109  1
  Al0+  Al90  1  0.32229064  0.57435454  0.01232575  1
  Al0+  Al91  1  0.67937985  0.93073758  0.68382857  1
  Al0+  Al92  1  0.43063111  0.81973643  0.65201127  1
  Al0+  Al93  1  0.32000242  0.07066138  0.34713628  1
  Al0+  Al94  1  0.82151898  0.56838477  0.68257383  1
  Al0+  Al95  1  0.32064605  0.57484619  0.34920934  1
  Si0+  Si96  1  0.92576380  0.32169151  0.31703669  1
  Si0+  Si97  1  0.42758879  0.32141677  0.64846351  1
  Si0+  Si98  1  0.32142317  0.57280987  0.68049062  1
  Si0+  Si99  1  0.92833667  0.82194127  0.65219694  1
  Si0+  Si100  1  0.82463910  0.07186142  0.34963318  1
  Si0+  Si101  1  0.17933637  0.92792516  0.68169827  1
  Si0+  Si102  1  0.82338761  0.07318699  0.68330872  1
  Si0+  Si103  1  0.57413463  0.67773099  0.64709655  1
  Si0+  Si104  1  0.82238373  0.06905548  0.01436233  1
  Si0+  Si105  1  0.67749883  0.93014060  0.01510445  1
  Si0+  Si106  1  0.17635250  0.92977957  0.34971802  1
  Si0+  Si107  1  0.32131261  0.06881818  0.01436607  1
  Si0+  Si108  1  0.32044176  0.07130492  0.68477807  1
  Si0+  Si109  1  0.42868903  0.82453937  0.31879683  1
  Si0+  Si110  1  0.07350461  0.17607621  0.64907308  1
  Si0+  Si111  1  0.17562633  0.93029291  0.01617344  1
  Si0+  Si112  1  0.67664531  0.42578502  0.68286909  1
  Si0+  Si113  1  0.07109892  0.68045290  0.65194363  1
  Si0+  Si114  1  0.43185907  0.32168859  0.32019941  1
  Si0+  Si115  1  0.42740614  0.82441197  0.98593627  1
  Si0+  Si116  1  0.56708566  0.67930531  0.31991874  1
  Si0+  Si117  1  0.56934033  0.17892687  0.64937898  1
  Si0+  Si118  1  0.18195869  0.42945363  0.68207570  1
  Si0+  Si119  1  0.57033538  0.17707281  0.32042177  1
  O2-  O120  1  0.24602270  0.00296842  0.05705846  1
  O2-  O121  1  0.24519693  -0.00268921  0.39626051  1
  O2-  O122  1  0.24792987  0.00116460  0.72550873  1
  O2-  O123  1  0.24854419  0.50407554  0.06179208  1
  O2-  O124  1  0.24451725  0.50721514  0.39956625  1
  O2-  O125  1  0.25438744  0.49922137  0.72337282  1
  O2-  O126  1  0.75043756  -0.00128382  0.05696757  1
  O2-  O127  1  0.75856767  -0.00000122  0.39319856  1
  O2-  O128  1  0.75572502  0.00432363  0.72957820  1
  O2-  O129  1  0.75297648  0.49519601  0.06287872  1
  O2-  O130  1  0.75382591  0.49254328  0.39864654  1
  O2-  O131  1  0.74532004  0.49381514  0.72650807  1
  O2-  O132  1  -0.00221067  0.25609354  0.27394207  1
  O2-  O133  1  0.00403029  0.24383285  0.60568980  1
  O2-  O134  1  0.00543466  0.25437537  0.93624186  1
  O2-  O135  1  -0.00446433  0.74642471  0.27067662  1
  O2-  O136  1  -0.00167364  0.75017667  0.61042971  1
  O2-  O137  1  -0.00413332  0.74480410  0.93274573  1
  O2-  O138  1  0.50732112  0.25477755  0.27887304  1
  O2-  O139  1  0.50139494  0.25278456  0.60634498  1
  O2-  O140  1  0.50622619  0.25302877  0.93545810  1
  O2-  O141  1  0.49372906  0.74863776  0.27700744  1
  O2-  O142  1  0.50451608  0.74587239  0.60262336  1
  O2-  O143  1  0.48969634  0.75007847  0.94246328  1
  O2-  O144  1  0.07216024  0.17752071  0.09864834  1
  O2-  O145  1  0.07071636  0.18314753  0.43454672  1
  O2-  O146  1  0.07420012  0.17371496  0.75392135  1
  O2-  O147  1  0.07516230  0.68250474  0.09761220  1
  O2-  O148  1  0.07148974  0.68194570  0.43221861  1
  O2-  O149  1  0.07364802  0.68166955  0.75660537  1
  O2-  O150  1  0.56670245  0.16866139  0.09901384  1
  O2-  O151  1  0.56656300  0.17466755  0.42590644  1
  O2-  O152  1  0.56731710  0.17802266  0.75405405  1
  O2-  O153  1  0.57043756  0.68162754  0.10092848  1
  O2-  O154  1  0.56674119  0.68211240  0.42521851  1
  O2-  O155  1  0.57139963  0.67735404  0.75253379  1
  O2-  O156  1  0.18477669  0.42340304  0.23632983  1
  O2-  O157  1  0.18279868  0.42912027  0.57713352  1
  O2-  O158  1  0.18209976  0.42936006  0.89941265  1
  O2-  O159  1  0.17921007  0.93137704  0.24441585  1
  O2-  O160  1  0.18052429  0.92840805  0.57685517  1
  O2-  O161  1  0.17767253  0.93002719  0.91039174  1
  O2-  O162  1  0.67520888  0.42699267  0.23483125  1
  O2-  O163  1  0.67548381  0.42731515  0.57731496  1
  O2-  O164  1  0.68104665  0.42880385  0.89751123  1
  O2-  O165  1  0.67587942  0.93210358  0.23272515  1
  O2-  O166  1  0.67913625  0.93236801  0.57054667  1
  O2-  O167  1  0.67577740  0.93249407  0.90992383  1
  O2-  O168  1  0.42982513  0.31878743  0.09985711  1
  O2-  O169  1  0.43201044  0.31850173  0.42609134  1
  O2-  O170  1  0.42525532  0.32049338  0.75293442  1
  O2-  O171  1  0.43208348  0.83173072  0.09126018  1
  O2-  O172  1  0.43171558  0.82640156  0.42413701  1
  O2-  O173  1  0.42987335  0.81794024  0.76491828  1
  O2-  O174  1  0.92606289  0.31741068  0.10107761  1
  O2-  O175  1  0.92620655  0.31801633  0.42320028  1
  O2-  O176  1  0.93165069  0.32216720  0.76337271  1
  O2-  O177  1  0.92789814  0.82203975  0.09653125  1
  O2-  O178  1  0.92554974  0.81881540  0.43433143  1
  O2-  O179  1  0.93106843  0.82510928  0.75665114  1
  O2-  O180  1  0.32235250  0.06945278  0.23424312  1
  O2-  O181  1  0.32067852  0.07201936  0.57965055  1
  O2-  O182  1  0.32372175  0.06478965  0.90899698  1
  O2-  O183  1  0.32658003  0.57004504  0.23681752  1
  O2-  O184  1  0.31868839  0.57369134  0.57563389  1
  O2-  O185  1  0.32159993  0.57267846  0.89763271  1
  O2-  O186  1  0.82190210  0.07460956  0.24431696  1
  O2-  O187  1  0.82187351  0.07146066  0.57754911  1
  O2-  O188  1  0.82238722  0.06688319  0.90911023  1
  O2-  O189  1  0.81657696  0.57227052  0.23466857  1
  O2-  O190  1  0.82173648  0.56918350  0.56952854  1
  O2-  O191  1  0.81859074  0.57106546  0.90194398  1
  O2-  O192  1  0.04582709  0.08517318  0.26640488  1
  O2-  O193  1  0.05055199  0.08154097  0.60236251  1
  O2-  O194  1  0.04015814  0.08231792  0.92989342  1
  O2-  O195  1  0.04950301  0.57537219  0.26963842  1
  O2-  O196  1  0.04467523  0.58833173  0.60508194  1
  O2-  O197  1  0.05011173  0.57855989  0.93224735  1
  O2-  O198  1  0.53501488  0.08788787  0.27289965  1
  O2-  O199  1  0.53636086  0.08844470  0.60218633  1
  O2-  O200  1  0.53470652  0.08189637  0.92844628  1
  O2-  O201  1  0.53935309  0.58670961  0.27490569  1
  O2-  O202  1  0.54995262  0.58347803  0.60114700  1
  O2-  O203  1  0.54133525  0.58446351  0.92761853  1
  O2-  O204  1  0.17098537  0.21189456  0.27030182  1
  O2-  O205  1  0.16804546  0.20370076  0.60487764  1
  O2-  O206  1  0.17393898  0.19678133  0.93285778  1
  O2-  O207  1  0.16981861  0.70868594  0.26583945  1
  O2-  O208  1  0.16180184  0.71053458  0.60345292  1
  O2-  O209  1  0.16891289  0.71455719  0.93058147  1
  O2-  O210  1  0.66524857  0.19420119  0.27540369  1
  O2-  O211  1  0.66223609  0.20111341  0.60128083  1
  O2-  O212  1  0.67177653  0.19434697  0.93062325  1
  O2-  O213  1  0.65711967  0.71091070  0.27285813  1
  O2-  O214  1  0.66795088  0.70714378  0.60412413  1
  O2-  O215  1  0.66098276  0.71506291  0.92885606  1
  O2-  O216  1  0.08058060  0.45003449  0.06652789  1
  O2-  O217  1  0.07922770  0.45022217  0.40274305  1
  O2-  O218  1  0.09061459  0.45977314  0.72765533  1
  O2-  O219  1  0.08330685  0.95746910  0.06137924  1
  O2-  O220  1  0.08268905  0.95642979  0.39560809  1
  O2-  O221  1  0.08678552  0.95361619  0.72915555  1
  O2-  O222  1  0.58134509  0.45661860  0.06161056  1
  O2-  O223  1  0.58213833  0.45858701  0.40471212  1
  O2-  O224  1  0.58115344  0.45033982  0.72653693  1
  O2-  O225  1  0.58638233  0.96064801  0.06256220  1
  O2-  O226  1  0.58663407  0.96555239  0.40367415  1
  O2-  O227  1  0.58284875  0.96410088  0.73662056  1
  O2-  O228  1  0.21229200  0.32863987  0.06312449  1
  O2-  O229  1  0.21615097  0.33521198  0.40728466  1
  O2-  O230  1  0.20902137  0.33689838  0.72815002  1
  O2-  O231  1  0.20488020  0.84063356  0.06584679  1
  O2-  O232  1  0.20181961  0.83688778  0.39695169  1
  O2-  O233  1  0.21124869  0.83748960  0.72965985  1
  O2-  O234  1  0.69991701  0.32325528  0.06012557  1
  O2-  O235  1  0.69804652  0.32429240  0.39949066  1
  O2-  O236  1  0.70022665  0.32989135  0.72437692  1
  O2-  O237  1  0.70274346  0.83766136  0.06098554  1
  O2-  O238  1  0.70545209  0.83385066  0.40418815  1
  O2-  O239  1  0.70729649  0.83389309  0.73771547  1
  O2-  O240  1  0.45569771  0.41535797  0.27607798  1
  O2-  O241  1  0.45256896  0.41410974  0.60064489  1
  O2-  O242  1  0.45576080  0.41883669  0.92835211  1
  O2-  O243  1  0.46225370  0.91489692  0.27193048  1
  O2-  O244  1  0.46038829  0.91806195  0.59977259  1
  O2-  O245  1  0.45985912  0.91358069  0.93438621  1
  O2-  O246  1  0.94634747  0.41719958  0.27561509  1
  O2-  O247  1  0.96644100  0.41603003  0.59589542  1
  O2-  O248  1  0.95587565  0.42059240  0.93363433  1
  O2-  O249  1  0.95215486  0.91876205  0.26805470  1
  O2-  O250  1  0.95617221  0.91356200  0.60368475  1
  O2-  O251  1  0.95926328  0.91536894  0.92742066  1
  O2-  O252  1  0.34215114  0.28772762  0.27456041  1
  O2-  O253  1  0.33707186  0.28868775  0.60079945  1
  O2-  O254  1  0.33686612  0.28653801  0.92810980  1
  O2-  O255  1  0.33435735  0.80609299  0.27361051  1
  O2-  O256  1  0.33380899  0.79100906  0.59607296  1
  O2-  O257  1  0.33135264  0.80824557  0.94205730  1
  O2-  O258  1  0.83264005  0.29171998  0.27284977  1
  O2-  O259  1  0.83367959  0.29242701  0.59531495  1
  O2-  O260  1  0.83412188  0.28799770  0.93116896  1
  O2-  O261  1  0.82432503  0.79415096  0.26930420  1
  O2-  O262  1  0.83472230  0.79397408  0.60895247  1
  O2-  O263  1  0.82712661  0.79663217  0.93055517  1
  O2-  O264  1  0.41103781  0.03584610  0.06323513  1
  O2-  O265  1  0.41394821  0.03748610  0.40577723  1
  O2-  O266  1  0.41112878  0.04091467  0.73199231  1
  O2-  O267  1  0.42032461  0.54351662  0.06303259  1
  O2-  O268  1  0.41533117  0.54189776  0.40810677  1
  O2-  O269  1  0.41623981  0.54720699  0.72292391  1
  O2-  O270  1  0.91364264  0.03940703  0.06167962  1
  O2-  O271  1  0.91930444  0.05038852  0.39525603  1
  O2-  O272  1  0.91819539  0.04852571  0.72720003  1
  O2-  O273  1  0.92161944  0.54989153  0.06596994  1
  O2-  O274  1  0.91944337  0.54662944  0.40175905  1
  O2-  O275  1  0.91941514  0.53715024  0.73392219  1
  O2-  O276  1  0.29956669  0.16209049  0.06025780  1
  O2-  O277  1  0.29061863  0.16545327  0.40542908  1
  O2-  O278  1  0.29412997  0.16352292  0.73219433  1
  O2-  O279  1  0.30101581  0.67544122  0.06303490  1
  O2-  O280  1  0.29700978  0.67600569  0.40033169  1
  O2-  O281  1  0.29249112  0.66446172  0.72704984  1
  O2-  O282  1  0.79544108  0.16003361  0.06256074  1
  O2-  O283  1  0.79477749  0.16254404  0.39997962  1
  O2-  O284  1  0.79607242  0.16740988  0.72673311  1
  O2-  O285  1  0.78611053  0.67021766  0.06520400  1
  O2-  O286  1  0.78467016  0.66514365  0.40305773  1
  O2-  O287  1  0.79264351  0.66483680  0.73713467  1
