# generated using pymatgen
data_Ca2Al2SiO7
_symmetry_space_group_name_H-M   'P 1'
_cell_length_a   15.46520083
_cell_length_b   15.46818584
_cell_length_c   15.28812215
_cell_angle_alpha   89.97022931
_cell_angle_beta   89.99928544
_cell_angle_gamma   90.03118688
_symmetry_Int_Tables_number   1
_chemical_formula_structural   Ca2Al2SiO7
_chemical_formula_sum   'Ca48 Al48 Si24 O168'
_cell_volume   3657.20215012
_cell_formula_units_Z   24
loop_
 _symmetry_equiv_pos_site_id
 _symmetry_equiv_pos_as_xyz
  1  'x, y, z'
loop_
 _atom_type_symbol
 _atom_type_oxidation_number
  Ca2+  2.0
  Al0+  0.0
  Si0+  0.0
  O2-  -2.0
loop_
 _atom_site_type_symbol
 _atom_site_label
 _atom_site_symmetry_multiplicity
 _atom_site_fract_x
 _atom_site_fract_y
 _atom_site_fract_z
 _atom_site_occupancy
  Ca2+  Ca0  1  0.16903265  0.07044822  0.17901734  1
  Ca2+  Ca1  1  0.16278669  0.07908322  0.50165428  1
  Ca2+  Ca2  1  0.16348628  0.07444082  0.84031322  1
  Ca2+  Ca3  1  0.17328194  0.59229916  0.17202363  1
  Ca2+  Ca4  1  0.17350469  0.59568294  0.50104861  1
  Ca2+  Ca5  1  0.17343316  0.59542591  0.83688186  1
  Ca2+  Ca6  1  0.67245333  0.08567871  0.17592114  1
  Ca2+  Ca7  1  0.67336201  0.08291693  0.49887119  1
  Ca2+  Ca8  1  0.67719339  0.08626084  0.83852431  1
  Ca2+  Ca9  1  0.67960915  0.57961436  0.17842174  1
  Ca2+  Ca10  1  0.67251384  0.57214792  0.50765791  1
  Ca2+  Ca11  1  0.67668074  0.58004740  0.83757626  1
  Ca2+  Ca12  1  0.08446386  0.32501911  0.16711500  1
  Ca2+  Ca13  1  0.08290246  0.32024742  0.49290031  1
  Ca2+  Ca14  1  0.08057861  0.32421639  0.82486630  1
  Ca2+  Ca15  1  0.08844003  0.82805379  0.16603908  1
  Ca2+  Ca16  1  0.08203598  0.82446296  0.49286468  1
  Ca2+  Ca17  1  0.08416554  0.82513349  0.83159520  1
  Ca2+  Ca18  1  0.59221390  0.32369936  0.16684783  1
  Ca2+  Ca19  1  0.59039680  0.33197348  0.49232219  1
  Ca2+  Ca20  1  0.58840708  0.33120667  0.83166907  1
  Ca2+  Ca21  1  0.57625982  0.84262401  0.16828538  1
  Ca2+  Ca22  1  0.57218497  0.83890507  0.49167909  1
  Ca2+  Ca23  1  0.57340822  0.82988023  0.82580222  1
  Ca2+  Ca24  1  0.33423009  0.42934979  0.17170350  1
  Ca2+  Ca25  1  0.33513451  0.43107003  0.50344370  1
  Ca2+  Ca26  1  0.33034019  0.42996058  0.83666074  1
  Ca2+  Ca27  1  0.32304487  0.91680228  0.17646425  1
  Ca2+  Ca28  1  0.33283241  0.91593345  0.49596556  1
  Ca2+  Ca29  1  0.32679688  0.91320320  0.83671519  1
  Ca2+  Ca30  1  0.83128204  0.42608441  0.17257364  1
  Ca2+  Ca31  1  0.82549776  0.42313762  0.50004119  1
  Ca2+  Ca32  1  0.83341291  0.42577620  0.83180893  1
  Ca2+  Ca33  1  0.82692971  0.92805280  0.17550406  1
  Ca2+  Ca34  1  0.83254903  0.92522024  0.49862403  1
  Ca2+  Ca35  1  0.83892169  0.92862849  0.83662667  1
  Ca2+  Ca36  1  0.42906263  0.15793568  0.16675412  1
  Ca2+  Ca37  1  0.42251624  0.16956482  0.48583539  1
  Ca2+  Ca38  1  0.42518660  0.16799434  0.82950142  1
  Ca2+  Ca39  1  0.41137576  0.66950860  0.16697910  1
  Ca2+  Ca40  1  0.41023775  0.67580047  0.49376319  1
  Ca2+  Ca41  1  0.40994928  0.67082462  0.82507191  1
  Ca2+  Ca42  1  0.91553126  0.16126631  0.16562848  1
  Ca2+  Ca43  1  0.92222837  0.15929099  0.49406629  1
  Ca2+  Ca44  1  0.91794137  0.16360171  0.82536406  1
  Ca2+  Ca45  1  0.92532237  0.66090653  0.16034058  1
  Ca2+  Ca46  1  0.92498288  0.65598703  0.49322091  1
  Ca2+  Ca47  1  0.92571844  0.65870800  0.82733035  1
  Al0+  Al48  1  -0.00053505  -0.00253142  0.00827946  1
  Al0+  Al49  1  0.00082208  -0.00323446  0.33541752  1
  Al0+  Al50  1  0.00070181  -0.00261623  0.66739994  1
  Al0+  Al51  1  0.00177853  0.49716355  -0.00231028  1
  Al0+  Al52  1  0.00198998  0.49704943  0.33036112  1
  Al0+  Al53  1  0.00083213  0.49592451  0.66326870  1
  Al0+  Al54  1  0.49985797  0.00057474  -0.00971326  1
  Al0+  Al55  1  0.49854337  0.00097290  0.33035558  1
  Al0+  Al56  1  0.49917889  0.00093352  0.66375910  1
  Al0+  Al57  1  0.49951467  0.49942132  0.00327471  1
  Al0+  Al58  1  0.49907258  0.50161038  0.33988545  1
  Al0+  Al59  1  0.49867259  0.49985680  0.67650695  1
  Al0+  Al60  1  0.25218053  0.25090786  -0.00240735  1
  Al0+  Al61  1  0.25064869  0.25092934  0.32841096  1
  Al0+  Al62  1  0.25255000  0.24955336  0.66357642  1
  Al0+  Al63  1  0.24902851  0.75056381  0.00364238  1
  Al0+  Al64  1  0.24934022  0.75156379  0.33250450  1
  Al0+  Al65  1  0.24854835  0.75240597  0.66254966  1
  Al0+  Al66  1  0.75137167  0.25016401  -0.00270980  1
  Al0+  Al67  1  0.75155454  0.25200018  0.33549469  1
  Al0+  Al68  1  0.75074341  0.24964029  0.67365567  1
  Al0+  Al69  1  0.74944015  0.75214867  0.00188660  1
  Al0+  Al70  1  0.75085451  0.75182559  0.34114380  1
  Al0+  Al71  1  0.74923676  0.75099528  0.67052314  1
  Al0+  Al72  1  0.43050193  0.81984428  0.31752510  1
  Al0+  Al73  1  0.42945742  0.82063475  0.65164488  1
  Al0+  Al74  1  0.82399695  0.57234639  0.68175927  1
  Al0+  Al75  1  0.57095777  0.18177378  0.32103502  1
  Al0+  Al76  1  0.67600426  0.92896261  0.34791164  1
  Al0+  Al77  1  0.82068844  0.06711019  0.68066882  1
  Al0+  Al78  1  0.67912338  0.43061430  0.34659316  1
  Al0+  Al79  1  0.82251003  0.57170281  0.01321796  1
  Al0+  Al80  1  0.17942772  0.92883279  0.35175820  1
  Al0+  Al81  1  0.06828833  0.67919835  0.31827839  1
  Al0+  Al82  1  0.07133823  0.17702896  0.65421877  1
  Al0+  Al83  1  0.81940554  0.07112718  0.01415992  1
  Al0+  Al84  1  0.31582633  0.57243917  0.68028912  1
  Al0+  Al85  1  0.31846605  0.57105344  0.34760402  1
  Al0+  Al86  1  0.06964194  0.67981501  0.98604275  1
  Al0+  Al87  1  0.07155906  0.17613320  0.31812388  1
  Al0+  Al88  1  0.31951933  0.57050656  0.01449146  1
  Al0+  Al89  1  0.57105477  0.18045902  0.98401217  1
  Al0+  Al90  1  0.18074713  0.93023982  0.01362521  1
  Al0+  Al91  1  0.06792976  0.67876187  0.65274301  1
  Al0+  Al92  1  0.82119067  0.07161951  0.34834480  1
  Al0+  Al93  1  0.82507472  0.57258978  0.34712528  1
  Al0+  Al94  1  0.32086816  0.07262639  0.34672258  1
  Al0+  Al95  1  0.67831344  0.42893669  0.68486005  1
  Si0+  Si96  1  0.32320500  0.07353748  0.68229364  1
  Si0+  Si97  1  0.92935335  0.31992749  0.31464690  1
  Si0+  Si98  1  0.17773129  0.42409775  0.01649295  1
  Si0+  Si99  1  0.92611232  0.82289392  0.98384289  1
  Si0+  Si100  1  0.18086612  0.93115071  0.68277623  1
  Si0+  Si101  1  0.92613606  0.82273104  0.65097147  1
  Si0+  Si102  1  0.93038102  0.31974691  0.98303286  1
  Si0+  Si103  1  0.57295893  0.67713553  0.98656862  1
  Si0+  Si104  1  0.17926830  0.42357856  0.68211883  1
  Si0+  Si105  1  0.57311718  0.67687271  0.31891905  1
  Si0+  Si106  1  0.67891133  0.42882576  0.01716718  1
  Si0+  Si107  1  0.67340745  0.92912733  0.68467688  1
  Si0+  Si108  1  0.57227077  0.67657281  0.65215780  1
  Si0+  Si109  1  0.57173837  0.18137354  0.65111862  1
  Si0+  Si110  1  0.42724014  0.32504882  0.98084436  1
  Si0+  Si111  1  0.42976488  0.32241948  0.65175584  1
  Si0+  Si112  1  0.42725036  0.32615060  0.31607878  1
  Si0+  Si113  1  0.32381263  0.07370208  0.01380608  1
  Si0+  Si114  1  0.92708969  0.31959827  0.64838095  1
  Si0+  Si115  1  0.92519152  0.82237617  0.31599669  1
  Si0+  Si116  1  0.42923071  0.81825981  0.98456709  1
  Si0+  Si117  1  0.17780285  0.42591876  0.34954043  1
  Si0+  Si118  1  0.07109238  0.17633317  0.98677772  1
  Si0+  Si119  1  0.67430227  0.92873836  0.01443719  1
  O2-  O120  1  0.25208881  0.00914050  0.05760610  1
  O2-  O121  1  0.24738391  0.00518018  0.40112448  1
  O2-  O122  1  0.25068712  0.00406539  0.72488004  1
  O2-  O123  1  0.24509920  0.49462754  0.05930446  1
  O2-  O124  1  0.24455699  0.49578619  0.39433141  1
  O2-  O125  1  0.24031324  0.49857825  0.72771607  1
  O2-  O126  1  0.74260762  -0.00223747  0.05773993  1
  O2-  O127  1  0.74877571  -0.00002038  0.39790599  1
  O2-  O128  1  0.74615440  -0.00691715  0.72952357  1
  O2-  O129  1  0.74400209  0.50117109  0.05994913  1
  O2-  O130  1  0.74739936  0.50624068  0.39575528  1
  O2-  O131  1  0.74907866  0.50351479  0.73279309  1
  O2-  O132  1  -0.00456973  0.24857402  0.26975469  1
  O2-  O133  1  -0.00352802  0.25050659  0.60612052  1
  O2-  O134  1  0.00117883  0.24695401  0.94224111  1
  O2-  O135  1  -0.01091600  0.74912994  0.27157605  1
  O2-  O136  1  -0.01471470  0.74545975  0.60769842  1
  O2-  O137  1  -0.00943380  0.75020159  0.93901591  1
  O2-  O138  1  0.49587210  0.25644870  0.27310731  1
  O2-  O139  1  0.50277746  0.25407199  0.60913857  1
  O2-  O140  1  0.49559182  0.25515967  0.93726246  1
  O2-  O141  1  0.50758087  0.74703715  0.27106771  1
  O2-  O142  1  0.50605384  0.74687819  0.60691865  1
  O2-  O143  1  0.50037698  0.74683988  0.94322790  1
  O2-  O144  1  0.07077886  0.17815204  0.09137893  1
  O2-  O145  1  0.07078633  0.17915117  0.43140645  1
  O2-  O146  1  0.07022680  0.17755997  0.76835501  1
  O2-  O147  1  0.07090196  0.68197377  0.09865710  1
  O2-  O148  1  0.06861725  0.68111427  0.43157215  1
  O2-  O149  1  0.07110661  0.68351662  0.76622537  1
  O2-  O150  1  0.57079672  0.18040918  0.09674889  1
  O2-  O151  1  0.57064856  0.18383968  0.43444532  1
  O2-  O152  1  0.56926276  0.18108109  0.75658823  1
  O2-  O153  1  0.57375991  0.67771286  0.09126469  1
  O2-  O154  1  0.56875562  0.67559119  0.42432316  1
  O2-  O155  1  0.56991683  0.67893663  0.75854376  1
  O2-  O156  1  0.17919282  0.42563887  0.24362826  1
  O2-  O157  1  0.18471657  0.41812967  0.57724212  1
  O2-  O158  1  0.17908016  0.41948996  0.91089154  1
  O2-  O159  1  0.18206401  0.92819805  0.23793447  1
  O2-  O160  1  0.18034239  0.93125837  0.57836385  1
  O2-  O161  1  0.18240410  0.93024188  0.89960144  1
  O2-  O162  1  0.68157397  0.43002813  0.23261692  1
  O2-  O163  1  0.67855311  0.42804838  0.57177376  1
  O2-  O164  1  0.68002770  0.42936841  0.91161746  1
  O2-  O165  1  0.67671304  0.93200481  0.23371936  1
  O2-  O166  1  0.66961381  0.93336086  0.57985355  1
  O2-  O167  1  0.67300175  0.92900105  0.90867568  1
  O2-  O168  1  0.42546738  0.32731883  0.08576260  1
  O2-  O169  1  0.42708269  0.32600466  0.42196568  1
  O2-  O170  1  0.42763008  0.31904904  0.75695505  1
  O2-  O171  1  0.42993570  0.81999752  0.08915905  1
  O2-  O172  1  0.42997461  0.81817907  0.43056545  1
  O2-  O173  1  0.42848177  0.81931200  0.76581212  1
  O2-  O174  1  0.93034691  0.32044716  0.08783566  1
  O2-  O175  1  0.93131615  0.32092075  0.42003436  1
  O2-  O176  1  0.92918465  0.31888417  0.75468576  1
  O2-  O177  1  0.92599206  0.82441554  0.08881157  1
  O2-  O178  1  0.92807212  0.82502618  0.42163746  1
  O2-  O179  1  0.93207403  0.82843098  0.75666047  1
  O2-  O180  1  0.32076139  0.06902115  0.23261363  1
  O2-  O181  1  0.32471005  0.07509875  0.57793232  1
  O2-  O182  1  0.32314708  0.07241037  0.90749148  1
  O2-  O183  1  0.31810239  0.57012292  0.23423680  1
  O2-  O184  1  0.31580716  0.57212164  0.56772063  1
  O2-  O185  1  0.31731573  0.57190923  0.90112071  1
  O2-  O186  1  0.81885052  0.07110116  0.23451580  1
  O2-  O187  1  0.82053458  0.06685056  0.56849137  1
  O2-  O188  1  0.82101670  0.06971851  0.90067208  1
  O2-  O189  1  0.82484775  0.56864195  0.23290992  1
  O2-  O190  1  0.82298063  0.56829179  0.56887755  1
  O2-  O191  1  0.82211786  0.56854606  0.90029415  1
  O2-  O192  1  0.04250410  0.07834518  0.26616847  1
  O2-  O193  1  0.04079082  0.08027637  0.60158591  1
  O2-  O194  1  0.04229001  0.08377619  0.94119011  1
  O2-  O195  1  0.04504650  0.57986812  0.26523107  1
  O2-  O196  1  0.04838447  0.57823927  0.60125919  1
  O2-  O197  1  0.04579231  0.58028174  0.93340919  1
  O2-  O198  1  0.53923095  0.08659571  0.26483859  1
  O2-  O199  1  0.54215308  0.08999572  0.60514917  1
  O2-  O200  1  0.54014624  0.08500703  0.92577914  1
  O2-  O201  1  0.54443792  0.58416458  0.27191944  1
  O2-  O202  1  0.54441165  0.58219975  0.60994224  1
  O2-  O203  1  0.54677034  0.58429907  0.94022004  1
  O2-  O204  1  0.16709535  0.20947897  0.26218618  1
  O2-  O205  1  0.16869752  0.20709025  0.60134488  1
  O2-  O206  1  0.16433622  0.20219926  0.93960922  1
  O2-  O207  1  0.16369972  0.71538726  0.26519033  1
  O2-  O208  1  0.16121726  0.71826750  0.59851009  1
  O2-  O209  1  0.16550883  0.71700018  0.93294043  1
  O2-  O210  1  0.66769092  0.21377457  0.26690573  1
  O2-  O211  1  0.66508693  0.20757544  0.60714081  1
  O2-  O212  1  0.66749737  0.21263997  0.92938700  1
  O2-  O213  1  0.66925585  0.69944095  0.27635996  1
  O2-  O214  1  0.66788711  0.69778332  0.60856281  1
  O2-  O215  1  0.66362644  0.70681777  0.93685333  1
  O2-  O216  1  0.08369268  0.44695885  0.06146284  1
  O2-  O217  1  0.08380404  0.44809536  0.39480984  1
  O2-  O218  1  0.08263234  0.44102375  0.72424000  1
  O2-  O219  1  0.08467695  0.95663610  0.06931675  1
  O2-  O220  1  0.08021948  0.95253517  0.40364868  1
  O2-  O221  1  0.08954467  0.95776284  0.73191820  1
  O2-  O222  1  0.58350291  0.44781393  0.06135195  1
  O2-  O223  1  0.58046132  0.45379892  0.40113079  1
  O2-  O224  1  0.57991769  0.45405760  0.74049967  1
  O2-  O225  1  0.57995332  0.95550266  0.05816368  1
  O2-  O226  1  0.57868812  0.95985654  0.39997089  1
  O2-  O227  1  0.58160662  0.95959704  0.73311672  1
  O2-  O228  1  0.20512992  0.33106512  0.06402735  1
  O2-  O229  1  0.20409952  0.33271229  0.39530361  1
  O2-  O230  1  0.21152590  0.33301324  0.73233936  1
  O2-  O231  1  0.21576692  0.83667929  0.06891003  1
  O2-  O232  1  0.21358900  0.83276704  0.40437198  1
  O2-  O233  1  0.21274963  0.84087281  0.73057201  1
  O2-  O234  1  0.71024330  0.33644184  0.06141599  1
  O2-  O235  1  0.71184394  0.33494129  0.40165788  1
  O2-  O236  1  0.70951938  0.33183091  0.73956703  1
  O2-  O237  1  0.69718011  0.83525616  0.06122904  1
  O2-  O238  1  0.69991156  0.83092865  0.40377043  1
  O2-  O239  1  0.69253077  0.83323131  0.72883724  1
  O2-  O240  1  0.45417821  0.41989135  0.27054567  1
  O2-  O241  1  0.45482720  0.41647502  0.60787132  1
  O2-  O242  1  0.45471323  0.41825688  0.93358002  1
  O2-  O243  1  0.45936844  0.91632750  0.26198770  1
  O2-  O244  1  0.45849450  0.91839772  0.59889390  1
  O2-  O245  1  0.45523646  0.90960891  0.93383587  1
  O2-  O246  1  0.95924609  0.41107977  0.26512376  1
  O2-  O247  1  0.95223448  0.41202546  0.60055723  1
  O2-  O248  1  0.96064576  0.40941728  0.93241280  1
  O2-  O249  1  0.95616710  0.91356790  0.26774744  1
  O2-  O250  1  0.96173483  0.91152620  0.60158935  1
  O2-  O251  1  0.95911141  0.91505908  0.93705078  1
  O2-  O252  1  0.33405822  0.30343837  0.26789195  1
  O2-  O253  1  0.33972743  0.29328791  0.60217279  1
  O2-  O254  1  0.33378651  0.29955824  0.93249235  1
  O2-  O255  1  0.33509589  0.78573693  0.26333986  1
  O2-  O256  1  0.33394912  0.78928296  0.59755787  1
  O2-  O257  1  0.33801532  0.78835483  0.93716110  1
  O2-  O258  1  0.83556724  0.29661911  0.26815703  1
  O2-  O259  1  0.83304338  0.29249127  0.60524542  1
  O2-  O260  1  0.83932024  0.29240994  0.93411167  1
  O2-  O261  1  0.82857801  0.80439280  0.27242658  1
  O2-  O262  1  0.82796834  0.80945284  0.61032537  1
  O2-  O263  1  0.83039703  0.80477990  0.93798155  1
  O2-  O264  1  0.41719073  0.04363163  0.05673386  1
  O2-  O265  1  0.41799695  0.04250619  0.39985635  1
  O2-  O266  1  0.41397704  0.04282658  0.73098652  1
  O2-  O267  1  0.41693818  0.54142786  0.06801063  1
  O2-  O268  1  0.41427953  0.54232241  0.40352633  1
  O2-  O269  1  0.41148432  0.54184021  0.73649869  1
  O2-  O270  1  0.91456917  0.03990778  0.06931631  1
  O2-  O271  1  0.91869495  0.04055474  0.40032441  1
  O2-  O272  1  0.91744792  0.03525117  0.73562902  1
  O2-  O273  1  0.91866891  0.53592655  0.06455924  1
  O2-  O274  1  0.92116484  0.53573794  0.39881959  1
  O2-  O275  1  0.92205124  0.53762615  0.73380767  1
  O2-  O276  1  0.30515453  0.16954659  0.05696394  1
  O2-  O277  1  0.29926516  0.17432589  0.39549236  1
  O2-  O278  1  0.29800433  0.16583995  0.73038416  1
  O2-  O279  1  0.28785270  0.66593622  0.06867894  1
  O2-  O280  1  0.28533405  0.66651973  0.40038716  1
  O2-  O281  1  0.28411100  0.66964408  0.73349288  1
  O2-  O282  1  0.79077347  0.16900525  0.06561350  1
  O2-  O283  1  0.79528936  0.17009945  0.40053337  1
  O2-  O284  1  0.79102501  0.16336946  0.73588285  1
  O2-  O285  1  0.79577527  0.67039816  0.06458721  1
  O2-  O286  1  0.80698816  0.67290348  0.39829729  1
  O2-  O287  1  0.80126880  0.67313978  0.73392965  1
