# generated using pymatgen
data_Ca2Al2SiO7
_symmetry_space_group_name_H-M   'P 1'
_cell_length_a   15.45587249
_cell_length_b   15.45460780
_cell_length_c   15.28136211
_cell_angle_alpha   90.00102470
_cell_angle_beta   89.98801826
_cell_angle_gamma   89.99132768
_symmetry_Int_Tables_number   1
_chemical_formula_structural   Ca2Al2SiO7
_chemical_formula_sum   'Ca48 Al48 Si24 O168'
_cell_volume   3650.17399579
_cell_formula_units_Z   24
loop_
 _symmetry_equiv_pos_site_id
 _symmetry_equiv_pos_as_xyz
  1  'x, y, z'
loop_
 _atom_type_symbol
 _atom_type_oxidation_number
  Ca2+  2.0
  Al0+  0.0
  Si0+  0.0
  O2-  -2.0
loop_
 _atom_site_type_symbol
 _atom_site_label
 _atom_site_symmetry_multiplicity
 _atom_site_fract_x
 _atom_site_fract_y
 _atom_site_fract_z
 _atom_site_occupancy
  Ca2+  Ca0  1  0.16513482  0.08367352  0.17168867  1
  Ca2+  Ca1  1  0.15780319  0.07110670  0.50142768  1
  Ca2+  Ca2  1  0.16987349  0.08115078  0.84043851  1
  Ca2+  Ca3  1  0.16312623  0.57576575  0.17498900  1
  Ca2+  Ca4  1  0.16446948  0.57625397  0.50362895  1
  Ca2+  Ca5  1  0.17397724  0.58056180  0.83242920  1
  Ca2+  Ca6  1  0.68312763  0.08584784  0.16968145  1
  Ca2+  Ca7  1  0.67056823  0.08954384  0.50114397  1
  Ca2+  Ca8  1  0.66925273  0.08701384  0.83968936  1
  Ca2+  Ca9  1  0.67543611  0.57967330  0.17004230  1
  Ca2+  Ca10  1  0.67665127  0.58718273  0.50281581  1
  Ca2+  Ca11  1  0.67683582  0.57463064  0.84216453  1
  Ca2+  Ca12  1  0.07430899  0.32698039  0.16342647  1
  Ca2+  Ca13  1  0.07420980  0.33249036  0.48937489  1
  Ca2+  Ca14  1  0.07325429  0.32706447  0.83290173  1
  Ca2+  Ca15  1  0.08256192  0.82834145  0.16528142  1
  Ca2+  Ca16  1  0.08962878  0.82741735  0.49372537  1
  Ca2+  Ca17  1  0.07780126  0.83614364  0.83210317  1
  Ca2+  Ca18  1  0.57790909  0.33656839  0.15936052  1
  Ca2+  Ca19  1  0.57818150  0.33427558  0.50361113  1
  Ca2+  Ca20  1  0.57955508  0.33096093  0.82985842  1
  Ca2+  Ca21  1  0.58279572  0.82595483  0.16225891  1
  Ca2+  Ca22  1  0.57481568  0.82694214  0.49458291  1
  Ca2+  Ca23  1  0.56877598  0.83783274  0.82861173  1
  Ca2+  Ca24  1  0.32444087  0.41165224  0.17247401  1
  Ca2+  Ca25  1  0.32716593  0.42046223  0.50577724  1
  Ca2+  Ca26  1  0.34263530  0.41850173  0.83821589  1
  Ca2+  Ca27  1  0.33119916  0.92285059  0.16888921  1
  Ca2+  Ca28  1  0.32066451  0.91067388  0.50661205  1
  Ca2+  Ca29  1  0.33132174  0.91902438  0.83902716  1
  Ca2+  Ca30  1  0.83772214  0.42042918  0.17007477  1
  Ca2+  Ca31  1  0.84433266  0.42678277  0.50403494  1
  Ca2+  Ca32  1  0.83374204  0.42120916  0.84201191  1
  Ca2+  Ca33  1  0.84811960  0.92899497  0.16715954  1
  Ca2+  Ca34  1  0.83550031  0.92664654  0.50165765  1
  Ca2+  Ca35  1  0.83141860  0.92233191  0.84449728  1
  Ca2+  Ca36  1  0.41504140  0.17107082  0.15585647  1
  Ca2+  Ca37  1  0.42177887  0.16797710  0.50153611  1
  Ca2+  Ca38  1  0.41823493  0.17698384  0.82811675  1
  Ca2+  Ca39  1  0.42420644  0.67167904  0.16101209  1
  Ca2+  Ca40  1  0.41671677  0.66700823  0.49652605  1
  Ca2+  Ca41  1  0.41284226  0.67619411  0.82574589  1
  Ca2+  Ca42  1  0.92478466  0.16906566  0.15916015  1
  Ca2+  Ca43  1  0.91873547  0.17968974  0.48976522  1
  Ca2+  Ca44  1  0.91220726  0.17683815  0.83178827  1
  Ca2+  Ca45  1  0.91855738  0.66507506  0.16302776  1
  Ca2+  Ca46  1  0.91934007  0.66484080  0.49045745  1
  Ca2+  Ca47  1  0.91057866  0.66710759  0.83283444  1
  Al0+  Al48  1  0.00173024  -0.00377941  -0.00440865  1
  Al0+  Al49  1  0.00089854  0.00127060  0.34161157  1
  Al0+  Al50  1  -0.00148888  -0.00093187  0.67263586  1
  Al0+  Al51  1  0.00301225  0.49948094  -0.00154758  1
  Al0+  Al52  1  0.00023790  0.50117713  0.33356233  1
  Al0+  Al53  1  0.00171602  0.50087236  0.67069575  1
  Al0+  Al54  1  0.49881865  -0.00142814  0.00211893  1
  Al0+  Al55  1  0.50039008  0.00158578  0.33307649  1
  Al0+  Al56  1  0.49880580  -0.00100498  0.65568264  1
  Al0+  Al57  1  0.50192822  0.50112885  0.00085554  1
  Al0+  Al58  1  0.50160004  0.50136186  0.32906131  1
  Al0+  Al59  1  0.50133791  0.50070203  0.66682642  1
  Al0+  Al60  1  0.25088579  0.24908049  -0.00526396  1
  Al0+  Al61  1  0.24962621  0.25004824  0.33779033  1
  Al0+  Al62  1  0.24845948  0.24751202  0.66164612  1
  Al0+  Al63  1  0.25047545  0.74913921  -0.00311317  1
  Al0+  Al64  1  0.25042564  0.75179127  0.32999530  1
  Al0+  Al65  1  0.24743465  0.74919571  0.67222892  1
  Al0+  Al66  1  0.74963272  0.24994055  0.00600278  1
  Al0+  Al67  1  0.74651956  0.25232072  0.33500359  1
  Al0+  Al68  1  0.75093304  0.25187960  0.65761330  1
  Al0+  Al69  1  0.75105325  0.74819051  -0.00095133  1
  Al0+  Al70  1  0.74751034  0.75086199  0.33263876  1
  Al0+  Al71  1  0.74968357  0.75273668  0.67141758  1
  Al0+  Al72  1  0.07181013  0.17684649  0.98393147  1
  Al0+  Al73  1  0.67842787  0.42816897  0.01599222  1
  Al0+  Al74  1  0.81924549  0.57044559  0.34703205  1
  Al0+  Al75  1  0.17884197  0.42929873  0.34639922  1
  Al0+  Al76  1  0.42618953  0.81893164  0.65135001  1
  Al0+  Al77  1  0.18097711  0.92967977  0.34610037  1
  Al0+  Al78  1  0.32036559  0.07107826  0.01170609  1
  Al0+  Al79  1  0.57171098  0.67935345  0.31877871  1
  Al0+  Al80  1  0.82173070  0.06949033  0.01195292  1
  Al0+  Al81  1  0.42679862  0.32414748  0.65027264  1
  Al0+  Al82  1  0.32135054  0.56816178  0.67926485  1
  Al0+  Al83  1  0.92736874  0.32254030  0.31741269  1
  Al0+  Al84  1  0.42927127  0.32136467  0.98844056  1
  Al0+  Al85  1  0.07095871  0.17730418  0.31957556  1
  Al0+  Al86  1  0.92760658  0.32081245  0.98517732  1
  Al0+  Al87  1  0.42981781  0.82059625  0.98634771  1
  Al0+  Al88  1  0.82061605  0.07188956  0.34817475  1
  Al0+  Al89  1  0.17851687  0.92877053  0.68365940  1
  Al0+  Al90  1  0.93175419  0.32200374  0.65220839  1
  Al0+  Al91  1  0.07161073  0.67962809  0.32161395  1
  Al0+  Al92  1  0.92991964  0.81852960  0.98725881  1
  Al0+  Al93  1  0.82259079  0.57216885  0.68134934  1
  Al0+  Al94  1  0.57142682  0.17890766  0.65105977  1
  Al0+  Al95  1  0.82362526  0.57088237  0.01715792  1
  Si0+  Si96  1  0.17868854  0.92643347  0.01764330  1
  Si0+  Si97  1  0.32347047  0.07106085  0.68212094  1
  Si0+  Si98  1  0.67413260  0.42888778  0.35320573  1
  Si0+  Si99  1  0.42754608  0.82292858  0.31529206  1
  Si0+  Si100  1  0.67597387  0.92881173  0.35089816  1
  Si0+  Si101  1  0.67655794  0.92699434  0.01604883  1
  Si0+  Si102  1  0.57248802  0.67801956  0.98074575  1
  Si0+  Si103  1  0.42946925  0.32033776  0.31898305  1
  Si0+  Si104  1  0.07052427  0.17466104  0.64945239  1
  Si0+  Si105  1  0.57031963  0.17781539  0.31531959  1
  Si0+  Si106  1  0.67717511  0.92979924  0.68064191  1
  Si0+  Si107  1  0.92640155  0.82255138  0.65182280  1
  Si0+  Si108  1  0.57217417  0.17734600  0.98730934  1
  Si0+  Si109  1  0.81830296  0.07204510  0.68142433  1
  Si0+  Si110  1  0.07386312  0.67598359  0.98072419  1
  Si0+  Si111  1  0.32463508  0.07338448  0.35226371  1
  Si0+  Si112  1  0.17835739  0.42521891  0.68453601  1
  Si0+  Si113  1  0.57350943  0.67969037  0.65144104  1
  Si0+  Si114  1  0.92729783  0.82250928  0.32029034  1
  Si0+  Si115  1  0.18195000  0.42888329  0.01346377  1
  Si0+  Si116  1  0.32324134  0.57155683  0.34664672  1
  Si0+  Si117  1  0.67947834  0.42771226  0.68241554  1
  Si0+  Si118  1  0.32161853  0.57308231  0.01540011  1
  Si0+  Si119  1  0.06849557  0.68149622  0.65312886  1
  O2-  O120  1  0.24574100  -0.00275277  0.06046829  1
  O2-  O121  1  0.25558068  0.00402888  0.39453371  1
  O2-  O122  1  0.25310626  0.00478361  0.72744514  1
  O2-  O123  1  0.25278568  0.50026204  0.05697704  1
  O2-  O124  1  0.25303663  0.50556535  0.39198967  1
  O2-  O125  1  0.25454469  0.48662007  0.72812087  1
  O2-  O126  1  0.74791312  -0.00669667  0.05960470  1
  O2-  O127  1  0.74515824  -0.00291610  0.39527192  1
  O2-  O128  1  0.74524675  0.00307189  0.72354283  1
  O2-  O129  1  0.75365687  0.49671647  0.06648041  1
  O2-  O130  1  0.74728225  0.49379295  0.39596733  1
  O2-  O131  1  0.74846387  0.49623822  0.72617520  1
  O2-  O132  1  -0.00286393  0.24709892  0.26938504  1
  O2-  O133  1  0.00693968  0.24776408  0.60560690  1
  O2-  O134  1  -0.00392752  0.24544756  0.93453527  1
  O2-  O135  1  -0.00515926  0.75271589  0.27618758  1
  O2-  O136  1  -0.00513831  0.74950260  0.60989622  1
  O2-  O137  1  0.00197294  0.74235144  0.93815031  1
  O2-  O138  1  0.49818173  0.24812924  0.27481726  1
  O2-  O139  1  0.49793216  0.25044097  0.60121437  1
  O2-  O140  1  0.50438996  0.24663375  0.94300753  1
  O2-  O141  1  0.49706690  0.75463393  0.27233020  1
  O2-  O142  1  0.50068085  0.74345138  0.60564920  1
  O2-  O143  1  0.50426070  0.74726089  0.93676382  1
  O2-  O144  1  0.07258735  0.17859238  0.09743641  1
  O2-  O145  1  0.06876720  0.17750792  0.43342622  1
  O2-  O146  1  0.06842614  0.17375940  0.75493276  1
  O2-  O147  1  0.07752621  0.67678349  0.08631245  1
  O2-  O148  1  0.07228748  0.68076581  0.43518198  1
  O2-  O149  1  0.06869454  0.68233556  0.75824641  1
  O2-  O150  1  0.56965909  0.17665044  0.09307133  1
  O2-  O151  1  0.56922409  0.17670049  0.42024846  1
  O2-  O152  1  0.57243151  0.17824867  0.76477842  1
  O2-  O153  1  0.57023187  0.67917967  0.08661398  1
  O2-  O154  1  0.57001185  0.68094357  0.43223428  1
  O2-  O155  1  0.57403289  0.68386835  0.75677740  1
  O2-  O156  1  0.18184072  0.42898736  0.23294239  1
  O2-  O157  1  0.17562418  0.43072421  0.57900256  1
  O2-  O158  1  0.18289303  0.43111703  0.90825297  1
  O2-  O159  1  0.18328235  0.92781949  0.23329845  1
  O2-  O160  1  0.17844327  0.92730815  0.57036000  1
  O2-  O161  1  0.18071014  0.92537328  0.91191940  1
  O2-  O162  1  0.66907519  0.43093526  0.24808995  1
  O2-  O163  1  0.67865380  0.42956946  0.57677345  1
  O2-  O164  1  0.67620360  0.43015788  0.90205962  1
  O2-  O165  1  0.67264323  0.93044900  0.24555081  1
  O2-  O166  1  0.68087125  0.92644775  0.57569244  1
  O2-  O167  1  0.67494926  0.92992032  0.90998359  1
  O2-  O168  1  0.42751605  0.31923406  0.10204494  1
  O2-  O169  1  0.43141173  0.32096463  0.42382426  1
  O2-  O170  1  0.43058979  0.32320752  0.76384172  1
  O2-  O171  1  0.43057647  0.81834376  0.09952408  1
  O2-  O172  1  0.42657229  0.82102899  0.42100839  1
  O2-  O173  1  0.42851923  0.82010007  0.76450134  1
  O2-  O174  1  0.93107475  0.32147103  0.09820312  1
  O2-  O175  1  0.93115605  0.32304739  0.43147526  1
  O2-  O176  1  0.93009324  0.32007607  0.76515321  1
  O2-  O177  1  0.93465205  0.82076851  0.10036883  1
  O2-  O178  1  0.92716349  0.82101640  0.42649665  1
  O2-  O179  1  0.92679464  0.82340034  0.75681499  1
  O2-  O180  1  0.32738317  0.07286084  0.24654156  1
  O2-  O181  1  0.32313701  0.06912655  0.57643278  1
  O2-  O182  1  0.32150322  0.06990174  0.89869102  1
  O2-  O183  1  0.32381346  0.56881356  0.24077346  1
  O2-  O184  1  0.31663478  0.57043485  0.56602326  1
  O2-  O185  1  0.32027225  0.57404319  0.91016001  1
  O2-  O186  1  0.82134400  0.06875430  0.23504361  1
  O2-  O187  1  0.81898515  0.06903331  0.57630464  1
  O2-  O188  1  0.81712186  0.06918847  0.89835642  1
  O2-  O189  1  0.81839885  0.57168893  0.23461027  1
  O2-  O190  1  0.82219166  0.57423185  0.56808513  1
  O2-  O191  1  0.81992861  0.57066428  0.90318921  1
  O2-  O192  1  0.04404328  0.07726281  0.26919471  1
  O2-  O193  1  0.03881009  0.08184241  0.60464337  1
  O2-  O194  1  0.04924318  0.07679788  0.93238118  1
  O2-  O195  1  0.04186577  0.58428892  0.26605870  1
  O2-  O196  1  0.04423410  0.58827883  0.60710382  1
  O2-  O197  1  0.05201793  0.58227217  0.93370153  1
  O2-  O198  1  0.54446675  0.08542068  0.26792132  1
  O2-  O199  1  0.54427717  0.08175379  0.59331098  1
  O2-  O200  1  0.54735937  0.08354058  0.94147323  1
  O2-  O201  1  0.54003157  0.58426260  0.26221971  1
  O2-  O202  1  0.55352831  0.58459796  0.60688640  1
  O2-  O203  1  0.54532051  0.58516145  0.93496772  1
  O2-  O204  1  0.17133757  0.20511160  0.27001201  1
  O2-  O205  1  0.16633246  0.19153289  0.60473098  1
  O2-  O206  1  0.16755888  0.21010294  0.92825905  1
  O2-  O207  1  0.16726607  0.71027439  0.26471299  1
  O2-  O208  1  0.15887123  0.71241426  0.60566482  1
  O2-  O209  1  0.16588569  0.70520463  0.93276658  1
  O2-  O210  1  0.66180609  0.20664651  0.26877237  1
  O2-  O211  1  0.66763392  0.20919254  0.59385561  1
  O2-  O212  1  0.66550428  0.20206634  0.94112077  1
  O2-  O213  1  0.66634599  0.71266691  0.26240924  1
  O2-  O214  1  0.66536577  0.71199654  0.60457193  1
  O2-  O215  1  0.66654877  0.70165557  0.93578176  1
  O2-  O216  1  0.09096769  0.45746791  0.06155133  1
  O2-  O217  1  0.08436218  0.46283499  0.40228220  1
  O2-  O218  1  0.08963551  0.46063321  0.73447686  1
  O2-  O219  1  0.08446533  0.94913601  0.06242099  1
  O2-  O220  1  0.08551194  0.95740304  0.40479241  1
  O2-  O221  1  0.08130427  0.95857969  0.73803232  1
  O2-  O222  1  0.58099313  0.46124071  0.07075191  1
  O2-  O223  1  0.58236534  0.46071957  0.40063465  1
  O2-  O224  1  0.58580412  0.45256126  0.72888427  1
  O2-  O225  1  0.58437425  0.95252366  0.06487323  1
  O2-  O226  1  0.58274987  0.95596725  0.39844714  1
  O2-  O227  1  0.58313130  0.95591387  0.72435090  1
  O2-  O228  1  0.21158615  0.33776955  0.06021526  1
  O2-  O229  1  0.21041231  0.33433384  0.40345959  1
  O2-  O230  1  0.19465450  0.32761204  0.72527412  1
  O2-  O231  1  0.20682266  0.83258476  0.06248933  1
  O2-  O232  1  0.21325005  0.83268595  0.40098903  1
  O2-  O233  1  0.20920428  0.83335060  0.73909091  1
  O2-  O234  1  0.69905406  0.32868411  0.06993058  1
  O2-  O235  1  0.69277209  0.33323642  0.39753258  1
  O2-  O236  1  0.70547179  0.33313665  0.72592004  1
  O2-  O237  1  0.70007840  0.83210472  0.05948828  1
  O2-  O238  1  0.70046378  0.83524669  0.39728316  1
  O2-  O239  1  0.70607801  0.84060102  0.73259959  1
  O2-  O240  1  0.45754536  0.41171856  0.27088301  1
  O2-  O241  1  0.45689350  0.42249031  0.59698014  1
  O2-  O242  1  0.45899932  0.41892646  0.93585307  1
  O2-  O243  1  0.45399939  0.91744509  0.27133039  1
  O2-  O244  1  0.45687158  0.91320971  0.59375535  1
  O2-  O245  1  0.46057081  0.91725608  0.93189442  1
  O2-  O246  1  0.95996738  0.41959242  0.26572332  1
  O2-  O247  1  0.96458386  0.41960931  0.60091953  1
  O2-  O248  1  0.96098706  0.41815274  0.93206147  1
  O2-  O249  1  0.95730295  0.91552303  0.27661975  1
  O2-  O250  1  0.95609191  0.91439019  0.60540708  1
  O2-  O251  1  0.96149926  0.91263131  0.92843279  1
  O2-  O252  1  0.33662011  0.29377290  0.27349852  1
  O2-  O253  1  0.32737542  0.29730038  0.59778376  1
  O2-  O254  1  0.33528480  0.29102130  0.93045944  1
  O2-  O255  1  0.33554176  0.79743333  0.26687308  1
  O2-  O256  1  0.32917154  0.78525260  0.60026561  1
  O2-  O257  1  0.33368718  0.78894273  0.93182899  1
  O2-  O258  1  0.82518736  0.29997391  0.27049913  1
  O2-  O259  1  0.83630242  0.29294409  0.59588134  1
  O2-  O260  1  0.82729446  0.29379935  0.93496651  1
  O2-  O261  1  0.83302693  0.80163110  0.27456229  1
  O2-  O262  1  0.83322048  0.79870532  0.60535642  1
  O2-  O263  1  0.83189381  0.79248108  0.93216771  1
  O2-  O264  1  0.41594507  0.03928869  0.06865066  1
  O2-  O265  1  0.41849214  0.04714609  0.39834999  1
  O2-  O266  1  0.41756811  0.04311755  0.72541645  1
  O2-  O267  1  0.41469129  0.54902754  0.06126429  1
  O2-  O268  1  0.41589829  0.54369320  0.39356105  1
  O2-  O269  1  0.42065445  0.54671339  0.73315408  1
  O2-  O270  1  0.91859233  0.03531516  0.06381610  1
  O2-  O271  1  0.91467563  0.04028246  0.40652758  1
  O2-  O272  1  0.90839321  0.04186051  0.73022632  1
  O2-  O273  1  0.92527788  0.54686965  0.06548606  1
  O2-  O274  1  0.91676149  0.54241689  0.40097782  1
  O2-  O275  1  0.91926008  0.54299343  0.73592049  1
  O2-  O276  1  0.29096588  0.16831379  0.06564863  1
  O2-  O277  1  0.30078498  0.16666893  0.39911790  1
  O2-  O278  1  0.30026333  0.16671876  0.72576142  1
  O2-  O279  1  0.29152855  0.66387405  0.06369574  1
  O2-  O280  1  0.30099472  0.66703077  0.38961619  1
  O2-  O281  1  0.28261926  0.66099094  0.73622040  1
  O2-  O282  1  0.79117776  0.16394484  0.06915598  1
  O2-  O283  1  0.78630898  0.16818872  0.40148226  1
  O2-  O284  1  0.79118786  0.16544456  0.72538598  1
  O2-  O285  1  0.79420397  0.67009758  0.06835876  1
  O2-  O286  1  0.78699842  0.66801448  0.40021048  1
  O2-  O287  1  0.79174297  0.66961258  0.73481784  1
