# generated using pymatgen
data_Ca2Al2SiO7
_symmetry_space_group_name_H-M   'P 1'
_cell_length_a   15.47566843
_cell_length_b   15.47021419
_cell_length_c   15.29349553
_cell_angle_alpha   89.99250222
_cell_angle_beta   89.97882986
_cell_angle_gamma   90.00219835
_symmetry_Int_Tables_number   1
_chemical_formula_structural   Ca2Al2SiO7
_chemical_formula_sum   'Ca48 Al48 Si24 O168'
_cell_volume   3661.44461970
_cell_formula_units_Z   24
loop_
 _symmetry_equiv_pos_site_id
 _symmetry_equiv_pos_as_xyz
  1  'x, y, z'
loop_
 _atom_type_symbol
 _atom_type_oxidation_number
  Ca2+  2.0
  Al0+  0.0
  Si0+  0.0
  O2-  -2.0
loop_
 _atom_site_type_symbol
 _atom_site_label
 _atom_site_symmetry_multiplicity
 _atom_site_fract_x
 _atom_site_fract_y
 _atom_site_fract_z
 _atom_site_occupancy
  Ca2+  Ca0  1  0.18098167  0.07668758  0.17179843  1
  Ca2+  Ca1  1  0.17906749  0.07805136  0.50015489  1
  Ca2+  Ca2  1  0.18325983  0.08423522  0.83593746  1
  Ca2+  Ca3  1  0.17492199  0.57985361  0.17379180  1
  Ca2+  Ca4  1  0.17894952  0.58665902  0.50756241  1
  Ca2+  Ca5  1  0.17033187  0.58932367  0.82912534  1
  Ca2+  Ca6  1  0.67558596  0.09040676  0.16558183  1
  Ca2+  Ca7  1  0.66949172  0.08205892  0.50943952  1
  Ca2+  Ca8  1  0.66352495  0.07971296  0.83749705  1
  Ca2+  Ca9  1  0.66180984  0.57847050  0.16790872  1
  Ca2+  Ca10  1  0.66761052  0.58035103  0.50959984  1
  Ca2+  Ca11  1  0.64761755  0.57330002  0.83569777  1
  Ca2+  Ca12  1  0.07852084  0.33109773  0.16354592  1
  Ca2+  Ca13  1  0.08222178  0.33205631  0.49751998  1
  Ca2+  Ca14  1  0.07908974  0.33220007  0.82859259  1
  Ca2+  Ca15  1  0.08003968  0.83848344  0.16210099  1
  Ca2+  Ca16  1  0.08310297  0.83434020  0.50000168  1
  Ca2+  Ca17  1  0.06989400  0.83481591  0.82611648  1
  Ca2+  Ca18  1  0.57401834  0.32903618  0.15851228  1
  Ca2+  Ca19  1  0.57564216  0.33287576  0.50304457  1
  Ca2+  Ca20  1  0.58058803  0.32494507  0.83059207  1
  Ca2+  Ca21  1  0.57683853  0.82336238  0.15694875  1
  Ca2+  Ca22  1  0.57976574  0.83523435  0.50734644  1
  Ca2+  Ca23  1  0.57933683  0.82689573  0.82362313  1
  Ca2+  Ca24  1  0.34177438  0.41928491  0.17188466  1
  Ca2+  Ca25  1  0.34462657  0.42399830  0.50527685  1
  Ca2+  Ca26  1  0.34884094  0.42264858  0.83326145  1
  Ca2+  Ca27  1  0.33616574  0.92612433  0.17158278  1
  Ca2+  Ca28  1  0.33794711  0.92632774  0.50867154  1
  Ca2+  Ca29  1  0.34752276  0.92620105  0.83491394  1
  Ca2+  Ca30  1  0.82201205  0.42378122  0.17165357  1
  Ca2+  Ca31  1  0.82608468  0.42452984  0.50778543  1
  Ca2+  Ca32  1  0.81563290  0.41785717  0.83867176  1
  Ca2+  Ca33  1  0.83313880  0.92259450  0.16883475  1
  Ca2+  Ca34  1  0.82679500  0.91946897  0.50603310  1
  Ca2+  Ca35  1  0.82883993  0.91312337  0.83652961  1
  Ca2+  Ca36  1  0.41627527  0.17371662  0.15769258  1
  Ca2+  Ca37  1  0.41653421  0.17195939  0.49641998  1
  Ca2+  Ca38  1  0.42239306  0.17211555  0.82348448  1
  Ca2+  Ca39  1  0.41849014  0.67125523  0.15822079  1
  Ca2+  Ca40  1  0.42066438  0.66082019  0.49951066  1
  Ca2+  Ca41  1  0.42307608  0.67817812  0.82694398  1
  Ca2+  Ca42  1  0.91666968  0.15724941  0.16051907  1
  Ca2+  Ca43  1  0.91601432  0.16490384  0.49346371  1
  Ca2+  Ca44  1  0.91553190  0.16339538  0.83168101  1
  Ca2+  Ca45  1  0.91726971  0.67152625  0.16069278  1
  Ca2+  Ca46  1  0.91854449  0.67008324  0.49829296  1
  Ca2+  Ca47  1  0.92124667  0.67841162  0.82400417  1
  Al0+  Al48  1  0.00093264  -0.00044681  -0.00237876  1
  Al0+  Al49  1  -0.00097782  -0.00014042  0.33976533  1
  Al0+  Al50  1  0.00174383  0.00200783  0.66128895  1
  Al0+  Al51  1  0.00009853  0.49900294  0.00048061  1
  Al0+  Al52  1  -0.00112441  0.50059864  0.33501715  1
  Al0+  Al53  1  0.00096540  0.50089899  0.66390811  1
  Al0+  Al54  1  0.50231699  0.00058630  0.00400536  1
  Al0+  Al55  1  0.50221613  -0.00091537  0.33392079  1
  Al0+  Al56  1  0.50477246  0.00036117  0.66752187  1
  Al0+  Al57  1  0.49899969  0.49875116  0.00187603  1
  Al0+  Al58  1  0.50006712  0.49765737  0.33218156  1
  Al0+  Al59  1  0.49976262  0.50002290  0.66886638  1
  Al0+  Al60  1  0.24736911  0.25102270  0.00081744  1
  Al0+  Al61  1  0.24725454  0.24885216  0.33047477  1
  Al0+  Al62  1  0.24817215  0.25131083  0.66635610  1
  Al0+  Al63  1  0.24900796  0.74868854  -0.00278887  1
  Al0+  Al64  1  0.24807471  0.74780548  0.33787067  1
  Al0+  Al65  1  0.24762346  0.75200375  0.66617297  1
  Al0+  Al66  1  0.74950209  0.25210924  0.00669508  1
  Al0+  Al67  1  0.74903891  0.25096685  0.33687138  1
  Al0+  Al68  1  0.75082430  0.25271495  0.66679771  1
  Al0+  Al69  1  0.75230082  0.74795847  -0.00692893  1
  Al0+  Al70  1  0.75101797  0.74922796  0.33506973  1
  Al0+  Al71  1  0.75124151  0.75220149  0.66227887  1
  Al0+  Al72  1  0.32159024  0.07103236  0.68009477  1
  Al0+  Al73  1  0.82065896  0.06859486  0.01186022  1
  Al0+  Al74  1  0.93093519  0.82162733  0.98754427  1
  Al0+  Al75  1  0.68187403  0.92983516  0.68127056  1
  Al0+  Al76  1  0.57374568  0.17960315  0.98693983  1
  Al0+  Al77  1  0.07077438  0.67887017  0.64922633  1
  Al0+  Al78  1  0.42727744  0.82261444  0.98730525  1
  Al0+  Al79  1  0.67784728  0.43103091  0.01630119  1
  Al0+  Al80  1  0.42610780  0.31931166  0.98463461  1
  Al0+  Al81  1  0.57094033  0.67849436  0.98652894  1
  Al0+  Al82  1  0.17902529  0.92809849  0.34799178  1
  Al0+  Al83  1  0.42898523  0.82308287  0.65137121  1
  Al0+  Al84  1  0.56940791  0.67813045  0.65055229  1
  Al0+  Al85  1  0.82115287  0.57156219  0.34707763  1
  Al0+  Al86  1  0.32384707  0.07173927  0.01261056  1
  Al0+  Al87  1  0.32050459  0.57211592  0.68235546  1
  Al0+  Al88  1  0.32109303  0.56809486  0.34594810  1
  Al0+  Al89  1  0.92872986  0.82348435  0.64735112  1
  Al0+  Al90  1  0.42781581  0.32003872  0.65123763  1
  Al0+  Al91  1  0.67931245  0.43063438  0.68165148  1
  Al0+  Al92  1  0.57324858  0.17901458  0.65133561  1
  Al0+  Al93  1  0.32330791  0.07139090  0.34828229  1
  Al0+  Al94  1  0.42920819  0.31861144  0.31884601  1
  Al0+  Al95  1  0.81849517  0.07080815  0.34692391  1
  Si0+  Si96  1  0.67793338  0.42942111  0.35198236  1
  Si0+  Si97  1  0.17421192  0.42788557  0.01626337  1
  Si0+  Si98  1  0.17882706  0.92857818  0.01340805  1
  Si0+  Si99  1  0.92748517  0.32248675  0.31789947  1
  Si0+  Si100  1  0.07139000  0.67760226  0.31653197  1
  Si0+  Si101  1  0.92980584  0.82057714  0.31711434  1
  Si0+  Si102  1  0.92923346  0.32096107  0.65176728  1
  Si0+  Si103  1  0.07198683  0.67487718  0.98413298  1
  Si0+  Si104  1  0.17611584  0.42838358  0.68428461  1
  Si0+  Si105  1  0.06953374  0.17925824  0.98494814  1
  Si0+  Si106  1  0.82424247  0.07361040  0.68265070  1
  Si0+  Si107  1  0.31818146  0.56903961  0.01461030  1
  Si0+  Si108  1  0.67836749  0.92508940  0.34938554  1
  Si0+  Si109  1  0.82336737  0.57238249  0.68387165  1
  Si0+  Si110  1  0.42696603  0.82066029  0.31988757  1
  Si0+  Si111  1  0.07172778  0.18009320  0.64958103  1
  Si0+  Si112  1  0.06701351  0.17815125  0.31649532  1
  Si0+  Si113  1  0.17590270  0.42724445  0.34911112  1
  Si0+  Si114  1  0.57084189  0.67870715  0.31931239  1
  Si0+  Si115  1  0.92885950  0.32198105  0.98658610  1
  Si0+  Si116  1  0.82497407  0.57190588  0.01539130  1
  Si0+  Si117  1  0.17667740  0.92959607  0.68468967  1
  Si0+  Si118  1  0.57427281  0.17591332  0.31607182  1
  Si0+  Si119  1  0.67893532  0.92346251  0.01694363  1
  O2-  O120  1  0.25308534  -0.00879490  0.05734550  1
  O2-  O121  1  0.25664210  -0.00604026  0.39771423  1
  O2-  O122  1  0.25017673  -0.00691492  0.72836261  1
  O2-  O123  1  0.24752242  0.49696546  0.05678284  1
  O2-  O124  1  0.24770731  0.49188053  0.39257587  1
  O2-  O125  1  0.24585399  0.49557483  0.72843599  1
  O2-  O126  1  0.74598587  -0.00513759  0.06061010  1
  O2-  O127  1  0.74144080  -0.00024269  0.39242467  1
  O2-  O128  1  0.75740405  0.00456464  0.72709999  1
  O2-  O129  1  0.75151197  0.50885495  0.06041791  1
  O2-  O130  1  0.74695953  0.49802734  0.39514201  1
  O2-  O131  1  0.75095674  0.50888661  0.72916249  1
  O2-  O132  1  -0.00485152  0.24894637  0.27375501  1
  O2-  O133  1  -0.00145526  0.24939945  0.60800883  1
  O2-  O134  1  -0.00210658  0.24993411  0.94301461  1
  O2-  O135  1  0.00142601  0.74992297  0.27434384  1
  O2-  O136  1  -0.00011668  0.75062112  0.59720466  1
  O2-  O137  1  0.00387150  0.74468406  0.94226089  1
  O2-  O138  1  0.50070034  0.24020059  0.27331074  1
  O2-  O139  1  0.49746089  0.24637121  0.60056746  1
  O2-  O140  1  0.49451461  0.24323945  0.93672704  1
  O2-  O141  1  0.49845563  0.74911774  0.27821528  1
  O2-  O142  1  0.49535038  0.74704960  0.59873729  1
  O2-  O143  1  0.50430420  0.75580815  0.93818797  1
  O2-  O144  1  0.06826320  0.17983853  0.09021845  1
  O2-  O145  1  0.06642444  0.18105119  0.42157339  1
  O2-  O146  1  0.07103037  0.18095151  0.75494716  1
  O2-  O147  1  0.07192033  0.67290633  0.09013147  1
  O2-  O148  1  0.07008809  0.67490565  0.42075837  1
  O2-  O149  1  0.06655365  0.67801665  0.76334078  1
  O2-  O150  1  0.57576270  0.18435893  0.10097709  1
  O2-  O151  1  0.57792554  0.17767200  0.42111637  1
  O2-  O152  1  0.57509884  0.18061956  0.76464664  1
  O2-  O153  1  0.56794199  0.67838810  0.10149436  1
  O2-  O154  1  0.57158617  0.67730592  0.42374021  1
  O2-  O155  1  0.56741464  0.67901538  0.76376339  1
  O2-  O156  1  0.17172034  0.43001076  0.24325801  1
  O2-  O157  1  0.17216469  0.42766828  0.57882240  1
  O2-  O158  1  0.16548074  0.42860819  0.91221735  1
  O2-  O159  1  0.17765672  0.93135773  0.23372986  1
  O2-  O160  1  0.17401686  0.93431874  0.57926793  1
  O2-  O161  1  0.17397142  0.93259013  0.90850224  1
  O2-  O162  1  0.67908415  0.43046015  0.24616757  1
  O2-  O163  1  0.68436720  0.43035572  0.56829255  1
  O2-  O164  1  0.68033222  0.43039979  0.90368620  1
  O2-  O165  1  0.68185086  0.92014709  0.24384987  1
  O2-  O166  1  0.68336829  0.93198473  0.56775374  1
  O2-  O167  1  0.68169570  0.92198039  0.91189887  1
  O2-  O168  1  0.42747290  0.32004871  0.09884277  1
  O2-  O169  1  0.43190426  0.32133003  0.43120309  1
  O2-  O170  1  0.42820504  0.31834002  0.76445392  1
  O2-  O171  1  0.42524977  0.81726802  0.10202877  1
  O2-  O172  1  0.42775430  0.82133513  0.42431735  1
  O2-  O173  1  0.43336887  0.82327328  0.76474983  1
  O2-  O174  1  0.93245541  0.32370527  0.09182299  1
  O2-  O175  1  0.93037327  0.32230840  0.42302114  1
  O2-  O176  1  0.93067462  0.32038279  0.75707695  1
  O2-  O177  1  0.93379264  0.82215816  0.10139408  1
  O2-  O178  1  0.92968278  0.81959213  0.42149447  1
  O2-  O179  1  0.93145909  0.82406114  0.76124402  1
  O2-  O180  1  0.32029593  0.07140250  0.23439576  1
  O2-  O181  1  0.31755091  0.07224748  0.56714709  1
  O2-  O182  1  0.31919382  0.07545557  0.89985458  1
  O2-  O183  1  0.31892236  0.56848566  0.23223319  1
  O2-  O184  1  0.32012236  0.56804143  0.56899448  1
  O2-  O185  1  0.31625487  0.56950491  0.91008037  1
  O2-  O186  1  0.82088385  0.06852376  0.23370247  1
  O2-  O187  1  0.82349590  0.07416205  0.57678498  1
  O2-  O188  1  0.82382402  0.06855322  0.89943267  1
  O2-  O189  1  0.82093313  0.57080279  0.23375908  1
  O2-  O190  1  0.82464578  0.56706132  0.57790031  1
  O2-  O191  1  0.83353481  0.56657197  0.91085594  1
  O2-  O192  1  0.03661341  0.08665693  0.27030824  1
  O2-  O193  1  0.04540481  0.08963019  0.59971534  1
  O2-  O194  1  0.04118564  0.08919208  0.93567732  1
  O2-  O195  1  0.04173222  0.58584753  0.26849875  1
  O2-  O196  1  0.04353028  0.57964323  0.59616792  1
  O2-  O197  1  0.04596198  0.58171835  0.93763306  1
  O2-  O198  1  0.55653166  0.07959975  0.27165742  1
  O2-  O199  1  0.55006003  0.07985988  0.59936864  1
  O2-  O200  1  0.55709490  0.07649382  0.94133106  1
  O2-  O201  1  0.54355837  0.58686635  0.27145884  1
  O2-  O202  1  0.54231903  0.57937639  0.59793838  1
  O2-  O203  1  0.53542941  0.58239502  0.93584399  1
  O2-  O204  1  0.15768992  0.20636264  0.26700748  1
  O2-  O205  1  0.16055547  0.21172649  0.59963268  1
  O2-  O206  1  0.15925595  0.21006138  0.93620465  1
  O2-  O207  1  0.16347415  0.70375842  0.26810441  1
  O2-  O208  1  0.16912786  0.70666079  0.59705556  1
  O2-  O209  1  0.16499301  0.69902446  0.93751267  1
  O2-  O210  1  0.66688456  0.20775630  0.26969383  1
  O2-  O211  1  0.67123482  0.21173670  0.59835022  1
  O2-  O212  1  0.67074781  0.21450078  0.93503673  1
  O2-  O213  1  0.66262544  0.70785863  0.27182692  1
  O2-  O214  1  0.66848440  0.70646777  0.59917398  1
  O2-  O215  1  0.67213413  0.69481359  0.93561344  1
  O2-  O216  1  0.08441358  0.45804119  0.06825416  1
  O2-  O217  1  0.08362679  0.45467297  0.39676952  1
  O2-  O218  1  0.08281451  0.45590720  0.73180169  1
  O2-  O219  1  0.08835502  0.96119159  0.06263279  1
  O2-  O220  1  0.08376819  0.96279010  0.40320422  1
  O2-  O221  1  0.08480088  0.96324763  0.73077050  1
  O2-  O222  1  0.58203906  0.46235902  0.07252530  1
  O2-  O223  1  0.58528356  0.45661979  0.39712564  1
  O2-  O224  1  0.58290450  0.45834733  0.73589434  1
  O2-  O225  1  0.58533243  0.94511955  0.06474025  1
  O2-  O226  1  0.58321114  0.94489829  0.39362932  1
  O2-  O227  1  0.58680777  0.96002659  0.73732842  1
  O2-  O228  1  0.19782552  0.33551438  0.06457362  1
  O2-  O229  1  0.19540971  0.33149229  0.39201679  1
  O2-  O230  1  0.19744874  0.33384871  0.73011780  1
  O2-  O231  1  0.19639702  0.83185985  0.05737936  1
  O2-  O232  1  0.19704335  0.82713489  0.39838580  1
  O2-  O233  1  0.19214436  0.83361183  0.72831356  1
  O2-  O234  1  0.71445181  0.33813981  0.07389354  1
  O2-  O235  1  0.70417901  0.33635403  0.39766300  1
  O2-  O236  1  0.71691600  0.33606440  0.73597808  1
  O2-  O237  1  0.70842760  0.83023335  0.06318266  1
  O2-  O238  1  0.71030133  0.83508727  0.39825654  1
  O2-  O239  1  0.71334169  0.83266464  0.73415159  1
  O2-  O240  1  0.46343229  0.41468394  0.26376183  1
  O2-  O241  1  0.46072085  0.41759018  0.60021800  1
  O2-  O242  1  0.45934682  0.41690251  0.93510701  1
  O2-  O243  1  0.45507534  0.91259528  0.27167866  1
  O2-  O244  1  0.46515236  0.91852106  0.59737587  1
  O2-  O245  1  0.44998158  0.92380244  0.94017713  1
  O2-  O246  1  0.95871177  0.41297408  0.26917643  1
  O2-  O247  1  0.95886928  0.41150124  0.60308659  1
  O2-  O248  1  0.95959122  0.41186807  0.93738691  1
  O2-  O249  1  0.95882844  0.91335753  0.27189660  1
  O2-  O250  1  0.95829279  0.92229813  0.59504306  1
  O2-  O251  1  0.96455380  0.91593014  0.93096807  1
  O2-  O252  1  0.32925460  0.29459516  0.26679108  1
  O2-  O253  1  0.32690347  0.29728146  0.60016812  1
  O2-  O254  1  0.32382781  0.30103334  0.93562674  1
  O2-  O255  1  0.33478764  0.79207914  0.27365223  1
  O2-  O256  1  0.32651388  0.80474438  0.60446724  1
  O2-  O257  1  0.33018615  0.79157962  0.93350128  1
  O2-  O258  1  0.83388935  0.29836585  0.27269698  1
  O2-  O259  1  0.83871541  0.29478336  0.60211708  1
  O2-  O260  1  0.83727827  0.29456735  0.94072554  1
  O2-  O261  1  0.83815721  0.79150433  0.26961918  1
  O2-  O262  1  0.83132631  0.79563379  0.59362893  1
  O2-  O263  1  0.83561245  0.79322978  0.93134102  1
  O2-  O264  1  0.42072204  0.04752565  0.06954452  1
  O2-  O265  1  0.42426639  0.04893080  0.39772801  1
  O2-  O266  1  0.41917578  0.04263825  0.73169815  1
  O2-  O267  1  0.40875462  0.54090418  0.06384146  1
  O2-  O268  1  0.41793950  0.53770640  0.39892007  1
  O2-  O269  1  0.41603425  0.54071268  0.73681267  1
  O2-  O270  1  0.91806139  0.03712947  0.06610471  1
  O2-  O271  1  0.91370146  0.03997705  0.40252032  1
  O2-  O272  1  0.91981687  0.05044179  0.72571140  1
  O2-  O273  1  0.91603083  0.54093897  0.06578070  1
  O2-  O274  1  0.91689142  0.53923558  0.40157071  1
  O2-  O275  1  0.91576926  0.54163433  0.72936658  1
  O2-  O276  1  0.28402283  0.16622696  0.06689517  1
  O2-  O277  1  0.28607806  0.16811808  0.39904783  1
  O2-  O278  1  0.28361466  0.16634161  0.73291317  1
  O2-  O279  1  0.28899653  0.66070551  0.06294274  1
  O2-  O280  1  0.28981318  0.66334385  0.40042695  1
  O2-  O281  1  0.28731118  0.66886729  0.73535718  1
  O2-  O282  1  0.79382897  0.16594787  0.06792475  1
  O2-  O283  1  0.79446815  0.16958715  0.40043987  1
  O2-  O284  1  0.80096938  0.16814971  0.72731135  1
  O2-  O285  1  0.80483001  0.66785923  0.05869573  1
  O2-  O286  1  0.79250352  0.66795695  0.40127758  1
  O2-  O287  1  0.80470639  0.66907338  0.72383681  1
