# generated using pymatgen
data_Ca2Al2SiO7
_symmetry_space_group_name_H-M   'P 1'
_cell_length_a   15.45428907
_cell_length_b   15.45574524
_cell_length_c   15.28140425
_cell_angle_alpha   89.99700759
_cell_angle_beta   89.99610076
_cell_angle_gamma   89.99259261
_symmetry_Int_Tables_number   1
_chemical_formula_structural   Ca2Al2SiO7
_chemical_formula_sum   'Ca48 Al48 Si24 O168'
_cell_volume   3650.07880899
_cell_formula_units_Z   24
loop_
 _symmetry_equiv_pos_site_id
 _symmetry_equiv_pos_as_xyz
  1  'x, y, z'
loop_
 _atom_type_symbol
 _atom_type_oxidation_number
  Ca2+  2.0
  Al0+  0.0
  Si0+  0.0
  O2-  -2.0
loop_
 _atom_site_type_symbol
 _atom_site_label
 _atom_site_symmetry_multiplicity
 _atom_site_fract_x
 _atom_site_fract_y
 _atom_site_fract_z
 _atom_site_occupancy
  Ca2+  Ca0  1  0.15973587  0.07933787  0.17438531  1
  Ca2+  Ca1  1  0.17036297  0.07335589  0.50368825  1
  Ca2+  Ca2  1  0.16875600  0.07986111  0.83483800  1
  Ca2+  Ca3  1  0.16786641  0.58782993  0.16520587  1
  Ca2+  Ca4  1  0.16839704  0.58096641  0.50360186  1
  Ca2+  Ca5  1  0.17180604  0.58945411  0.84387634  1
  Ca2+  Ca6  1  0.67878325  0.08121270  0.17124022  1
  Ca2+  Ca7  1  0.66750837  0.07455877  0.50488978  1
  Ca2+  Ca8  1  0.66526028  0.07765160  0.83937267  1
  Ca2+  Ca9  1  0.67837944  0.59041177  0.16821586  1
  Ca2+  Ca10  1  0.67081378  0.57836195  0.50218336  1
  Ca2+  Ca11  1  0.66691521  0.57695097  0.84229668  1
  Ca2+  Ca12  1  0.07669133  0.31865855  0.15922698  1
  Ca2+  Ca13  1  0.08334161  0.32281624  0.49172846  1
  Ca2+  Ca14  1  0.07611767  0.33168901  0.83618201  1
  Ca2+  Ca15  1  0.07066822  0.83483811  0.16225807  1
  Ca2+  Ca16  1  0.07380011  0.84491363  0.49622912  1
  Ca2+  Ca17  1  0.07170885  0.83457018  0.83140260  1
  Ca2+  Ca18  1  0.58049382  0.32880091  0.16201689  1
  Ca2+  Ca19  1  0.58206522  0.32847617  0.49889015  1
  Ca2+  Ca20  1  0.59234065  0.32007868  0.82871182  1
  Ca2+  Ca21  1  0.58144947  0.83328418  0.16528015  1
  Ca2+  Ca22  1  0.57430594  0.84702481  0.49706032  1
  Ca2+  Ca23  1  0.58301408  0.82752098  0.82542394  1
  Ca2+  Ca24  1  0.33755425  0.42160480  0.16942160  1
  Ca2+  Ca25  1  0.33729285  0.41534236  0.50154909  1
  Ca2+  Ca26  1  0.33054133  0.42432414  0.84171611  1
  Ca2+  Ca27  1  0.32452277  0.91555309  0.17497798  1
  Ca2+  Ca28  1  0.32499475  0.91484739  0.50943155  1
  Ca2+  Ca29  1  0.33098878  0.91591530  0.83101076  1
  Ca2+  Ca30  1  0.84440725  0.42895323  0.16726479  1
  Ca2+  Ca31  1  0.83006176  0.42483206  0.50495560  1
  Ca2+  Ca32  1  0.83047251  0.42007805  0.84197936  1
  Ca2+  Ca33  1  0.83395872  0.92201095  0.17553106  1
  Ca2+  Ca34  1  0.82678492  0.91661985  0.50078999  1
  Ca2+  Ca35  1  0.83268970  0.91726096  0.83787817  1
  Ca2+  Ca36  1  0.42347206  0.17199493  0.16221331  1
  Ca2+  Ca37  1  0.42250388  0.16279006  0.49774040  1
  Ca2+  Ca38  1  0.42831752  0.15991017  0.82672907  1
  Ca2+  Ca39  1  0.42237649  0.67204252  0.15976166  1
  Ca2+  Ca40  1  0.41847524  0.68115984  0.49544719  1
  Ca2+  Ca41  1  0.42026499  0.66925707  0.83159826  1
  Ca2+  Ca42  1  0.92223157  0.16109122  0.15831418  1
  Ca2+  Ca43  1  0.92243462  0.16134783  0.49202709  1
  Ca2+  Ca44  1  0.91585410  0.16533373  0.83715588  1
  Ca2+  Ca45  1  0.91416590  0.67651886  0.15820618  1
  Ca2+  Ca46  1  0.91242417  0.67871063  0.49461044  1
  Ca2+  Ca47  1  0.91248449  0.67709429  0.83293526  1
  Al0+  Al48  1  -0.00042673  -0.00006846  -0.00557479  1
  Al0+  Al49  1  0.00072141  -0.00089489  0.33352288  1
  Al0+  Al50  1  0.00081026  -0.00002334  0.66664424  1
  Al0+  Al51  1  0.00135045  0.49869399  -0.00190256  1
  Al0+  Al52  1  0.00201911  0.49990785  0.34048824  1
  Al0+  Al53  1  0.00081774  0.50018650  0.66604574  1
  Al0+  Al54  1  0.49704276  0.00076186  -0.00083491  1
  Al0+  Al55  1  0.50006330  0.00133754  0.32784415  1
  Al0+  Al56  1  0.50138935  -0.00025750  0.66607815  1
  Al0+  Al57  1  0.49837032  0.50141905  0.00182847  1
  Al0+  Al58  1  0.50047312  0.49990125  0.33049882  1
  Al0+  Al59  1  0.50151745  0.49851907  0.67090115  1
  Al0+  Al60  1  0.25003106  0.24973382  -0.00307916  1
  Al0+  Al61  1  0.25066546  0.25090328  0.32450917  1
  Al0+  Al62  1  0.25030613  0.25125279  0.67180263  1
  Al0+  Al63  1  0.24901980  0.75090622  0.00309135  1
  Al0+  Al64  1  0.25071544  0.74946266  0.33477761  1
  Al0+  Al65  1  0.24946061  0.74889686  0.66728495  1
  Al0+  Al66  1  0.74888658  0.24793115  -0.00198689  1
  Al0+  Al67  1  0.75138964  0.25249963  0.33663606  1
  Al0+  Al68  1  0.75037301  0.25158540  0.66345740  1
  Al0+  Al69  1  0.74588285  0.74827038  -0.00475917  1
  Al0+  Al70  1  0.74937853  0.74974912  0.33923156  1
  Al0+  Al71  1  0.75159195  0.75006888  0.66494076  1
  Al0+  Al72  1  0.82273719  0.07237445  0.34824651  1
  Al0+  Al73  1  0.43027010  0.32137679  0.31940835  1
  Al0+  Al74  1  0.67981709  0.92933299  0.68131127  1
  Al0+  Al75  1  0.18044637  0.92839271  0.34606038  1
  Al0+  Al76  1  0.92628263  0.82098901  0.98528164  1
  Al0+  Al77  1  0.57180706  0.17869167  0.65148425  1
  Al0+  Al78  1  0.43023125  0.81894362  0.65376427  1
  Al0+  Al79  1  0.32052113  0.57175521  0.01561812  1
  Al0+  Al80  1  0.07247383  0.17665905  0.98191801  1
  Al0+  Al81  1  0.82082140  0.57085018  0.01229763  1
  Al0+  Al82  1  0.67739160  0.92965225  0.34768270  1
  Al0+  Al83  1  0.82242909  0.57104407  0.34791018  1
  Al0+  Al84  1  0.92920708  0.82168951  0.64989741  1
  Al0+  Al85  1  0.56962717  0.17949082  0.98679099  1
  Al0+  Al86  1  0.92889901  0.81872795  0.32061291  1
  Al0+  Al87  1  0.07171795  0.67969407  0.98724868  1
  Al0+  Al88  1  0.92829566  0.32100504  0.98576410  1
  Al0+  Al89  1  0.32148010  0.07142990  0.68134244  1
  Al0+  Al90  1  0.06842620  0.17888858  0.32112682  1
  Al0+  Al91  1  0.81968131  0.06861809  0.01213503  1
  Al0+  Al92  1  0.56946322  0.67948166  0.98669355  1
  Al0+  Al93  1  0.42764108  0.82273618  0.31927271  1
  Al0+  Al94  1  0.17749154  0.92760235  0.68430315  1
  Al0+  Al95  1  0.67984428  0.42923275  0.68123172  1
  Si0+  Si96  1  0.92768637  0.32491350  0.31917382  1
  Si0+  Si97  1  0.67586597  0.42846716  0.34978572  1
  Si0+  Si98  1  0.67812061  0.42671463  0.01766653  1
  Si0+  Si99  1  0.82269445  0.07300718  0.68325828  1
  Si0+  Si100  1  0.07227094  0.67683397  0.64875232  1
  Si0+  Si101  1  0.92954727  0.32278681  0.64970588  1
  Si0+  Si102  1  0.32280271  0.57043158  0.34944389  1
  Si0+  Si103  1  0.67476933  0.92662564  0.01555596  1
  Si0+  Si104  1  0.18147976  0.42788734  0.34781503  1
  Si0+  Si105  1  0.57248411  0.67512754  0.64931423  1
  Si0+  Si106  1  0.32229511  0.07237342  0.01667076  1
  Si0+  Si107  1  0.57064344  0.67766333  0.31766082  1
  Si0+  Si108  1  0.32050527  0.57008107  0.68088168  1
  Si0+  Si109  1  0.17843160  0.42620545  0.01890037  1
  Si0+  Si110  1  0.17960615  0.93113414  0.01560766  1
  Si0+  Si111  1  0.42643365  0.82241465  0.98329768  1
  Si0+  Si112  1  0.42836577  0.32294527  0.98198301  1
  Si0+  Si113  1  0.42723193  0.32293238  0.65226837  1
  Si0+  Si114  1  0.07276485  0.67463690  0.31832374  1
  Si0+  Si115  1  0.07214830  0.18117279  0.65129255  1
  Si0+  Si116  1  0.57462216  0.17827290  0.31577979  1
  Si0+  Si117  1  0.32168562  0.07432851  0.34650771  1
  Si0+  Si118  1  0.17767760  0.42845962  0.68250597  1
  Si0+  Si119  1  0.82283420  0.57117865  0.68466346  1
  O2-  O120  1  0.24837668  0.00458089  0.05848203  1
  O2-  O121  1  0.25799600  0.00161617  0.39126190  1
  O2-  O122  1  0.25023204  -0.00041335  0.73359918  1
  O2-  O123  1  0.24646480  0.49616040  0.06288374  1
  O2-  O124  1  0.25149234  0.49941587  0.39184709  1
  O2-  O125  1  0.24857567  0.49994334  0.72316714  1
  O2-  O126  1  0.74641777  -0.00756541  0.05895115  1
  O2-  O127  1  0.74815244  0.00312997  0.39804163  1
  O2-  O128  1  0.75444420  0.00411418  0.72763163  1
  O2-  O129  1  0.74747277  0.49494342  0.06152052  1
  O2-  O130  1  0.74813204  0.49434606  0.39272674  1
  O2-  O131  1  0.75305143  0.50416392  0.72902643  1
  O2-  O132  1  -0.01013462  0.25050584  0.27584223  1
  O2-  O133  1  -0.00040631  0.25053012  0.60807708  1
  O2-  O134  1  -0.00065468  0.24876522  0.93359536  1
  O2-  O135  1  0.00283683  0.74207058  0.27557349  1
  O2-  O136  1  0.00540430  0.74659921  0.60456763  1
  O2-  O137  1  -0.00311431  0.74668853  0.93546165  1
  O2-  O138  1  0.50575600  0.24799329  0.27291988  1
  O2-  O139  1  0.49368814  0.25249817  0.60776710  1
  O2-  O140  1  0.49600139  0.25441412  0.93742280  1
  O2-  O141  1  0.50417579  0.74917821  0.27431533  1
  O2-  O142  1  0.50673464  0.74640609  0.60495938  1
  O2-  O143  1  0.49661654  0.75536947  0.93940013  1
  O2-  O144  1  0.07258345  0.17699369  0.09565490  1
  O2-  O145  1  0.07168375  0.18259947  0.43476620  1
  O2-  O146  1  0.07231718  0.18370946  0.75591807  1
  O2-  O147  1  0.07283564  0.68413589  0.10097822  1
  O2-  O148  1  0.07323391  0.67167193  0.42408562  1
  O2-  O149  1  0.07176407  0.67313107  0.75386360  1
  O2-  O150  1  0.56731331  0.18128634  0.09996403  1
  O2-  O151  1  0.57279296  0.17840502  0.42144858  1
  O2-  O152  1  0.57214159  0.18023345  0.76456846  1
  O2-  O153  1  0.56924844  0.68083783  0.09993914  1
  O2-  O154  1  0.56635161  0.67179366  0.42319717  1
  O2-  O155  1  0.56911906  0.67322334  0.75487543  1
  O2-  O156  1  0.18106534  0.42881546  0.24338250  1
  O2-  O157  1  0.17788095  0.42759998  0.57698111  1
  O2-  O158  1  0.18114828  0.42547775  0.91285009  1
  O2-  O159  1  0.17998262  0.92963460  0.23265214  1
  O2-  O160  1  0.17805816  0.93023452  0.57048290  1
  O2-  O161  1  0.18248336  0.93031217  0.91072600  1
  O2-  O162  1  0.67254572  0.42887167  0.24461961  1
  O2-  O163  1  0.68055890  0.43128870  0.56773640  1
  O2-  O164  1  0.67822742  0.42820578  0.91185575  1
  O2-  O165  1  0.67780692  0.92991688  0.23380877  1
  O2-  O166  1  0.67900061  0.93177375  0.56852253  1
  O2-  O167  1  0.67243326  0.92859513  0.90985641  1
  O2-  O168  1  0.42923555  0.32196004  0.08792376  1
  O2-  O169  1  0.43058405  0.32183460  0.43270483  1
  O2-  O170  1  0.42694684  0.32580140  0.75735826  1
  O2-  O171  1  0.42622508  0.82173138  0.08914489  1
  O2-  O172  1  0.42582136  0.81987387  0.43241500  1
  O2-  O173  1  0.42993740  0.81409229  0.76685899  1
  O2-  O174  1  0.93141482  0.32176950  0.09953067  1
  O2-  O175  1  0.93235342  0.32743062  0.42524022  1
  O2-  O176  1  0.93097781  0.32560665  0.75426738  1
  O2-  O177  1  0.92749619  0.82208603  0.09903194  1
  O2-  O178  1  0.93064259  0.81860084  0.43377075  1
  O2-  O179  1  0.92840778  0.81952064  0.76272525  1
  O2-  O180  1  0.31913935  0.07492698  0.24058168  1
  O2-  O181  1  0.31818184  0.07372559  0.56731683  1
  O2-  O182  1  0.32508452  0.07043184  0.91192922  1
  O2-  O183  1  0.32272191  0.57004667  0.24470957  1
  O2-  O184  1  0.32022316  0.56814633  0.57536258  1
  O2-  O185  1  0.31953093  0.56972928  0.90190205  1
  O2-  O186  1  0.82233500  0.07139198  0.23454515  1
  O2-  O187  1  0.82294929  0.07314434  0.57759124  1
  O2-  O188  1  0.81713003  0.06848616  0.89888035  1
  O2-  O189  1  0.82286583  0.57073294  0.23483239  1
  O2-  O190  1  0.82346276  0.56783606  0.57868153  1
  O2-  O191  1  0.81722376  0.56966105  0.89927656  1
  O2-  O192  1  0.04020206  0.08287273  0.26613013  1
  O2-  O193  1  0.04591478  0.08868637  0.60508854  1
  O2-  O194  1  0.04388829  0.08013919  0.92698617  1
  O2-  O195  1  0.04978465  0.57969166  0.27346178  1
  O2-  O196  1  0.04643492  0.58268654  0.60131497  1
  O2-  O197  1  0.05352788  0.57836878  0.93683085  1
  O2-  O198  1  0.54853636  0.08658094  0.26685954  1
  O2-  O199  1  0.54031467  0.08329755  0.59651456  1
  O2-  O200  1  0.53622251  0.08331611  0.93291545  1
  O2-  O201  1  0.54255208  0.58624352  0.26854057  1
  O2-  O202  1  0.54276052  0.58223568  0.60311937  1
  O2-  O203  1  0.53647630  0.58300207  0.93272194  1
  O2-  O204  1  0.16266541  0.21309127  0.26447971  1
  O2-  O205  1  0.16344779  0.21311465  0.60469793  1
  O2-  O206  1  0.17111832  0.20651489  0.92949672  1
  O2-  O207  1  0.16705905  0.69959054  0.27395658  1
  O2-  O208  1  0.16719150  0.69861244  0.60341563  1
  O2-  O209  1  0.16941032  0.71125019  0.93360615  1
  O2-  O210  1  0.66864042  0.20580901  0.27132487  1
  O2-  O211  1  0.66687547  0.21316819  0.59603084  1
  O2-  O212  1  0.66504272  0.20878200  0.93090316  1
  O2-  O213  1  0.66519046  0.70244458  0.27431172  1
  O2-  O214  1  0.66774717  0.69618713  0.60580549  1
  O2-  O215  1  0.66398358  0.70609346  0.92768673  1
  O2-  O216  1  0.08483366  0.45013873  0.06466698  1
  O2-  O217  1  0.09112809  0.45397720  0.39990142  1
  O2-  O218  1  0.08572270  0.45605592  0.72960853  1
  O2-  O219  1  0.08669924  0.95806805  0.06067499  1
  O2-  O220  1  0.08623288  0.96326083  0.40110386  1
  O2-  O221  1  0.07987874  0.95903454  0.73678499  1
  O2-  O222  1  0.58388060  0.45309190  0.06224351  1
  O2-  O223  1  0.58391506  0.45857515  0.39810382  1
  O2-  O224  1  0.58302064  0.45701289  0.73700256  1
  O2-  O225  1  0.58135375  0.95486018  0.06173493  1
  O2-  O226  1  0.57752575  0.95978149  0.39852943  1
  O2-  O227  1  0.58341341  0.95899407  0.73544374  1
  O2-  O228  1  0.20661637  0.33270004  0.06465355  1
  O2-  O229  1  0.21239973  0.33668722  0.39545984  1
  O2-  O230  1  0.20508443  0.33855397  0.73300311  1
  O2-  O231  1  0.20958735  0.84089005  0.06465098  1
  O2-  O232  1  0.20852970  0.83109680  0.40085729  1
  O2-  O233  1  0.20560855  0.82798467  0.73509770  1
  O2-  O234  1  0.70155693  0.33270695  0.06295951  1
  O2-  O235  1  0.69799762  0.33460923  0.39712776  1
  O2-  O236  1  0.71291833  0.33284486  0.73397849  1
  O2-  O237  1  0.69593937  0.83130363  0.05892035  1
  O2-  O238  1  0.70224386  0.83132553  0.40201510  1
  O2-  O239  1  0.70847981  0.83045008  0.73257612  1
  O2-  O240  1  0.46017756  0.41790084  0.26386880  1
  O2-  O241  1  0.45575595  0.41575043  0.60463822  1
  O2-  O242  1  0.45217974  0.41737623  0.93767727  1
  O2-  O243  1  0.45426865  0.91950436  0.26320172  1
  O2-  O244  1  0.45861720  0.91593065  0.60024108  1
  O2-  O245  1  0.44885692  0.91673163  0.93814616  1
  O2-  O246  1  0.96159490  0.41616253  0.27303987  1
  O2-  O247  1  0.96000778  0.41399877  0.60116798  1
  O2-  O248  1  0.95918409  0.41767791  0.92983445  1
  O2-  O249  1  0.96240242  0.91421644  0.26696722  1
  O2-  O250  1  0.96060544  0.91915605  0.59736056  1
  O2-  O251  1  0.95870757  0.91645633  0.92984621  1
  O2-  O252  1  0.33525501  0.29270798  0.26125701  1
  O2-  O253  1  0.33177454  0.30123624  0.60704922  1
  O2-  O254  1  0.33405547  0.29966174  0.93691711  1
  O2-  O255  1  0.33219788  0.78765652  0.26499772  1
  O2-  O256  1  0.33366674  0.78529474  0.59990879  1
  O2-  O257  1  0.33396911  0.79362427  0.93784128  1
  O2-  O258  1  0.83085976  0.31016707  0.27670547  1
  O2-  O259  1  0.83793050  0.29745403  0.60128051  1
  O2-  O260  1  0.82993993  0.29382376  0.93258977  1
  O2-  O261  1  0.83098614  0.78869762  0.26932458  1
  O2-  O262  1  0.83295726  0.78880392  0.59554877  1
  O2-  O263  1  0.82797928  0.79376339  0.93198317  1
  O2-  O264  1  0.41234006  0.04230525  0.06699547  1
  O2-  O265  1  0.41763624  0.05401200  0.38882824  1
  O2-  O266  1  0.41949542  0.04188880  0.73360239  1
  O2-  O267  1  0.41641690  0.54016733  0.07131972  1
  O2-  O268  1  0.41377239  0.54026078  0.39723726  1
  O2-  O269  1  0.41160979  0.54165766  0.72919550  1
  O2-  O270  1  0.91859845  0.04074890  0.06344035  1
  O2-  O271  1  0.91976482  0.04138360  0.40195449  1
  O2-  O272  1  0.91659290  0.04809665  0.72849313  1
  O2-  O273  1  0.91874365  0.54141843  0.06526106  1
  O2-  O274  1  0.91822639  0.54037309  0.40510639  1
  O2-  O275  1  0.91671817  0.54349301  0.72910055  1
  O2-  O276  1  0.29853134  0.16671428  0.06130655  1
  O2-  O277  1  0.29290714  0.16736204  0.39215674  1
  O2-  O278  1  0.29417806  0.17025432  0.73575231  1
  O2-  O279  1  0.28962867  0.66806276  0.07073557  1
  O2-  O280  1  0.29432211  0.66111857  0.39865223  1
  O2-  O281  1  0.29297134  0.66072306  0.72952369  1
  O2-  O282  1  0.78844370  0.16542178  0.06617037  1
  O2-  O283  1  0.80098904  0.17384051  0.39987457  1
  O2-  O284  1  0.79823138  0.16804576  0.72632552  1
  O2-  O285  1  0.78600584  0.66697869  0.06576811  1
  O2-  O286  1  0.78842118  0.66444016  0.40541099  1
  O2-  O287  1  0.79911554  0.66571250  0.72762839  1
