# generated using pymatgen
data_Ca2Al2SiO7
_symmetry_space_group_name_H-M   'P 1'
_cell_length_a   15.45877200
_cell_length_b   15.45930331
_cell_length_c   15.28402155
_cell_angle_alpha   89.98991772
_cell_angle_beta   90.01540039
_cell_angle_gamma   90.01941178
_symmetry_Int_Tables_number   1
_chemical_formula_structural   Ca2Al2SiO7
_chemical_formula_sum   'Ca48 Al48 Si24 O168'
_cell_volume   3652.60327563
_cell_formula_units_Z   24
loop_
 _symmetry_equiv_pos_site_id
 _symmetry_equiv_pos_as_xyz
  1  'x, y, z'
loop_
 _atom_type_symbol
 _atom_type_oxidation_number
  Ca2+  2.0
  Al0+  0.0
  Si0+  0.0
  O2-  -2.0
loop_
 _atom_site_type_symbol
 _atom_site_label
 _atom_site_symmetry_multiplicity
 _atom_site_fract_x
 _atom_site_fract_y
 _atom_site_fract_z
 _atom_site_occupancy
  Ca2+  Ca0  1  0.16760009  0.08029969  0.17572741  1
  Ca2+  Ca1  1  0.17633496  0.09964709  0.50270061  1
  Ca2+  Ca2  1  0.17050564  0.08459195  0.83557286  1
  Ca2+  Ca3  1  0.16615789  0.57582539  0.16689645  1
  Ca2+  Ca4  1  0.16297611  0.56804226  0.50479599  1
  Ca2+  Ca5  1  0.16792890  0.57244672  0.84389713  1
  Ca2+  Ca6  1  0.67852517  0.08582679  0.17202777  1
  Ca2+  Ca7  1  0.66830742  0.08548716  0.50497803  1
  Ca2+  Ca8  1  0.66740324  0.07550964  0.83941210  1
  Ca2+  Ca9  1  0.66646890  0.57220214  0.17215960  1
  Ca2+  Ca10  1  0.66778363  0.58015065  0.50562903  1
  Ca2+  Ca11  1  0.67699695  0.58134055  0.83947527  1
  Ca2+  Ca12  1  0.08287635  0.33404864  0.16674939  1
  Ca2+  Ca13  1  0.07649662  0.33054584  0.49605619  1
  Ca2+  Ca14  1  0.07883062  0.33441603  0.82300807  1
  Ca2+  Ca15  1  0.08423121  0.82886164  0.15469157  1
  Ca2+  Ca16  1  0.08031781  0.82979854  0.49539246  1
  Ca2+  Ca17  1  0.08669639  0.82771388  0.83569480  1
  Ca2+  Ca18  1  0.59309735  0.33044020  0.16457923  1
  Ca2+  Ca19  1  0.58626136  0.32219817  0.49129196  1
  Ca2+  Ca20  1  0.58355127  0.32935086  0.82848640  1
  Ca2+  Ca21  1  0.58512217  0.82909587  0.16340064  1
  Ca2+  Ca22  1  0.59349922  0.82293692  0.49882391  1
  Ca2+  Ca23  1  0.58907007  0.83122902  0.82509095  1
  Ca2+  Ca24  1  0.32235587  0.41806974  0.16847528  1
  Ca2+  Ca25  1  0.31912354  0.40649155  0.50194804  1
  Ca2+  Ca26  1  0.32078098  0.41911162  0.83936790  1
  Ca2+  Ca27  1  0.32624023  0.91997060  0.16933951  1
  Ca2+  Ca28  1  0.33445647  0.92865765  0.50250718  1
  Ca2+  Ca29  1  0.32943039  0.92335101  0.83594691  1
  Ca2+  Ca30  1  0.82668058  0.41702180  0.16924774  1
  Ca2+  Ca31  1  0.83465288  0.41654668  0.50187569  1
  Ca2+  Ca32  1  0.83301121  0.42390656  0.83709788  1
  Ca2+  Ca33  1  0.83250814  0.92877991  0.16688064  1
  Ca2+  Ca34  1  0.82934705  0.92716510  0.50356924  1
  Ca2+  Ca35  1  0.82218367  0.92389696  0.83975070  1
  Ca2+  Ca36  1  0.42083636  0.16370705  0.16861006  1
  Ca2+  Ca37  1  0.42501268  0.15859865  0.49594366  1
  Ca2+  Ca38  1  0.42118837  0.16643039  0.82414609  1
  Ca2+  Ca39  1  0.42060802  0.66059500  0.16108596  1
  Ca2+  Ca40  1  0.43011533  0.66710871  0.49433564  1
  Ca2+  Ca41  1  0.42177130  0.66632593  0.82856507  1
  Ca2+  Ca42  1  0.91349413  0.16949876  0.16599034  1
  Ca2+  Ca43  1  0.92272998  0.17854134  0.48937213  1
  Ca2+  Ca44  1  0.92164793  0.17327667  0.82481497  1
  Ca2+  Ca45  1  0.92203969  0.66484268  0.15818184  1
  Ca2+  Ca46  1  0.91121181  0.66756790  0.49941987  1
  Ca2+  Ca47  1  0.91780980  0.65851339  0.83112223  1
  Al0+  Al48  1  0.00055834  -0.00015155  0.00394253  1
  Al0+  Al49  1  -0.00133045  -0.00056144  0.33532445  1
  Al0+  Al50  1  0.00178826  -0.00159902  0.66292124  1
  Al0+  Al51  1  -0.00000557  0.49912770  0.00233535  1
  Al0+  Al52  1  -0.00075283  0.50086043  0.33352138  1
  Al0+  Al53  1  -0.00077970  0.50008155  0.66961905  1
  Al0+  Al54  1  0.50013769  -0.00186364  0.00230932  1
  Al0+  Al55  1  0.49888906  -0.00247103  0.33083512  1
  Al0+  Al56  1  0.49785444  -0.00030632  0.67105477  1
  Al0+  Al57  1  0.49905777  0.49848865  0.00266800  1
  Al0+  Al58  1  0.50022866  0.49940129  0.33344387  1
  Al0+  Al59  1  0.49877567  0.50013540  0.66092569  1
  Al0+  Al60  1  0.25168241  0.25052374  0.00209285  1
  Al0+  Al61  1  0.25004950  0.24919671  0.33629389  1
  Al0+  Al62  1  0.25027175  0.24997573  0.67483810  1
  Al0+  Al63  1  0.25119082  0.75093065  0.00078699  1
  Al0+  Al64  1  0.25090941  0.75019922  0.33518989  1
  Al0+  Al65  1  0.25040261  0.75094688  0.66297251  1
  Al0+  Al66  1  0.75137933  0.24960107  0.00161440  1
  Al0+  Al67  1  0.75086496  0.25095194  0.33353657  1
  Al0+  Al68  1  0.75028907  0.25130707  0.65972713  1
  Al0+  Al69  1  0.75099441  0.75171459  0.00604474  1
  Al0+  Al70  1  0.75008828  0.74976030  0.32575121  1
  Al0+  Al71  1  0.75094651  0.75019326  0.67017489  1
  Al0+  Al72  1  0.67644614  0.92831771  0.01708436  1
  Al0+  Al73  1  0.18063927  0.93064120  0.01167437  1
  Al0+  Al74  1  0.82131197  0.07170630  0.01332063  1
  Al0+  Al75  1  0.67855825  0.42909603  0.01286149  1
  Al0+  Al76  1  0.07025867  0.67902622  0.98606880  1
  Al0+  Al77  1  0.07198397  0.17942694  0.31691870  1
  Al0+  Al78  1  0.17877799  0.43078947  0.34861100  1
  Al0+  Al79  1  0.67872677  0.42935949  0.34913410  1
  Al0+  Al80  1  0.32036366  0.06904532  0.34675868  1
  Al0+  Al81  1  0.18029132  0.43076265  0.68122936  1
  Al0+  Al82  1  0.81844176  0.57019179  0.67960285  1
  Al0+  Al83  1  0.32110485  0.57192389  0.01343835  1
  Al0+  Al84  1  0.68066118  0.93112337  0.67818080  1
  Al0+  Al85  1  0.17777760  0.42715738  0.01612316  1
  Al0+  Al86  1  0.92927420  0.32311733  0.65138483  1
  Al0+  Al87  1  0.57073466  0.67801557  0.31700861  1
  Al0+  Al88  1  0.57211969  0.67994418  0.65490126  1
  Al0+  Al89  1  0.82220743  0.57145071  0.01576092  1
  Al0+  Al90  1  0.56953012  0.17828223  0.65481950  1
  Al0+  Al91  1  0.92929261  0.32278169  0.31460968  1
  Al0+  Al92  1  0.07257766  0.17760874  0.65292530  1
  Al0+  Al93  1  0.82084831  0.07140186  0.34963202  1
  Al0+  Al94  1  0.57071604  0.17813717  0.31842436  1
  Al0+  Al95  1  0.31887359  0.06944312  0.68138195  1
  Si0+  Si96  1  0.92834107  0.82069915  0.65241655  1
  Si0+  Si97  1  0.32329213  0.57458528  0.68101537  1
  Si0+  Si98  1  0.92902973  0.82151322  0.31710565  1
  Si0+  Si99  1  0.07146038  0.67911682  0.65210255  1
  Si0+  Si100  1  0.42690925  0.82051627  0.31453409  1
  Si0+  Si101  1  0.67879835  0.92712726  0.34939615  1
  Si0+  Si102  1  0.42688917  0.82235068  0.64920870  1
  Si0+  Si103  1  0.82372409  0.07418534  0.68084483  1
  Si0+  Si104  1  0.42928083  0.82179707  0.98340731  1
  Si0+  Si105  1  0.32262522  0.57366813  0.35219609  1
  Si0+  Si106  1  0.17677267  0.92600126  0.35131624  1
  Si0+  Si107  1  0.32290340  0.07293631  0.01746220  1
  Si0+  Si108  1  0.42750392  0.32204008  0.65076198  1
  Si0+  Si109  1  0.42713306  0.32140174  0.31612165  1
  Si0+  Si110  1  0.92786171  0.82384103  0.98195917  1
  Si0+  Si111  1  0.42779584  0.32080287  0.98437479  1
  Si0+  Si112  1  0.17551656  0.92352335  0.68350586  1
  Si0+  Si113  1  0.92925176  0.31974503  0.98420415  1
  Si0+  Si114  1  0.07308616  0.17757053  0.98575676  1
  Si0+  Si115  1  0.07154767  0.68022254  0.31941594  1
  Si0+  Si116  1  0.57132884  0.67857691  0.98498705  1
  Si0+  Si117  1  0.67502808  0.42609554  0.68108636  1
  Si0+  Si118  1  0.57084324  0.17886621  0.98562021  1
  Si0+  Si119  1  0.82077536  0.57371107  0.34984189  1
  O2-  O120  1  0.25118690  0.00736573  0.06065037  1
  O2-  O121  1  0.24232383  -0.00227197  0.39458767  1
  O2-  O122  1  0.24136075  -0.00396388  0.72552781  1
  O2-  O123  1  0.24835387  0.50163805  0.06425382  1
  O2-  O124  1  0.25428467  0.50497416  0.39647207  1
  O2-  O125  1  0.25461842  0.50694107  0.72583626  1
  O2-  O126  1  0.74793506  0.00139760  0.06446755  1
  O2-  O127  1  0.74305798  -0.00123789  0.39520122  1
  O2-  O128  1  0.75197471  0.00895250  0.72540198  1
  O2-  O129  1  0.74740848  0.50279507  0.06502398  1
  O2-  O130  1  0.75222738  0.50578831  0.39473697  1
  O2-  O131  1  0.74321109  0.49527782  0.72488105  1
  O2-  O132  1  0.00059371  0.24989577  0.26395242  1
  O2-  O133  1  -0.00217987  0.24667888  0.60329267  1
  O2-  O134  1  0.00310917  0.24999159  0.94375588  1
  O2-  O135  1  0.00310020  0.75295846  0.27666182  1
  O2-  O136  1  0.00195837  0.75174038  0.60981287  1
  O2-  O137  1  -0.00676633  0.75155232  0.93751386  1
  O2-  O138  1  0.49798416  0.25499599  0.27101454  1
  O2-  O139  1  0.49855599  0.25601243  0.60668617  1
  O2-  O140  1  0.49925065  0.24925609  0.94289585  1
  O2-  O141  1  0.49364677  0.75030292  0.26995890  1
  O2-  O142  1  0.49585810  0.75305359  0.60663703  1
  O2-  O143  1  0.50240462  0.75192130  0.94204613  1
  O2-  O144  1  0.07410954  0.17689843  0.09038187  1
  O2-  O145  1  0.07196916  0.18236438  0.43026214  1
  O2-  O146  1  0.07070307  0.17799059  0.76741536  1
  O2-  O147  1  0.07011906  0.68253736  0.09956069  1
  O2-  O148  1  0.07040387  0.68152875  0.42511364  1
  O2-  O149  1  0.07248605  0.67995220  0.75693853  1
  O2-  O150  1  0.56970880  0.17934961  0.09051291  1
  O2-  O151  1  0.56791880  0.17681202  0.43170508  1
  O2-  O152  1  0.56776781  0.17863093  0.76857883  1
  O2-  O153  1  0.56786619  0.67874934  0.08993987  1
  O2-  O154  1  0.57268545  0.68154924  0.43047589  1
  O2-  O155  1  0.57133294  0.68156382  0.76822336  1
  O2-  O156  1  0.18020188  0.43362539  0.23591501  1
  O2-  O157  1  0.18067410  0.43178058  0.56804498  1
  O2-  O158  1  0.17946623  0.42674045  0.90238718  1
  O2-  O159  1  0.17894602  0.92229038  0.24571539  1
  O2-  O160  1  0.17726575  0.91590110  0.57840677  1
  O2-  O161  1  0.18289399  0.93167819  0.89849011  1
  O2-  O162  1  0.67949974  0.43128145  0.23617574  1
  O2-  O163  1  0.67425811  0.42755647  0.57573292  1
  O2-  O164  1  0.67835707  0.42857824  0.89883309  1
  O2-  O165  1  0.68179484  0.92670571  0.24409047  1
  O2-  O166  1  0.68438511  0.92893489  0.56512059  1
  O2-  O167  1  0.67576521  0.93033498  0.90299231  1
  O2-  O168  1  0.42495145  0.31941130  0.08899207  1
  O2-  O169  1  0.42705655  0.31967888  0.42192550  1
  O2-  O170  1  0.42889126  0.32188894  0.75683227  1
  O2-  O171  1  0.42856562  0.82270557  0.08827969  1
  O2-  O172  1  0.42581557  0.81972743  0.42016445  1
  O2-  O173  1  0.42459943  0.82104575  0.75494806  1
  O2-  O174  1  0.92715511  0.31876600  0.08877457  1
  O2-  O175  1  0.93147470  0.32418062  0.42812706  1
  O2-  O176  1  0.93040962  0.32365946  0.76574378  1
  O2-  O177  1  0.93176310  0.82533298  0.08766629  1
  O2-  O178  1  0.92799592  0.81942151  0.42283412  1
  O2-  O179  1  0.92805015  0.82119726  0.75706234  1
  O2-  O180  1  0.32014226  0.06509863  0.23352286  1
  O2-  O181  1  0.32060752  0.06749114  0.56854931  1
  O2-  O182  1  0.32394155  0.07195374  0.91171102  1
  O2-  O183  1  0.32025084  0.57558885  0.24676025  1
  O2-  O184  1  0.32180944  0.57586449  0.57553269  1
  O2-  O185  1  0.32187071  0.56963751  0.89940188  1
  O2-  O186  1  0.82113252  0.06812711  0.23676624  1
  O2-  O187  1  0.82335922  0.07074300  0.57542793  1
  O2-  O188  1  0.81979731  0.07209559  0.89913577  1
  O2-  O189  1  0.82074515  0.57516988  0.24467230  1
  O2-  O190  1  0.81742972  0.57338934  0.56655925  1
  O2-  O191  1  0.82079564  0.56903590  0.90180399  1
  O2-  O192  1  0.04566729  0.07771018  0.26877754  1
  O2-  O193  1  0.05421505  0.07600920  0.60143569  1
  O2-  O194  1  0.04472223  0.08567905  0.93839212  1
  O2-  O195  1  0.04196436  0.58984674  0.27161856  1
  O2-  O196  1  0.04018580  0.58897603  0.60421457  1
  O2-  O197  1  0.04098913  0.58127555  0.93271299  1
  O2-  O198  1  0.53839283  0.08149571  0.26471669  1
  O2-  O199  1  0.53516512  0.08222797  0.60183061  1
  O2-  O200  1  0.54226074  0.08612138  0.93965343  1
  O2-  O201  1  0.53984089  0.58095181  0.26409685  1
  O2-  O202  1  0.54311675  0.58360007  0.59851220  1
  O2-  O203  1  0.54205166  0.58678209  0.93795858  1
  O2-  O204  1  0.17181786  0.20621408  0.26558108  1
  O2-  O205  1  0.17128202  0.21076217  0.60399146  1
  O2-  O206  1  0.16670573  0.20329217  0.93969471  1
  O2-  O207  1  0.16469260  0.70598248  0.27373552  1
  O2-  O208  1  0.16304457  0.70520139  0.60261148  1
  O2-  O209  1  0.16661247  0.71322365  0.93236264  1
  O2-  O210  1  0.66720504  0.20935545  0.26561620  1
  O2-  O211  1  0.66655356  0.20425837  0.59974681  1
  O2-  O212  1  0.66262906  0.20666745  0.93806440  1
  O2-  O213  1  0.66610873  0.71012394  0.26128704  1
  O2-  O214  1  0.66761869  0.71433766  0.60042580  1
  O2-  O215  1  0.66513274  0.70569535  0.94094751  1
  O2-  O216  1  0.08019521  0.45447713  0.06849592  1
  O2-  O217  1  0.08309208  0.46564451  0.40232656  1
  O2-  O218  1  0.08477899  0.46356832  0.73507728  1
  O2-  O219  1  0.08401378  0.95596825  0.06714276  1
  O2-  O220  1  0.08162953  0.94570306  0.39569840  1
  O2-  O221  1  0.08039599  0.94452614  0.72830168  1
  O2-  O222  1  0.57984019  0.45303150  0.06638107  1
  O2-  O223  1  0.58072111  0.45787278  0.40196891  1
  O2-  O224  1  0.58001564  0.45042103  0.72540328  1
  O2-  O225  1  0.57746652  0.95364912  0.06983592  1
  O2-  O226  1  0.58271135  0.94613843  0.39195684  1
  O2-  O227  1  0.58300771  0.95629465  0.73250557  1
  O2-  O228  1  0.21028195  0.33011682  0.06932207  1
  O2-  O229  1  0.21096994  0.33453985  0.40182766  1
  O2-  O230  1  0.21186959  0.33632063  0.73817979  1
  O2-  O231  1  0.21404031  0.83609765  0.06746900  1
  O2-  O232  1  0.20580577  0.83364850  0.39959825  1
  O2-  O233  1  0.20585442  0.83146279  0.73141294  1
  O2-  O234  1  0.70913498  0.33181856  0.06566087  1
  O2-  O235  1  0.70956673  0.33311356  0.40233954  1
  O2-  O236  1  0.70050310  0.33197006  0.72651395  1
  O2-  O237  1  0.70448549  0.83101091  0.07092412  1
  O2-  O238  1  0.71059110  0.83411614  0.39400574  1
  O2-  O239  1  0.71522078  0.83698751  0.73453414  1
  O2-  O240  1  0.44879424  0.41652164  0.27189676  1
  O2-  O241  1  0.44613517  0.41635028  0.60293921  1
  O2-  O242  1  0.45558520  0.41237527  0.93598453  1
  O2-  O243  1  0.45363155  0.91254468  0.26630391  1
  O2-  O244  1  0.45376544  0.91555136  0.60405034  1
  O2-  O245  1  0.45561069  0.91444238  0.93524944  1
  O2-  O246  1  0.95781228  0.42243853  0.26352148  1
  O2-  O247  1  0.96114089  0.42085295  0.59845962  1
  O2-  O248  1  0.95608654  0.41217050  0.93770424  1
  O2-  O249  1  0.95528520  0.91338248  0.27000427  1
  O2-  O250  1  0.95408427  0.91174749  0.60170570  1
  O2-  O251  1  0.95768750  0.91612485  0.93475462  1
  O2-  O252  1  0.33511523  0.29208614  0.26923382  1
  O2-  O253  1  0.33461047  0.29189488  0.60697458  1
  O2-  O254  1  0.33675566  0.29188140  0.93444879  1
  O2-  O255  1  0.33194231  0.79652474  0.26914784  1
  O2-  O256  1  0.33373936  0.79842372  0.60031444  1
  O2-  O257  1  0.33869650  0.79314746  0.93409461  1
  O2-  O258  1  0.83071159  0.29319914  0.26352220  1
  O2-  O259  1  0.82999214  0.30045888  0.59790167  1
  O2-  O260  1  0.83829138  0.29002606  0.93508898  1
  O2-  O261  1  0.83951538  0.79222310  0.26677267  1
  O2-  O262  1  0.83915963  0.78840388  0.60271591  1
  O2-  O263  1  0.83178951  0.80193480  0.93884012  1
  O2-  O264  1  0.41474128  0.04331012  0.06373022  1
  O2-  O265  1  0.41609114  0.03336210  0.40073460  1
  O2-  O266  1  0.41298350  0.03575326  0.73906539  1
  O2-  O267  1  0.41772839  0.54136724  0.06789970  1
  O2-  O268  1  0.41667624  0.54863791  0.39668008  1
  O2-  O269  1  0.41754420  0.54915460  0.72616241  1
  O2-  O270  1  0.91817338  0.04194983  0.06792455  1
  O2-  O271  1  0.91609071  0.03631755  0.40432858  1
  O2-  O272  1  0.91686548  0.04453011  0.72583947  1
  O2-  O273  1  0.91919395  0.54186699  0.06901833  1
  O2-  O274  1  0.91475074  0.54965670  0.39605228  1
  O2-  O275  1  0.91496175  0.54063250  0.73429601  1
  O2-  O276  1  0.30163697  0.16711897  0.06257425  1
  O2-  O277  1  0.29430097  0.16620312  0.40148802  1
  O2-  O278  1  0.29155405  0.16495613  0.73934403  1
  O2-  O279  1  0.29596207  0.67046487  0.06670205  1
  O2-  O280  1  0.29768887  0.66763678  0.39864522  1
  O2-  O281  1  0.29920541  0.66918880  0.72591883  1
  O2-  O282  1  0.79219089  0.16842802  0.06787830  1
  O2-  O283  1  0.79164936  0.16818522  0.40198520  1
  O2-  O284  1  0.80143211  0.16966597  0.72406186  1
  O2-  O285  1  0.80124839  0.67182583  0.06666056  1
  O2-  O286  1  0.79453914  0.66836482  0.39436987  1
  O2-  O287  1  0.78905529  0.66579793  0.73611543  1
