# generated using pymatgen
data_Ca2Al2SiO7
_symmetry_space_group_name_H-M   'P 1'
_cell_length_a   15.46510347
_cell_length_b   15.46564192
_cell_length_c   15.28971924
_cell_angle_alpha   89.99915250
_cell_angle_beta   90.00807691
_cell_angle_gamma   90.02317006
_symmetry_Int_Tables_number   1
_chemical_formula_structural   Ca2Al2SiO7
_chemical_formula_sum   'Ca48 Al48 Si24 O168'
_cell_volume   3656.96035103
_cell_formula_units_Z   24
loop_
 _symmetry_equiv_pos_site_id
 _symmetry_equiv_pos_as_xyz
  1  'x, y, z'
loop_
 _atom_type_symbol
 _atom_type_oxidation_number
  Ca2+  2.0
  Al0+  0.0
  Si0+  0.0
  O2-  -2.0
loop_
 _atom_site_type_symbol
 _atom_site_label
 _atom_site_symmetry_multiplicity
 _atom_site_fract_x
 _atom_site_fract_y
 _atom_site_fract_z
 _atom_site_occupancy
  Ca2+  Ca0  1  0.16264061  0.08227648  0.17246077  1
  Ca2+  Ca1  1  0.16704502  0.08162453  0.50806966  1
  Ca2+  Ca2  1  0.17142312  0.08153291  0.83443105  1
  Ca2+  Ca3  1  0.16682387  0.57465808  0.17198196  1
  Ca2+  Ca4  1  0.17572114  0.57012250  0.50332371  1
  Ca2+  Ca5  1  0.16340463  0.57311870  0.83683819  1
  Ca2+  Ca6  1  0.66569677  0.08547298  0.16413338  1
  Ca2+  Ca7  1  0.67126731  0.08947445  0.50484517  1
  Ca2+  Ca8  1  0.67884002  0.08287684  0.84457302  1
  Ca2+  Ca9  1  0.66803160  0.57572751  0.17301597  1
  Ca2+  Ca10  1  0.67780138  0.56910500  0.50345605  1
  Ca2+  Ca11  1  0.66859635  0.57312572  0.83799146  1
  Ca2+  Ca12  1  0.07979002  0.33887631  0.16587126  1
  Ca2+  Ca13  1  0.07617678  0.33770824  0.49332978  1
  Ca2+  Ca14  1  0.07716473  0.33886448  0.82576145  1
  Ca2+  Ca15  1  0.07506186  0.82143953  0.15506103  1
  Ca2+  Ca16  1  0.08537607  0.83262413  0.49729657  1
  Ca2+  Ca17  1  0.08210986  0.82887643  0.83125248  1
  Ca2+  Ca18  1  0.58321319  0.33400697  0.16255495  1
  Ca2+  Ca19  1  0.58094724  0.33310265  0.49076875  1
  Ca2+  Ca20  1  0.59225488  0.33088023  0.83027571  1
  Ca2+  Ca21  1  0.58460201  0.82566331  0.15517604  1
  Ca2+  Ca22  1  0.58030015  0.82954860  0.49550738  1
  Ca2+  Ca23  1  0.59240818  0.82667372  0.83406366  1
  Ca2+  Ca24  1  0.32369099  0.41809017  0.17586947  1
  Ca2+  Ca25  1  0.32560091  0.41544320  0.50355643  1
  Ca2+  Ca26  1  0.32063212  0.41766793  0.83570315  1
  Ca2+  Ca27  1  0.33408078  0.91931769  0.16951025  1
  Ca2+  Ca28  1  0.32581667  0.92730268  0.51011948  1
  Ca2+  Ca29  1  0.33030832  0.92003041  0.83001954  1
  Ca2+  Ca30  1  0.82317721  0.41838642  0.17439098  1
  Ca2+  Ca31  1  0.82889886  0.41356844  0.50467703  1
  Ca2+  Ca32  1  0.82584775  0.41573526  0.83389722  1
  Ca2+  Ca33  1  0.83311833  0.91838015  0.16332372  1
  Ca2+  Ca34  1  0.83155926  0.92771269  0.50657454  1
  Ca2+  Ca35  1  0.83475945  0.92896328  0.84301904  1
  Ca2+  Ca36  1  0.42831517  0.17567083  0.16538133  1
  Ca2+  Ca37  1  0.42050111  0.17365286  0.48978030  1
  Ca2+  Ca38  1  0.42385979  0.16471888  0.83011341  1
  Ca2+  Ca39  1  0.42086411  0.66247464  0.16078298  1
  Ca2+  Ca40  1  0.40997053  0.66183472  0.49699389  1
  Ca2+  Ca41  1  0.42302525  0.65926941  0.82917016  1
  Ca2+  Ca42  1  0.91815175  0.17263688  0.16744654  1
  Ca2+  Ca43  1  0.91953638  0.17951034  0.49539861  1
  Ca2+  Ca44  1  0.91061406  0.17121247  0.82617806  1
  Ca2+  Ca45  1  0.91716312  0.66879626  0.15632972  1
  Ca2+  Ca46  1  0.91201831  0.66278245  0.49647529  1
  Ca2+  Ca47  1  0.91733209  0.66805950  0.83048273  1
  Al0+  Al48  1  0.00162199  0.00149531  0.00169840  1
  Al0+  Al49  1  -0.00226030  -0.00093907  0.33038569  1
  Al0+  Al50  1  -0.00042508  -0.00143399  0.67325896  1
  Al0+  Al51  1  0.00008030  0.49906478  -0.00053885  1
  Al0+  Al52  1  0.00097750  0.50239519  0.33467146  1
  Al0+  Al53  1  -0.00094816  0.50203995  0.66684389  1
  Al0+  Al54  1  0.50079513  0.00179569  -0.00103860  1
  Al0+  Al55  1  0.49896654  -0.00167854  0.32965823  1
  Al0+  Al56  1  0.49995878  -0.00295823  0.66794182  1
  Al0+  Al57  1  0.49757363  0.50016198  -0.00241557  1
  Al0+  Al58  1  0.50090265  0.50174336  0.33561288  1
  Al0+  Al59  1  0.50082257  0.49736900  0.67041699  1
  Al0+  Al60  1  0.25001731  0.25079864  0.00463361  1
  Al0+  Al61  1  0.25138335  0.24768761  0.32938587  1
  Al0+  Al62  1  0.25193594  0.24872155  0.67488028  1
  Al0+  Al63  1  0.25003622  0.75078656  -0.00514350  1
  Al0+  Al64  1  0.24797824  0.75162800  0.33460169  1
  Al0+  Al65  1  0.25142696  0.75065898  0.67170730  1
  Al0+  Al66  1  0.75066079  0.25036739  0.00539536  1
  Al0+  Al67  1  0.75199548  0.24710874  0.32942959  1
  Al0+  Al68  1  0.75146485  0.24889592  0.66807535  1
  Al0+  Al69  1  0.74943689  0.75273168  -0.00704645  1
  Al0+  Al70  1  0.74776568  0.75205947  0.33709526  1
  Al0+  Al71  1  0.75056860  0.74819304  0.66455733  1
  Al0+  Al72  1  0.07062420  0.67693298  0.98310525  1
  Al0+  Al73  1  0.82379715  0.07248070  0.01926787  1
  Al0+  Al74  1  0.68036903  0.42567320  0.34753579  1
  Al0+  Al75  1  0.42961926  0.32442559  0.31863369  1
  Al0+  Al76  1  0.17940408  0.42566639  0.34823499  1
  Al0+  Al77  1  0.68036852  0.42750411  0.68159482  1
  Al0+  Al78  1  0.82097866  0.57391793  0.34579906  1
  Al0+  Al79  1  0.07119521  0.17714504  0.31998873  1
  Al0+  Al80  1  0.57116568  0.18191044  0.98445991  1
  Al0+  Al81  1  0.57212342  0.17689376  0.31834507  1
  Al0+  Al82  1  0.56963192  0.67797491  0.98556025  1
  Al0+  Al83  1  0.93005992  0.32103778  0.65375184  1
  Al0+  Al84  1  0.17780709  0.42854820  0.68132398  1
  Al0+  Al85  1  0.17771575  0.42937956  0.01604020  1
  Al0+  Al86  1  0.81894409  0.06990223  0.67838781  1
  Al0+  Al87  1  0.92899190  0.82245400  0.98308993  1
  Al0+  Al88  1  0.17790535  0.92890546  0.68277290  1
  Al0+  Al89  1  0.32220107  0.57048082  0.68269715  1
  Al0+  Al90  1  0.82169565  0.57293404  0.68321902  1
  Al0+  Al91  1  0.67900894  0.92901704  0.01498259  1
  Al0+  Al92  1  0.32107393  0.57312087  0.34603925  1
  Al0+  Al93  1  0.93039845  0.32437338  0.31707159  1
  Al0+  Al94  1  0.67784301  0.43020225  0.01468629  1
  Al0+  Al95  1  0.32339837  0.07233529  0.68177890  1
  Si0+  Si96  1  0.42680375  0.82048751  0.31899847  1
  Si0+  Si97  1  0.07157974  0.68170430  0.32003363  1
  Si0+  Si98  1  0.92918098  0.82208885  0.64949321  1
  Si0+  Si99  1  0.07356085  0.17695039  0.65405930  1
  Si0+  Si100  1  0.57094249  0.17794010  0.65367167  1
  Si0+  Si101  1  0.07246874  0.68039364  0.64919564  1
  Si0+  Si102  1  0.67672957  0.92915735  0.34872333  1
  Si0+  Si103  1  0.42829834  0.31965633  0.65333659  1
  Si0+  Si104  1  0.32073154  0.57316661  0.01549415  1
  Si0+  Si105  1  0.57118974  0.67682368  0.64874239  1
  Si0+  Si106  1  0.92993064  0.31931066  0.98514061  1
  Si0+  Si107  1  0.18050593  0.92881617  0.01662770  1
  Si0+  Si108  1  0.42625812  0.32152424  0.98117723  1
  Si0+  Si109  1  0.82177747  0.06859125  0.34906129  1
  Si0+  Si110  1  0.07369497  0.17918976  0.98463154  1
  Si0+  Si111  1  0.32168881  0.07130218  0.01785950  1
  Si0+  Si112  1  0.92677204  0.82102084  0.31948343  1
  Si0+  Si113  1  0.67737002  0.92621340  0.68139214  1
  Si0+  Si114  1  0.42732588  0.82421602  0.98100890  1
  Si0+  Si115  1  0.57078433  0.68176666  0.32016816  1
  Si0+  Si116  1  0.17733602  0.93044515  0.34610558  1
  Si0+  Si117  1  0.42904845  0.82011577  0.64978398  1
  Si0+  Si118  1  0.32230657  0.06853189  0.34590502  1
  Si0+  Si119  1  0.82086508  0.57203199  0.01371670  1
  O2-  O120  1  0.25127030  -0.00080166  0.06041497  1
  O2-  O121  1  0.24558161  0.00367906  0.38826796  1
  O2-  O122  1  0.24847312  0.00305357  0.73164736  1
  O2-  O123  1  0.25110108  0.50648964  0.06014757  1
  O2-  O124  1  0.25529756  0.49547871  0.39578130  1
  O2-  O125  1  0.24854919  0.50114045  0.73277637  1
  O2-  O126  1  0.75109961  -0.00069250  0.06746659  1
  O2-  O127  1  0.74467141  0.00296391  0.39053692  1
  O2-  O128  1  0.74514837  -0.00510393  0.72493009  1
  O2-  O129  1  0.74943058  0.50825659  0.06001175  1
  O2-  O130  1  0.75652332  0.49487877  0.39566173  1
  O2-  O131  1  0.75071675  0.50046801  0.73240330  1
  O2-  O132  1  0.00562476  0.25408117  0.26807719  1
  O2-  O133  1  0.00880200  0.24840290  0.60915311  1
  O2-  O134  1  0.00156881  0.24846131  0.94265996  1
  O2-  O135  1  -0.00624875  0.74604174  0.27863239  1
  O2-  O136  1  0.00001934  0.75109091  0.60630780  1
  O2-  O137  1  -0.00110660  0.74898383  0.93218583  1
  O2-  O138  1  0.50613829  0.25563123  0.26973935  1
  O2-  O139  1  0.49832938  0.24687220  0.61166556  1
  O2-  O140  1  0.49834511  0.25711469  0.93548236  1
  O2-  O141  1  0.49441773  0.74700698  0.27723123  1
  O2-  O142  1  0.49859431  0.74773036  0.60691981  1
  O2-  O143  1  0.49586784  0.75464277  0.93823571  1
  O2-  O144  1  0.07466987  0.17922554  0.08952672  1
  O2-  O145  1  0.06639058  0.16898374  0.43335400  1
  O2-  O146  1  0.07154105  0.17617816  0.75983440  1
  O2-  O147  1  0.07004472  0.67950144  0.09746989  1
  O2-  O148  1  0.07611005  0.68756440  0.42489016  1
  O2-  O149  1  0.07189706  0.68197063  0.75401142  1
  O2-  O150  1  0.56771175  0.18172783  0.09710499  1
  O2-  O151  1  0.56682715  0.17127036  0.43249940  1
  O2-  O152  1  0.57073458  0.17823019  0.75864365  1
  O2-  O153  1  0.56698066  0.67890177  0.09926930  1
  O2-  O154  1  0.57265375  0.68748807  0.42511023  1
  O2-  O155  1  0.57139354  0.67950243  0.75372423  1
  O2-  O156  1  0.17915224  0.43077975  0.23459333  1
  O2-  O157  1  0.17936432  0.42754930  0.56804052  1
  O2-  O158  1  0.17817596  0.42775867  0.90322276  1
  O2-  O159  1  0.17947658  0.92857566  0.24097306  1
  O2-  O160  1  0.17929949  0.92969709  0.56816911  1
  O2-  O161  1  0.18158011  0.93046160  0.91194852  1
  O2-  O162  1  0.67903108  0.43112829  0.23386069  1
  O2-  O163  1  0.67949390  0.42655564  0.56822916  1
  O2-  O164  1  0.68116798  0.42952985  0.90191136  1
  O2-  O165  1  0.67721052  0.92466468  0.24442595  1
  O2-  O166  1  0.67694989  0.92719368  0.57503888  1
  O2-  O167  1  0.67910081  0.93180959  0.90128158  1
  O2-  O168  1  0.42528530  0.31900687  0.08661859  1
  O2-  O169  1  0.42799874  0.31928364  0.43288227  1
  O2-  O170  1  0.42810679  0.31896143  0.75832164  1
  O2-  O171  1  0.42546068  0.82337213  0.08722920  1
  O2-  O172  1  0.42781189  0.82374883  0.42397242  1
  O2-  O173  1  0.43095603  0.82305303  0.75439101  1
  O2-  O174  1  0.93147501  0.32020742  0.08997179  1
  O2-  O175  1  0.92938652  0.32033892  0.43087542  1
  O2-  O176  1  0.92846022  0.31736364  0.76713430  1
  O2-  O177  1  0.93159660  0.82020964  0.09770257  1
  O2-  O178  1  0.92914575  0.82490349  0.42472872  1
  O2-  O179  1  0.92916863  0.82275585  0.75384317  1
  O2-  O180  1  0.32481049  0.06238927  0.24087983  1
  O2-  O181  1  0.32467376  0.06990065  0.56771107  1
  O2-  O182  1  0.32031614  0.07067293  0.91290235  1
  O2-  O183  1  0.31593273  0.57976826  0.23274618  1
  O2-  O184  1  0.32008606  0.56917507  0.56915278  1
  O2-  O185  1  0.32090134  0.57119863  0.91019035  1
  O2-  O186  1  0.82608650  0.06413215  0.24477114  1
  O2-  O187  1  0.81736848  0.06891147  0.56474748  1
  O2-  O188  1  0.82261405  0.07275902  0.90538339  1
  O2-  O189  1  0.81507344  0.58161440  0.23244747  1
  O2-  O190  1  0.81810343  0.57530209  0.56982504  1
  O2-  O191  1  0.82142921  0.56808244  0.90842225  1
  O2-  O192  1  0.03682986  0.08046749  0.26368348  1
  O2-  O193  1  0.04617948  0.08278010  0.60926486  1
  O2-  O194  1  0.04936602  0.08613165  0.93850527  1
  O2-  O195  1  0.05154479  0.58837784  0.27376518  1
  O2-  O196  1  0.04515068  0.58893582  0.60142857  1
  O2-  O197  1  0.04149730  0.57881310  0.93039140  1
  O2-  O198  1  0.53636554  0.08048282  0.26360859  1
  O2-  O199  1  0.54668475  0.08395303  0.60780736  1
  O2-  O200  1  0.53872366  0.08503577  0.93125071  1
  O2-  O201  1  0.54921714  0.58874326  0.27353789  1
  O2-  O202  1  0.54314053  0.58444158  0.60318428  1
  O2-  O203  1  0.53665423  0.58288827  0.92917970  1
  O2-  O204  1  0.17257274  0.19335834  0.26863068  1
  O2-  O205  1  0.17009950  0.19698929  0.61136667  1
  O2-  O206  1  0.16606494  0.20681514  0.93810781  1
  O2-  O207  1  0.15937071  0.71784562  0.26910480  1
  O2-  O208  1  0.16442217  0.71182674  0.60362860  1
  O2-  O209  1  0.16891108  0.70715915  0.93055420  1
  O2-  O210  1  0.67327845  0.19367797  0.26836671  1
  O2-  O211  1  0.66171572  0.20715769  0.60533400  1
  O2-  O212  1  0.66973329  0.21126161  0.93361122  1
  O2-  O213  1  0.65957302  0.71714743  0.27137520  1
  O2-  O214  1  0.66194134  0.70752358  0.60021174  1
  O2-  O215  1  0.66509673  0.70849245  0.92939003  1
  O2-  O216  1  0.08082462  0.46019129  0.06923525  1
  O2-  O217  1  0.08240159  0.45860259  0.40072103  1
  O2-  O218  1  0.08026473  0.45904068  0.73343434  1
  O2-  O219  1  0.08958803  0.95701718  0.06500788  1
  O2-  O220  1  0.08461827  0.95514140  0.39329840  1
  O2-  O221  1  0.08023375  0.95327801  0.73756725  1
  O2-  O222  1  0.57860639  0.45812956  0.06459128  1
  O2-  O223  1  0.58285396  0.45729587  0.40041065  1
  O2-  O224  1  0.58230462  0.45414916  0.73488513  1
  O2-  O225  1  0.57920875  0.95613692  0.06694934  1
  O2-  O226  1  0.58324659  0.95353895  0.39529257  1
  O2-  O227  1  0.58353505  0.94763445  0.72726354  1
  O2-  O228  1  0.20980436  0.33319318  0.07011383  1
  O2-  O229  1  0.20381401  0.32472951  0.39810367  1
  O2-  O230  1  0.20526625  0.33088195  0.73594308  1
  O2-  O231  1  0.20841341  0.83619280  0.06303526  1
  O2-  O232  1  0.20777279  0.84095889  0.39604900  1
  O2-  O233  1  0.21104239  0.83339640  0.73722656  1
  O2-  O234  1  0.71146224  0.33576939  0.06935057  1
  O2-  O235  1  0.70442245  0.32467095  0.39751145  1
  O2-  O236  1  0.71122927  0.33041089  0.73505276  1
  O2-  O237  1  0.70627469  0.82901966  0.06652744  1
  O2-  O238  1  0.70715327  0.84039328  0.40072548  1
  O2-  O239  1  0.70345894  0.83253421  0.72514560  1
  O2-  O240  1  0.45256193  0.42496898  0.26686797  1
  O2-  O241  1  0.45689876  0.41104955  0.60575924  1
  O2-  O242  1  0.44577069  0.41676010  0.93707345  1
  O2-  O243  1  0.45733798  0.90963159  0.26796979  1
  O2-  O244  1  0.45886348  0.91121284  0.59990151  1
  O2-  O245  1  0.45257707  0.91784306  0.93558757  1
  O2-  O246  1  0.95486644  0.42459384  0.26512535  1
  O2-  O247  1  0.95622787  0.41935315  0.60067479  1
  O2-  O248  1  0.95752466  0.41082956  0.93750082  1
  O2-  O249  1  0.95843184  0.90970059  0.26899794  1
  O2-  O250  1  0.95824522  0.91432089  0.60200780  1
  O2-  O251  1  0.96210193  0.92106818  0.93297487  1
  O2-  O252  1  0.33340128  0.29120498  0.26361440  1
  O2-  O253  1  0.33597320  0.29148592  0.60651801  1
  O2-  O254  1  0.33387850  0.28935517  0.93584008  1
  O2-  O255  1  0.33373872  0.79705209  0.27122782  1
  O2-  O256  1  0.33603206  0.79511621  0.60267246  1
  O2-  O257  1  0.33384406  0.80039226  0.93407468  1
  O2-  O258  1  0.83371125  0.29089408  0.26360788  1
  O2-  O259  1  0.83516149  0.28397120  0.59904174  1
  O2-  O260  1  0.83836277  0.29003403  0.93884229  1
  O2-  O261  1  0.83300441  0.79751035  0.27412719  1
  O2-  O262  1  0.83660675  0.79569322  0.60118387  1
  O2-  O263  1  0.83013983  0.80064650  0.92916909  1
  O2-  O264  1  0.41293476  0.04232929  0.06484668  1
  O2-  O265  1  0.41084024  0.03345687  0.39549438  1
  O2-  O266  1  0.41970560  0.03723932  0.73579167  1
  O2-  O267  1  0.41374684  0.54666170  0.06184311  1
  O2-  O268  1  0.42227810  0.55551193  0.39661558  1
  O2-  O269  1  0.41984289  0.54120644  0.73536033  1
  O2-  O270  1  0.92292423  0.04373146  0.07110394  1
  O2-  O271  1  0.91025806  0.03258168  0.39835395  1
  O2-  O272  1  0.91444522  0.04068743  0.73387511  1
  O2-  O273  1  0.91330137  0.54390542  0.06055449  1
  O2-  O274  1  0.92266629  0.55670683  0.39527074  1
  O2-  O275  1  0.92087928  0.54892563  0.73401558  1
  O2-  O276  1  0.29254642  0.16195743  0.06579554  1
  O2-  O277  1  0.30185035  0.16201109  0.39144419  1
  O2-  O278  1  0.29965823  0.16876233  0.73941708  1
  O2-  O279  1  0.29944837  0.66936928  0.05859588  1
  O2-  O280  1  0.28750821  0.67050135  0.40100228  1
  O2-  O281  1  0.30031692  0.67074907  0.73346872  1
  O2-  O282  1  0.79306623  0.16913077  0.07276683  1
  O2-  O283  1  0.79904553  0.16166595  0.39518156  1
  O2-  O284  1  0.78690377  0.16381691  0.73469300  1
  O2-  O285  1  0.80028489  0.66872953  0.05426777  1
  O2-  O286  1  0.78678679  0.67007210  0.40253430  1
  O2-  O287  1  0.79239889  0.67180709  0.73481906  1
