# generated using pymatgen
data_Ca2Al2SiO7
_symmetry_space_group_name_H-M   'P 1'
_cell_length_a   15.45546828
_cell_length_b   15.45592246
_cell_length_c   15.28188789
_cell_angle_alpha   90.00935568
_cell_angle_beta   90.00738747
_cell_angle_gamma   89.99065700
_symmetry_Int_Tables_number   1
_chemical_formula_structural   Ca2Al2SiO7
_chemical_formula_sum   'Ca48 Al48 Si24 O168'
_cell_volume   3650.51462591
_cell_formula_units_Z   24
loop_
 _symmetry_equiv_pos_site_id
 _symmetry_equiv_pos_as_xyz
  1  'x, y, z'
loop_
 _atom_type_symbol
 _atom_type_oxidation_number
  Ca2+  2.0
  Al0+  0.0
  Si0+  0.0
  O2-  -2.0
loop_
 _atom_site_type_symbol
 _atom_site_label
 _atom_site_symmetry_multiplicity
 _atom_site_fract_x
 _atom_site_fract_y
 _atom_site_fract_z
 _atom_site_occupancy
  Ca2+  Ca0  1  0.16707272  0.07920489  0.16889341  1
  Ca2+  Ca1  1  0.16774355  0.08159329  0.50161979  1
  Ca2+  Ca2  1  0.17860979  0.08399815  0.84390887  1
  Ca2+  Ca3  1  0.16415104  0.56951615  0.17081412  1
  Ca2+  Ca4  1  0.17036670  0.57878734  0.50762796  1
  Ca2+  Ca5  1  0.16753924  0.58016598  0.83579172  1
  Ca2+  Ca6  1  0.66235024  0.08260234  0.16674679  1
  Ca2+  Ca7  1  0.66236453  0.08693701  0.50344299  1
  Ca2+  Ca8  1  0.66538504  0.08194614  0.84235367  1
  Ca2+  Ca9  1  0.65918711  0.57244579  0.16808410  1
  Ca2+  Ca10  1  0.66614062  0.57407252  0.50175494  1
  Ca2+  Ca11  1  0.66746057  0.57690171  0.84417383  1
  Ca2+  Ca12  1  0.09482454  0.32386449  0.16217494  1
  Ca2+  Ca13  1  0.08164560  0.33013089  0.49309976  1
  Ca2+  Ca14  1  0.08410086  0.33068689  0.83174359  1
  Ca2+  Ca15  1  0.07537932  0.84538068  0.16089762  1
  Ca2+  Ca16  1  0.07839370  0.83258123  0.49409678  1
  Ca2+  Ca17  1  0.07597505  0.83553956  0.82903982  1
  Ca2+  Ca18  1  0.58176374  0.32878217  0.16259220  1
  Ca2+  Ca19  1  0.57249879  0.32543093  0.49229051  1
  Ca2+  Ca20  1  0.58116807  0.32232861  0.82644556  1
  Ca2+  Ca21  1  0.57821205  0.82866326  0.15169625  1
  Ca2+  Ca22  1  0.57956867  0.83067236  0.49600811  1
  Ca2+  Ca23  1  0.57918801  0.83428695  0.83869789  1
  Ca2+  Ca24  1  0.32584194  0.41138561  0.17069750  1
  Ca2+  Ca25  1  0.33288361  0.41437245  0.50417478  1
  Ca2+  Ca26  1  0.33381536  0.42042033  0.83621562  1
  Ca2+  Ca27  1  0.32689011  0.92037697  0.16667413  1
  Ca2+  Ca28  1  0.32621879  0.92486678  0.50760656  1
  Ca2+  Ca29  1  0.33095501  0.92782074  0.84468020  1
  Ca2+  Ca30  1  0.81897938  0.41331380  0.17051022  1
  Ca2+  Ca31  1  0.82686033  0.40821466  0.50462438  1
  Ca2+  Ca32  1  0.83003015  0.41556718  0.84088562  1
  Ca2+  Ca33  1  0.83039824  0.91123065  0.16821872  1
  Ca2+  Ca34  1  0.83613347  0.91503242  0.50195864  1
  Ca2+  Ca35  1  0.83086977  0.91294202  0.84022670  1
  Ca2+  Ca36  1  0.42290361  0.16880622  0.16150093  1
  Ca2+  Ca37  1  0.42033490  0.17263526  0.49684806  1
  Ca2+  Ca38  1  0.42248079  0.16461187  0.82842243  1
  Ca2+  Ca39  1  0.42144991  0.67383131  0.15777617  1
  Ca2+  Ca40  1  0.41246071  0.66390824  0.49950791  1
  Ca2+  Ca41  1  0.41621577  0.66899410  0.83327685  1
  Ca2+  Ca42  1  0.93218725  0.16370904  0.16282549  1
  Ca2+  Ca43  1  0.92219167  0.17237517  0.49651648  1
  Ca2+  Ca44  1  0.92503601  0.17103223  0.83180314  1
  Ca2+  Ca45  1  0.91626283  0.67798417  0.16098119  1
  Ca2+  Ca46  1  0.92242688  0.67643343  0.49862372  1
  Ca2+  Ca47  1  0.92380730  0.67715437  0.82723203  1
  Al0+  Al48  1  0.00084830  0.00295119  -0.00845820  1
  Al0+  Al49  1  -0.00106838  0.00041655  0.33170724  1
  Al0+  Al50  1  -0.00318102  0.00062931  0.66457651  1
  Al0+  Al51  1  -0.00048400  0.50164582  0.00613486  1
  Al0+  Al52  1  -0.00082809  0.50222445  0.33799587  1
  Al0+  Al53  1  -0.00209219  0.50080863  0.65955438  1
  Al0+  Al54  1  0.50135440  0.00028851  0.00144895  1
  Al0+  Al55  1  0.50029108  -0.00046040  0.33177960  1
  Al0+  Al56  1  0.50019394  -0.00244209  0.66644317  1
  Al0+  Al57  1  0.50046269  0.50038099  0.00099048  1
  Al0+  Al58  1  0.50043973  0.49942113  0.33485698  1
  Al0+  Al59  1  0.49876324  0.49888694  0.66867705  1
  Al0+  Al60  1  0.25200038  0.25044577  0.00198824  1
  Al0+  Al61  1  0.25114762  0.25040452  0.33189456  1
  Al0+  Al62  1  0.25088218  0.24935418  0.66812639  1
  Al0+  Al63  1  0.24890692  0.75096802  0.00038657  1
  Al0+  Al64  1  0.24823371  0.75006814  0.33670441  1
  Al0+  Al65  1  0.24967760  0.74789814  0.66798836  1
  Al0+  Al66  1  0.75042363  0.25035222  0.00225549  1
  Al0+  Al67  1  0.74990390  0.24884964  0.33539786  1
  Al0+  Al68  1  0.75083672  0.24653637  0.66170066  1
  Al0+  Al69  1  0.75109174  0.75021424  -0.00421896  1
  Al0+  Al70  1  0.75021433  0.75003905  0.33168457  1
  Al0+  Al71  1  0.74978071  0.74846763  0.66287080  1
  Al0+  Al72  1  0.57176889  0.18035731  0.98634692  1
  Al0+  Al73  1  0.42944294  0.32228248  0.31611359  1
  Al0+  Al74  1  0.07005533  0.18113946  0.32066004  1
  Al0+  Al75  1  0.67882768  0.42809793  0.01240118  1
  Al0+  Al76  1  0.93052712  0.81986948  0.31738631  1
  Al0+  Al77  1  0.32343276  0.07177036  0.01720163  1
  Al0+  Al78  1  0.17911773  0.42729229  0.34879934  1
  Al0+  Al79  1  0.68172581  0.92931904  0.01264818  1
  Al0+  Al80  1  0.57067396  0.67743516  0.98454279  1
  Al0+  Al81  1  0.42684817  0.82177823  0.98515219  1
  Al0+  Al82  1  0.07306266  0.67955161  0.65085805  1
  Al0+  Al83  1  0.92785284  0.82203716  0.64945714  1
  Al0+  Al84  1  0.92916656  0.32075588  0.65443244  1
  Al0+  Al85  1  0.32132138  0.57081064  0.68215410  1
  Al0+  Al86  1  0.32088801  0.07065288  0.68023552  1
  Al0+  Al87  1  0.17694389  0.92938877  0.01322336  1
  Al0+  Al88  1  0.17910867  0.43068247  0.01246159  1
  Al0+  Al89  1  0.67952925  0.42814963  0.34998085  1
  Al0+  Al90  1  0.57026258  0.17605000  0.65146013  1
  Al0+  Al91  1  0.42846073  0.32228975  0.65230551  1
  Al0+  Al92  1  0.07331431  0.18096452  0.98533152  1
  Al0+  Al93  1  0.17749529  0.93024957  0.34816690  1
  Al0+  Al94  1  0.57231494  0.17770053  0.31571290  1
  Al0+  Al95  1  0.93079276  0.82161837  0.98531217  1
  Si0+  Si96  1  0.92746794  0.32479145  0.31659920  1
  Si0+  Si97  1  0.42716297  0.82091820  0.32035738  1
  Si0+  Si98  1  0.07295501  0.17904653  0.65078254  1
  Si0+  Si99  1  0.82180425  0.57264333  0.01681237  1
  Si0+  Si100  1  0.82034094  0.57137038  0.68161504  1
  Si0+  Si101  1  0.82052415  0.07122805  0.68230394  1
  Si0+  Si102  1  0.82103258  0.06937857  0.34849392  1
  Si0+  Si103  1  0.67834422  0.92769447  0.34830664  1
  Si0+  Si104  1  0.32359789  0.07053438  0.35111244  1
  Si0+  Si105  1  0.07362000  0.67762851  0.31493923  1
  Si0+  Si106  1  0.92850861  0.32322504  0.98731478  1
  Si0+  Si107  1  0.57104482  0.67760029  0.65114085  1
  Si0+  Si108  1  0.17624564  0.92879067  0.68256817  1
  Si0+  Si109  1  0.57051701  0.68022596  0.31991590  1
  Si0+  Si110  1  0.07173454  0.67465189  0.98492766  1
  Si0+  Si111  1  0.82298630  0.07324352  0.01661519  1
  Si0+  Si112  1  0.68073724  0.42801215  0.68145363  1
  Si0+  Si113  1  0.42950482  0.82001425  0.65178930  1
  Si0+  Si114  1  0.17537523  0.42817241  0.68242227  1
  Si0+  Si115  1  0.42786558  0.32247540  0.98261465  1
  Si0+  Si116  1  0.67940280  0.92648340  0.68105781  1
  Si0+  Si117  1  0.32142992  0.57207662  0.34944550  1
  Si0+  Si118  1  0.82026370  0.57443539  0.35218052  1
  Si0+  Si119  1  0.32266278  0.57326024  0.01724408  1
  O2-  O120  1  0.24993542  -0.00050964  0.06486169  1
  O2-  O121  1  0.25364960  0.00283408  0.39578754  1
  O2-  O122  1  0.24367412  -0.00186110  0.72653969  1
  O2-  O123  1  0.25309297  0.50558330  0.06091410  1
  O2-  O124  1  0.25348477  0.50290414  0.39409374  1
  O2-  O125  1  0.24539423  0.49596535  0.72637875  1
  O2-  O126  1  0.75585956  0.00328936  0.06161287  1
  O2-  O127  1  0.74667065  0.00083049  0.39092444  1
  O2-  O128  1  0.75029875  -0.00173923  0.72214065  1
  O2-  O129  1  0.75204779  0.50447549  0.06010866  1
  O2-  O130  1  0.75687579  0.50078386  0.39729631  1
  O2-  O131  1  0.75184891  0.49851285  0.72483100  1
  O2-  O132  1  0.00006369  0.26071596  0.27259890  1
  O2-  O133  1  0.00678580  0.25015421  0.60666048  1
  O2-  O134  1  -0.00035561  0.25843196  0.94140435  1
  O2-  O135  1  0.00605454  0.74674650  0.26994021  1
  O2-  O136  1  0.00411626  0.75447843  0.60032514  1
  O2-  O137  1  0.00828111  0.74849207  0.94111057  1
  O2-  O138  1  0.50172349  0.25067805  0.26614942  1
  O2-  O139  1  0.49849785  0.24827975  0.60255310  1
  O2-  O140  1  0.49768109  0.25478303  0.93891822  1
  O2-  O141  1  0.49852599  0.75010016  0.27894829  1
  O2-  O142  1  0.49868280  0.74715470  0.60828784  1
  O2-  O143  1  0.49753360  0.74810877  0.93422309  1
  O2-  O144  1  0.07098606  0.18037893  0.09846723  1
  O2-  O145  1  0.06619052  0.18071444  0.43418763  1
  O2-  O146  1  0.07128663  0.17948544  0.75625226  1
  O2-  O147  1  0.06724641  0.66955834  0.09024682  1
  O2-  O148  1  0.07319449  0.67882969  0.42048966  1
  O2-  O149  1  0.06987334  0.67888606  0.76466442  1
  O2-  O150  1  0.57269942  0.18283626  0.09900939  1
  O2-  O151  1  0.57006109  0.17667130  0.42938545  1
  O2-  O152  1  0.57249549  0.17714684  0.76496531  1
  O2-  O153  1  0.56874719  0.67796130  0.09884371  1
  O2-  O154  1  0.57125252  0.68193631  0.42571099  1
  O2-  O155  1  0.57386821  0.67832260  0.75545033  1
  O2-  O156  1  0.17985726  0.42936042  0.23566576  1
  O2-  O157  1  0.17538304  0.42898325  0.57680443  1
  O2-  O158  1  0.17723599  0.43297011  0.89920726  1
  O2-  O159  1  0.17798562  0.93134301  0.23569926  1
  O2-  O160  1  0.17764684  0.93027922  0.57644332  1
  O2-  O161  1  0.17673733  0.93194356  0.89935281  1
  O2-  O162  1  0.67948844  0.43097046  0.23694181  1
  O2-  O163  1  0.68216061  0.43094201  0.57620904  1
  O2-  O164  1  0.68286217  0.42774084  0.89880329  1
  O2-  O165  1  0.67923526  0.92424079  0.24378094  1
  O2-  O166  1  0.67894543  0.92507314  0.57534233  1
  O2-  O167  1  0.68361051  0.92980421  0.89910296  1
  O2-  O168  1  0.42849196  0.32289900  0.08813822  1
  O2-  O169  1  0.43024405  0.32218765  0.42974645  1
  O2-  O170  1  0.43245922  0.32492331  0.76571768  1
  O2-  O171  1  0.42904215  0.81910404  0.09953234  1
  O2-  O172  1  0.42941954  0.82047407  0.42613195  1
  O2-  O173  1  0.43206344  0.82124992  0.75610611  1
  O2-  O174  1  0.92709109  0.32131683  0.09272063  1
  O2-  O175  1  0.92701065  0.32065975  0.42258634  1
  O2-  O176  1  0.92805645  0.31913083  0.76764766  1
  O2-  O177  1  0.92944518  0.81952548  0.09854804  1
  O2-  O178  1  0.92933187  0.81832347  0.43029154  1
  O2-  O179  1  0.92569821  0.81972815  0.76269990  1
  O2-  O180  1  0.32571859  0.06743374  0.24604140  1
  O2-  O181  1  0.32030425  0.06751700  0.56678154  1
  O2-  O182  1  0.32219704  0.07158877  0.90309439  1
  O2-  O183  1  0.32095196  0.57489102  0.24421932  1
  O2-  O184  1  0.32167456  0.57040659  0.56892706  1
  O2-  O185  1  0.32286596  0.57116913  0.91154662  1
  O2-  O186  1  0.82281553  0.06739733  0.24372401  1
  O2-  O187  1  0.82173790  0.07188298  0.57696581  1
  O2-  O188  1  0.82118669  0.07477872  0.91068661  1
  O2-  O189  1  0.81662516  0.57710120  0.24682368  1
  O2-  O190  1  0.81634926  0.57306097  0.57657518  1
  O2-  O191  1  0.82333989  0.57004424  0.91083094  1
  O2-  O192  1  0.03323494  0.08701929  0.26628018  1
  O2-  O193  1  0.04289586  0.08668228  0.60457609  1
  O2-  O194  1  0.03936533  0.08841494  0.92626569  1
  O2-  O195  1  0.04567504  0.58349364  0.27067413  1
  O2-  O196  1  0.04099600  0.58326879  0.59552444  1
  O2-  O197  1  0.04013564  0.58362205  0.93594288  1
  O2-  O198  1  0.54510136  0.07750346  0.26514582  1
  O2-  O199  1  0.54381609  0.07655831  0.59886681  1
  O2-  O200  1  0.54375950  0.08280358  0.93397983  1
  O2-  O201  1  0.54370006  0.58826463  0.27346315  1
  O2-  O202  1  0.54331717  0.58586253  0.60373792  1
  O2-  O203  1  0.54359828  0.57872422  0.93111085  1
  O2-  O204  1  0.16767719  0.20668013  0.26768639  1
  O2-  O205  1  0.16682453  0.20114516  0.60476529  1
  O2-  O206  1  0.16952604  0.21266225  0.93172671  1
  O2-  O207  1  0.16826849  0.70062296  0.27040817  1
  O2-  O208  1  0.17271006  0.70381307  0.59776334  1
  O2-  O209  1  0.16751868  0.69383837  0.94177434  1
  O2-  O210  1  0.67303729  0.20342798  0.26678051  1
  O2-  O211  1  0.66870181  0.20360493  0.59841778  1
  O2-  O212  1  0.66965443  0.21059904  0.93318600  1
  O2-  O213  1  0.66114610  0.70900404  0.27195865  1
  O2-  O214  1  0.66102392  0.70714507  0.60054884  1
  O2-  O215  1  0.66870912  0.70568804  0.93135112  1
  O2-  O216  1  0.08293462  0.45962584  0.06963291  1
  O2-  O217  1  0.08095362  0.45678368  0.40182224  1
  O2-  O218  1  0.08107630  0.45549062  0.72679789  1
  O2-  O219  1  0.07839340  0.96226478  0.06390858  1
  O2-  O220  1  0.08128711  0.96324958  0.40222703  1
  O2-  O221  1  0.08070912  0.95266621  0.72557856  1
  O2-  O222  1  0.58280582  0.45915236  0.06762950  1
  O2-  O223  1  0.58430254  0.46391337  0.40433343  1
  O2-  O224  1  0.58943159  0.45679157  0.72801217  1
  O2-  O225  1  0.58562902  0.95783299  0.06772706  1
  O2-  O226  1  0.58560364  0.95271726  0.39660889  1
  O2-  O227  1  0.58751346  0.95261926  0.72827585  1
  O2-  O228  1  0.21175380  0.33540589  0.06677999  1
  O2-  O229  1  0.20906003  0.33050079  0.40289837  1
  O2-  O230  1  0.19901655  0.33393335  0.72775250  1
  O2-  O231  1  0.19948205  0.82888647  0.06575687  1
  O2-  O232  1  0.20676400  0.83264864  0.40224187  1
  O2-  O233  1  0.20149843  0.83455183  0.72624039  1
  O2-  O234  1  0.71284221  0.33404582  0.06954397  1
  O2-  O235  1  0.70996425  0.33113941  0.40398147  1
  O2-  O236  1  0.70994593  0.33505292  0.72544311  1
  O2-  O237  1  0.71225126  0.83187980  0.06612237  1
  O2-  O238  1  0.70814302  0.83658405  0.39745596  1
  O2-  O239  1  0.70803920  0.83434628  0.72747278  1
  O2-  O240  1  0.45754597  0.42198374  0.26501632  1
  O2-  O241  1  0.45868639  0.42029659  0.59867245  1
  O2-  O242  1  0.45213594  0.41717989  0.93864673  1
  O2-  O243  1  0.45550636  0.91166792  0.27288489  1
  O2-  O244  1  0.46075491  0.90906565  0.60082080  1
  O2-  O245  1  0.46057061  0.91823694  0.93226112  1
  O2-  O246  1  0.94532688  0.42187226  0.27534315  1
  O2-  O247  1  0.95164447  0.41773033  0.59768488  1
  O2-  O248  1  0.95051649  0.41867554  0.94313563  1
  O2-  O249  1  0.95875237  0.91709369  0.26485922  1
  O2-  O250  1  0.95084359  0.92251777  0.59791086  1
  O2-  O251  1  0.95741409  0.91803458  0.92921299  1
  O2-  O252  1  0.33102010  0.29410398  0.26433600  1
  O2-  O253  1  0.32854643  0.29624585  0.60109570  1
  O2-  O254  1  0.33497032  0.29708400  0.93595692  1
  O2-  O255  1  0.33535340  0.79279902  0.27384905  1
  O2-  O256  1  0.33719099  0.79343426  0.60488909  1
  O2-  O257  1  0.32776087  0.79578259  0.93188561  1
  O2-  O258  1  0.83494227  0.29463417  0.27168287  1
  O2-  O259  1  0.83589748  0.28457250  0.59683760  1
  O2-  O260  1  0.83673673  0.29464012  0.93915290  1
  O2-  O261  1  0.83295664  0.78777884  0.26497712  1
  O2-  O262  1  0.83064866  0.78852483  0.59550230  1
  O2-  O263  1  0.83596747  0.78809411  0.92988945  1
  O2-  O264  1  0.42069555  0.04175092  0.07050659  1
  O2-  O265  1  0.41648519  0.04149464  0.39828051  1
  O2-  O266  1  0.41709810  0.03569733  0.73289371  1
  O2-  O267  1  0.41605125  0.54782358  0.06389615  1
  O2-  O268  1  0.41570346  0.54864407  0.39589784  1
  O2-  O269  1  0.41830677  0.54113839  0.73715858  1
  O2-  O270  1  0.91741094  0.04742167  0.05967064  1
  O2-  O271  1  0.91008991  0.03779705  0.39905666  1
  O2-  O272  1  0.91270116  0.04504340  0.73075966  1
  O2-  O273  1  0.91372749  0.54807971  0.06680390  1
  O2-  O274  1  0.91587215  0.55567319  0.39685657  1
  O2-  O275  1  0.91328883  0.54547811  0.72724107  1
  O2-  O276  1  0.29531575  0.17015034  0.06914296  1
  O2-  O277  1  0.29762059  0.16455469  0.39511922  1
  O2-  O278  1  0.29375742  0.16807188  0.73463881  1
  O2-  O279  1  0.29958210  0.66745192  0.06289268  1
  O2-  O280  1  0.29555626  0.66509899  0.39816268  1
  O2-  O281  1  0.29217455  0.66790839  0.73691649  1
  O2-  O282  1  0.79738691  0.16555481  0.06501008  1
  O2-  O283  1  0.79648351  0.16169689  0.39715793  1
  O2-  O284  1  0.79195769  0.16225146  0.73104858  1
  O2-  O285  1  0.79584743  0.66615924  0.06197403  1
  O2-  O286  1  0.78754247  0.66558466  0.40056539  1
  O2-  O287  1  0.78968178  0.66249676  0.72932206  1
