# generated using pymatgen
data_Ca2Al2SiO7
_symmetry_space_group_name_H-M   'P 1'
_cell_length_a   15.46466205
_cell_length_b   15.46391633
_cell_length_c   15.28807667
_cell_angle_alpha   89.99671842
_cell_angle_beta   90.02370179
_cell_angle_gamma   89.98483070
_symmetry_Int_Tables_number   1
_chemical_formula_structural   Ca2Al2SiO7
_chemical_formula_sum   'Ca48 Al48 Si24 O168'
_cell_volume   3656.05502948
_cell_formula_units_Z   24
loop_
 _symmetry_equiv_pos_site_id
 _symmetry_equiv_pos_as_xyz
  1  'x, y, z'
loop_
 _atom_type_symbol
 _atom_type_oxidation_number
  Ca2+  2.0
  Al0+  0.0
  Si0+  0.0
  O2-  -2.0
loop_
 _atom_site_type_symbol
 _atom_site_label
 _atom_site_symmetry_multiplicity
 _atom_site_fract_x
 _atom_site_fract_y
 _atom_site_fract_z
 _atom_site_occupancy
  Ca2+  Ca0  1  0.17438137  0.08060587  0.17369885  1
  Ca2+  Ca1  1  0.16685291  0.07376522  0.50535522  1
  Ca2+  Ca2  1  0.17321182  0.06959320  0.84683012  1
  Ca2+  Ca3  1  0.15541959  0.57933260  0.16599036  1
  Ca2+  Ca4  1  0.16237072  0.58849403  0.50324819  1
  Ca2+  Ca5  1  0.16021991  0.58213359  0.84238047  1
  Ca2+  Ca6  1  0.65874196  0.08036720  0.16622984  1
  Ca2+  Ca7  1  0.66534962  0.08797448  0.50423254  1
  Ca2+  Ca8  1  0.66395546  0.08102906  0.84222720  1
  Ca2+  Ca9  1  0.67081519  0.58366236  0.16466134  1
  Ca2+  Ca10  1  0.66530271  0.57634856  0.51315146  1
  Ca2+  Ca11  1  0.66831047  0.58039571  0.84621482  1
  Ca2+  Ca12  1  0.08306797  0.32341267  0.15392546  1
  Ca2+  Ca13  1  0.08095606  0.32551731  0.49135022  1
  Ca2+  Ca14  1  0.08165091  0.33232385  0.83896627  1
  Ca2+  Ca15  1  0.09347828  0.82642253  0.16098767  1
  Ca2+  Ca16  1  0.08785501  0.83068403  0.49897742  1
  Ca2+  Ca17  1  0.08595268  0.82681200  0.82616492  1
  Ca2+  Ca18  1  0.58323522  0.32296849  0.15848418  1
  Ca2+  Ca19  1  0.58596295  0.32457273  0.49827202  1
  Ca2+  Ca20  1  0.59470330  0.32566178  0.83139354  1
  Ca2+  Ca21  1  0.57607354  0.83232843  0.15081227  1
  Ca2+  Ca22  1  0.57621583  0.83165943  0.50062023  1
  Ca2+  Ca23  1  0.57459308  0.82998711  0.83171248  1
  Ca2+  Ca24  1  0.32768084  0.41682337  0.16426387  1
  Ca2+  Ca25  1  0.33128992  0.42002920  0.50390455  1
  Ca2+  Ca26  1  0.32711985  0.42204485  0.84158906  1
  Ca2+  Ca27  1  0.32667632  0.92415757  0.16517858  1
  Ca2+  Ca28  1  0.32402161  0.91696907  0.50241454  1
  Ca2+  Ca29  1  0.32962838  0.91421889  0.84069084  1
  Ca2+  Ca30  1  0.83490080  0.41741149  0.15904980  1
  Ca2+  Ca31  1  0.82666876  0.41907358  0.50826922  1
  Ca2+  Ca32  1  0.82564270  0.42290554  0.84504305  1
  Ca2+  Ca33  1  0.82407791  0.91343275  0.16420397  1
  Ca2+  Ca34  1  0.83546938  0.91862886  0.50620353  1
  Ca2+  Ca35  1  0.82733171  0.91267433  0.83836913  1
  Ca2+  Ca36  1  0.42110711  0.15679048  0.16038428  1
  Ca2+  Ca37  1  0.42632960  0.15981077  0.49559436  1
  Ca2+  Ca38  1  0.42609503  0.16066938  0.83443499  1
  Ca2+  Ca39  1  0.42215054  0.67730331  0.15496303  1
  Ca2+  Ca40  1  0.41704007  0.67295038  0.50326790  1
  Ca2+  Ca41  1  0.42333144  0.67833429  0.83003267  1
  Ca2+  Ca42  1  0.93075860  0.17052660  0.15815429  1
  Ca2+  Ca43  1  0.92365890  0.16786079  0.49353680  1
  Ca2+  Ca44  1  0.91951438  0.17097377  0.83666577  1
  Ca2+  Ca45  1  0.92420834  0.66619941  0.15872600  1
  Ca2+  Ca46  1  0.92625928  0.67399116  0.49920273  1
  Ca2+  Ca47  1  0.92348022  0.66918389  0.83193886  1
  Al0+  Al48  1  -0.00063507  -0.00177608  0.00074130  1
  Al0+  Al49  1  -0.00324951  -0.00069748  0.33217158  1
  Al0+  Al50  1  0.00037049  0.00033850  0.66925987  1
  Al0+  Al51  1  -0.00111172  0.49993876  0.00071664  1
  Al0+  Al52  1  -0.00256851  0.50224049  0.33331506  1
  Al0+  Al53  1  -0.00193163  0.49925208  0.66276383  1
  Al0+  Al54  1  0.49935541  -0.00004512  -0.00124692  1
  Al0+  Al55  1  0.49879140  -0.00132606  0.33422739  1
  Al0+  Al56  1  0.50079172  0.00073375  0.65727484  1
  Al0+  Al57  1  0.50041533  0.49801814  0.00351576  1
  Al0+  Al58  1  0.49956851  0.49896102  0.33506703  1
  Al0+  Al59  1  0.49783586  0.49691563  0.66880487  1
  Al0+  Al60  1  0.25193601  0.25011573  0.00247636  1
  Al0+  Al61  1  0.25212404  0.25156387  0.33573102  1
  Al0+  Al62  1  0.25132843  0.24999434  0.66786723  1
  Al0+  Al63  1  0.25141890  0.75013132  -0.00437325  1
  Al0+  Al64  1  0.25047666  0.74916848  0.33255709  1
  Al0+  Al65  1  0.25138052  0.74909218  0.66272647  1
  Al0+  Al66  1  0.75188290  0.25126673  -0.00201315  1
  Al0+  Al67  1  0.74802893  0.25002783  0.32998257  1
  Al0+  Al68  1  0.75116661  0.25051040  0.66605737  1
  Al0+  Al69  1  0.75153619  0.74904253  0.00657824  1
  Al0+  Al70  1  0.75108996  0.74878142  0.33701259  1
  Al0+  Al71  1  0.75219641  0.75040122  0.65965893  1
  Al0+  Al72  1  0.42918909  0.82159995  0.64860676  1
  Al0+  Al73  1  0.57366979  0.67731353  0.98813287  1
  Al0+  Al74  1  0.07044650  0.67802890  0.65150690  1
  Al0+  Al75  1  0.07202549  0.17859969  0.32131200  1
  Al0+  Al76  1  0.32188574  0.07259820  0.35111784  1
  Al0+  Al77  1  0.92927755  0.82431078  0.65184420  1
  Al0+  Al78  1  0.06997257  0.68087288  0.98729756  1
  Al0+  Al79  1  0.56880591  0.17927246  0.31787812  1
  Al0+  Al80  1  0.93104669  0.32058971  0.98438811  1
  Al0+  Al81  1  0.17765518  0.92860380  0.34931255  1
  Al0+  Al82  1  0.57151394  0.67631309  0.65318546  1
  Al0+  Al83  1  0.32077748  0.07074624  0.01337607  1
  Al0+  Al84  1  0.57019112  0.18051331  0.98686847  1
  Al0+  Al85  1  0.07006737  0.68139566  0.31739325  1
  Al0+  Al86  1  0.17912433  0.43093761  0.01283999  1
  Al0+  Al87  1  0.07503456  0.17583076  0.98455155  1
  Al0+  Al88  1  0.18025365  0.92898534  0.68173458  1
  Al0+  Al89  1  0.57113746  0.18151625  0.65270047  1
  Al0+  Al90  1  0.17680948  0.92598255  0.01429388  1
  Al0+  Al91  1  0.82106842  0.57137969  0.01605714  1
  Al0+  Al92  1  0.42955005  0.82173826  0.98513920  1
  Al0+  Al93  1  0.67731774  0.42690666  0.01761779  1
  Al0+  Al94  1  0.67999457  0.93085253  0.01063961  1
  Al0+  Al95  1  0.67876046  0.42884109  0.68068781  1
  Si0+  Si96  1  0.32262686  0.57260379  0.01645689  1
  Si0+  Si97  1  0.42446822  0.32188238  0.64946466  1
  Si0+  Si98  1  0.92455327  0.82258640  0.31412839  1
  Si0+  Si99  1  0.67892948  0.92953615  0.67888523  1
  Si0+  Si100  1  0.07217339  0.17965405  0.65322114  1
  Si0+  Si101  1  0.57228777  0.67715096  0.31973870  1
  Si0+  Si102  1  0.17653321  0.42793247  0.68040492  1
  Si0+  Si103  1  0.82168230  0.57218925  0.68273863  1
  Si0+  Si104  1  0.81826540  0.07198401  0.34765104  1
  Si0+  Si105  1  0.67859674  0.92794155  0.34956783  1
  Si0+  Si106  1  0.31997417  0.56984587  0.68180233  1
  Si0+  Si107  1  0.42736434  0.32359088  0.98316224  1
  Si0+  Si108  1  0.32385097  0.07244701  0.68354534  1
  Si0+  Si109  1  0.92784337  0.32228224  0.31732207  1
  Si0+  Si110  1  0.32182613  0.57039553  0.34884854  1
  Si0+  Si111  1  0.92601825  0.82260918  0.98502693  1
  Si0+  Si112  1  0.42813259  0.32544538  0.31580901  1
  Si0+  Si113  1  0.82130167  0.57142487  0.35276909  1
  Si0+  Si114  1  0.92993593  0.31944614  0.65072188  1
  Si0+  Si115  1  0.17730919  0.43040999  0.34852318  1
  Si0+  Si116  1  0.67940362  0.42934321  0.34979673  1
  Si0+  Si117  1  0.82154852  0.07194656  0.68162484  1
  Si0+  Si118  1  0.43066817  0.81872676  0.31728667  1
  Si0+  Si119  1  0.82298267  0.07381286  0.01716825  1
  O2-  O120  1  0.24311117  0.00420286  0.06257697  1
  O2-  O121  1  0.24563584  0.00448482  0.40058383  1
  O2-  O122  1  0.25624437  0.00298199  0.72683797  1
  O2-  O123  1  0.25229211  0.50601800  0.06191193  1
  O2-  O124  1  0.24841091  0.50111194  0.39142250  1
  O2-  O125  1  0.24525877  0.50126309  0.72185305  1
  O2-  O126  1  0.75333610  0.00554739  0.06077786  1
  O2-  O127  1  0.74845221  0.00038453  0.39171098  1
  O2-  O128  1  0.75096477  -0.00046574  0.72129906  1
  O2-  O129  1  0.74698049  0.50141236  0.06731686  1
  O2-  O130  1  0.74878612  0.50114157  0.39393296  1
  O2-  O131  1  0.74661489  0.51017438  0.72565563  1
  O2-  O132  1  -0.00007810  0.25640976  0.27552702  1
  O2-  O133  1  0.00319011  0.25147540  0.60798816  1
  O2-  O134  1  0.00217301  0.24743750  0.93413204  1
  O2-  O135  1  -0.00215350  0.75853582  0.27142621  1
  O2-  O136  1  0.00227241  0.75361403  0.60118944  1
  O2-  O137  1  -0.00008411  0.75966116  0.94134176  1
  O2-  O138  1  0.49151182  0.25161992  0.27292282  1
  O2-  O139  1  0.49468600  0.25437211  0.60578811  1
  O2-  O140  1  0.49825062  0.25721312  0.93911102  1
  O2-  O141  1  0.50443819  0.74971411  0.27646235  1
  O2-  O142  1  0.50254503  0.74931699  0.59941585  1
  O2-  O143  1  0.50215671  0.74860321  0.93789368  1
  O2-  O144  1  0.07321944  0.17875213  0.09850820  1
  O2-  O145  1  0.06755602  0.18141400  0.43543434  1
  O2-  O146  1  0.07085459  0.18159310  0.75749608  1
  O2-  O147  1  0.06774238  0.68037246  0.10062000  1
  O2-  O148  1  0.06738723  0.67903961  0.43030433  1
  O2-  O149  1  0.06754602  0.67428799  0.76450472  1
  O2-  O150  1  0.56773483  0.17990819  0.10004317  1
  O2-  O151  1  0.57227850  0.18339166  0.43127163  1
  O2-  O152  1  0.57267429  0.18089018  0.76512548  1
  O2-  O153  1  0.57081212  0.68082427  0.10277617  1
  O2-  O154  1  0.57054818  0.67649546  0.42480976  1
  O2-  O155  1  0.56987396  0.67701609  0.76591536  1
  O2-  O156  1  0.17706624  0.43087709  0.24397835  1
  O2-  O157  1  0.17785238  0.42597865  0.57476414  1
  O2-  O158  1  0.18076576  0.43275664  0.89916364  1
  O2-  O159  1  0.18147314  0.92666289  0.23653597  1
  O2-  O160  1  0.17921322  0.93236312  0.56837820  1
  O2-  O161  1  0.17983145  0.92494669  0.90047728  1
  O2-  O162  1  0.67923744  0.42983435  0.24567297  1
  O2-  O163  1  0.68367481  0.42724418  0.56645712  1
  O2-  O164  1  0.68054857  0.42701106  0.90394745  1
  O2-  O165  1  0.67923669  0.92637829  0.24471907  1
  O2-  O166  1  0.68007198  0.93248562  0.57314190  1
  O2-  O167  1  0.68146553  0.93154818  0.89721142  1
  O2-  O168  1  0.42712341  0.32411954  0.08893198  1
  O2-  O169  1  0.43167847  0.33187094  0.42141393  1
  O2-  O170  1  0.41860705  0.32167742  0.75417890  1
  O2-  O171  1  0.43099076  0.82061594  0.09948793  1
  O2-  O172  1  0.43161349  0.81688004  0.42243073  1
  O2-  O173  1  0.43073121  0.82154149  0.76139847  1
  O2-  O174  1  0.93326338  0.31853223  0.09843392  1
  O2-  O175  1  0.92750972  0.32109810  0.42392986  1
  O2-  O176  1  0.92946072  0.31963623  0.75495158  1
  O2-  O177  1  0.92243587  0.82011914  0.09065572  1
  O2-  O178  1  0.91960291  0.82025280  0.41951836  1
  O2-  O179  1  0.92736778  0.82412550  0.76489526  1
  O2-  O180  1  0.32387337  0.06952531  0.23825353  1
  O2-  O181  1  0.32095753  0.07485397  0.57788235  1
  O2-  O182  1  0.32301503  0.06861618  0.89954246  1
  O2-  O183  1  0.32561568  0.56856996  0.24444333  1
  O2-  O184  1  0.32094676  0.56689461  0.57592854  1
  O2-  O185  1  0.32250532  0.56995499  0.91078148  1
  O2-  O186  1  0.81697886  0.07294199  0.24325448  1
  O2-  O187  1  0.82143992  0.07438395  0.57587359  1
  O2-  O188  1  0.82205733  0.07340414  0.91118991  1
  O2-  O189  1  0.82196186  0.57283648  0.24856096  1
  O2-  O190  1  0.82355568  0.56680113  0.57647598  1
  O2-  O191  1  0.82162558  0.57098832  0.90230406  1
  O2-  O192  1  0.03773063  0.08332652  0.26812402  1
  O2-  O193  1  0.04095947  0.08929591  0.60570997  1
  O2-  O194  1  0.04450993  0.07733547  0.93294988  1
  O2-  O195  1  0.03619866  0.58394542  0.26627093  1
  O2-  O196  1  0.03940707  0.58009302  0.59621829  1
  O2-  O197  1  0.03660509  0.58518587  0.93415610  1
  O2-  O198  1  0.54191357  0.07993165  0.26777340  1
  O2-  O199  1  0.54340998  0.08594135  0.59492497  1
  O2-  O200  1  0.53823495  0.08511748  0.93205076  1
  O2-  O201  1  0.54319449  0.58528003  0.27390210  1
  O2-  O202  1  0.53963715  0.57761297  0.60051312  1
  O2-  O203  1  0.54713998  0.57737108  0.93888626  1
  O2-  O204  1  0.16998105  0.20868780  0.27102224  1
  O2-  O205  1  0.16440281  0.20665343  0.60583099  1
  O2-  O206  1  0.17260795  0.20719550  0.93249917  1
  O2-  O207  1  0.16935989  0.70563498  0.26599774  1
  O2-  O208  1  0.16983604  0.70206500  0.59903620  1
  O2-  O209  1  0.16780389  0.70464173  0.93337539  1
  O2-  O210  1  0.66508683  0.21131754  0.26445693  1
  O2-  O211  1  0.66770261  0.21411863  0.59766670  1
  O2-  O212  1  0.66808359  0.20751350  0.93402311  1
  O2-  O213  1  0.66619599  0.70233565  0.27599363  1
  O2-  O214  1  0.67033547  0.70129291  0.59875342  1
  O2-  O215  1  0.67274121  0.70506392  0.93825913  1
  O2-  O216  1  0.08386902  0.46121187  0.06849382  1
  O2-  O217  1  0.08485319  0.45792972  0.39623484  1
  O2-  O218  1  0.08340992  0.45358559  0.72561798  1
  O2-  O219  1  0.07524015  0.94485607  0.06464547  1
  O2-  O220  1  0.07543856  0.95204330  0.39855304  1
  O2-  O221  1  0.08328414  0.96022667  0.73446192  1
  O2-  O222  1  0.57789388  0.45028096  0.07128077  1
  O2-  O223  1  0.58697654  0.45612279  0.39754164  1
  O2-  O224  1  0.57810677  0.44718181  0.73072930  1
  O2-  O225  1  0.58492218  0.96240678  0.06664188  1
  O2-  O226  1  0.58699523  0.95503617  0.39713916  1
  O2-  O227  1  0.58683989  0.95920912  0.72364080  1
  O2-  O228  1  0.21136589  0.33548779  0.06801512  1
  O2-  O229  1  0.20510124  0.33949728  0.39834099  1
  O2-  O230  1  0.20601385  0.33695461  0.72835802  1
  O2-  O231  1  0.21230487  0.82938123  0.06694978  1
  O2-  O232  1  0.21204753  0.83044586  0.40156911  1
  O2-  O233  1  0.20954649  0.82990672  0.73052919  1
  O2-  O234  1  0.71127272  0.32960550  0.07041332  1
  O2-  O235  1  0.70952237  0.33731909  0.39672841  1
  O2-  O236  1  0.71729424  0.33440339  0.73328445  1
  O2-  O237  1  0.71095184  0.83637081  0.06915409  1
  O2-  O238  1  0.70724177  0.83637396  0.39801093  1
  O2-  O239  1  0.70583505  0.83650008  0.72355911  1
  O2-  O240  1  0.45854232  0.41678919  0.26719374  1
  O2-  O241  1  0.44909864  0.41523807  0.60237376  1
  O2-  O242  1  0.44956717  0.41806722  0.93771186  1
  O2-  O243  1  0.45825955  0.91073025  0.27166050  1
  O2-  O244  1  0.45858158  0.91826775  0.59234907  1
  O2-  O245  1  0.46109422  0.91751890  0.93059834  1
  O2-  O246  1  0.95024276  0.41710140  0.27392052  1
  O2-  O247  1  0.95533402  0.41087804  0.60076596  1
  O2-  O248  1  0.96170394  0.41742304  0.93066286  1
  O2-  O249  1  0.94157610  0.91851659  0.27072500  1
  O2-  O250  1  0.95589468  0.92384601  0.59841910  1
  O2-  O251  1  0.94225195  0.91844398  0.94061700  1
  O2-  O252  1  0.33185630  0.30678234  0.27339694  1
  O2-  O253  1  0.33155110  0.29615475  0.59983588  1
  O2-  O254  1  0.33465513  0.29777074  0.93600228  1
  O2-  O255  1  0.34054367  0.78694594  0.27043689  1
  O2-  O256  1  0.33328002  0.78812492  0.59355849  1
  O2-  O257  1  0.33377018  0.79081815  0.92965136  1
  O2-  O258  1  0.83558216  0.29397361  0.27158196  1
  O2-  O259  1  0.84039413  0.28777853  0.60059618  1
  O2-  O260  1  0.83338848  0.29249818  0.93019263  1
  O2-  O261  1  0.83214022  0.79047044  0.26804664  1
  O2-  O262  1  0.83217056  0.79695068  0.59432133  1
  O2-  O263  1  0.83484461  0.79108328  0.93771776  1
  O2-  O264  1  0.41686508  0.03681104  0.06788704  1
  O2-  O265  1  0.41947342  0.03835947  0.40425437  1
  O2-  O266  1  0.41971028  0.04740202  0.72453803  1
  O2-  O267  1  0.41443543  0.54512758  0.06555458  1
  O2-  O268  1  0.41219768  0.53984515  0.39941324  1
  O2-  O269  1  0.40925828  0.53844403  0.73125866  1
  O2-  O270  1  0.91560020  0.04707638  0.06458811  1
  O2-  O271  1  0.90972716  0.04521895  0.39711750  1
  O2-  O272  1  0.91281578  0.04642396  0.73035097  1
  O2-  O273  1  0.91677973  0.53705474  0.07133296  1
  O2-  O274  1  0.91213267  0.54119191  0.40168678  1
  O2-  O275  1  0.91325064  0.53909168  0.72843589  1
  O2-  O276  1  0.30020142  0.17069943  0.06678653  1
  O2-  O277  1  0.30230056  0.17480662  0.40188364  1
  O2-  O278  1  0.29898926  0.16661059  0.72898261  1
  O2-  O279  1  0.29881442  0.66650009  0.06138661  1
  O2-  O280  1  0.29426288  0.66161485  0.39705251  1
  O2-  O281  1  0.29600682  0.66262295  0.72724143  1
  O2-  O282  1  0.79866593  0.16710298  0.06297670  1
  O2-  O283  1  0.78954596  0.16385175  0.39659561  1
  O2-  O284  1  0.79177502  0.16269028  0.72924770  1
  O2-  O285  1  0.79509503  0.66831424  0.07402962  1
  O2-  O286  1  0.79425023  0.66327437  0.40124770  1
  O2-  O287  1  0.80437109  0.66927366  0.72348697  1
