# generated using pymatgen
data_Ca2Al2SiO7
_symmetry_space_group_name_H-M   'P 1'
_cell_length_a   15.46156226
_cell_length_b   15.46215064
_cell_length_c   15.28661580
_cell_angle_alpha   89.99319193
_cell_angle_beta   90.00362911
_cell_angle_gamma   89.98657306
_symmetry_Int_Tables_number   1
_chemical_formula_structural   Ca2Al2SiO7
_chemical_formula_sum   'Ca48 Al48 Si24 O168'
_cell_volume   3654.55589436
_cell_formula_units_Z   24
loop_
 _symmetry_equiv_pos_site_id
 _symmetry_equiv_pos_as_xyz
  1  'x, y, z'
loop_
 _atom_type_symbol
 _atom_type_oxidation_number
  Ca2+  2.0
  Al0+  0.0
  Si0+  0.0
  O2-  -2.0
loop_
 _atom_site_type_symbol
 _atom_site_label
 _atom_site_symmetry_multiplicity
 _atom_site_fract_x
 _atom_site_fract_y
 _atom_site_fract_z
 _atom_site_occupancy
  Ca2+  Ca0  1  0.16937208  0.07467293  0.16485996  1
  Ca2+  Ca1  1  0.16480137  0.08397630  0.50482560  1
  Ca2+  Ca2  1  0.16987386  0.08061122  0.84142823  1
  Ca2+  Ca3  1  0.17337687  0.57740819  0.17627318  1
  Ca2+  Ca4  1  0.17269973  0.57670750  0.50498211  1
  Ca2+  Ca5  1  0.17441642  0.57895569  0.83820128  1
  Ca2+  Ca6  1  0.67363365  0.09353226  0.17429697  1
  Ca2+  Ca7  1  0.67049378  0.08921076  0.49720370  1
  Ca2+  Ca8  1  0.67330790  0.08208806  0.84363851  1
  Ca2+  Ca9  1  0.66922389  0.57818326  0.17713926  1
  Ca2+  Ca10  1  0.65629143  0.58034520  0.50145898  1
  Ca2+  Ca11  1  0.66494582  0.58458120  0.83425446  1
  Ca2+  Ca12  1  0.08008481  0.34280228  0.16578695  1
  Ca2+  Ca13  1  0.08483695  0.33419182  0.49446400  1
  Ca2+  Ca14  1  0.09396765  0.32920428  0.82765910  1
  Ca2+  Ca15  1  0.08356600  0.82840230  0.16224044  1
  Ca2+  Ca16  1  0.08364949  0.81879279  0.49777572  1
  Ca2+  Ca17  1  0.07549594  0.83644403  0.82767588  1
  Ca2+  Ca18  1  0.57950161  0.32868636  0.16883946  1
  Ca2+  Ca19  1  0.57042626  0.33547653  0.48962136  1
  Ca2+  Ca20  1  0.57358228  0.32670881  0.82938969  1
  Ca2+  Ca21  1  0.57760339  0.83033974  0.16939976  1
  Ca2+  Ca22  1  0.57648115  0.81996225  0.49299372  1
  Ca2+  Ca23  1  0.57901734  0.82627846  0.82671095  1
  Ca2+  Ca24  1  0.32528169  0.42425234  0.17487243  1
  Ca2+  Ca25  1  0.33260119  0.42348506  0.50629303  1
  Ca2+  Ca26  1  0.32588093  0.42316414  0.83524048  1
  Ca2+  Ca27  1  0.33562393  0.91878808  0.16938628  1
  Ca2+  Ca28  1  0.33778229  0.91652598  0.49955105  1
  Ca2+  Ca29  1  0.32348551  0.92309720  0.84486100  1
  Ca2+  Ca30  1  0.82651029  0.41176604  0.17869977  1
  Ca2+  Ca31  1  0.82783142  0.41231726  0.49614233  1
  Ca2+  Ca32  1  0.83063685  0.41966375  0.83675833  1
  Ca2+  Ca33  1  0.83838379  0.92808690  0.17022773  1
  Ca2+  Ca34  1  0.83654660  0.91966870  0.50287146  1
  Ca2+  Ca35  1  0.83749195  0.91828558  0.84203824  1
  Ca2+  Ca36  1  0.42432052  0.16972074  0.16094934  1
  Ca2+  Ca37  1  0.41837459  0.18332083  0.49096291  1
  Ca2+  Ca38  1  0.41493894  0.17006265  0.82926707  1
  Ca2+  Ca39  1  0.41511660  0.66090147  0.16984418  1
  Ca2+  Ca40  1  0.41890712  0.66389889  0.49109952  1
  Ca2+  Ca41  1  0.41658474  0.65886735  0.82890636  1
  Ca2+  Ca42  1  0.91068517  0.16955751  0.16632256  1
  Ca2+  Ca43  1  0.92295714  0.17114942  0.49346954  1
  Ca2+  Ca44  1  0.92421124  0.16587942  0.82994910  1
  Ca2+  Ca45  1  0.92747618  0.66785336  0.16200456  1
  Ca2+  Ca46  1  0.93109385  0.66309438  0.49677558  1
  Ca2+  Ca47  1  0.92647891  0.67954468  0.82389121  1
  Al0+  Al48  1  -0.00114244  0.00180096  0.00506575  1
  Al0+  Al49  1  0.00050071  0.00102890  0.33941852  1
  Al0+  Al50  1  -0.00040072  0.00300447  0.65927366  1
  Al0+  Al51  1  -0.00182471  0.50135584  -0.00131517  1
  Al0+  Al52  1  -0.00035035  0.49944844  0.32794834  1
  Al0+  Al53  1  -0.00297728  0.49910848  0.66875029  1
  Al0+  Al54  1  0.50203858  -0.00210776  -0.00292380  1
  Al0+  Al55  1  0.50223134  -0.00166494  0.32918516  1
  Al0+  Al56  1  0.50359466  -0.00067513  0.66835533  1
  Al0+  Al57  1  0.50007528  0.49773897  0.00173567  1
  Al0+  Al58  1  0.50035039  0.49941039  0.33127120  1
  Al0+  Al59  1  0.49960445  0.49828570  0.66612605  1
  Al0+  Al60  1  0.24948076  0.25101515  0.00783516  1
  Al0+  Al61  1  0.24880980  0.24714237  0.33014404  1
  Al0+  Al62  1  0.25072367  0.24982075  0.66094123  1
  Al0+  Al63  1  0.25136988  0.74847916  0.00512112  1
  Al0+  Al64  1  0.24883956  0.75043830  0.32911566  1
  Al0+  Al65  1  0.24916789  0.75196669  0.66901995  1
  Al0+  Al66  1  0.74919345  0.24932715  -0.00362659  1
  Al0+  Al67  1  0.75269949  0.25100288  0.33812153  1
  Al0+  Al68  1  0.75090518  0.24915206  0.67056485  1
  Al0+  Al69  1  0.75027410  0.75031023  -0.00336414  1
  Al0+  Al70  1  0.75073722  0.75283620  0.33086278  1
  Al0+  Al71  1  0.74767191  0.75160777  0.66021921  1
  Al0+  Al72  1  0.32411418  0.07103427  0.01482244  1
  Al0+  Al73  1  0.81890368  0.07066362  0.01364252  1
  Al0+  Al74  1  0.68010935  0.43100211  0.34691805  1
  Al0+  Al75  1  0.06956645  0.67898222  0.31836306  1
  Al0+  Al76  1  0.43032973  0.31826437  0.65408787  1
  Al0+  Al77  1  0.17619273  0.42933363  0.01601438  1
  Al0+  Al78  1  0.93238425  0.31859584  0.32070632  1
  Al0+  Al79  1  0.82050613  0.07057089  0.35029666  1
  Al0+  Al80  1  0.07072242  0.18179356  0.65441432  1
  Al0+  Al81  1  0.07251220  0.67729455  0.65290343  1
  Al0+  Al82  1  0.57241039  0.67751525  0.31693492  1
  Al0+  Al83  1  0.17770138  0.92911047  0.01445433  1
  Al0+  Al84  1  0.17662194  0.42704569  0.34962863  1
  Al0+  Al85  1  0.56808031  0.67908505  0.65440667  1
  Al0+  Al86  1  0.32345360  0.57010047  0.01713778  1
  Al0+  Al87  1  0.92847680  0.82281390  0.65006936  1
  Al0+  Al88  1  0.57122522  0.17802066  0.98474309  1
  Al0+  Al89  1  0.57138553  0.18065825  0.32037327  1
  Al0+  Al90  1  0.17700791  0.42724305  0.68089720  1
  Al0+  Al91  1  0.32167109  0.57228847  0.68187858  1
  Al0+  Al92  1  0.42805694  0.82040849  0.31746838  1
  Al0+  Al93  1  0.31974618  0.57090731  0.34986885  1
  Al0+  Al94  1  0.42540619  0.32228671  0.31566761  1
  Al0+  Al95  1  0.93128295  0.82165819  0.98823941  1
  Si0+  Si96  1  0.57453985  0.17618419  0.65063309  1
  Si0+  Si97  1  0.81975886  0.57336613  0.68136146  1
  Si0+  Si98  1  0.92410891  0.32254008  0.65123009  1
  Si0+  Si99  1  0.82254374  0.57508032  0.34882800  1
  Si0+  Si100  1  0.17811632  0.93127990  0.67973607  1
  Si0+  Si101  1  0.67719173  0.92685211  0.35261530  1
  Si0+  Si102  1  0.81921852  0.57298235  0.01300255  1
  Si0+  Si103  1  0.32265055  0.07067615  0.67837057  1
  Si0+  Si104  1  0.07263074  0.17394368  0.31351684  1
  Si0+  Si105  1  0.92713592  0.32238737  0.98416293  1
  Si0+  Si106  1  0.57065131  0.67757447  0.98475409  1
  Si0+  Si107  1  0.42736793  0.32082936  0.98244038  1
  Si0+  Si108  1  0.17921154  0.92979658  0.35048923  1
  Si0+  Si109  1  0.67988524  0.92797399  0.68299632  1
  Si0+  Si110  1  0.67819946  0.92491346  0.01697313  1
  Si0+  Si111  1  0.07323561  0.67748258  0.98226026  1
  Si0+  Si112  1  0.42721399  0.82523282  0.65324851  1
  Si0+  Si113  1  0.92925224  0.82482980  0.31663561  1
  Si0+  Si114  1  0.42818371  0.82038665  0.98337830  1
  Si0+  Si115  1  0.82117537  0.07023367  0.68347533  1
  Si0+  Si116  1  0.07032844  0.18098220  0.98755256  1
  Si0+  Si117  1  0.68128850  0.42906203  0.01354958  1
  Si0+  Si118  1  0.32384374  0.06937546  0.34844568  1
  Si0+  Si119  1  0.67893757  0.42852404  0.68316787  1
  O2-  O120  1  0.25423911  -0.00338429  0.06461306  1
  O2-  O121  1  0.25161456  -0.00000879  0.39241112  1
  O2-  O122  1  0.25275408  -0.00106796  0.72134837  1
  O2-  O123  1  0.24740408  0.50181553  0.06503296  1
  O2-  O124  1  0.25112005  0.49580627  0.40000111  1
  O2-  O125  1  0.24557615  0.50310403  0.73030922  1
  O2-  O126  1  0.74347224  -0.00309705  0.06053958  1
  O2-  O127  1  0.74632783  -0.00467120  0.39714593  1
  O2-  O128  1  0.75127809  -0.00155374  0.72613770  1
  O2-  O129  1  0.75143276  0.50019722  0.05617706  1
  O2-  O130  1  0.74968288  0.51122112  0.39394141  1
  O2-  O131  1  0.74980633  0.50063464  0.72475215  1
  O2-  O132  1  0.00850163  0.24735261  0.27068308  1
  O2-  O133  1  -0.00125410  0.25966862  0.60940359  1
  O2-  O134  1  0.00295276  0.25560299  0.94394435  1
  O2-  O135  1  -0.00661869  0.75301821  0.27182067  1
  O2-  O136  1  -0.00116026  0.74836224  0.60251448  1
  O2-  O137  1  0.00767564  0.75014546  0.93913607  1
  O2-  O138  1  0.49712609  0.24818843  0.26785128  1
  O2-  O139  1  0.50538432  0.24351647  0.60771750  1
  O2-  O140  1  0.49226331  0.24793291  0.93751088  1
  O2-  O141  1  0.49840335  0.74700967  0.26649019  1
  O2-  O142  1  0.48938803  0.75043719  0.61046978  1
  O2-  O143  1  0.49763402  0.74671815  0.94239783  1
  O2-  O144  1  0.06740264  0.17866678  0.09204038  1
  O2-  O145  1  0.06991513  0.17092199  0.41940229  1
  O2-  O146  1  0.06882856  0.17779361  0.76810785  1
  O2-  O147  1  0.06843632  0.67570536  0.08763697  1
  O2-  O148  1  0.06925471  0.67975426  0.43145777  1
  O2-  O149  1  0.07064798  0.68062006  0.76670671  1
  O2-  O150  1  0.57539928  0.18361812  0.09695146  1
  O2-  O151  1  0.56880092  0.18248793  0.43450389  1
  O2-  O152  1  0.57519542  0.17619101  0.75649528  1
  O2-  O153  1  0.57427633  0.67812545  0.08899918  1
  O2-  O154  1  0.57224224  0.68067262  0.43057399  1
  O2-  O155  1  0.57052870  0.68179526  0.76828851  1
  O2-  O156  1  0.17512577  0.43224756  0.23621779  1
  O2-  O157  1  0.17892068  0.42600553  0.56817498  1
  O2-  O158  1  0.17697071  0.42869052  0.90219891  1
  O2-  O159  1  0.17636698  0.93233413  0.24565233  1
  O2-  O160  1  0.17857356  0.93212048  0.57463299  1
  O2-  O161  1  0.17698547  0.93348403  0.89999742  1
  O2-  O162  1  0.68465454  0.42926946  0.23327049  1
  O2-  O163  1  0.68006802  0.42654437  0.57870262  1
  O2-  O164  1  0.68228796  0.43073340  0.90773222  1
  O2-  O165  1  0.67793441  0.92545751  0.24711217  1
  O2-  O166  1  0.67720906  0.92941765  0.57861569  1
  O2-  O167  1  0.68057814  0.92335117  0.91076706  1
  O2-  O168  1  0.43144319  0.32220402  0.08729378  1
  O2-  O169  1  0.42713757  0.32101219  0.42974015  1
  O2-  O170  1  0.43190083  0.31519966  0.76761371  1
  O2-  O171  1  0.43071308  0.82349655  0.08769958  1
  O2-  O172  1  0.43050781  0.82262620  0.43162736  1
  O2-  O173  1  0.43149672  0.83131137  0.75876927  1
  O2-  O174  1  0.92277808  0.32132023  0.08869490  1
  O2-  O175  1  0.93085619  0.31624158  0.43388696  1
  O2-  O176  1  0.91749135  0.31827484  0.75702801  1
  O2-  O177  1  0.93048088  0.81826839  0.10094274  1
  O2-  O178  1  0.93254930  0.82510810  0.42215762  1
  O2-  O179  1  0.93046800  0.82449625  0.76425691  1
  O2-  O180  1  0.32361594  0.06714003  0.24366055  1
  O2-  O181  1  0.32322145  0.06855488  0.57331147  1
  O2-  O182  1  0.32049327  0.07024615  0.90003012  1
  O2-  O183  1  0.31676533  0.57070931  0.23645890  1
  O2-  O184  1  0.32470691  0.57153044  0.56920895  1
  O2-  O185  1  0.32544091  0.56773384  0.90322890  1
  O2-  O186  1  0.82023140  0.06948583  0.23704610  1
  O2-  O187  1  0.81898801  0.07183179  0.57884202  1
  O2-  O188  1  0.81977487  0.06982944  0.89995319  1
  O2-  O189  1  0.82195841  0.57275004  0.24262530  1
  O2-  O190  1  0.81998074  0.57265793  0.57677268  1
  O2-  O191  1  0.81691182  0.57242921  0.90749902  1
  O2-  O192  1  0.03986759  0.08221221  0.26796754  1
  O2-  O193  1  0.03691343  0.08871331  0.59564621  1
  O2-  O194  1  0.03811461  0.09080098  0.93905627  1
  O2-  O195  1  0.03644942  0.58488087  0.26161184  1
  O2-  O196  1  0.04096160  0.57881389  0.60178912  1
  O2-  O197  1  0.04154712  0.58612319  0.93443976  1
  O2-  O198  1  0.54984117  0.08057509  0.26871636  1
  O2-  O199  1  0.55221281  0.08138772  0.60618223  1
  O2-  O200  1  0.54776070  0.07879184  0.93101980  1
  O2-  O201  1  0.54881489  0.57867325  0.26420882  1
  O2-  O202  1  0.54361390  0.58094113  0.60241604  1
  O2-  O203  1  0.54500520  0.58449773  0.93759169  1
  O2-  O204  1  0.16807370  0.19082109  0.26928514  1
  O2-  O205  1  0.16702851  0.20588371  0.59741780  1
  O2-  O206  1  0.16392141  0.20513018  0.94093859  1
  O2-  O207  1  0.16335176  0.71353140  0.26293890  1
  O2-  O208  1  0.17002432  0.70941407  0.60026554  1
  O2-  O209  1  0.16927290  0.69873809  0.94033510  1
  O2-  O210  1  0.66964585  0.21293622  0.27020348  1
  O2-  O211  1  0.66864577  0.20319884  0.60703775  1
  O2-  O212  1  0.66578218  0.21386313  0.92756830  1
  O2-  O213  1  0.67150434  0.70781911  0.26424366  1
  O2-  O214  1  0.66222168  0.71189705  0.59816591  1
  O2-  O215  1  0.66147523  0.70741135  0.93514223  1
  O2-  O216  1  0.07511929  0.45604909  0.06532542  1
  O2-  O217  1  0.07705950  0.45745247  0.39957932  1
  O2-  O218  1  0.07459303  0.44622372  0.73171246  1
  O2-  O219  1  0.08291583  0.96295109  0.07056993  1
  O2-  O220  1  0.08938467  0.95985351  0.40063134  1
  O2-  O221  1  0.08699833  0.96443517  0.72571057  1
  O2-  O222  1  0.58963016  0.45522321  0.06023292  1
  O2-  O223  1  0.58303697  0.45812476  0.40095465  1
  O2-  O224  1  0.58854129  0.45681528  0.73268460  1
  O2-  O225  1  0.58322841  0.94626520  0.06007204  1
  O2-  O226  1  0.58388490  0.95325337  0.39913591  1
  O2-  O227  1  0.58872636  0.95609624  0.73363475  1
  O2-  O228  1  0.20033293  0.33078295  0.06950138  1
  O2-  O229  1  0.19707202  0.32326987  0.39523200  1
  O2-  O230  1  0.21126024  0.32874104  0.73274171  1
  O2-  O231  1  0.20139858  0.82954512  0.06544216  1
  O2-  O232  1  0.20686285  0.83792671  0.39690716  1
  O2-  O233  1  0.20103663  0.83973761  0.72958153  1
  O2-  O234  1  0.71180736  0.33820092  0.05952004  1
  O2-  O235  1  0.71721625  0.33815826  0.40402190  1
  O2-  O236  1  0.70838935  0.33712742  0.73259581  1
  O2-  O237  1  0.70644557  0.83232050  0.06343456  1
  O2-  O238  1  0.70423307  0.83348658  0.39947555  1
  O2-  O239  1  0.70624300  0.83568436  0.73087266  1
  O2-  O240  1  0.45775945  0.41856523  0.26295519  1
  O2-  O241  1  0.46384938  0.41331137  0.60063083  1
  O2-  O242  1  0.46045561  0.41218769  0.93493923  1
  O2-  O243  1  0.46069294  0.91697753  0.26237528  1
  O2-  O244  1  0.45994450  0.91588173  0.60404383  1
  O2-  O245  1  0.45766187  0.91062135  0.93284190  1
  O2-  O246  1  0.95568754  0.41550698  0.26351459  1
  O2-  O247  1  0.93994594  0.41870646  0.60840069  1
  O2-  O248  1  0.94879139  0.41622631  0.93677610  1
  O2-  O249  1  0.96034441  0.91742579  0.27172527  1
  O2-  O250  1  0.95787405  0.91995125  0.59641837  1
  O2-  O251  1  0.96014255  0.91984429  0.93513110  1
  O2-  O252  1  0.32733728  0.29277290  0.26327280  1
  O2-  O253  1  0.33649374  0.28672640  0.59690917  1
  O2-  O254  1  0.33172248  0.29747497  0.93948137  1
  O2-  O255  1  0.32913668  0.79780824  0.26418324  1
  O2-  O256  1  0.33102257  0.80874245  0.61042303  1
  O2-  O257  1  0.33490997  0.79536010  0.93681950  1
  O2-  O258  1  0.83683715  0.28411806  0.26662705  1
  O2-  O259  1  0.83314474  0.28974901  0.60322821  1
  O2-  O260  1  0.83820712  0.29048530  0.93302025  1
  O2-  O261  1  0.83352573  0.80704702  0.27276597  1
  O2-  O262  1  0.82918092  0.79827509  0.59856808  1
  O2-  O263  1  0.83472719  0.78993213  0.93261950  1
  O2-  O264  1  0.42377917  0.04290704  0.06466135  1
  O2-  O265  1  0.41512273  0.03986932  0.39613066  1
  O2-  O266  1  0.41557003  0.04543186  0.72631233  1
  O2-  O267  1  0.42174603  0.53944743  0.06939361  1
  O2-  O268  1  0.42102293  0.54640838  0.39785192  1
  O2-  O269  1  0.41942074  0.53873407  0.73562547  1
  O2-  O270  1  0.91383937  0.04087505  0.07000456  1
  O2-  O271  1  0.91694572  0.03953032  0.40553855  1
  O2-  O272  1  0.91435970  0.04299677  0.72862838  1
  O2-  O273  1  0.91193083  0.54824468  0.05899223  1
  O2-  O274  1  0.91360460  0.54232447  0.39481357  1
  O2-  O275  1  0.91021802  0.54673674  0.73260026  1
  O2-  O276  1  0.29540221  0.16783620  0.06871298  1
  O2-  O277  1  0.29571779  0.16136784  0.39519767  1
  O2-  O278  1  0.29301586  0.16135531  0.72579173  1
  O2-  O279  1  0.30233612  0.67066954  0.06739856  1
  O2-  O280  1  0.29042715  0.67117155  0.39914969  1
  O2-  O281  1  0.29823609  0.67334930  0.73419562  1
  O2-  O282  1  0.78800446  0.16837050  0.06541879  1
  O2-  O283  1  0.78925786  0.16560627  0.40651925  1
  O2-  O284  1  0.79349263  0.16176587  0.73278223  1
  O2-  O285  1  0.78953494  0.66335925  0.06131346  1
  O2-  O286  1  0.80418930  0.67124865  0.39244230  1
  O2-  O287  1  0.78848283  0.66498732  0.72804932  1
