# generated using pymatgen
data_Ca2Al2SiO7
_symmetry_space_group_name_H-M   'P 1'
_cell_length_a   15.45751004
_cell_length_b   15.45698142
_cell_length_c   15.28289755
_cell_angle_alpha   90.01073094
_cell_angle_beta   89.99543373
_cell_angle_gamma   89.99533968
_symmetry_Int_Tables_number   1
_chemical_formula_structural   Ca2Al2SiO7
_chemical_formula_sum   'Ca48 Al48 Si24 O168'
_cell_volume   3651.48830181
_cell_formula_units_Z   24
loop_
 _symmetry_equiv_pos_site_id
 _symmetry_equiv_pos_as_xyz
  1  'x, y, z'
loop_
 _atom_type_symbol
 _atom_type_oxidation_number
  Ca2+  2.0
  Al0+  0.0
  Si0+  0.0
  O2-  -2.0
loop_
 _atom_site_type_symbol
 _atom_site_label
 _atom_site_symmetry_multiplicity
 _atom_site_fract_x
 _atom_site_fract_y
 _atom_site_fract_z
 _atom_site_occupancy
  Ca2+  Ca0  1  0.17410023  0.08716052  0.17162732  1
  Ca2+  Ca1  1  0.18137638  0.08004926  0.50792459  1
  Ca2+  Ca2  1  0.16704646  0.08160752  0.83517208  1
  Ca2+  Ca3  1  0.16547886  0.58382867  0.16706200  1
  Ca2+  Ca4  1  0.17603204  0.58289047  0.50564368  1
  Ca2+  Ca5  1  0.17228796  0.58910046  0.83737377  1
  Ca2+  Ca6  1  0.65987712  0.08198687  0.17150823  1
  Ca2+  Ca7  1  0.66489246  0.07190434  0.50466480  1
  Ca2+  Ca8  1  0.66928023  0.08215252  0.83336981  1
  Ca2+  Ca9  1  0.66396798  0.57284144  0.17123067  1
  Ca2+  Ca10  1  0.66880018  0.57228082  0.50160190  1
  Ca2+  Ca11  1  0.66412408  0.57157383  0.84144978  1
  Ca2+  Ca12  1  0.07583273  0.32679633  0.15547072  1
  Ca2+  Ca13  1  0.07586520  0.33428238  0.49850540  1
  Ca2+  Ca14  1  0.07042409  0.32893027  0.83041358  1
  Ca2+  Ca15  1  0.07537014  0.82731713  0.16217534  1
  Ca2+  Ca16  1  0.07177552  0.84463262  0.50042351  1
  Ca2+  Ca17  1  0.08134795  0.83169124  0.82604297  1
  Ca2+  Ca18  1  0.58255576  0.32687079  0.16072667  1
  Ca2+  Ca19  1  0.58222920  0.32764278  0.49168199  1
  Ca2+  Ca20  1  0.58813460  0.33127613  0.83212936  1
  Ca2+  Ca21  1  0.57440539  0.83405566  0.16204456  1
  Ca2+  Ca22  1  0.58182646  0.83840749  0.49092723  1
  Ca2+  Ca23  1  0.58303177  0.82967023  0.83145358  1
  Ca2+  Ca24  1  0.33731286  0.41058556  0.16966660  1
  Ca2+  Ca25  1  0.33635563  0.42072933  0.50544376  1
  Ca2+  Ca26  1  0.33848417  0.42280863  0.83877440  1
  Ca2+  Ca27  1  0.33828341  0.92029422  0.17387712  1
  Ca2+  Ca28  1  0.33461513  0.92791548  0.50632222  1
  Ca2+  Ca29  1  0.33200001  0.92017090  0.83509374  1
  Ca2+  Ca30  1  0.82307756  0.41898415  0.17228235  1
  Ca2+  Ca31  1  0.82222200  0.41606204  0.50492572  1
  Ca2+  Ca32  1  0.82520406  0.40714965  0.83856316  1
  Ca2+  Ca33  1  0.82559606  0.91664529  0.17655565  1
  Ca2+  Ca34  1  0.82479220  0.91644110  0.50831204  1
  Ca2+  Ca35  1  0.83400898  0.91885620  0.83144144  1
  Ca2+  Ca36  1  0.42733506  0.17291628  0.16472104  1
  Ca2+  Ca37  1  0.42078963  0.16616851  0.48857248  1
  Ca2+  Ca38  1  0.42094140  0.16935963  0.83305963  1
  Ca2+  Ca39  1  0.42415939  0.67870894  0.15875892  1
  Ca2+  Ca40  1  0.41673847  0.67335902  0.49558753  1
  Ca2+  Ca41  1  0.42102426  0.66781232  0.83248652  1
  Ca2+  Ca42  1  0.92226436  0.17323710  0.15650872  1
  Ca2+  Ca43  1  0.91091374  0.16654829  0.50336196  1
  Ca2+  Ca44  1  0.91195380  0.17449561  0.82827872  1
  Ca2+  Ca45  1  0.91542642  0.66768207  0.16599997  1
  Ca2+  Ca46  1  0.91109443  0.67748850  0.49450546  1
  Ca2+  Ca47  1  0.92354947  0.67004977  0.82717803  1
  Al0+  Al48  1  0.00135618  -0.00067303  0.00067895  1
  Al0+  Al49  1  -0.00014931  -0.00074863  0.32718136  1
  Al0+  Al50  1  0.00075599  0.00054928  0.66895171  1
  Al0+  Al51  1  0.00079456  0.50147184  -0.00736708  1
  Al0+  Al52  1  0.00079838  0.50115978  0.33775281  1
  Al0+  Al53  1  0.00046457  0.49945311  0.65926939  1
  Al0+  Al54  1  0.49880566  0.00169280  -0.00722584  1
  Al0+  Al55  1  0.49982825  0.00127516  0.33334226  1
  Al0+  Al56  1  0.50007874  -0.00068070  0.67496377  1
  Al0+  Al57  1  0.50016412  0.50201504  0.00149760  1
  Al0+  Al58  1  0.49796102  0.50042729  0.33505841  1
  Al0+  Al59  1  0.50049019  0.49992444  0.67321701  1
  Al0+  Al60  1  0.25033612  0.25012377  -0.00629295  1
  Al0+  Al61  1  0.24959970  0.25024180  0.33594036  1
  Al0+  Al62  1  0.24951785  0.25169254  0.67050890  1
  Al0+  Al63  1  0.24839012  0.75163696  -0.00409842  1
  Al0+  Al64  1  0.24775242  0.74973811  0.33031554  1
  Al0+  Al65  1  0.25236714  0.74948423  0.67255179  1
  Al0+  Al66  1  0.74919945  0.24885801  0.00008013  1
  Al0+  Al67  1  0.75111036  0.24925700  0.33266803  1
  Al0+  Al68  1  0.74857159  0.24876897  0.66683790  1
  Al0+  Al69  1  0.74905642  0.75044738  -0.00184012  1
  Al0+  Al70  1  0.75031929  0.74943073  0.33519344  1
  Al0+  Al71  1  0.75031594  0.74676850  0.66651102  1
  Al0+  Al72  1  0.92952638  0.82058310  0.65278278  1
  Al0+  Al73  1  0.67926574  0.93087032  0.34365119  1
  Al0+  Al74  1  0.32268808  0.07423744  0.68480774  1
  Al0+  Al75  1  0.82266301  0.57078275  0.34919233  1
  Al0+  Al76  1  0.42848702  0.82143389  0.32274376  1
  Al0+  Al77  1  0.92863953  0.32036838  0.98635546  1
  Al0+  Al78  1  0.68092274  0.42975893  0.68138871  1
  Al0+  Al79  1  0.06961556  0.67977229  0.98625284  1
  Al0+  Al80  1  0.81980632  0.07005618  0.68131111  1
  Al0+  Al81  1  0.67846166  0.92457995  0.68359887  1
  Al0+  Al82  1  0.32049003  0.56946681  0.68126438  1
  Al0+  Al83  1  0.07240894  0.17685076  0.98442617  1
  Al0+  Al84  1  0.92713353  0.31987437  0.64960648  1
  Al0+  Al85  1  0.17974781  0.93027816  0.68157290  1
  Al0+  Al86  1  0.42820135  0.82225920  0.98280311  1
  Al0+  Al87  1  0.42950366  0.32221379  0.98407967  1
  Al0+  Al88  1  0.31950440  0.07006225  0.34453110  1
  Al0+  Al89  1  0.67729576  0.42711570  0.34859582  1
  Al0+  Al90  1  0.57190953  0.67952310  0.98524460  1
  Al0+  Al91  1  0.67933671  0.42891888  0.01594056  1
  Al0+  Al92  1  0.92770391  0.82084599  0.31943166  1
  Al0+  Al93  1  0.42729443  0.32277025  0.32096346  1
  Al0+  Al94  1  0.57189805  0.17900482  0.98212642  1
  Al0+  Al95  1  0.57269955  0.17929334  0.32029613  1
  Si0+  Si96  1  0.07338147  0.17855858  0.64773082  1
  Si0+  Si97  1  0.17528370  0.42851830  0.68452441  1
  Si0+  Si98  1  0.56873765  0.17811284  0.65097304  1
  Si0+  Si99  1  0.92686827  0.82260199  0.98347717  1
  Si0+  Si100  1  0.07197299  0.67628179  0.31694279  1
  Si0+  Si101  1  0.82623421  0.07200923  0.34780318  1
  Si0+  Si102  1  0.17896822  0.42978023  0.01363505  1
  Si0+  Si103  1  0.82391573  0.57105262  0.68347485  1
  Si0+  Si104  1  0.67826653  0.92894748  0.01535980  1
  Si0+  Si105  1  0.43047043  0.82039467  0.65130766  1
  Si0+  Si106  1  0.57046033  0.67653309  0.65056475  1
  Si0+  Si107  1  0.32002217  0.57268208  0.01752472  1
  Si0+  Si108  1  0.17864039  0.92793782  0.01814619  1
  Si0+  Si109  1  0.82423141  0.57360099  0.01504447  1
  Si0+  Si110  1  0.17886083  0.42842052  0.34780199  1
  Si0+  Si111  1  0.82169706  0.06966405  0.01609054  1
  Si0+  Si112  1  0.42902782  0.32237908  0.65274086  1
  Si0+  Si113  1  0.57182060  0.67727620  0.31858568  1
  Si0+  Si114  1  0.17635986  0.92620236  0.34799513  1
  Si0+  Si115  1  0.07131572  0.17982786  0.32013011  1
  Si0+  Si116  1  0.93009194  0.32241226  0.31917036  1
  Si0+  Si117  1  0.31967860  0.57326775  0.34609858  1
  Si0+  Si118  1  0.32068936  0.07158679  0.01665950  1
  Si0+  Si119  1  0.07505511  0.67878922  0.64768271  1
  O2-  O120  1  0.24969204  -0.00033901  0.05935167  1
  O2-  O121  1  0.24689735  -0.00693949  0.39121192  1
  O2-  O122  1  0.24956005  0.00286913  0.73419296  1
  O2-  O123  1  0.25084133  0.49888378  0.05903617  1
  O2-  O124  1  0.25194379  0.49858508  0.38800734  1
  O2-  O125  1  0.24419701  0.49669507  0.72874626  1
  O2-  O126  1  0.75032585  -0.00111227  0.05810697  1
  O2-  O127  1  0.75590925  0.00404757  0.38966184  1
  O2-  O128  1  0.75126198  -0.00412971  0.73337030  1
  O2-  O129  1  0.75526128  0.50509142  0.05923713  1
  O2-  O130  1  0.75085300  0.49804778  0.39842483  1
  O2-  O131  1  0.75858423  0.50082914  0.72921307  1
  O2-  O132  1  -0.00140269  0.24882377  0.27739837  1
  O2-  O133  1  0.00378771  0.24636999  0.60258466  1
  O2-  O134  1  -0.00189397  0.24626543  0.93545138  1
  O2-  O135  1  0.00186151  0.74443979  0.27443088  1
  O2-  O136  1  0.00559812  0.74682627  0.60429075  1
  O2-  O137  1  -0.00581704  0.75282347  0.93966732  1
  O2-  O138  1  0.50385323  0.25557639  0.27180585  1
  O2-  O139  1  0.49422637  0.24664282  0.61005242  1
  O2-  O140  1  0.50282934  0.25370352  0.93170275  1
  O2-  O141  1  0.50363059  0.74740253  0.27578623  1
  O2-  O142  1  0.50420477  0.75238682  0.60800379  1
  O2-  O143  1  0.50102319  0.75123945  0.93287065  1
  O2-  O144  1  0.07184076  0.17979248  0.09914695  1
  O2-  O145  1  0.07261686  0.18119220  0.42495404  1
  O2-  O146  1  0.07383036  0.18078803  0.75295818  1
  O2-  O147  1  0.07000157  0.68103058  0.09968201  1
  O2-  O148  1  0.07624804  0.67496102  0.42197913  1
  O2-  O149  1  0.07381681  0.67857880  0.75340554  1
  O2-  O150  1  0.57001709  0.17680711  0.09566772  1
  O2-  O151  1  0.56978453  0.17699200  0.43426246  1
  O2-  O152  1  0.57002427  0.18012433  0.75583703  1
  O2-  O153  1  0.56998366  0.68122399  0.09929707  1
  O2-  O154  1  0.56877156  0.67603494  0.42457335  1
  O2-  O155  1  0.56764335  0.67536440  0.75538482  1
  O2-  O156  1  0.17572338  0.42832939  0.24269313  1
  O2-  O157  1  0.17685994  0.42896999  0.57816946  1
  O2-  O158  1  0.17884400  0.43261932  0.90892333  1
  O2-  O159  1  0.17561620  0.92682688  0.24218593  1
  O2-  O160  1  0.18230607  0.93150878  0.56736723  1
  O2-  O161  1  0.17740264  0.92717191  0.91348885  1
  O2-  O162  1  0.67886894  0.42845729  0.23502411  1
  O2-  O163  1  0.67867265  0.43074455  0.56840847  1
  O2-  O164  1  0.68122889  0.42973623  0.90275174  1
  O2-  O165  1  0.67960396  0.93151309  0.23012115  1
  O2-  O166  1  0.67641912  0.92679303  0.56964028  1
  O2-  O167  1  0.68102125  0.92765806  0.91063471  1
  O2-  O168  1  0.42752456  0.31852448  0.09764176  1
  O2-  O169  1  0.42477431  0.32079951  0.43498083  1
  O2-  O170  1  0.43179614  0.32437352  0.75741843  1
  O2-  O171  1  0.42902029  0.82184675  0.09710655  1
  O2-  O172  1  0.42760798  0.81918521  0.43612396  1
  O2-  O173  1  0.42968049  0.81777267  0.75604069  1
  O2-  O174  1  0.93180040  0.31996728  0.10080732  1
  O2-  O175  1  0.93195947  0.32197533  0.42421919  1
  O2-  O176  1  0.92873260  0.31904278  0.76227143  1
  O2-  O177  1  0.92768132  0.82295563  0.08935873  1
  O2-  O178  1  0.93028256  0.82301613  0.43224208  1
  O2-  O179  1  0.93118818  0.81682174  0.76600901  1
  O2-  O180  1  0.31683132  0.07063017  0.23136736  1
  O2-  O181  1  0.32345443  0.07278994  0.57058444  1
  O2-  O182  1  0.31906229  0.07047693  0.91185404  1
  O2-  O183  1  0.31672459  0.57616750  0.24130376  1
  O2-  O184  1  0.32027845  0.56855288  0.56727306  1
  O2-  O185  1  0.31818360  0.57275844  0.91243215  1
  O2-  O186  1  0.83028566  0.07067416  0.24202308  1
  O2-  O187  1  0.81626861  0.06949688  0.56723932  1
  O2-  O188  1  0.82328133  0.06806969  0.91137311  1
  O2-  O189  1  0.82556072  0.56725960  0.23536113  1
  O2-  O190  1  0.82065429  0.57130453  0.57797045  1
  O2-  O191  1  0.82469049  0.57435857  0.90954195  1
  O2-  O192  1  0.04718620  0.08805234  0.27057744  1
  O2-  O193  1  0.04888997  0.08459403  0.60250803  1
  O2-  O194  1  0.04751079  0.07682297  0.93456553  1
  O2-  O195  1  0.04707671  0.58227215  0.27015752  1
  O2-  O196  1  0.05238268  0.58450942  0.60129616  1
  O2-  O197  1  0.04376616  0.58434710  0.92804367  1
  O2-  O198  1  0.53902547  0.08354250  0.26524369  1
  O2-  O199  1  0.54232366  0.08409432  0.60679796  1
  O2-  O200  1  0.54130447  0.08274409  0.92718670  1
  O2-  O201  1  0.54295469  0.58511751  0.27156373  1
  O2-  O202  1  0.53571291  0.58666289  0.60303078  1
  O2-  O203  1  0.54093679  0.58240129  0.93241325  1
  O2-  O204  1  0.16138546  0.21105061  0.27150524  1
  O2-  O205  1  0.16713893  0.20745377  0.60179619  1
  O2-  O206  1  0.16834772  0.20671299  0.92985919  1
  O2-  O207  1  0.16373977  0.70312307  0.26714619  1
  O2-  O208  1  0.16987107  0.70456581  0.60377105  1
  O2-  O209  1  0.16467756  0.71165392  0.93100162  1
  O2-  O210  1  0.67294340  0.20153868  0.26693357  1
  O2-  O211  1  0.65917733  0.20824487  0.60314797  1
  O2-  O212  1  0.67124828  0.20424170  0.93095480  1
  O2-  O213  1  0.66578569  0.70007359  0.27358314  1
  O2-  O214  1  0.66432183  0.69782926  0.60482127  1
  O2-  O215  1  0.67050587  0.70567409  0.93143087  1
  O2-  O216  1  0.08736481  0.46009816  0.06139311  1
  O2-  O217  1  0.08942187  0.45835283  0.39891907  1
  O2-  O218  1  0.08108625  0.45475560  0.72828194  1
  O2-  O219  1  0.08634127  0.95463979  0.06670448  1
  O2-  O220  1  0.08335398  0.95586733  0.39306230  1
  O2-  O221  1  0.08135761  0.95582493  0.73542621  1
  O2-  O222  1  0.58266289  0.46168184  0.06951306  1
  O2-  O223  1  0.57840404  0.45640209  0.40135664  1
  O2-  O224  1  0.58636201  0.46337015  0.73674927  1
  O2-  O225  1  0.58517635  0.95866793  0.05939492  1
  O2-  O226  1  0.58414132  0.96221099  0.40021274  1
  O2-  O227  1  0.58153390  0.95357317  0.73779317  1
  O2-  O228  1  0.20511097  0.33665645  0.06019854  1
  O2-  O229  1  0.20493119  0.33781578  0.39837450  1
  O2-  O230  1  0.19850850  0.33499098  0.73037970  1
  O2-  O231  1  0.20696753  0.83596869  0.06555183  1
  O2-  O232  1  0.19761536  0.83142686  0.39313518  1
  O2-  O233  1  0.20852568  0.83220520  0.73495734  1
  O2-  O234  1  0.71045953  0.33157399  0.06886524  1
  O2-  O235  1  0.70699348  0.32824796  0.40071918  1
  O2-  O236  1  0.71006631  0.33258705  0.73354782  1
  O2-  O237  1  0.70484275  0.83657662  0.06304725  1
  O2-  O238  1  0.70648816  0.83372283  0.39772122  1
  O2-  O239  1  0.70604785  0.82520934  0.73472501  1
  O2-  O240  1  0.44692575  0.42408726  0.27007853  1
  O2-  O241  1  0.46088448  0.41342691  0.60558949  1
  O2-  O242  1  0.45261613  0.42326793  0.93571810  1
  O2-  O243  1  0.45974595  0.91651652  0.26729934  1
  O2-  O244  1  0.45606809  0.91445251  0.60701423  1
  O2-  O245  1  0.45467281  0.91974894  0.92940161  1
  O2-  O246  1  0.96191887  0.41342762  0.27317908  1
  O2-  O247  1  0.95851402  0.41635026  0.59421029  1
  O2-  O248  1  0.95794567  0.41717817  0.93170944  1
  O2-  O249  1  0.95942836  0.91588464  0.26162985  1
  O2-  O250  1  0.95971570  0.91826587  0.59977307  1
  O2-  O251  1  0.95549112  0.91521791  0.93827870  1
  O2-  O252  1  0.32897868  0.29212383  0.26791002  1
  O2-  O253  1  0.33343766  0.30230921  0.60868234  1
  O2-  O254  1  0.33165686  0.29465033  0.92984532  1
  O2-  O255  1  0.33174866  0.79141629  0.26776566  1
  O2-  O256  1  0.33915960  0.78875615  0.60487421  1
  O2-  O257  1  0.33038917  0.79257799  0.93093581  1
  O2-  O258  1  0.83805592  0.29709133  0.27186173  1
  O2-  O259  1  0.83131034  0.28573677  0.59550820  1
  O2-  O260  1  0.83139246  0.29039790  0.93423482  1
  O2-  O261  1  0.83149447  0.78988695  0.26454486  1
  O2-  O262  1  0.83260048  0.78807422  0.59912431  1
  O2-  O263  1  0.83305510  0.80005485  0.93784714  1
  O2-  O264  1  0.41350367  0.04300657  0.06180332  1
  O2-  O265  1  0.41497404  0.03968682  0.39993286  1
  O2-  O266  1  0.41886498  0.04367832  0.73926987  1
  O2-  O267  1  0.41205063  0.54809192  0.06536334  1
  O2-  O268  1  0.41154575  0.55029359  0.39542549  1
  O2-  O269  1  0.41462864  0.53678882  0.73785973  1
  O2-  O270  1  0.91405569  0.04223944  0.06425412  1
  O2-  O271  1  0.91948130  0.04557382  0.39463419  1
  O2-  O272  1  0.91962072  0.04710834  0.73306967  1
  O2-  O273  1  0.91894221  0.54832364  0.05986537  1
  O2-  O274  1  0.92175885  0.54564739  0.40350089  1
  O2-  O275  1  0.92051516  0.54903621  0.72469253  1
  O2-  O276  1  0.29077912  0.16388042  0.06232166  1
  O2-  O277  1  0.28620595  0.16512766  0.40108004  1
  O2-  O278  1  0.29565078  0.17352583  0.73641669  1
  O2-  O279  1  0.28736707  0.66397702  0.06368703  1
  O2-  O280  1  0.28730078  0.66292175  0.39641665  1
  O2-  O281  1  0.29170250  0.66500983  0.73754045  1
  O2-  O282  1  0.79465578  0.16129360  0.06409839  1
  O2-  O283  1  0.80369476  0.16648191  0.39281485  1
  O2-  O284  1  0.78736387  0.16663071  0.73497830  1
  O2-  O285  1  0.79949120  0.66809424  0.06109907  1
  O2-  O286  1  0.79360122  0.66878016  0.40219632  1
  O2-  O287  1  0.79801962  0.66359351  0.73056333  1
