# generated using pymatgen
data_Ca2Al2SiO7
_symmetry_space_group_name_H-M   'P 1'
_cell_length_a   15.46337863
_cell_length_b   15.46461456
_cell_length_c   15.28783038
_cell_angle_alpha   89.99726831
_cell_angle_beta   89.99769547
_cell_angle_gamma   89.96836918
_symmetry_Int_Tables_number   1
_chemical_formula_structural   Ca2Al2SiO7
_chemical_formula_sum   'Ca48 Al48 Si24 O168'
_cell_volume   3655.85766014
_cell_formula_units_Z   24
loop_
 _symmetry_equiv_pos_site_id
 _symmetry_equiv_pos_as_xyz
  1  'x, y, z'
loop_
 _atom_type_symbol
 _atom_type_oxidation_number
  Ca2+  2.0
  Al0+  0.0
  Si0+  0.0
  O2-  -2.0
loop_
 _atom_site_type_symbol
 _atom_site_label
 _atom_site_symmetry_multiplicity
 _atom_site_fract_x
 _atom_site_fract_y
 _atom_site_fract_z
 _atom_site_occupancy
  Ca2+  Ca0  1  0.16676231  0.08874914  0.16817668  1
  Ca2+  Ca1  1  0.16039996  0.08721880  0.50287258  1
  Ca2+  Ca2  1  0.16905595  0.09118787  0.84187903  1
  Ca2+  Ca3  1  0.16995981  0.59086078  0.17635726  1
  Ca2+  Ca4  1  0.17015310  0.58219061  0.50069433  1
  Ca2+  Ca5  1  0.16387473  0.57636854  0.83765191  1
  Ca2+  Ca6  1  0.66193061  0.07578770  0.17219256  1
  Ca2+  Ca7  1  0.66713977  0.08437907  0.50130561  1
  Ca2+  Ca8  1  0.67099043  0.07336462  0.84292214  1
  Ca2+  Ca9  1  0.67375642  0.58551854  0.16839709  1
  Ca2+  Ca10  1  0.67224992  0.58093761  0.50045200  1
  Ca2+  Ca11  1  0.67187448  0.57477659  0.84318621  1
  Ca2+  Ca12  1  0.07878785  0.32921849  0.16479137  1
  Ca2+  Ca13  1  0.07907156  0.33031684  0.49806280  1
  Ca2+  Ca14  1  0.08032279  0.32508384  0.82449574  1
  Ca2+  Ca15  1  0.07321457  0.81973356  0.16316237  1
  Ca2+  Ca16  1  0.07307394  0.82771904  0.49215509  1
  Ca2+  Ca17  1  0.07244626  0.82729007  0.83173338  1
  Ca2+  Ca18  1  0.57866100  0.33324370  0.16091579  1
  Ca2+  Ca19  1  0.58152774  0.33481589  0.49721394  1
  Ca2+  Ca20  1  0.57354614  0.34756382  0.83041898  1
  Ca2+  Ca21  1  0.58471721  0.82178217  0.16378626  1
  Ca2+  Ca22  1  0.57511184  0.82474955  0.48898900  1
  Ca2+  Ca23  1  0.59285539  0.82605119  0.83667192  1
  Ca2+  Ca24  1  0.33233679  0.42115996  0.17012452  1
  Ca2+  Ca25  1  0.32885430  0.42030392  0.50564261  1
  Ca2+  Ca26  1  0.32827651  0.40661400  0.83605063  1
  Ca2+  Ca27  1  0.33563587  0.92160984  0.17351280  1
  Ca2+  Ca28  1  0.33166234  0.91622578  0.50217265  1
  Ca2+  Ca29  1  0.32842757  0.92859431  0.84424096  1
  Ca2+  Ca30  1  0.83436129  0.42753106  0.17327155  1
  Ca2+  Ca31  1  0.83513523  0.41906817  0.50568561  1
  Ca2+  Ca32  1  0.82289565  0.41581671  0.84103142  1
  Ca2+  Ca33  1  0.83238693  0.90836391  0.16837461  1
  Ca2+  Ca34  1  0.83880904  0.91425688  0.50239914  1
  Ca2+  Ca35  1  0.83456305  0.91324677  0.84100444  1
  Ca2+  Ca36  1  0.41969770  0.17091407  0.16066842  1
  Ca2+  Ca37  1  0.42303768  0.17548917  0.49655115  1
  Ca2+  Ca38  1  0.41562539  0.17604801  0.83361144  1
  Ca2+  Ca39  1  0.42650091  0.66309507  0.16489469  1
  Ca2+  Ca40  1  0.42147092  0.66849545  0.48672674  1
  Ca2+  Ca41  1  0.42658060  0.66217158  0.83298791  1
  Ca2+  Ca42  1  0.92614157  0.17191906  0.16537266  1
  Ca2+  Ca43  1  0.92448108  0.18065488  0.49392451  1
  Ca2+  Ca44  1  0.92750678  0.16982711  0.82570149  1
  Ca2+  Ca45  1  0.91720776  0.66717816  0.15927912  1
  Ca2+  Ca46  1  0.91806565  0.67381564  0.48930444  1
  Ca2+  Ca47  1  0.90809075  0.67381128  0.83682170  1
  Al0+  Al48  1  0.00175115  -0.00063466  -0.00589001  1
  Al0+  Al49  1  -0.00028225  0.00046572  0.32769551  1
  Al0+  Al50  1  0.00051658  -0.00218653  0.66099098  1
  Al0+  Al51  1  -0.00046588  0.49840533  -0.00077793  1
  Al0+  Al52  1  0.00012820  0.49958837  0.33391094  1
  Al0+  Al53  1  0.00257851  0.50199210  0.67025664  1
  Al0+  Al54  1  0.49948181  0.00132898  0.00821603  1
  Al0+  Al55  1  0.49905697  0.00164084  0.33138526  1
  Al0+  Al56  1  0.50008571  -0.00077187  0.66958291  1
  Al0+  Al57  1  0.49795776  0.49997356  -0.00476433  1
  Al0+  Al58  1  0.49913342  0.50025168  0.33485071  1
  Al0+  Al59  1  0.50204081  0.50110100  0.66366722  1
  Al0+  Al60  1  0.25120232  0.25045872  -0.00036500  1
  Al0+  Al61  1  0.25088524  0.24947988  0.33336728  1
  Al0+  Al62  1  0.25348552  0.25113080  0.66148288  1
  Al0+  Al63  1  0.24894416  0.75049062  -0.00455842  1
  Al0+  Al64  1  0.24880089  0.75369059  0.33369361  1
  Al0+  Al65  1  0.25130342  0.75237271  0.67084639  1
  Al0+  Al66  1  0.74827030  0.24704592  0.00503391  1
  Al0+  Al67  1  0.74945785  0.24815951  0.32613673  1
  Al0+  Al68  1  0.75046351  0.24832369  0.67085224  1
  Al0+  Al69  1  0.74859984  0.74949648  -0.00040846  1
  Al0+  Al70  1  0.74666472  0.74940146  0.33443003  1
  Al0+  Al71  1  0.74949179  0.74982983  0.66191463  1
  Al0+  Al72  1  0.68043243  0.42849714  0.67933353  1
  Al0+  Al73  1  0.18089159  0.42946539  0.68033673  1
  Al0+  Al74  1  0.32059085  0.57212808  0.34565400  1
  Al0+  Al75  1  0.92684450  0.82040663  0.31800026  1
  Al0+  Al76  1  0.92917870  0.81766867  0.65121940  1
  Al0+  Al77  1  0.92765730  0.32333366  0.31782423  1
  Al0+  Al78  1  0.06992594  0.18186667  0.98616976  1
  Al0+  Al79  1  0.92894617  0.81854256  0.98463861  1
  Al0+  Al80  1  0.92644820  0.32332916  0.65429140  1
  Al0+  Al81  1  0.82121078  0.57108549  0.34825525  1
  Al0+  Al82  1  0.67467434  0.42723681  0.01639617  1
  Al0+  Al83  1  0.31826262  0.07191966  0.01552755  1
  Al0+  Al84  1  0.82013973  0.56814759  0.01488167  1
  Al0+  Al85  1  0.07218049  0.17979498  0.31733032  1
  Al0+  Al86  1  0.07060576  0.67821595  0.32166171  1
  Al0+  Al87  1  0.07221791  0.17972071  0.65132120  1
  Al0+  Al88  1  0.43188460  0.32159691  0.65145126  1
  Al0+  Al89  1  0.57104511  0.17966389  0.32041122  1
  Al0+  Al90  1  0.07366069  0.67487533  0.98276012  1
  Al0+  Al91  1  0.56918199  0.68024530  0.98494895  1
  Al0+  Al92  1  0.68063176  0.92944711  0.01528825  1
  Al0+  Al93  1  0.43173872  0.32003302  0.98674069  1
  Al0+  Al94  1  0.42713430  0.82225881  0.31918647  1
  Al0+  Al95  1  0.56953713  0.67700294  0.31790292  1
  Si0+  Si96  1  0.31968950  0.57272839  0.01280788  1
  Si0+  Si97  1  0.82235097  0.57424282  0.68256796  1
  Si0+  Si98  1  0.67763616  0.93010544  0.35058657  1
  Si0+  Si99  1  0.07651193  0.67849192  0.64984259  1
  Si0+  Si100  1  0.57204061  0.17382203  0.65298595  1
  Si0+  Si101  1  0.56967284  0.68021533  0.65033139  1
  Si0+  Si102  1  0.17801015  0.92943177  0.68268842  1
  Si0+  Si103  1  0.57268782  0.17520391  0.98339887  1
  Si0+  Si104  1  0.42878835  0.82307775  0.65409450  1
  Si0+  Si105  1  0.42769062  0.82492676  0.98296905  1
  Si0+  Si106  1  0.67869773  0.92828789  0.68050851  1
  Si0+  Si107  1  0.67847881  0.42558066  0.34940993  1
  Si0+  Si108  1  0.92508331  0.32171810  0.98367097  1
  Si0+  Si109  1  0.32326806  0.57382373  0.68403536  1
  Si0+  Si110  1  0.17813766  0.93187630  0.34923171  1
  Si0+  Si111  1  0.17868940  0.42618484  0.35021956  1
  Si0+  Si112  1  0.42854942  0.32215951  0.31727166  1
  Si0+  Si113  1  0.17980693  0.42878834  0.01407597  1
  Si0+  Si114  1  0.82226038  0.06877685  0.68036079  1
  Si0+  Si115  1  0.32176407  0.07026178  0.68139416  1
  Si0+  Si116  1  0.32209398  0.07227304  0.35177010  1
  Si0+  Si117  1  0.82160463  0.07076283  0.34864385  1
  Si0+  Si118  1  0.82557248  0.07127458  0.01761157  1
  Si0+  Si119  1  0.17728251  0.92689381  0.01768129  1
  O2-  O120  1  0.24662751  -0.00538629  0.06277812  1
  O2-  O121  1  0.24919929  0.00303501  0.39358429  1
  O2-  O122  1  0.24678978  0.00338089  0.72405026  1
  O2-  O123  1  0.24392358  0.50680752  0.05483069  1
  O2-  O124  1  0.24574377  0.49788362  0.39286315  1
  O2-  O125  1  0.25473399  0.50539642  0.72855117  1
  O2-  O126  1  0.75566494  0.00376943  0.06211946  1
  O2-  O127  1  0.75118334  -0.00109141  0.39281311  1
  O2-  O128  1  0.75049192  -0.00188623  0.72265370  1
  O2-  O129  1  0.75029740  0.49461341  0.06628032  1
  O2-  O130  1  0.74840099  0.49300717  0.39399053  1
  O2-  O131  1  0.75971974  0.49906704  0.72502061  1
  O2-  O132  1  0.00210787  0.25337004  0.26841351  1
  O2-  O133  1  0.00072148  0.25341410  0.60402374  1
  O2-  O134  1  -0.00787582  0.25194628  0.93865596  1
  O2-  O135  1  -0.00726397  0.74234411  0.27003702  1
  O2-  O136  1  0.00340724  0.74239900  0.60618544  1
  O2-  O137  1  0.00000687  0.74580007  0.93367428  1
  O2-  O138  1  0.49849941  0.25538487  0.27333999  1
  O2-  O139  1  0.50928141  0.24771101  0.60842241  1
  O2-  O140  1  0.51041631  0.24917707  0.93873859  1
  O2-  O141  1  0.49588946  0.74817979  0.26909778  1
  O2-  O142  1  0.49602085  0.74983606  0.61069214  1
  O2-  O143  1  0.49521826  0.75620197  0.93661230  1
  O2-  O144  1  0.07078265  0.18479611  0.09879204  1
  O2-  O145  1  0.07057232  0.18035770  0.43089422  1
  O2-  O146  1  0.07154119  0.17913300  0.76498914  1
  O2-  O147  1  0.07687467  0.67777205  0.09582072  1
  O2-  O148  1  0.07221234  0.68249609  0.43566553  1
  O2-  O149  1  0.08045426  0.68242598  0.75500894  1
  O2-  O150  1  0.56825907  0.17314671  0.08877210  1
  O2-  O151  1  0.56909219  0.17910179  0.43420238  1
  O2-  O152  1  0.56735258  0.16490626  0.75778153  1
  O2-  O153  1  0.56719634  0.67986717  0.09722621  1
  O2-  O154  1  0.56871474  0.67966160  0.43244348  1
  O2-  O155  1  0.57074483  0.68145929  0.75545872  1
  O2-  O156  1  0.18213403  0.42239383  0.24450769  1
  O2-  O157  1  0.18389031  0.43033799  0.56741378  1
  O2-  O158  1  0.18348881  0.42620607  0.90890797  1
  O2-  O159  1  0.17977629  0.93311425  0.24456560  1
  O2-  O160  1  0.18085153  0.92706249  0.57762548  1
  O2-  O161  1  0.17960438  0.92874277  0.91142730  1
  O2-  O162  1  0.67694886  0.42627721  0.24428641  1
  O2-  O163  1  0.67798137  0.43146050  0.56622040  1
  O2-  O164  1  0.67538297  0.43125411  0.90230231  1
  O2-  O165  1  0.67588912  0.93202488  0.24588312  1
  O2-  O166  1  0.67537450  0.92971981  0.57563635  1
  O2-  O167  1  0.68097871  0.93104911  0.90100350  1
  O2-  O168  1  0.42968344  0.31872937  0.09978174  1
  O2-  O169  1  0.42873233  0.32070173  0.42309871  1
  O2-  O170  1  0.43092649  0.31921065  0.76436748  1
  O2-  O171  1  0.42776485  0.82342619  0.08805588  1
  O2-  O172  1  0.43004590  0.82284381  0.43399558  1
  O2-  O173  1  0.43028135  0.82543089  0.75885507  1
  O2-  O174  1  0.92850234  0.32173242  0.08903156  1
  O2-  O175  1  0.92679672  0.32112566  0.43164288  1
  O2-  O176  1  0.92520657  0.31720431  0.76779439  1
  O2-  O177  1  0.92954400  0.81771432  0.09754028  1
  O2-  O178  1  0.93097966  0.82160435  0.43205236  1
  O2-  O179  1  0.92755170  0.81863490  0.76379736  1
  O2-  O180  1  0.32297456  0.07273764  0.24698719  1
  O2-  O181  1  0.32610525  0.06604532  0.57646028  1
  O2-  O182  1  0.31719992  0.07196147  0.90152716  1
  O2-  O183  1  0.32094864  0.56897063  0.23235293  1
  O2-  O184  1  0.32224653  0.57593083  0.57849628  1
  O2-  O185  1  0.32146225  0.57106352  0.90749977  1
  O2-  O186  1  0.82059029  0.06972749  0.24386499  1
  O2-  O187  1  0.82053205  0.06831142  0.57525925  1
  O2-  O188  1  0.82382667  0.07058969  0.91132007  1
  O2-  O189  1  0.81940921  0.57224301  0.23583789  1
  O2-  O190  1  0.81794965  0.57813117  0.57709508  1
  O2-  O191  1  0.81766872  0.56787139  0.90060409  1
  O2-  O192  1  0.04225506  0.08292055  0.26368172  1
  O2-  O193  1  0.04338497  0.08126962  0.59907638  1
  O2-  O194  1  0.04552883  0.08371398  0.93195884  1
  O2-  O195  1  0.05488413  0.57682657  0.27232327  1
  O2-  O196  1  0.05723333  0.58256644  0.60767334  1
  O2-  O197  1  0.04752467  0.57518168  0.93122752  1
  O2-  O198  1  0.53710694  0.08504627  0.26576700  1
  O2-  O199  1  0.54073223  0.08285198  0.60293792  1
  O2-  O200  1  0.54090850  0.08336810  0.93665889  1
  O2-  O201  1  0.54153628  0.57868003  0.26594720  1
  O2-  O202  1  0.54327765  0.58943598  0.60154673  1
  O2-  O203  1  0.53480323  0.58589472  0.92850234  1
  O2-  O204  1  0.17249349  0.20502362  0.26701851  1
  O2-  O205  1  0.17126845  0.20506523  0.59910939  1
  O2-  O206  1  0.16547971  0.21633354  0.93271620  1
  O2-  O207  1  0.16606701  0.71391523  0.26799940  1
  O2-  O208  1  0.16932813  0.70949587  0.60408155  1
  O2-  O209  1  0.17163585  0.70442039  0.92773718  1
  O2-  O210  1  0.66695142  0.20273255  0.26323677  1
  O2-  O211  1  0.66780940  0.19402058  0.61034732  1
  O2-  O212  1  0.66974726  0.19130673  0.94086136  1
  O2-  O213  1  0.66580603  0.70969593  0.26582490  1
  O2-  O214  1  0.65941022  0.71138136  0.60149104  1
  O2-  O215  1  0.66410581  0.71266920  0.92914775  1
  O2-  O216  1  0.08555757  0.44788587  0.05942408  1
  O2-  O217  1  0.08473038  0.44862888  0.39620275  1
  O2-  O218  1  0.08406122  0.45676972  0.73693929  1
  O2-  O219  1  0.08389002  0.95411272  0.06198156  1
  O2-  O220  1  0.08620881  0.96109834  0.39678848  1
  O2-  O221  1  0.08495410  0.95454119  0.72848751  1
  O2-  O222  1  0.57603217  0.45906256  0.06656488  1
  O2-  O223  1  0.58482537  0.45258090  0.39594912  1
  O2-  O224  1  0.58466435  0.46535705  0.73243021  1
  O2-  O225  1  0.58480022  0.96038868  0.07039120  1
  O2-  O226  1  0.58665615  0.96238981  0.39879271  1
  O2-  O227  1  0.58769352  0.95600190  0.73042424  1
  O2-  O228  1  0.21606430  0.34128916  0.06387984  1
  O2-  O229  1  0.20910819  0.33423083  0.39836826  1
  O2-  O230  1  0.21572586  0.33252025  0.73287487  1
  O2-  O231  1  0.20239142  0.83233508  0.06163542  1
  O2-  O232  1  0.20642017  0.84160495  0.40002999  1
  O2-  O233  1  0.20886726  0.83969743  0.73302490  1
  O2-  O234  1  0.69401470  0.32482336  0.06489237  1
  O2-  O235  1  0.70143726  0.32999853  0.39346215  1
  O2-  O236  1  0.70202084  0.32942078  0.73410543  1
  O2-  O237  1  0.70966979  0.83287023  0.06856644  1
  O2-  O238  1  0.70142143  0.83785096  0.39911567  1
  O2-  O239  1  0.70690950  0.83592509  0.72675740  1
  O2-  O240  1  0.45199330  0.41588734  0.27201109  1
  O2-  O241  1  0.46088423  0.41863914  0.59724282  1
  O2-  O242  1  0.45656400  0.41638799  0.92920635  1
  O2-  O243  1  0.45700088  0.91990799  0.26735281  1
  O2-  O244  1  0.45905540  0.91352024  0.60503726  1
  O2-  O245  1  0.45457266  0.91937287  0.93890233  1
  O2-  O246  1  0.95560241  0.42111656  0.26520691  1
  O2-  O247  1  0.95270753  0.42405551  0.60524182  1
  O2-  O248  1  0.95081921  0.41435785  0.93707104  1
  O2-  O249  1  0.95854184  0.91685647  0.26487779  1
  O2-  O250  1  0.96069164  0.91360538  0.59668738  1
  O2-  O251  1  0.95820823  0.91665183  0.93029894  1
  O2-  O252  1  0.33606207  0.29431737  0.27137323  1
  O2-  O253  1  0.33843932  0.28789683  0.59430830  1
  O2-  O254  1  0.33725506  0.28339560  0.93198227  1
  O2-  O255  1  0.32755612  0.80130153  0.26801101  1
  O2-  O256  1  0.33533926  0.79943518  0.60784281  1
  O2-  O257  1  0.33380196  0.80177046  0.93619075  1
  O2-  O258  1  0.83154158  0.29218225  0.26329478  1
  O2-  O259  1  0.82834286  0.29193809  0.60146057  1
  O2-  O260  1  0.82961517  0.29664902  0.94101592  1
  O2-  O261  1  0.82508315  0.80002515  0.27142956  1
  O2-  O262  1  0.83159832  0.79056706  0.59660440  1
  O2-  O263  1  0.83040073  0.79085336  0.93090904  1
  O2-  O264  1  0.41478645  0.04372899  0.07056651  1
  O2-  O265  1  0.41312159  0.04214524  0.40040482  1
  O2-  O266  1  0.41125734  0.03781628  0.73173194  1
  O2-  O267  1  0.40924642  0.53923397  0.06033850  1
  O2-  O268  1  0.41643906  0.54069789  0.40249945  1
  O2-  O269  1  0.41766909  0.54761690  0.72766204  1
  O2-  O270  1  0.91956938  0.04479237  0.06163694  1
  O2-  O271  1  0.91373251  0.04274469  0.39577363  1
  O2-  O272  1  0.91383538  0.03847283  0.72716905  1
  O2-  O273  1  0.92046360  0.54280849  0.06637538  1
  O2-  O274  1  0.91919977  0.54390406  0.40265517  1
  O2-  O275  1  0.91906799  0.55997575  0.72555785  1
  O2-  O276  1  0.28539409  0.16732146  0.07033285  1
  O2-  O277  1  0.29605413  0.16479281  0.39952318  1
  O2-  O278  1  0.29786492  0.16377688  0.72618475  1
  O2-  O279  1  0.29809326  0.66687028  0.05843827  1
  O2-  O280  1  0.29155461  0.66992035  0.39998104  1
  O2-  O281  1  0.30055621  0.66826891  0.73110589  1
  O2-  O282  1  0.80212764  0.16483427  0.06437261  1
  O2-  O283  1  0.79073990  0.16221352  0.39581273  1
  O2-  O284  1  0.79613341  0.15916569  0.73122751  1
  O2-  O285  1  0.78880040  0.66632920  0.06531835  1
  O2-  O286  1  0.78595362  0.66684179  0.40365557  1
  O2-  O287  1  0.78684894  0.66522165  0.72949455  1
