# generated using pymatgen
data_Ca2Al2SiO7
_symmetry_space_group_name_H-M   'P 1'
_cell_length_a   15.45763249
_cell_length_b   15.45754841
_cell_length_c   15.28277750
_cell_angle_alpha   89.99883195
_cell_angle_beta   89.98078475
_cell_angle_gamma   89.99912452
_symmetry_Int_Tables_number   1
_chemical_formula_structural   Ca2Al2SiO7
_chemical_formula_sum   'Ca48 Al48 Si24 O168'
_cell_volume   3651.62236643
_cell_formula_units_Z   24
loop_
 _symmetry_equiv_pos_site_id
 _symmetry_equiv_pos_as_xyz
  1  'x, y, z'
loop_
 _atom_type_symbol
 _atom_type_oxidation_number
  Ca2+  2.0
  Al0+  0.0
  Si0+  0.0
  O2-  -2.0
loop_
 _atom_site_type_symbol
 _atom_site_label
 _atom_site_symmetry_multiplicity
 _atom_site_fract_x
 _atom_site_fract_y
 _atom_site_fract_z
 _atom_site_occupancy
  Ca2+  Ca0  1  0.17201552  0.07533098  0.17129915  1
  Ca2+  Ca1  1  0.16876414  0.08164393  0.50701764  1
  Ca2+  Ca2  1  0.17757615  0.09234218  0.83288924  1
  Ca2+  Ca3  1  0.17719302  0.57922785  0.17400216  1
  Ca2+  Ca4  1  0.16804121  0.57175050  0.50264201  1
  Ca2+  Ca5  1  0.16652362  0.57835966  0.83230896  1
  Ca2+  Ca6  1  0.67895063  0.08761247  0.17027049  1
  Ca2+  Ca7  1  0.66956169  0.08788654  0.50193664  1
  Ca2+  Ca8  1  0.67029449  0.08536972  0.83792407  1
  Ca2+  Ca9  1  0.67103489  0.57994000  0.17463293  1
  Ca2+  Ca10  1  0.67573619  0.57625248  0.50139547  1
  Ca2+  Ca11  1  0.67088583  0.58418459  0.83554595  1
  Ca2+  Ca12  1  0.07083049  0.34346195  0.16765642  1
  Ca2+  Ca13  1  0.08042045  0.33542762  0.49846696  1
  Ca2+  Ca14  1  0.07507468  0.33159408  0.82244998  1
  Ca2+  Ca15  1  0.08734814  0.83376658  0.16701469  1
  Ca2+  Ca16  1  0.08423329  0.82874385  0.49809118  1
  Ca2+  Ca17  1  0.07726808  0.82524876  0.82410059  1
  Ca2+  Ca18  1  0.57947724  0.34051596  0.16940942  1
  Ca2+  Ca19  1  0.57491128  0.33440516  0.49592270  1
  Ca2+  Ca20  1  0.57298464  0.32403266  0.82401976  1
  Ca2+  Ca21  1  0.57188730  0.82351577  0.15947600  1
  Ca2+  Ca22  1  0.57560217  0.83060987  0.49279015  1
  Ca2+  Ca23  1  0.57981115  0.82914627  0.83337746  1
  Ca2+  Ca24  1  0.33218284  0.42855196  0.17885644  1
  Ca2+  Ca25  1  0.32613163  0.40923298  0.50461936  1
  Ca2+  Ca26  1  0.32424235  0.41360540  0.83619810  1
  Ca2+  Ca27  1  0.33427954  0.91607947  0.17158104  1
  Ca2+  Ca28  1  0.32902955  0.91901448  0.50244940  1
  Ca2+  Ca29  1  0.33705431  0.92886792  0.83918110  1
  Ca2+  Ca30  1  0.82694332  0.41663711  0.17953887  1
  Ca2+  Ca31  1  0.83971675  0.42243181  0.50270301  1
  Ca2+  Ca32  1  0.84059960  0.41778562  0.83348742  1
  Ca2+  Ca33  1  0.83563967  0.93190504  0.17341089  1
  Ca2+  Ca34  1  0.83608739  0.92208248  0.50504781  1
  Ca2+  Ca35  1  0.83570487  0.92208651  0.83763458  1
  Ca2+  Ca36  1  0.41399346  0.17223241  0.16489792  1
  Ca2+  Ca37  1  0.41637521  0.17501125  0.50094095  1
  Ca2+  Ca38  1  0.41751850  0.16649222  0.81977524  1
  Ca2+  Ca39  1  0.41176221  0.67223327  0.15895046  1
  Ca2+  Ca40  1  0.41148145  0.67166226  0.48897167  1
  Ca2+  Ca41  1  0.41684025  0.66655850  0.83644544  1
  Ca2+  Ca42  1  0.91099939  0.17617156  0.16220749  1
  Ca2+  Ca43  1  0.91939876  0.17734072  0.49356828  1
  Ca2+  Ca44  1  0.92131005  0.17559930  0.82594517  1
  Ca2+  Ca45  1  0.91762963  0.66340270  0.16504271  1
  Ca2+  Ca46  1  0.91791820  0.66317818  0.50075220  1
  Ca2+  Ca47  1  0.92249794  0.67080734  0.81760535  1
  Al0+  Al48  1  0.00096158  0.00143072  0.00380148  1
  Al0+  Al49  1  0.00167323  -0.00027863  0.34105176  1
  Al0+  Al50  1  -0.00030396  -0.00097182  0.66285576  1
  Al0+  Al51  1  -0.00138928  0.50045213  -0.00424401  1
  Al0+  Al52  1  0.00207475  0.50075676  0.33378600  1
  Al0+  Al53  1  0.00167026  0.50183116  0.66896362  1
  Al0+  Al54  1  0.50027528  -0.00054317  0.00293396  1
  Al0+  Al55  1  0.50148116  -0.00035642  0.32647345  1
  Al0+  Al56  1  0.50127955  -0.00131853  0.66627752  1
  Al0+  Al57  1  0.50005322  0.49977107  -0.00210106  1
  Al0+  Al58  1  0.50266215  0.50090474  0.33705064  1
  Al0+  Al59  1  0.50109969  0.50095371  0.66483184  1
  Al0+  Al60  1  0.24647926  0.24895867  0.00854860  1
  Al0+  Al61  1  0.25081276  0.24850222  0.32932683  1
  Al0+  Al62  1  0.24916926  0.25000530  0.66915445  1
  Al0+  Al63  1  0.24928527  0.74987307  -0.00360907  1
  Al0+  Al64  1  0.24861683  0.75131355  0.33577533  1
  Al0+  Al65  1  0.24939341  0.74954560  0.66461230  1
  Al0+  Al66  1  0.74904022  0.25190826  -0.00141667  1
  Al0+  Al67  1  0.75008965  0.24977666  0.33791478  1
  Al0+  Al68  1  0.74857761  0.24992764  0.66140052  1
  Al0+  Al69  1  0.74880633  0.74977446  -0.00213473  1
  Al0+  Al70  1  0.75053572  0.75222877  0.33425703  1
  Al0+  Al71  1  0.74882011  0.75049726  0.66749962  1
  Al0+  Al72  1  0.32007857  0.56872471  0.01181691  1
  Al0+  Al73  1  0.82269386  0.57312780  0.34752403  1
  Al0+  Al74  1  0.42731027  0.82175435  0.98237012  1
  Al0+  Al75  1  0.42868563  0.32151178  0.31848864  1
  Al0+  Al76  1  0.93104543  0.32043480  0.31922677  1
  Al0+  Al77  1  0.57106853  0.17587479  0.65169320  1
  Al0+  Al78  1  0.67850768  0.42808418  0.34995649  1
  Al0+  Al79  1  0.92906729  0.32184003  0.65065992  1
  Al0+  Al80  1  0.31942703  0.06794632  0.67799776  1
  Al0+  Al81  1  0.81889446  0.56918120  0.68193765  1
  Al0+  Al82  1  0.42768652  0.81975585  0.31926761  1
  Al0+  Al83  1  0.18037791  0.42708637  0.34755940  1
  Al0+  Al84  1  0.07237739  0.17876845  0.65217916  1
  Al0+  Al85  1  0.32169480  0.57174543  0.34756173  1
  Al0+  Al86  1  0.07258941  0.67898962  0.64923545  1
  Al0+  Al87  1  0.42821160  0.32190138  0.65385811  1
  Al0+  Al88  1  0.18056647  0.92974310  0.34816680  1
  Al0+  Al89  1  0.82099319  0.07114827  0.34930077  1
  Al0+  Al90  1  0.18084988  0.42981774  0.68173051  1
  Al0+  Al91  1  0.32309420  0.07210549  0.01533558  1
  Al0+  Al92  1  0.92817542  0.32044590  0.98582204  1
  Al0+  Al93  1  0.57186283  0.67662594  0.98352267  1
  Al0+  Al94  1  0.92677529  0.82099306  0.65100366  1
  Al0+  Al95  1  0.81997020  0.07112930  0.01191820  1
  Si0+  Si96  1  0.67797314  0.92936695  0.34907338  1
  Si0+  Si97  1  0.67883754  0.92898424  0.68275519  1
  Si0+  Si98  1  0.07228600  0.17451499  0.31462681  1
  Si0+  Si99  1  0.06956639  0.68031803  0.31666512  1
  Si0+  Si100  1  0.67611657  0.42651003  0.68571712  1
  Si0+  Si101  1  0.42647178  0.32020080  0.98768404  1
  Si0+  Si102  1  0.43045245  0.82031359  0.65207398  1
  Si0+  Si103  1  0.57179188  0.67902670  0.65048185  1
  Si0+  Si104  1  0.32492143  0.07169796  0.34966334  1
  Si0+  Si105  1  0.92829614  0.82316297  0.31717898  1
  Si0+  Si106  1  0.82153928  0.57223969  0.01320235  1
  Si0+  Si107  1  0.92928331  0.82323930  0.98815552  1
  Si0+  Si108  1  0.06963241  0.67933118  0.98515328  1
  Si0+  Si109  1  0.82137327  0.07190108  0.68161903  1
  Si0+  Si110  1  0.17656305  0.92588389  0.68480439  1
  Si0+  Si111  1  0.67821186  0.92569649  0.01836305  1
  Si0+  Si112  1  0.57026468  0.18030756  0.98756317  1
  Si0+  Si113  1  0.17879776  0.92758089  0.01502801  1
  Si0+  Si114  1  0.32483878  0.57481679  0.68404014  1
  Si0+  Si115  1  0.17492153  0.42831781  0.01780321  1
  Si0+  Si116  1  0.07166746  0.17609026  0.98445053  1
  Si0+  Si117  1  0.57232051  0.17827371  0.31385768  1
  Si0+  Si118  1  0.57392550  0.67891225  0.31768922  1
  Si0+  Si119  1  0.67959539  0.42962925  0.01310175  1
  O2-  O120  1  0.24987182  -0.00577904  0.05876385  1
  O2-  O121  1  0.25522821  0.00444404  0.39382334  1
  O2-  O122  1  0.24409035  -0.00451282  0.72889132  1
  O2-  O123  1  0.24792265  0.49289270  0.06041864  1
  O2-  O124  1  0.25735580  0.49360551  0.39784263  1
  O2-  O125  1  0.25805589  0.50360216  0.72731957  1
  O2-  O126  1  0.74746037  -0.00515188  0.06091339  1
  O2-  O127  1  0.74601379  -0.00339873  0.39578953  1
  O2-  O128  1  0.75042592  0.00028871  0.72417891  1
  O2-  O129  1  0.75016302  0.50193199  0.05462033  1
  O2-  O130  1  0.75340174  0.49860153  0.39737870  1
  O2-  O131  1  0.74709195  0.49253291  0.73123917  1
  O2-  O132  1  0.00530500  0.24541820  0.27026608  1
  O2-  O133  1  -0.00058195  0.24839748  0.60081987  1
  O2-  O134  1  0.00430777  0.24648770  0.94139924  1
  O2-  O135  1  -0.00359868  0.74990353  0.27347013  1
  O2-  O136  1  -0.00016562  0.75097645  0.60008902  1
  O2-  O137  1  -0.00311943  0.74991766  0.94513718  1
  O2-  O138  1  0.50342944  0.24704567  0.26967220  1
  O2-  O139  1  0.50173409  0.25113409  0.60405041  1
  O2-  O140  1  0.49166621  0.24324268  0.94576069  1
  O2-  O141  1  0.50017496  0.74229230  0.27345216  1
  O2-  O142  1  0.49506483  0.74402224  0.60928266  1
  O2-  O143  1  0.49994166  0.74934690  0.93332536  1
  O2-  O144  1  0.07025511  0.17241622  0.08981861  1
  O2-  O145  1  0.07034359  0.17275383  0.41985230  1
  O2-  O146  1  0.07076811  0.18029724  0.76658022  1
  O2-  O147  1  0.06881476  0.67849818  0.09049636  1
  O2-  O148  1  0.06993373  0.68171610  0.42096257  1
  O2-  O149  1  0.07099128  0.68145578  0.76406177  1
  O2-  O150  1  0.57413140  0.18440534  0.09232302  1
  O2-  O151  1  0.57014801  0.17468854  0.41891856  1
  O2-  O152  1  0.56947827  0.17491451  0.76640832  1
  O2-  O153  1  0.57435417  0.67770857  0.09684436  1
  O2-  O154  1  0.57617819  0.68429753  0.42336926  1
  O2-  O155  1  0.57330430  0.68132158  0.75565947  1
  O2-  O156  1  0.17812853  0.43354968  0.23335389  1
  O2-  O157  1  0.18172386  0.42955438  0.56920256  1
  O2-  O158  1  0.17412192  0.42865533  0.91224126  1
  O2-  O159  1  0.18037914  0.93006109  0.23442881  1
  O2-  O160  1  0.18009109  0.92451376  0.57940428  1
  O2-  O161  1  0.17569018  0.92783507  0.90988010  1
  O2-  O162  1  0.67982929  0.43018124  0.23500941  1
  O2-  O163  1  0.67354781  0.43004853  0.58085557  1
  O2-  O164  1  0.67987599  0.42786416  0.90823288  1
  O2-  O165  1  0.68082925  0.92987721  0.24345873  1
  O2-  O166  1  0.67691854  0.92812583  0.57782476  1
  O2-  O167  1  0.67921403  0.92562768  0.91244580  1
  O2-  O168  1  0.43052675  0.32199618  0.09259489  1
  O2-  O169  1  0.42833277  0.31802086  0.43095683  1
  O2-  O170  1  0.42881079  0.31918277  0.76862971  1
  O2-  O171  1  0.42743875  0.81920637  0.09590609  1
  O2-  O172  1  0.43060451  0.82072583  0.43295730  1
  O2-  O173  1  0.43328236  0.82257249  0.75703385  1
  O2-  O174  1  0.92686819  0.32175342  0.09899738  1
  O2-  O175  1  0.93245976  0.32032140  0.43140033  1
  O2-  O176  1  0.92974142  0.31866230  0.76501554  1
  O2-  O177  1  0.93102687  0.82356337  0.09344147  1
  O2-  O178  1  0.92811315  0.82360960  0.42152079  1
  O2-  O179  1  0.92745266  0.82045966  0.76592641  1
  O2-  O180  1  0.32373664  0.06959091  0.24359048  1
  O2-  O181  1  0.32097164  0.06400296  0.56522997  1
  O2-  O182  1  0.32245458  0.07370585  0.90215925  1
  O2-  O183  1  0.31801410  0.57353814  0.23337124  1
  O2-  O184  1  0.32435536  0.57781231  0.57896895  1
  O2-  O185  1  0.31785507  0.56630120  0.89875180  1
  O2-  O186  1  0.81988492  0.07074251  0.23542393  1
  O2-  O187  1  0.81994625  0.06970761  0.57682986  1
  O2-  O188  1  0.81820166  0.06904002  0.89876497  1
  O2-  O189  1  0.82049913  0.57369989  0.23272913  1
  O2-  O190  1  0.81584700  0.57122708  0.56948125  1
  O2-  O191  1  0.82240170  0.57256018  0.90839345  1
  O2-  O192  1  0.04364521  0.08079954  0.26935479  1
  O2-  O193  1  0.04865908  0.07876330  0.60116493  1
  O2-  O194  1  0.04557794  0.08313360  0.93695550  1
  O2-  O195  1  0.04307367  0.58937464  0.26667938  1
  O2-  O196  1  0.04302694  0.58138546  0.59831548  1
  O2-  O197  1  0.04152588  0.58864231  0.93590332  1
  O2-  O198  1  0.54813855  0.08513108  0.26474056  1
  O2-  O199  1  0.54188679  0.07832922  0.59754635  1
  O2-  O200  1  0.55168474  0.08492352  0.94371016  1
  O2-  O201  1  0.55590047  0.58310773  0.27444962  1
  O2-  O202  1  0.55138399  0.58541907  0.60445300  1
  O2-  O203  1  0.54315844  0.57880082  0.92858147  1
  O2-  O204  1  0.16721722  0.19556161  0.26899644  1
  O2-  O205  1  0.17024274  0.20645768  0.59965899  1
  O2-  O206  1  0.16665220  0.20185149  0.94075481  1
  O2-  O207  1  0.15965326  0.71318732  0.26826014  1
  O2-  O208  1  0.17083029  0.70750026  0.59609470  1
  O2-  O209  1  0.15962511  0.70801017  0.93567885  1
  O2-  O210  1  0.66622826  0.20536397  0.26906382  1
  O2-  O211  1  0.66931211  0.20084926  0.59845692  1
  O2-  O212  1  0.65832797  0.21433719  0.93632282  1
  O2-  O213  1  0.66549769  0.71026029  0.26890567  1
  O2-  O214  1  0.66006855  0.71410316  0.60208451  1
  O2-  O215  1  0.67042124  0.70676855  0.92934037  1
  O2-  O216  1  0.08274819  0.46152857  0.06314805  1
  O2-  O217  1  0.08448458  0.46141300  0.40036284  1
  O2-  O218  1  0.08606725  0.46392261  0.73816759  1
  O2-  O219  1  0.08670653  0.95507298  0.06470254  1
  O2-  O220  1  0.08499046  0.95758848  0.40466638  1
  O2-  O221  1  0.08129502  0.94884073  0.72893195  1
  O2-  O222  1  0.58772740  0.45675978  0.06081808  1
  O2-  O223  1  0.58233225  0.45837604  0.40547687  1
  O2-  O224  1  0.58334926  0.45569645  0.73320272  1
  O2-  O225  1  0.58499113  0.95094487  0.06452770  1
  O2-  O226  1  0.58389778  0.95557127  0.39410784  1
  O2-  O227  1  0.58831666  0.95769282  0.73266483  1
  O2-  O228  1  0.19256394  0.33339166  0.06373818  1
  O2-  O229  1  0.20291368  0.32564395  0.39605752  1
  O2-  O230  1  0.21071415  0.33397313  0.73876457  1
  O2-  O231  1  0.20226267  0.83335684  0.06116758  1
  O2-  O232  1  0.21139246  0.83468697  0.40381646  1
  O2-  O233  1  0.20357428  0.83234575  0.73090848  1
  O2-  O234  1  0.70853880  0.33936886  0.06267167  1
  O2-  O235  1  0.70157002  0.32896026  0.40165999  1
  O2-  O236  1  0.69847137  0.33053285  0.72910604  1
  O2-  O237  1  0.70407158  0.83207664  0.06444247  1
  O2-  O238  1  0.70223218  0.83611039  0.39611045  1
  O2-  O239  1  0.70671784  0.83821073  0.73243920  1
  O2-  O240  1  0.46192356  0.41929016  0.26630219  1
  O2-  O241  1  0.45400510  0.42126785  0.60174542  1
  O2-  O242  1  0.45847627  0.40903697  0.93795532  1
  O2-  O243  1  0.46047333  0.91519288  0.26326736  1
  O2-  O244  1  0.46458706  0.90867940  0.60277361  1
  O2-  O245  1  0.45867338  0.92114143  0.93191553  1
  O2-  O246  1  0.96148576  0.41801944  0.26470990  1
  O2-  O247  1  0.95890924  0.42059401  0.60213875  1
  O2-  O248  1  0.95849113  0.41736659  0.93158781  1
  O2-  O249  1  0.96103507  0.91420206  0.27036187  1
  O2-  O250  1  0.95277618  0.91942300  0.59835630  1
  O2-  O251  1  0.95901762  0.91422038  0.93987408  1
  O2-  O252  1  0.33268658  0.29129477  0.26147355  1
  O2-  O253  1  0.33168125  0.28991852  0.60178742  1
  O2-  O254  1  0.33080213  0.29733602  0.94586982  1
  O2-  O255  1  0.33015170  0.79092443  0.26589119  1
  O2-  O256  1  0.33659094  0.79824347  0.60678028  1
  O2-  O257  1  0.32888331  0.79419579  0.92872309  1
  O2-  O258  1  0.83266919  0.28858372  0.26789609  1
  O2-  O259  1  0.82953935  0.29717624  0.59982507  1
  O2-  O260  1  0.83204527  0.28918564  0.93111874  1
  O2-  O261  1  0.83543532  0.79910433  0.26898651  1
  O2-  O262  1  0.82786030  0.79337027  0.59929961  1
  O2-  O263  1  0.83614576  0.79982999  0.94180806  1
  O2-  O264  1  0.42040773  0.04471693  0.06977128  1
  O2-  O265  1  0.41910808  0.04458788  0.39261142  1
  O2-  O266  1  0.41599775  0.03456826  0.73252283  1
  O2-  O267  1  0.41805298  0.54091472  0.06474791  1
  O2-  O268  1  0.42339856  0.55504531  0.39629030  1
  O2-  O269  1  0.42033033  0.55304149  0.72847307  1
  O2-  O270  1  0.91629312  0.04146878  0.06756809  1
  O2-  O271  1  0.91594934  0.03884271  0.40356257  1
  O2-  O272  1  0.91341667  0.04348095  0.72883782  1
  O2-  O273  1  0.91384421  0.54509399  0.06014074  1
  O2-  O274  1  0.92149959  0.54691875  0.39841540  1
  O2-  O275  1  0.91660478  0.54258378  0.73617822  1
  O2-  O276  1  0.29001320  0.16665459  0.07301681  1
  O2-  O277  1  0.30033554  0.16587207  0.39315365  1
  O2-  O278  1  0.29040759  0.16404524  0.73434322  1
  O2-  O279  1  0.28728043  0.66628425  0.06318434  1
  O2-  O280  1  0.28711502  0.66744150  0.40095908  1
  O2-  O281  1  0.29599159  0.66780181  0.73109590  1
  O2-  O282  1  0.78479552  0.16686883  0.06559961  1
  O2-  O283  1  0.78950876  0.16586900  0.40413100  1
  O2-  O284  1  0.79255518  0.16389935  0.72843133  1
  O2-  O285  1  0.79594247  0.66498239  0.06056846  1
  O2-  O286  1  0.79424746  0.67209304  0.39932037  1
  O2-  O287  1  0.78519598  0.66625259  0.73553910  1
