# generated using pymatgen
data_Ca2Al2SiO7
_symmetry_space_group_name_H-M   'P 1'
_cell_length_a   15.45792738
_cell_length_b   15.45699692
_cell_length_c   15.28319274
_cell_angle_alpha   89.99635268
_cell_angle_beta   90.00488479
_cell_angle_gamma   90.01223649
_symmetry_Int_Tables_number   1
_chemical_formula_structural   Ca2Al2SiO7
_chemical_formula_sum   'Ca48 Al48 Si24 O168'
_cell_volume   3651.66106497
_cell_formula_units_Z   24
loop_
 _symmetry_equiv_pos_site_id
 _symmetry_equiv_pos_as_xyz
  1  'x, y, z'
loop_
 _atom_type_symbol
 _atom_type_oxidation_number
  Ca2+  2.0
  Al0+  0.0
  Si0+  0.0
  O2-  -2.0
loop_
 _atom_site_type_symbol
 _atom_site_label
 _atom_site_symmetry_multiplicity
 _atom_site_fract_x
 _atom_site_fract_y
 _atom_site_fract_z
 _atom_site_occupancy
  Ca2+  Ca0  1  0.17301913  0.08139809  0.16433174  1
  Ca2+  Ca1  1  0.17851308  0.08020566  0.50650353  1
  Ca2+  Ca2  1  0.17555247  0.07660054  0.84340198  1
  Ca2+  Ca3  1  0.17283284  0.57895480  0.17065830  1
  Ca2+  Ca4  1  0.17308996  0.58595601  0.50380320  1
  Ca2+  Ca5  1  0.16306854  0.57907401  0.83824200  1
  Ca2+  Ca6  1  0.66450567  0.06714354  0.16703468  1
  Ca2+  Ca7  1  0.66068207  0.07775018  0.50382498  1
  Ca2+  Ca8  1  0.67168515  0.07985594  0.84314959  1
  Ca2+  Ca9  1  0.67408510  0.59080935  0.16883903  1
  Ca2+  Ca10  1  0.66727303  0.58094425  0.50335407  1
  Ca2+  Ca11  1  0.66281824  0.57738697  0.84112167  1
  Ca2+  Ca12  1  0.07984993  0.33006595  0.15889603  1
  Ca2+  Ca13  1  0.07541260  0.33261287  0.49119014  1
  Ca2+  Ca14  1  0.08584757  0.32804215  0.83601176  1
  Ca2+  Ca15  1  0.07678535  0.83534563  0.15483460  1
  Ca2+  Ca16  1  0.08733847  0.83110611  0.50248444  1
  Ca2+  Ca17  1  0.08002308  0.83895564  0.83046454  1
  Ca2+  Ca18  1  0.57665178  0.33704246  0.16223411  1
  Ca2+  Ca19  1  0.58201297  0.32699706  0.49678875  1
  Ca2+  Ca20  1  0.58959271  0.32924822  0.82632360  1
  Ca2+  Ca21  1  0.58547130  0.82652564  0.15704862  1
  Ca2+  Ca22  1  0.58679582  0.82271302  0.49272379  1
  Ca2+  Ca23  1  0.58424318  0.82590085  0.83408624  1
  Ca2+  Ca24  1  0.32957305  0.41847364  0.17171025  1
  Ca2+  Ca25  1  0.34307451  0.42122122  0.49592551  1
  Ca2+  Ca26  1  0.32714490  0.41971000  0.84081332  1
  Ca2+  Ca27  1  0.33972455  0.92571398  0.16738041  1
  Ca2+  Ca28  1  0.33125859  0.92848598  0.50863683  1
  Ca2+  Ca29  1  0.32829439  0.92342740  0.84193699  1
  Ca2+  Ca30  1  0.82968533  0.42702877  0.16959731  1
  Ca2+  Ca31  1  0.82990036  0.41976049  0.50322560  1
  Ca2+  Ca32  1  0.82049500  0.42447705  0.84238787  1
  Ca2+  Ca33  1  0.82557991  0.91390168  0.16417730  1
  Ca2+  Ca34  1  0.82617205  0.91566294  0.49852879  1
  Ca2+  Ca35  1  0.82852513  0.91891067  0.84629378  1
  Ca2+  Ca36  1  0.40822973  0.16928306  0.16361575  1
  Ca2+  Ca37  1  0.41587514  0.16788790  0.49618582  1
  Ca2+  Ca38  1  0.41940780  0.16312648  0.82973136  1
  Ca2+  Ca39  1  0.42790638  0.66965717  0.15848833  1
  Ca2+  Ca40  1  0.42859851  0.66344422  0.49146136  1
  Ca2+  Ca41  1  0.42584019  0.67280680  0.83187533  1
  Ca2+  Ca42  1  0.92060940  0.16952287  0.15683428  1
  Ca2+  Ca43  1  0.91833192  0.17590478  0.49176636  1
  Ca2+  Ca44  1  0.92417689  0.15750719  0.83452838  1
  Ca2+  Ca45  1  0.91081503  0.66934291  0.15858065  1
  Ca2+  Ca46  1  0.92265854  0.66250887  0.49580714  1
  Ca2+  Ca47  1  0.91810386  0.67031436  0.83441212  1
  Al0+  Al48  1  0.00176079  0.00098121  -0.00197810  1
  Al0+  Al49  1  -0.00075179  -0.00098819  0.33479575  1
  Al0+  Al50  1  -0.00012862  0.00078444  0.66334063  1
  Al0+  Al51  1  -0.00136421  0.49862633  0.00624504  1
  Al0+  Al52  1  -0.00080586  0.49956330  0.33258297  1
  Al0+  Al53  1  -0.00024510  0.50230466  0.66323341  1
  Al0+  Al54  1  0.49954655  0.00158391  0.00314733  1
  Al0+  Al55  1  0.49959657  -0.00169022  0.34379186  1
  Al0+  Al56  1  0.50100991  0.00060091  0.66696241  1
  Al0+  Al57  1  0.49843090  0.49883539  -0.00237914  1
  Al0+  Al58  1  0.50058469  0.49793058  0.32798376  1
  Al0+  Al59  1  0.49971986  0.49998302  0.66712107  1
  Al0+  Al60  1  0.24792203  0.25092248  0.00173755  1
  Al0+  Al61  1  0.24953314  0.24838822  0.33494558  1
  Al0+  Al62  1  0.25011504  0.25163717  0.66785355  1
  Al0+  Al63  1  0.25086412  0.75017512  -0.00101077  1
  Al0+  Al64  1  0.25081234  0.74896685  0.33726009  1
  Al0+  Al65  1  0.24853342  0.75061127  0.66605193  1
  Al0+  Al66  1  0.74941407  0.25292980  0.00776177  1
  Al0+  Al67  1  0.75033465  0.24927387  0.32625787  1
  Al0+  Al68  1  0.74871911  0.25088249  0.66466875  1
  Al0+  Al69  1  0.75135753  0.74897320  -0.00463782  1
  Al0+  Al70  1  0.75208383  0.74853022  0.33983278  1
  Al0+  Al71  1  0.75153802  0.75037988  0.66181803  1
  Al0+  Al72  1  0.81913173  0.57090588  0.01351730  1
  Al0+  Al73  1  0.32152164  0.07122856  0.01603371  1
  Al0+  Al74  1  0.31921575  0.07074462  0.34964922  1
  Al0+  Al75  1  0.17885187  0.92669958  0.01514580  1
  Al0+  Al76  1  0.57195668  0.67969200  0.31899038  1
  Al0+  Al77  1  0.17912878  0.42983479  0.01320701  1
  Al0+  Al78  1  0.07056375  0.67905541  0.65269757  1
  Al0+  Al79  1  0.32237593  0.57025682  0.34603433  1
  Al0+  Al80  1  0.07008030  0.18065710  0.98557390  1
  Al0+  Al81  1  0.17834113  0.92879464  0.68272761  1
  Al0+  Al82  1  0.67906017  0.92872869  0.01209212  1
  Al0+  Al83  1  0.67938768  0.43016285  0.67830734  1
  Al0+  Al84  1  0.43007347  0.31810830  0.31898900  1
  Al0+  Al85  1  0.32237531  0.07274356  0.68408119  1
  Al0+  Al86  1  0.57125673  0.17900739  0.65416655  1
  Al0+  Al87  1  0.92787762  0.32238509  0.31732612  1
  Al0+  Al88  1  0.93065188  0.82054452  0.98703053  1
  Al0+  Al89  1  0.68044514  0.92886337  0.34858053  1
  Al0+  Al90  1  0.67493252  0.42847153  0.01691707  1
  Al0+  Al91  1  0.57172828  0.67867955  0.98385487  1
  Al0+  Al92  1  0.82108503  0.56975070  0.34994957  1
  Al0+  Al93  1  0.42792787  0.82431821  0.98519131  1
  Al0+  Al94  1  0.57041873  0.67853247  0.65081942  1
  Al0+  Al95  1  0.82345261  0.07241040  0.01390725  1
  Si0+  Si96  1  0.82336829  0.57254374  0.68328284  1
  Si0+  Si97  1  0.93070069  0.81963914  0.31914475  1
  Si0+  Si98  1  0.57170527  0.17390588  0.31546762  1
  Si0+  Si99  1  0.81998868  0.07242307  0.67872232  1
  Si0+  Si100  1  0.17467287  0.92670554  0.35126273  1
  Si0+  Si101  1  0.92798318  0.82436191  0.64681735  1
  Si0+  Si102  1  0.07311995  0.67551689  0.98599410  1
  Si0+  Si103  1  0.07340477  0.67900669  0.31814080  1
  Si0+  Si104  1  0.67764775  0.42599932  0.35010957  1
  Si0+  Si105  1  0.17880420  0.42878066  0.35094846  1
  Si0+  Si106  1  0.32222188  0.57262548  0.01516879  1
  Si0+  Si107  1  0.17586439  0.43031310  0.68017588  1
  Si0+  Si108  1  0.42748637  0.82227373  0.31919179  1
  Si0+  Si109  1  0.42576940  0.32250443  0.65042715  1
  Si0+  Si110  1  0.57186219  0.18071503  0.98739234  1
  Si0+  Si111  1  0.68073678  0.92744297  0.68144805  1
  Si0+  Si112  1  0.42726254  0.32025262  0.98428963  1
  Si0+  Si113  1  0.32121170  0.57068039  0.68117499  1
  Si0+  Si114  1  0.07211881  0.17951843  0.65056405  1
  Si0+  Si115  1  0.92958425  0.32064303  0.65312885  1
  Si0+  Si116  1  0.42829191  0.82168410  0.64913709  1
  Si0+  Si117  1  0.07062528  0.17768672  0.31708214  1
  Si0+  Si118  1  0.92653743  0.32335820  0.98214588  1
  Si0+  Si119  1  0.82271497  0.07286367  0.35001358  1
  O2-  O120  1  0.25342171  -0.00473090  0.06587821  1
  O2-  O121  1  0.24491141  -0.00556092  0.39431019  1
  O2-  O122  1  0.25036833  0.00037391  0.73236965  1
  O2-  O123  1  0.25119554  0.50644838  0.05938337  1
  O2-  O124  1  0.24764038  0.49655413  0.39641190  1
  O2-  O125  1  0.24824359  0.50030328  0.72192906  1
  O2-  O126  1  0.75161414  0.00010410  0.06311205  1
  O2-  O127  1  0.75165673  0.00776959  0.39595438  1
  O2-  O128  1  0.75176262  -0.00063099  0.72155683  1
  O2-  O129  1  0.74508367  0.50234888  0.06562125  1
  O2-  O130  1  0.74731507  0.49334595  0.39556812  1
  O2-  O131  1  0.74997214  0.50837855  0.72551320  1
  O2-  O132  1  0.00096663  0.24520996  0.27313225  1
  O2-  O133  1  0.00135614  0.25096726  0.60882356  1
  O2-  O134  1  -0.00785818  0.25210777  0.93655988  1
  O2-  O135  1  0.00430614  0.75157944  0.27681298  1
  O2-  O136  1  -0.00258289  0.75495229  0.60459117  1
  O2-  O137  1  0.00805258  0.74747404  0.94151901  1
  O2-  O138  1  0.50343118  0.24272551  0.27096377  1
  O2-  O139  1  0.49336307  0.25132264  0.60863667  1
  O2-  O140  1  0.50145708  0.25208749  0.94342178  1
  O2-  O141  1  0.49592600  0.75397693  0.27448062  1
  O2-  O142  1  0.49665565  0.75358363  0.60287094  1
  O2-  O143  1  0.50016246  0.75223898  0.93486549  1
  O2-  O144  1  0.07113008  0.18426058  0.09867583  1
  O2-  O145  1  0.06909624  0.17946981  0.42357333  1
  O2-  O146  1  0.07165759  0.17964024  0.75526945  1
  O2-  O147  1  0.07182294  0.67469954  0.09185388  1
  O2-  O148  1  0.07273178  0.67923519  0.42353294  1
  O2-  O149  1  0.06638561  0.67322430  0.76511679  1
  O2-  O150  1  0.57007831  0.18062901  0.09238462  1
  O2-  O151  1  0.57197866  0.17621228  0.42156946  1
  O2-  O152  1  0.57528907  0.18156351  0.76718456  1
  O2-  O153  1  0.57088881  0.67949851  0.09756854  1
  O2-  O154  1  0.57078975  0.68003537  0.43275537  1
  O2-  O155  1  0.56903794  0.67835440  0.76324473  1
  O2-  O156  1  0.17933932  0.42969203  0.24559106  1
  O2-  O157  1  0.17321786  0.43028271  0.57522235  1
  O2-  O158  1  0.18100838  0.43052303  0.89910459  1
  O2-  O159  1  0.17042461  0.92680258  0.24639896  1
  O2-  O160  1  0.17950402  0.93180887  0.56844873  1
  O2-  O161  1  0.17818907  0.93025323  0.90173402  1
  O2-  O162  1  0.67809603  0.42737997  0.24509299  1
  O2-  O163  1  0.68259059  0.42797633  0.56516216  1
  O2-  O164  1  0.67706922  0.42708228  0.90267482  1
  O2-  O165  1  0.68225931  0.92787285  0.23610250  1
  O2-  O166  1  0.68258351  0.92744332  0.57608055  1
  O2-  O167  1  0.68036748  0.93136695  0.89792770  1
  O2-  O168  1  0.42583940  0.31979962  0.08938114  1
  O2-  O169  1  0.43222857  0.31795083  0.43246606  1
  O2-  O170  1  0.42356754  0.32469077  0.75589846  1
  O2-  O171  1  0.42926129  0.82196961  0.09920042  1
  O2-  O172  1  0.42844333  0.82045726  0.42517689  1
  O2-  O173  1  0.42972809  0.82009207  0.75436200  1
  O2-  O174  1  0.93060832  0.32353394  0.08756181  1
  O2-  O175  1  0.93035289  0.32066755  0.43184172  1
  O2-  O176  1  0.93086051  0.31996816  0.75774259  1
  O2-  O177  1  0.93014007  0.81869925  0.10064300  1
  O2-  O178  1  0.93204974  0.81996172  0.42452966  1
  O2-  O179  1  0.92595357  0.82648281  0.75185179  1
  O2-  O180  1  0.31785913  0.07139707  0.23719776  1
  O2-  O181  1  0.31935680  0.07354724  0.57007148  1
  O2-  O182  1  0.32084182  0.07380804  0.90273663  1
  O2-  O183  1  0.31834643  0.56948454  0.23342515  1
  O2-  O184  1  0.32200525  0.56818904  0.57592231  1
  O2-  O185  1  0.32218878  0.56946765  0.90896230  1
  O2-  O186  1  0.82603780  0.06980149  0.24525650  1
  O2-  O187  1  0.81935302  0.07302049  0.57335703  1
  O2-  O188  1  0.82035988  0.07130189  0.89916276  1
  O2-  O189  1  0.82126839  0.57217108  0.23765103  1
  O2-  O190  1  0.82606148  0.56879802  0.57752132  1
  O2-  O191  1  0.82156294  0.56826318  0.89959889  1
  O2-  O192  1  0.04578158  0.08307609  0.27322090  1
  O2-  O193  1  0.04335277  0.08893561  0.60095298  1
  O2-  O194  1  0.04133675  0.08493198  0.92898283  1
  O2-  O195  1  0.04549063  0.58694112  0.27228056  1
  O2-  O196  1  0.03905579  0.58351676  0.59450744  1
  O2-  O197  1  0.04310038  0.58262011  0.93979072  1
  O2-  O198  1  0.54441237  0.07905520  0.27389619  1
  O2-  O199  1  0.54383707  0.08161648  0.59911847  1
  O2-  O200  1  0.54487512  0.08917116  0.93929708  1
  O2-  O201  1  0.54270415  0.58303417  0.26590542  1
  O2-  O202  1  0.53796852  0.58157261  0.59766297  1
  O2-  O203  1  0.53916261  0.58045240  0.93101810  1
  O2-  O204  1  0.16360583  0.20472866  0.27210466  1
  O2-  O205  1  0.16344847  0.20936709  0.60288940  1
  O2-  O206  1  0.16455134  0.21767448  0.93014297  1
  O2-  O207  1  0.16640688  0.70380440  0.27178525  1
  O2-  O208  1  0.16776804  0.70775446  0.59706437  1
  O2-  O209  1  0.16805110  0.69429044  0.94017434  1
  O2-  O210  1  0.66604603  0.19575352  0.26998071  1
  O2-  O211  1  0.66606100  0.21240107  0.59626649  1
  O2-  O212  1  0.66450312  0.20857069  0.94077214  1
  O2-  O213  1  0.66981269  0.71297697  0.26976974  1
  O2-  O214  1  0.66856304  0.70776955  0.59800414  1
  O2-  O215  1  0.66939187  0.70526717  0.92900619  1
  O2-  O216  1  0.08318015  0.45664491  0.06918305  1
  O2-  O217  1  0.08559232  0.45609761  0.39696215  1
  O2-  O218  1  0.08511498  0.45977860  0.72871347  1
  O2-  O219  1  0.08205849  0.95952504  0.06781757  1
  O2-  O220  1  0.08183625  0.95345485  0.39987622  1
  O2-  O221  1  0.07774793  0.95753603  0.73081307  1
  O2-  O222  1  0.57424858  0.45238848  0.06633351  1
  O2-  O223  1  0.58418700  0.45224868  0.39545963  1
  O2-  O224  1  0.58127838  0.45586796  0.73182904  1
  O2-  O225  1  0.58285392  0.95879572  0.06761418  1
  O2-  O226  1  0.58468110  0.95604648  0.40648257  1
  O2-  O227  1  0.58849834  0.95397996  0.72683789  1
  O2-  O228  1  0.21272969  0.33604965  0.06920086  1
  O2-  O229  1  0.20268774  0.33475623  0.39702288  1
  O2-  O230  1  0.20286398  0.33843682  0.72764704  1
  O2-  O231  1  0.19974665  0.82560833  0.06589601  1
  O2-  O232  1  0.19951476  0.83258061  0.39703480  1
  O2-  O233  1  0.20143333  0.82808601  0.73281801  1
  O2-  O234  1  0.70276206  0.33198454  0.07287549  1
  O2-  O235  1  0.70292263  0.33040404  0.39350763  1
  O2-  O236  1  0.71398508  0.33461277  0.73270847  1
  O2-  O237  1  0.70901143  0.83068571  0.06293502  1
  O2-  O238  1  0.71764614  0.83581100  0.40579411  1
  O2-  O239  1  0.71018152  0.83564109  0.72767157  1
  O2-  O240  1  0.45946247  0.41364899  0.26255007  1
  O2-  O241  1  0.45450711  0.41482242  0.60330358  1
  O2-  O242  1  0.45044417  0.41271538  0.93561685  1
  O2-  O243  1  0.45355241  0.91706049  0.27665277  1
  O2-  O244  1  0.45438482  0.91584839  0.60414833  1
  O2-  O245  1  0.45582330  0.92346715  0.93298898  1
  O2-  O246  1  0.96166183  0.41794771  0.26379992  1
  O2-  O247  1  0.95744558  0.41209204  0.60445970  1
  O2-  O248  1  0.95695760  0.41566462  0.93567224  1
  O2-  O249  1  0.95449956  0.91315920  0.27301346  1
  O2-  O250  1  0.95334140  0.91755203  0.59793061  1
  O2-  O251  1  0.95917220  0.91710262  0.93153547  1
  O2-  O252  1  0.33138988  0.28915283  0.26746291  1
  O2-  O253  1  0.33168076  0.29987792  0.60250078  1
  O2-  O254  1  0.33661863  0.29064891  0.93574555  1
  O2-  O255  1  0.33268165  0.79860531  0.27488944  1
  O2-  O256  1  0.33397828  0.79731951  0.60404395  1
  O2-  O257  1  0.32973403  0.79471446  0.93101066  1
  O2-  O258  1  0.83127894  0.29498311  0.26253438  1
  O2-  O259  1  0.83954186  0.29053156  0.60339464  1
  O2-  O260  1  0.83059697  0.30141827  0.93946050  1
  O2-  O261  1  0.83985657  0.78804712  0.27367554  1
  O2-  O262  1  0.83565599  0.79718826  0.59837027  1
  O2-  O263  1  0.83668167  0.78849068  0.92859980  1
  O2-  O264  1  0.42028127  0.04803621  0.07024042  1
  O2-  O265  1  0.41525784  0.04186957  0.40601951  1
  O2-  O266  1  0.42228610  0.04550000  0.73407950  1
  O2-  O267  1  0.41375247  0.54281063  0.06164046  1
  O2-  O268  1  0.41837736  0.53552363  0.39987688  1
  O2-  O269  1  0.41104726  0.54062462  0.73057309  1
  O2-  O270  1  0.92171926  0.04555063  0.06583671  1
  O2-  O271  1  0.91517264  0.04473444  0.39911693  1
  O2-  O272  1  0.91354825  0.04721114  0.72350368  1
  O2-  O273  1  0.91604564  0.54152710  0.06921377  1
  O2-  O274  1  0.91868248  0.53826349  0.40324518  1
  O2-  O275  1  0.91529222  0.54219684  0.72963372  1
  O2-  O276  1  0.28690855  0.16802160  0.06832588  1
  O2-  O277  1  0.28644885  0.16670636  0.40502374  1
  O2-  O278  1  0.29442734  0.17280739  0.73396930  1
  O2-  O279  1  0.30038800  0.66639940  0.06114681  1
  O2-  O280  1  0.29258517  0.66617161  0.40305831  1
  O2-  O281  1  0.29371545  0.66252678  0.72725041  1
  O2-  O282  1  0.79807912  0.17078178  0.06692759  1
  O2-  O283  1  0.79977651  0.16858855  0.39363220  1
  O2-  O284  1  0.79151963  0.16311555  0.72673156  1
  O2-  O285  1  0.79330813  0.66981227  0.06579789  1
  O2-  O286  1  0.79192351  0.66496293  0.40718332  1
  O2-  O287  1  0.80299085  0.66921288  0.72425059  1
