# generated using pymatgen
data_Ca2Al2SiO7
_symmetry_space_group_name_H-M   'P 1'
_cell_length_a   15.45874114
_cell_length_b   15.45980479
_cell_length_c   15.28519098
_cell_angle_alpha   90.00175776
_cell_angle_beta   90.00576521
_cell_angle_gamma   89.99265929
_symmetry_Int_Tables_number   1
_chemical_formula_structural   Ca2Al2SiO7
_chemical_formula_sum   'Ca48 Al48 Si24 O168'
_cell_volume   3652.99429693
_cell_formula_units_Z   24
loop_
 _symmetry_equiv_pos_site_id
 _symmetry_equiv_pos_as_xyz
  1  'x, y, z'
loop_
 _atom_type_symbol
 _atom_type_oxidation_number
  Ca2+  2.0
  Al0+  0.0
  Si0+  0.0
  O2-  -2.0
loop_
 _atom_site_type_symbol
 _atom_site_label
 _atom_site_symmetry_multiplicity
 _atom_site_fract_x
 _atom_site_fract_y
 _atom_site_fract_z
 _atom_site_occupancy
  Ca2+  Ca0  1  0.16635235  0.07468599  0.16933605  1
  Ca2+  Ca1  1  0.17686205  0.07954913  0.51535796  1
  Ca2+  Ca2  1  0.16780546  0.07537957  0.83104383  1
  Ca2+  Ca3  1  0.17244589  0.58225555  0.16784026  1
  Ca2+  Ca4  1  0.16940984  0.56902875  0.50441790  1
  Ca2+  Ca5  1  0.17274855  0.58305428  0.83880225  1
  Ca2+  Ca6  1  0.66120510  0.08766647  0.17006663  1
  Ca2+  Ca7  1  0.66070577  0.08666244  0.50486598  1
  Ca2+  Ca8  1  0.65847385  0.08329149  0.83727960  1
  Ca2+  Ca9  1  0.67459461  0.58583248  0.17605485  1
  Ca2+  Ca10  1  0.66618573  0.57671743  0.50477560  1
  Ca2+  Ca11  1  0.67402476  0.58082081  0.83839384  1
  Ca2+  Ca12  1  0.07551131  0.34269324  0.16208288  1
  Ca2+  Ca13  1  0.09329044  0.33006662  0.49802633  1
  Ca2+  Ca14  1  0.07807460  0.33520369  0.82504832  1
  Ca2+  Ca15  1  0.08243031  0.82538591  0.15676232  1
  Ca2+  Ca16  1  0.07792065  0.83678825  0.50217280  1
  Ca2+  Ca17  1  0.08479218  0.83056562  0.82718522  1
  Ca2+  Ca18  1  0.58905257  0.32812726  0.16420453  1
  Ca2+  Ca19  1  0.57714697  0.33324812  0.49490484  1
  Ca2+  Ca20  1  0.57937099  0.32456746  0.82291795  1
  Ca2+  Ca21  1  0.57844147  0.82065176  0.16632449  1
  Ca2+  Ca22  1  0.57094917  0.82867604  0.49472373  1
  Ca2+  Ca23  1  0.57781781  0.82456761  0.82775518  1
  Ca2+  Ca24  1  0.33184938  0.42036717  0.17233426  1
  Ca2+  Ca25  1  0.32944136  0.40638471  0.50567804  1
  Ca2+  Ca26  1  0.32861235  0.41453105  0.83381327  1
  Ca2+  Ca27  1  0.33139454  0.91314598  0.16903523  1
  Ca2+  Ca28  1  0.33566534  0.92109725  0.51183624  1
  Ca2+  Ca29  1  0.32824351  0.91756170  0.83451912  1
  Ca2+  Ca30  1  0.82883407  0.42562696  0.17340926  1
  Ca2+  Ca31  1  0.81843016  0.42721673  0.50598702  1
  Ca2+  Ca32  1  0.83045585  0.42335354  0.83656501  1
  Ca2+  Ca33  1  0.82954802  0.92043460  0.16991115  1
  Ca2+  Ca34  1  0.83110035  0.91625535  0.50807645  1
  Ca2+  Ca35  1  0.83618927  0.91698446  0.83353884  1
  Ca2+  Ca36  1  0.42614946  0.17575688  0.16656316  1
  Ca2+  Ca37  1  0.42266284  0.17436386  0.49915878  1
  Ca2+  Ca38  1  0.42324280  0.16838656  0.82247655  1
  Ca2+  Ca39  1  0.42708075  0.66105186  0.16167489  1
  Ca2+  Ca40  1  0.41714162  0.67874593  0.49288617  1
  Ca2+  Ca41  1  0.41771199  0.66709426  0.83082846  1
  Ca2+  Ca42  1  0.91722116  0.17929699  0.15864067  1
  Ca2+  Ca43  1  0.92658782  0.16673612  0.50041953  1
  Ca2+  Ca44  1  0.92315412  0.17534056  0.82876890  1
  Ca2+  Ca45  1  0.92140283  0.65778725  0.15931149  1
  Ca2+  Ca46  1  0.91021769  0.66364073  0.50152929  1
  Ca2+  Ca47  1  0.91976101  0.66504401  0.82844797  1
  Al0+  Al48  1  -0.00102120  0.00095911  0.00667860  1
  Al0+  Al49  1  -0.00034851  -0.00028051  0.33209164  1
  Al0+  Al50  1  -0.00034863  -0.00077428  0.66232827  1
  Al0+  Al51  1  -0.00142678  0.50152165  -0.00704827  1
  Al0+  Al52  1  0.00117785  0.50021503  0.34226897  1
  Al0+  Al53  1  -0.00002502  0.50071046  0.67140584  1
  Al0+  Al54  1  0.49870990  0.00009023  -0.00008689  1
  Al0+  Al55  1  0.49921976  0.00045471  0.32524509  1
  Al0+  Al56  1  0.50085108  -0.00128637  0.66519236  1
  Al0+  Al57  1  0.49975633  0.49858309  -0.00126895  1
  Al0+  Al58  1  0.49933944  0.50173918  0.33054941  1
  Al0+  Al59  1  0.50081815  0.49821161  0.66761664  1
  Al0+  Al60  1  0.24920172  0.24698688  0.00296965  1
  Al0+  Al61  1  0.25185730  0.24584870  0.32981675  1
  Al0+  Al62  1  0.25077924  0.24810623  0.67068825  1
  Al0+  Al63  1  0.24881051  0.74900530  0.00499760  1
  Al0+  Al64  1  0.24525299  0.75032832  0.33151067  1
  Al0+  Al65  1  0.24808708  0.74847181  0.66371418  1
  Al0+  Al66  1  0.75092323  0.24990470  -0.00916923  1
  Al0+  Al67  1  0.75340042  0.25119843  0.33503708  1
  Al0+  Al68  1  0.75251522  0.25012849  0.66685930  1
  Al0+  Al69  1  0.74900898  0.75121487  0.00117707  1
  Al0+  Al70  1  0.75075096  0.75504741  0.33393754  1
  Al0+  Al71  1  0.75183871  0.75161252  0.66691169  1
  Al0+  Al72  1  0.32184108  0.56945466  0.01331043  1
  Al0+  Al73  1  0.93086261  0.32196278  0.98577958  1
  Al0+  Al74  1  0.82003556  0.57154418  0.01416158  1
  Al0+  Al75  1  0.06994449  0.18037852  0.65450874  1
  Al0+  Al76  1  0.82161844  0.57406560  0.34913074  1
  Al0+  Al77  1  0.18085875  0.42759878  0.68091192  1
  Al0+  Al78  1  0.67688341  0.42694319  0.68407303  1
  Al0+  Al79  1  0.42677614  0.32252406  0.31697853  1
  Al0+  Al80  1  0.57363493  0.17815472  0.65171598  1
  Al0+  Al81  1  0.56913578  0.17972911  0.98480778  1
  Al0+  Al82  1  0.17894436  0.92986581  0.01495810  1
  Al0+  Al83  1  0.93007481  0.81983756  0.65355503  1
  Al0+  Al84  1  0.57364626  0.18185277  0.31779586  1
  Al0+  Al85  1  0.42764619  0.81865366  0.65567352  1
  Al0+  Al86  1  0.07105350  0.68050974  0.98615160  1
  Al0+  Al87  1  0.17741040  0.92759750  0.68057548  1
  Al0+  Al88  1  0.42894841  0.32168229  0.65296418  1
  Al0+  Al89  1  0.67717008  0.42838712  0.34750555  1
  Al0+  Al90  1  0.81880188  0.57295474  0.68440680  1
  Al0+  Al91  1  0.42539768  0.82152524  0.31681591  1
  Al0+  Al92  1  0.18187824  0.42791726  0.34533348  1
  Al0+  Al93  1  0.57251931  0.67745830  0.98527632  1
  Al0+  Al94  1  0.32353123  0.06956968  0.68217834  1
  Al0+  Al95  1  0.57159145  0.67963867  0.31993273  1
  Si0+  Si96  1  0.06705438  0.67787376  0.31888270  1
  Si0+  Si97  1  0.07196075  0.17548512  0.98463268  1
  Si0+  Si98  1  0.07196182  0.17659521  0.31708461  1
  Si0+  Si99  1  0.81956778  0.07194736  0.01470535  1
  Si0+  Si100  1  0.67873246  0.93238376  0.34816533  1
  Si0+  Si101  1  0.92761267  0.82442130  0.98524760  1
  Si0+  Si102  1  0.42507215  0.32203874  0.98309620  1
  Si0+  Si103  1  0.32077257  0.06734565  0.34784803  1
  Si0+  Si104  1  0.93318708  0.32066668  0.32077763  1
  Si0+  Si105  1  0.17717904  0.42716469  0.01464721  1
  Si0+  Si106  1  0.82289632  0.07176990  0.34879995  1
  Si0+  Si107  1  0.57294155  0.67848065  0.65181687  1
  Si0+  Si108  1  0.92923434  0.82412395  0.31641453  1
  Si0+  Si109  1  0.32387012  0.07181284  0.02065467  1
  Si0+  Si110  1  0.67959441  0.93030264  0.68162578  1
  Si0+  Si111  1  0.42787476  0.82008804  0.98357572  1
  Si0+  Si112  1  0.32179447  0.57394359  0.34928835  1
  Si0+  Si113  1  0.67957726  0.42675143  0.01534364  1
  Si0+  Si114  1  0.82301112  0.07088460  0.68114882  1
  Si0+  Si115  1  0.67696732  0.92963852  0.01585904  1
  Si0+  Si116  1  0.07233877  0.67582902  0.64743202  1
  Si0+  Si117  1  0.17653751  0.92818744  0.34982631  1
  Si0+  Si118  1  0.32234181  0.57332944  0.68108919  1
  Si0+  Si119  1  0.92907259  0.32465641  0.64710964  1
  O2-  O120  1  0.25336916  0.00391358  0.06408479  1
  O2-  O121  1  0.25151001  -0.00543597  0.39073621  1
  O2-  O122  1  0.25186430  -0.00379755  0.73109641  1
  O2-  O123  1  0.24884508  0.49198466  0.05942845  1
  O2-  O124  1  0.26026344  0.49843861  0.39300453  1
  O2-  O125  1  0.25598944  0.50233750  0.72567270  1
  O2-  O126  1  0.74760447  0.00220013  0.05758471  1
  O2-  O127  1  0.74811886  0.00507042  0.39088962  1
  O2-  O128  1  0.74736592  0.00489240  0.72370041  1
  O2-  O129  1  0.74349893  0.49918140  0.06117969  1
  O2-  O130  1  0.74401157  0.50659973  0.39603921  1
  O2-  O131  1  0.74778136  0.50021452  0.73409210  1
  O2-  O132  1  0.00462609  0.25098498  0.27531465  1
  O2-  O133  1  0.00013428  0.25771160  0.60330236  1
  O2-  O134  1  0.00955484  0.24976126  0.94133436  1
  O2-  O135  1  -0.00451559  0.74862730  0.27563972  1
  O2-  O136  1  0.00274035  0.74470422  0.60430996  1
  O2-  O137  1  -0.00407185  0.75598012  0.94149258  1
  O2-  O138  1  0.50618259  0.25786094  0.26727276  1
  O2-  O139  1  0.50453730  0.25303113  0.60312501  1
  O2-  O140  1  0.49324196  0.25270710  0.93961806  1
  O2-  O141  1  0.49433292  0.74590491  0.26820863  1
  O2-  O142  1  0.49942817  0.74210765  0.60803309  1
  O2-  O143  1  0.49608436  0.75112747  0.93925054  1
  O2-  O144  1  0.06809115  0.17336077  0.09078855  1
  O2-  O145  1  0.07024288  0.17326200  0.42192136  1
  O2-  O146  1  0.06521576  0.17929408  0.76759931  1
  O2-  O147  1  0.06923961  0.68028920  0.10006730  1
  O2-  O148  1  0.06833865  0.67934860  0.42360173  1
  O2-  O149  1  0.07383531  0.67696838  0.75296618  1
  O2-  O150  1  0.57122249  0.18107682  0.09779570  1
  O2-  O151  1  0.57178510  0.17789934  0.43038253  1
  O2-  O152  1  0.57047922  0.17699350  0.76544149  1
  O2-  O153  1  0.57401068  0.68085346  0.09815422  1
  O2-  O154  1  0.57168674  0.68500697  0.43355607  1
  O2-  O155  1  0.57380012  0.68268552  0.75768413  1
  O2-  O156  1  0.17688233  0.43295892  0.23213001  1
  O2-  O157  1  0.18196039  0.42848174  0.56744623  1
  O2-  O158  1  0.17824686  0.42719566  0.90931077  1
  O2-  O159  1  0.17292581  0.93080138  0.24460562  1
  O2-  O160  1  0.17715910  0.93121466  0.56654477  1
  O2-  O161  1  0.17774421  0.93163032  0.90253370  1
  O2-  O162  1  0.68489078  0.42384463  0.23370541  1
  O2-  O163  1  0.67737321  0.42822639  0.57043935  1
  O2-  O164  1  0.68266929  0.42616862  0.91017269  1
  O2-  O165  1  0.68253659  0.93200976  0.24275989  1
  O2-  O166  1  0.68105044  0.92915517  0.57631225  1
  O2-  O167  1  0.67726224  0.92976564  0.91069557  1
  O2-  O168  1  0.42481907  0.32101141  0.08866647  1
  O2-  O169  1  0.42178400  0.31490092  0.42960077  1
  O2-  O170  1  0.42811105  0.31945677  0.76684738  1
  O2-  O171  1  0.43008881  0.82038505  0.08915577  1
  O2-  O172  1  0.42732064  0.82294388  0.43054398  1
  O2-  O173  1  0.43004054  0.81771927  0.76894289  1
  O2-  O174  1  0.93090225  0.32013433  0.09988015  1
  O2-  O175  1  0.93506245  0.31679523  0.42530359  1
  O2-  O176  1  0.92990382  0.32173046  0.75300298  1
  O2-  O177  1  0.92876247  0.82635542  0.09130609  1
  O2-  O178  1  0.93170193  0.83063876  0.42096199  1
  O2-  O179  1  0.93067045  0.82139226  0.76651422  1
  O2-  O180  1  0.31699513  0.06688165  0.24251695  1
  O2-  O181  1  0.32278611  0.06808183  0.56797588  1
  O2-  O182  1  0.32559423  0.07138544  0.91567265  1
  O2-  O183  1  0.31665128  0.57633851  0.24366159  1
  O2-  O184  1  0.31905872  0.57651350  0.57552257  1
  O2-  O185  1  0.31933464  0.57044979  0.90023173  1
  O2-  O186  1  0.82646790  0.06919205  0.24345580  1
  O2-  O187  1  0.82516015  0.06731190  0.57573294  1
  O2-  O188  1  0.82233309  0.06946177  0.90987501  1
  O2-  O189  1  0.82519960  0.57010480  0.23521438  1
  O2-  O190  1  0.81520052  0.57332730  0.57076182  1
  O2-  O191  1  0.81991630  0.57133721  0.90178540  1
  O2-  O192  1  0.03816206  0.08679230  0.26794682  1
  O2-  O193  1  0.03482012  0.08647511  0.59715706  1
  O2-  O194  1  0.03827452  0.08450289  0.93872815  1
  O2-  O195  1  0.03926032  0.58575030  0.27208756  1
  O2-  O196  1  0.04486355  0.58232439  0.60197806  1
  O2-  O197  1  0.04155508  0.58561529  0.92957751  1
  O2-  O198  1  0.54143132  0.08487296  0.26287589  1
  O2-  O199  1  0.54468828  0.07963880  0.59931827  1
  O2-  O200  1  0.54023785  0.08105561  0.93360960  1
  O2-  O201  1  0.55085266  0.58020668  0.26609372  1
  O2-  O202  1  0.55279063  0.58302036  0.60910912  1
  O2-  O203  1  0.54344127  0.58023656  0.93229030  1
  O2-  O204  1  0.16406389  0.19853487  0.26886229  1
  O2-  O205  1  0.16747153  0.20738834  0.60139646  1
  O2-  O206  1  0.16862421  0.19267596  0.94269710  1
  O2-  O207  1  0.15785651  0.70674327  0.26969806  1
  O2-  O208  1  0.16454951  0.70121483  0.59873503  1
  O2-  O209  1  0.16759868  0.71222625  0.93320340  1
  O2-  O210  1  0.67575186  0.20403051  0.26698261  1
  O2-  O211  1  0.67553377  0.19891728  0.60251864  1
  O2-  O212  1  0.66618629  0.20645075  0.93019073  1
  O2-  O213  1  0.66857948  0.71645011  0.26685306  1
  O2-  O214  1  0.66366606  0.71134173  0.60536382  1
  O2-  O215  1  0.66755214  0.71374100  0.93139146  1
  O2-  O216  1  0.08436442  0.45784637  0.05911937  1
  O2-  O217  1  0.08824032  0.46120256  0.40341504  1
  O2-  O218  1  0.08414076  0.45810909  0.73421858  1
  O2-  O219  1  0.08260978  0.96139219  0.07213761  1
  O2-  O220  1  0.08555955  0.96081669  0.39652620  1
  O2-  O221  1  0.07969397  0.96006339  0.73259208  1
  O2-  O222  1  0.58344558  0.44552084  0.05804425  1
  O2-  O223  1  0.57597622  0.45127373  0.39730709  1
  O2-  O224  1  0.57766889  0.45221666  0.73713047  1
  O2-  O225  1  0.58557396  0.95729528  0.06410510  1
  O2-  O226  1  0.58535391  0.95865559  0.39273987  1
  O2-  O227  1  0.58819552  0.95508145  0.73073054  1
  O2-  O228  1  0.19559834  0.33104462  0.06025283  1
  O2-  O229  1  0.20725920  0.32748400  0.39497089  1
  O2-  O230  1  0.20857745  0.33188194  0.73734464  1
  O2-  O231  1  0.20883342  0.83404617  0.07107876  1
  O2-  O232  1  0.19662918  0.83385039  0.39498851  1
  O2-  O233  1  0.20195921  0.82719234  0.73062263  1
  O2-  O234  1  0.71167588  0.33373594  0.05977207  1
  O2-  O235  1  0.71275409  0.33209708  0.40174978  1
  O2-  O236  1  0.70870924  0.32825972  0.73552018  1
  O2-  O237  1  0.70769805  0.83997569  0.06567091  1
  O2-  O238  1  0.70933923  0.84303931  0.39819538  1
  O2-  O239  1  0.71175911  0.84089672  0.73085327  1
  O2-  O240  1  0.44356344  0.42482516  0.26840808  1
  O2-  O241  1  0.45167065  0.42191440  0.60002604  1
  O2-  O242  1  0.44876141  0.41549535  0.93714867  1
  O2-  O243  1  0.45790024  0.91709630  0.26079175  1
  O2-  O244  1  0.46271515  0.91299887  0.60056353  1
  O2-  O245  1  0.45456504  0.91386793  0.93888040  1
  O2-  O246  1  0.96213851  0.41304427  0.27478173  1
  O2-  O247  1  0.95279572  0.41930854  0.60385565  1
  O2-  O248  1  0.95951946  0.41649839  0.92834619  1
  O2-  O249  1  0.96133529  0.91393321  0.26583613  1
  O2-  O250  1  0.96060578  0.91487160  0.59547441  1
  O2-  O251  1  0.95287275  0.91910404  0.94103945  1
  O2-  O252  1  0.33183880  0.28498402  0.25989631  1
  O2-  O253  1  0.33124240  0.28927499  0.60140736  1
  O2-  O254  1  0.32987368  0.29633165  0.93965580  1
  O2-  O255  1  0.32396188  0.79822094  0.26717520  1
  O2-  O256  1  0.33091357  0.79188383  0.59941263  1
  O2-  O257  1  0.33373039  0.79452556  0.94029313  1
  O2-  O258  1  0.84295820  0.29105309  0.27156745  1
  O2-  O259  1  0.83702684  0.29469646  0.60126324  1
  O2-  O260  1  0.83831757  0.28568643  0.92827158  1
  O2-  O261  1  0.83542408  0.80401633  0.27022677  1
  O2-  O262  1  0.83293653  0.79212822  0.59760866  1
  O2-  O263  1  0.83317173  0.80189381  0.94054667  1
  O2-  O264  1  0.41637765  0.04336047  0.06810968  1
  O2-  O265  1  0.41385005  0.04077634  0.39251417  1
  O2-  O266  1  0.42142649  0.03926653  0.73544094  1
  O2-  O267  1  0.41892835  0.53994375  0.06809868  1
  O2-  O268  1  0.41835015  0.55961247  0.39180982  1
  O2-  O269  1  0.41713966  0.55243562  0.72603723  1
  O2-  O270  1  0.90951374  0.04437481  0.06702243  1
  O2-  O271  1  0.91315241  0.03817919  0.39699839  1
  O2-  O272  1  0.91143895  0.03617135  0.73029258  1
  O2-  O273  1  0.91779907  0.53819776  0.06528872  1
  O2-  O274  1  0.91709118  0.54090660  0.40496247  1
  O2-  O275  1  0.91871036  0.54619924  0.73457356  1
  O2-  O276  1  0.29792807  0.16538391  0.06787693  1
  O2-  O277  1  0.29039462  0.15809921  0.39489595  1
  O2-  O278  1  0.29238212  0.16539905  0.73745558  1
  O2-  O279  1  0.28882157  0.66402702  0.06993712  1
  O2-  O280  1  0.28702644  0.66511218  0.39637193  1
  O2-  O281  1  0.29266882  0.66487497  0.72945084  1
  O2-  O282  1  0.79168762  0.16444022  0.06093925  1
  O2-  O283  1  0.80228242  0.16447853  0.39638997  1
  O2-  O284  1  0.80329063  0.16441751  0.72787547  1
  O2-  O285  1  0.79364489  0.67036908  0.06729684  1
  O2-  O286  1  0.80133964  0.67688404  0.39687782  1
  O2-  O287  1  0.79227961  0.67258893  0.73634832  1
