# generated using pymatgen
data_Ca2Al2SiO7
_symmetry_space_group_name_H-M   'P 1'
_cell_length_a   15.45255479
_cell_length_b   15.45264676
_cell_length_c   15.28017358
_cell_angle_alpha   89.99610782
_cell_angle_beta   89.99663320
_cell_angle_gamma   90.00079916
_symmetry_Int_Tables_number   1
_chemical_formula_structural   Ca2Al2SiO7
_chemical_formula_sum   'Ca48 Al48 Si24 O168'
_cell_volume   3648.64369811
_cell_formula_units_Z   24
loop_
 _symmetry_equiv_pos_site_id
 _symmetry_equiv_pos_as_xyz
  1  'x, y, z'
loop_
 _atom_type_symbol
 _atom_type_oxidation_number
  Ca2+  2.0
  Al0+  0.0
  Si0+  0.0
  O2-  -2.0
loop_
 _atom_site_type_symbol
 _atom_site_label
 _atom_site_symmetry_multiplicity
 _atom_site_fract_x
 _atom_site_fract_y
 _atom_site_fract_z
 _atom_site_occupancy
  Ca2+  Ca0  1  0.17012779  0.08559972  0.17683131  1
  Ca2+  Ca1  1  0.16935048  0.08160648  0.50216971  1
  Ca2+  Ca2  1  0.16370523  0.07454009  0.83276360  1
  Ca2+  Ca3  1  0.16285423  0.58257323  0.16688888  1
  Ca2+  Ca4  1  0.17150632  0.58801432  0.50393132  1
  Ca2+  Ca5  1  0.17691765  0.58560023  0.84267646  1
  Ca2+  Ca6  1  0.67749245  0.08594329  0.17482734  1
  Ca2+  Ca7  1  0.67643956  0.08141572  0.50618808  1
  Ca2+  Ca8  1  0.67746340  0.07676093  0.83351943  1
  Ca2+  Ca9  1  0.67271980  0.57976499  0.17602424  1
  Ca2+  Ca10  1  0.66669950  0.57397047  0.50443911  1
  Ca2+  Ca11  1  0.66080071  0.58174892  0.83424097  1
  Ca2+  Ca12  1  0.07861820  0.32978728  0.15962323  1
  Ca2+  Ca13  1  0.07578524  0.32688222  0.49430870  1
  Ca2+  Ca14  1  0.07112204  0.33891851  0.83156015  1
  Ca2+  Ca15  1  0.07772676  0.82295614  0.16751896  1
  Ca2+  Ca16  1  0.07416601  0.83392120  0.49480656  1
  Ca2+  Ca17  1  0.08161880  0.83059822  0.82620283  1
  Ca2+  Ca18  1  0.58457074  0.33267648  0.17183327  1
  Ca2+  Ca19  1  0.58210184  0.33250449  0.49161616  1
  Ca2+  Ca20  1  0.58514527  0.33337516  0.82630125  1
  Ca2+  Ca21  1  0.58231200  0.82627702  0.16042964  1
  Ca2+  Ca22  1  0.58439634  0.83363542  0.50189473  1
  Ca2+  Ca23  1  0.58005721  0.82154825  0.82105840  1
  Ca2+  Ca24  1  0.32960266  0.41919779  0.16956344  1
  Ca2+  Ca25  1  0.33395890  0.42029986  0.50528169  1
  Ca2+  Ca26  1  0.32672701  0.42986839  0.83990773  1
  Ca2+  Ca27  1  0.33030624  0.92313971  0.17412928  1
  Ca2+  Ca28  1  0.32853916  0.91876213  0.50739555  1
  Ca2+  Ca29  1  0.32866368  0.90765152  0.83074745  1
  Ca2+  Ca30  1  0.83080701  0.42190471  0.17515773  1
  Ca2+  Ca31  1  0.82364696  0.41675301  0.50483366  1
  Ca2+  Ca32  1  0.82986852  0.41014323  0.83555836  1
  Ca2+  Ca33  1  0.83712689  0.92478098  0.17364973  1
  Ca2+  Ca34  1  0.83690014  0.92391027  0.50773659  1
  Ca2+  Ca35  1  0.83771589  0.92467702  0.83339619  1
  Ca2+  Ca36  1  0.41892291  0.17059369  0.17031970  1
  Ca2+  Ca37  1  0.42446463  0.17137756  0.48472765  1
  Ca2+  Ca38  1  0.41939716  0.16996181  0.82824010  1
  Ca2+  Ca39  1  0.42318566  0.66381409  0.15914946  1
  Ca2+  Ca40  1  0.41951868  0.66764997  0.50429593  1
  Ca2+  Ca41  1  0.42252483  0.66295307  0.82549345  1
  Ca2+  Ca42  1  0.91603917  0.16836087  0.16366723  1
  Ca2+  Ca43  1  0.91564479  0.16586317  0.49526124  1
  Ca2+  Ca44  1  0.90737139  0.17408308  0.82947015  1
  Ca2+  Ca45  1  0.92227410  0.66532780  0.16534345  1
  Ca2+  Ca46  1  0.91598761  0.67925056  0.49050196  1
  Ca2+  Ca47  1  0.92612608  0.67047793  0.82564912  1
  Al0+  Al48  1  0.00090954  0.00112907  0.00523456  1
  Al0+  Al49  1  0.00018489  -0.00077559  0.32855167  1
  Al0+  Al50  1  0.00301410  0.00075465  0.67249184  1
  Al0+  Al51  1  -0.00047063  0.49953443  -0.00584449  1
  Al0+  Al52  1  0.00120895  0.50109334  0.33617032  1
  Al0+  Al53  1  -0.00121912  0.49792378  0.65956905  1
  Al0+  Al54  1  0.50029793  -0.00003988  -0.00094871  1
  Al0+  Al55  1  0.49974463  0.00123098  0.33134435  1
  Al0+  Al56  1  0.50132075  -0.00031571  0.66754243  1
  Al0+  Al57  1  0.49900215  0.49911309  0.00052003  1
  Al0+  Al58  1  0.49798373  0.50029618  0.33257677  1
  Al0+  Al59  1  0.50003737  0.49938241  0.67081891  1
  Al0+  Al60  1  0.24950516  0.24944303  0.00031164  1
  Al0+  Al61  1  0.25011780  0.25110688  0.33053014  1
  Al0+  Al62  1  0.24886622  0.25057366  0.66884731  1
  Al0+  Al63  1  0.25019006  0.75097707  0.00338135  1
  Al0+  Al64  1  0.24925995  0.74938684  0.32939923  1
  Al0+  Al65  1  0.25279711  0.75045590  0.67110855  1
  Al0+  Al66  1  0.74969897  0.24844716  0.00126353  1
  Al0+  Al67  1  0.74868961  0.24919356  0.33697941  1
  Al0+  Al68  1  0.74968105  0.25161447  0.66964870  1
  Al0+  Al69  1  0.74845367  0.75020124  -0.00503706  1
  Al0+  Al70  1  0.74951186  0.75132949  0.33123834  1
  Al0+  Al71  1  0.75095247  0.74826802  0.66167311  1
  Al0+  Al72  1  0.93075329  0.82194599  0.65464836  1
  Al0+  Al73  1  0.92656917  0.82162797  0.31696013  1
  Al0+  Al74  1  0.82201415  0.06920428  0.34714243  1
  Al0+  Al75  1  0.67867277  0.43055818  0.34816981  1
  Al0+  Al76  1  0.42829991  0.32340888  0.31758631  1
  Al0+  Al77  1  0.57275388  0.17804609  0.31818964  1
  Al0+  Al78  1  0.18096493  0.93003899  0.67921966  1
  Al0+  Al79  1  0.92882193  0.31911942  0.98748752  1
  Al0+  Al80  1  0.07032243  0.17955539  0.32066028  1
  Al0+  Al81  1  0.17679596  0.42941898  0.01525604  1
  Al0+  Al82  1  0.82365503  0.57318344  0.34854725  1
  Al0+  Al83  1  0.07030088  0.67990094  0.98483637  1
  Al0+  Al84  1  0.81955054  0.07023033  0.01644765  1
  Al0+  Al85  1  0.32080904  0.07211128  0.34621713  1
  Al0+  Al86  1  0.68043264  0.43105415  0.68192396  1
  Al0+  Al87  1  0.57058273  0.67804274  0.98656430  1
  Al0+  Al88  1  0.42871322  0.82169579  0.65072421  1
  Al0+  Al89  1  0.57142615  0.67634383  0.64897632  1
  Al0+  Al90  1  0.31883072  0.56918940  0.67966512  1
  Al0+  Al91  1  0.32120069  0.57145931  0.01807928  1
  Al0+  Al92  1  0.92741571  0.31994873  0.65059548  1
  Al0+  Al93  1  0.82196720  0.07061728  0.68231684  1
  Al0+  Al94  1  0.07213868  0.67758163  0.31847834  1
  Al0+  Al95  1  0.67804080  0.92585063  0.68165831  1
  Si0+  Si96  1  0.07323479  0.17812448  0.65062537  1
  Si0+  Si97  1  0.07428179  0.17654083  0.98208899  1
  Si0+  Si98  1  0.17533496  0.42596100  0.68267647  1
  Si0+  Si99  1  0.56932227  0.67915044  0.31877146  1
  Si0+  Si100  1  0.42791005  0.31970763  0.98330168  1
  Si0+  Si101  1  0.42797871  0.82160067  0.31810826  1
  Si0+  Si102  1  0.42840850  0.82398816  0.98403176  1
  Si0+  Si103  1  0.18014334  0.92744814  0.34902252  1
  Si0+  Si104  1  0.07362171  0.67806117  0.65129669  1
  Si0+  Si105  1  0.17885329  0.42822021  0.34912300  1
  Si0+  Si106  1  0.17926972  0.92944069  0.01788839  1
  Si0+  Si107  1  0.92889410  0.82393034  0.98268423  1
  Si0+  Si108  1  0.32067459  0.57221973  0.34880436  1
  Si0+  Si109  1  0.67604924  0.92691205  0.34854044  1
  Si0+  Si110  1  0.67759304  0.92698656  0.01645711  1
  Si0+  Si111  1  0.32295654  0.07173874  0.01520181  1
  Si0+  Si112  1  0.67875411  0.42820126  0.01529900  1
  Si0+  Si113  1  0.82045308  0.57231852  0.01150195  1
  Si0+  Si114  1  0.82416516  0.57213921  0.68344854  1
  Si0+  Si115  1  0.92751073  0.32151500  0.31816063  1
  Si0+  Si116  1  0.57092294  0.17909561  0.98353562  1
  Si0+  Si117  1  0.42816787  0.31999040  0.65441574  1
  Si0+  Si118  1  0.32335618  0.07438670  0.68317681  1
  Si0+  Si119  1  0.57023900  0.17945402  0.65332945  1
  O2-  O120  1  0.25085250  0.00172516  0.05724648  1
  O2-  O121  1  0.24751627  -0.00283171  0.39364147  1
  O2-  O122  1  0.25700363  0.00371787  0.72785576  1
  O2-  O123  1  0.24783470  0.50089584  0.06833848  1
  O2-  O124  1  0.24894355  0.50131029  0.39018802  1
  O2-  O125  1  0.24075444  0.49779976  0.72597089  1
  O2-  O126  1  0.74688148  -0.00663087  0.06272205  1
  O2-  O127  1  0.74665268  -0.00587245  0.39152972  1
  O2-  O128  1  0.75275499  -0.00491308  0.73212378  1
  O2-  O129  1  0.74850926  0.50180828  0.05441117  1
  O2-  O130  1  0.75189434  0.50089318  0.39846989  1
  O2-  O131  1  0.75510234  0.50491777  0.73031345  1
  O2-  O132  1  -0.00515524  0.25251341  0.27247553  1
  O2-  O133  1  0.00351591  0.24552004  0.60654377  1
  O2-  O134  1  0.00470163  0.24500181  0.93965419  1
  O2-  O135  1  -0.00446138  0.74524350  0.26901712  1
  O2-  O136  1  0.00318194  0.74475089  0.60769473  1
  O2-  O137  1  -0.00354356  0.75488533  0.93754134  1
  O2-  O138  1  0.50101050  0.25113405  0.26813766  1
  O2-  O139  1  0.49482191  0.24597155  0.61187226  1
  O2-  O140  1  0.49938642  0.24932783  0.94011586  1
  O2-  O141  1  0.49991501  0.75170052  0.27588634  1
  O2-  O142  1  0.50278804  0.75249822  0.59946505  1
  O2-  O143  1  0.49536996  0.75314205  0.94175908  1
  O2-  O144  1  0.07567593  0.17667294  0.08763188  1
  O2-  O145  1  0.07132942  0.18146919  0.43380221  1
  O2-  O146  1  0.07682904  0.17981011  0.75626982  1
  O2-  O147  1  0.06767735  0.68077700  0.09754839  1
  O2-  O148  1  0.07786847  0.68290628  0.43186620  1
  O2-  O149  1  0.07280560  0.67890169  0.75729988  1
  O2-  O150  1  0.57035083  0.17929353  0.08811520  1
  O2-  O151  1  0.57079347  0.17774297  0.43199679  1
  O2-  O152  1  0.56866775  0.18182791  0.75932527  1
  O2-  O153  1  0.57081934  0.68008571  0.10043619  1
  O2-  O154  1  0.56699395  0.67775441  0.42319196  1
  O2-  O155  1  0.56646691  0.67444362  0.76280160  1
  O2-  O156  1  0.17846473  0.42740269  0.24432183  1
  O2-  O157  1  0.17880332  0.42222196  0.57695343  1
  O2-  O158  1  0.17968786  0.43034674  0.90145921  1
  O2-  O159  1  0.18384420  0.92718108  0.24294844  1
  O2-  O160  1  0.18097508  0.93248726  0.56632709  1
  O2-  O161  1  0.17912229  0.92940554  0.91266958  1
  O2-  O162  1  0.67913407  0.43349429  0.23368088  1
  O2-  O163  1  0.67882655  0.42959307  0.56949938  1
  O2-  O164  1  0.67882250  0.42631724  0.91015625  1
  O2-  O165  1  0.67473465  0.92673299  0.24240420  1
  O2-  O166  1  0.67652813  0.93212099  0.56812192  1
  O2-  O167  1  0.67648655  0.92880370  0.91140926  1
  O2-  O168  1  0.42761788  0.31845035  0.08789463  1
  O2-  O169  1  0.42820526  0.32301610  0.43178620  1
  O2-  O170  1  0.42869146  0.31803298  0.76005140  1
  O2-  O171  1  0.43094008  0.82758973  0.09015653  1
  O2-  O172  1  0.42556226  0.82114870  0.42254929  1
  O2-  O173  1  0.42746009  0.81858708  0.76455293  1
  O2-  O174  1  0.92779098  0.31792932  0.10057817  1
  O2-  O175  1  0.92970673  0.32004719  0.42371367  1
  O2-  O176  1  0.92818082  0.31950677  0.76407764  1
  O2-  O177  1  0.92964471  0.82357163  0.08802636  1
  O2-  O178  1  0.93028357  0.82406882  0.43056338  1
  O2-  O179  1  0.93479590  0.82086969  0.76826084  1
  O2-  O180  1  0.31943556  0.06872679  0.23245665  1
  O2-  O181  1  0.32103977  0.07793902  0.57800970  1
  O2-  O182  1  0.32437524  0.07218817  0.91001839  1
  O2-  O183  1  0.32234121  0.57248703  0.24407838  1
  O2-  O184  1  0.31819763  0.56680969  0.56594630  1
  O2-  O185  1  0.32171312  0.56928501  0.90451128  1
  O2-  O186  1  0.82049470  0.06927255  0.23362045  1
  O2-  O187  1  0.82112375  0.07112726  0.56887066  1
  O2-  O188  1  0.81737403  0.07110977  0.90365264  1
  O2-  O189  1  0.82133444  0.57065900  0.23363941  1
  O2-  O190  1  0.82408141  0.56904666  0.57827730  1
  O2-  O191  1  0.81977628  0.57248540  0.90657783  1
  O2-  O192  1  0.04419577  0.08299216  0.26463040  1
  O2-  O193  1  0.04983877  0.08393266  0.60624474  1
  O2-  O194  1  0.04816411  0.08196297  0.93798598  1
  O2-  O195  1  0.04780057  0.57733878  0.26674368  1
  O2-  O196  1  0.05257764  0.58333833  0.60550134  1
  O2-  O197  1  0.04060936  0.58424284  0.92901275  1
  O2-  O198  1  0.54257905  0.08072602  0.26252681  1
  O2-  O199  1  0.54735445  0.08678590  0.60674926  1
  O2-  O200  1  0.54255577  0.08700601  0.93612964  1
  O2-  O201  1  0.53866823  0.58909636  0.26961453  1
  O2-  O202  1  0.53549077  0.57897572  0.59745886  1
  O2-  O203  1  0.54035602  0.58054930  0.93361653  1
  O2-  O204  1  0.16572126  0.21143281  0.26494356  1
  O2-  O205  1  0.16688062  0.20531582  0.60371425  1
  O2-  O206  1  0.16835750  0.19983047  0.93508967  1
  O2-  O207  1  0.16862648  0.70984962  0.26182167  1
  O2-  O208  1  0.16716293  0.70548492  0.60749917  1
  O2-  O209  1  0.16852572  0.71215956  0.93434467  1
  O2-  O210  1  0.67033963  0.20881396  0.26403361  1
  O2-  O211  1  0.66022193  0.21201824  0.60689690  1
  O2-  O212  1  0.66143245  0.20926455  0.93561629  1
  O2-  O213  1  0.66114215  0.70515660  0.27040328  1
  O2-  O214  1  0.67132649  0.69833043  0.59721286  1
  O2-  O215  1  0.66656760  0.70720571  0.93006384  1
  O2-  O216  1  0.07718720  0.45693413  0.06628271  1
  O2-  O217  1  0.08758707  0.45410107  0.39865365  1
  O2-  O218  1  0.07982071  0.44901404  0.72518319  1
  O2-  O219  1  0.08841963  0.95738927  0.06661865  1
  O2-  O220  1  0.08604514  0.95318887  0.39220383  1
  O2-  O221  1  0.08809382  0.96266661  0.73962791  1
  O2-  O222  1  0.58632500  0.45386559  0.06178096  1
  O2-  O223  1  0.57952193  0.46031788  0.39950153  1
  O2-  O224  1  0.58390212  0.45977597  0.73793275  1
  O2-  O225  1  0.58354029  0.95371057  0.06239803  1
  O2-  O226  1  0.58250413  0.95289978  0.39411317  1
  O2-  O227  1  0.58019053  0.95664081  0.73638961  1
  O2-  O228  1  0.20566010  0.32943652  0.06604434  1
  O2-  O229  1  0.20932461  0.33794049  0.39775933  1
  O2-  O230  1  0.20319853  0.33408421  0.73178794  1
  O2-  O231  1  0.20815287  0.83909826  0.06710322  1
  O2-  O232  1  0.20843709  0.83459672  0.39480047  1
  O2-  O233  1  0.21175504  0.83491112  0.73676873  1
  O2-  O234  1  0.70816091  0.33728076  0.06302939  1
  O2-  O235  1  0.70364255  0.33149022  0.40057282  1
  O2-  O236  1  0.71096952  0.33507787  0.73802731  1
  O2-  O237  1  0.70105315  0.83195021  0.06145969  1
  O2-  O238  1  0.69803614  0.83258418  0.39380832  1
  O2-  O239  1  0.70206725  0.82471915  0.73069771  1
  O2-  O240  1  0.45654098  0.42130312  0.26270223  1
  O2-  O241  1  0.45882649  0.41028748  0.60741730  1
  O2-  O242  1  0.45658670  0.41138067  0.93647892  1
  O2-  O243  1  0.45469056  0.91306683  0.26907122  1
  O2-  O244  1  0.45262777  0.92269560  0.60002108  1
  O2-  O245  1  0.45332021  0.91723722  0.93605674  1
  O2-  O246  1  0.95457655  0.41547632  0.27396417  1
  O2-  O247  1  0.95688151  0.41578614  0.59397589  1
  O2-  O248  1  0.95715238  0.41479445  0.93009540  1
  O2-  O249  1  0.96105348  0.91665260  0.26076994  1
  O2-  O250  1  0.96514009  0.91869563  0.60307078  1
  O2-  O251  1  0.95811699  0.91775867  0.93869893  1
  O2-  O252  1  0.33159063  0.29282742  0.26287626  1
  O2-  O253  1  0.33441240  0.29691262  0.60813262  1
  O2-  O254  1  0.33668697  0.29036949  0.93487796  1
  O2-  O255  1  0.33763418  0.79269161  0.26811309  1
  O2-  O256  1  0.33072241  0.79035081  0.59790230  1
  O2-  O257  1  0.33331201  0.80058843  0.94114308  1
  O2-  O258  1  0.83324079  0.29769981  0.27353507  1
  O2-  O259  1  0.83053144  0.28855028  0.59821523  1
  O2-  O260  1  0.83228485  0.28595549  0.93308229  1
  O2-  O261  1  0.82698891  0.79793779  0.26287052  1
  O2-  O262  1  0.83411258  0.79541746  0.59970259  1
  O2-  O263  1  0.83416486  0.80104286  0.93814523  1
  O2-  O264  1  0.41470156  0.04316997  0.06301460  1
  O2-  O265  1  0.41796493  0.04226321  0.39895945  1
  O2-  O266  1  0.41752731  0.05203878  0.72918079  1
  O2-  O267  1  0.41931320  0.53893767  0.07036264  1
  O2-  O268  1  0.41154558  0.54367368  0.39708284  1
  O2-  O269  1  0.41270466  0.53362964  0.73548170  1
  O2-  O270  1  0.91818179  0.04365568  0.06887817  1
  O2-  O271  1  0.91979923  0.03925054  0.39916296  1
  O2-  O272  1  0.92100809  0.04677379  0.73635474  1
  O2-  O273  1  0.91163926  0.54274383  0.05824917  1
  O2-  O274  1  0.92295136  0.54917820  0.40152209  1
  O2-  O275  1  0.91876723  0.54488463  0.72791294  1
  O2-  O276  1  0.29612981  0.16366926  0.06230054  1
  O2-  O277  1  0.29071853  0.16908979  0.39939849  1
  O2-  O278  1  0.29497306  0.16677557  0.73250263  1
  O2-  O279  1  0.29709254  0.67179450  0.06932399  1
  O2-  O280  1  0.29215427  0.66438222  0.39543950  1
  O2-  O281  1  0.29274734  0.66562986  0.73559603  1
  O2-  O282  1  0.78474758  0.16574460  0.07036305  1
  O2-  O283  1  0.79204890  0.16575414  0.40096018  1
  O2-  O284  1  0.78655368  0.16685351  0.73576928  1
  O2-  O285  1  0.79333523  0.66468881  0.05896226  1
  O2-  O286  1  0.79420342  0.67248550  0.39821123  1
  O2-  O287  1  0.80191488  0.66670249  0.72826818  1
