# generated using pymatgen
data_Ca2Al2SiO7
_symmetry_space_group_name_H-M   'P 1'
_cell_length_a   15.45743382
_cell_length_b   15.45755854
_cell_length_c   15.28303046
_cell_angle_alpha   90.00807569
_cell_angle_beta   89.99614459
_cell_angle_gamma   89.99118615
_symmetry_Int_Tables_number   1
_chemical_formula_structural   Ca2Al2SiO7
_chemical_formula_sum   'Ca48 Al48 Si24 O168'
_cell_volume   3651.63838710
_cell_formula_units_Z   24
loop_
 _symmetry_equiv_pos_site_id
 _symmetry_equiv_pos_as_xyz
  1  'x, y, z'
loop_
 _atom_type_symbol
 _atom_type_oxidation_number
  Ca2+  2.0
  Al0+  0.0
  Si0+  0.0
  O2-  -2.0
loop_
 _atom_site_type_symbol
 _atom_site_label
 _atom_site_symmetry_multiplicity
 _atom_site_fract_x
 _atom_site_fract_y
 _atom_site_fract_z
 _atom_site_occupancy
  Ca2+  Ca0  1  0.17676244  0.08470492  0.17208277  1
  Ca2+  Ca1  1  0.17150932  0.07487937  0.50654805  1
  Ca2+  Ca2  1  0.16578691  0.07964270  0.83627932  1
  Ca2+  Ca3  1  0.17446268  0.57632434  0.17064836  1
  Ca2+  Ca4  1  0.16359004  0.57776256  0.50386316  1
  Ca2+  Ca5  1  0.17132834  0.58562301  0.83662919  1
  Ca2+  Ca6  1  0.66851284  0.08446731  0.16928286  1
  Ca2+  Ca7  1  0.67319902  0.08250052  0.51426420  1
  Ca2+  Ca8  1  0.66636824  0.08274377  0.82695134  1
  Ca2+  Ca9  1  0.66973106  0.57441357  0.17357392  1
  Ca2+  Ca10  1  0.66677178  0.57290276  0.51186113  1
  Ca2+  Ca11  1  0.66745237  0.58579250  0.82976539  1
  Ca2+  Ca12  1  0.07678651  0.33337193  0.15981353  1
  Ca2+  Ca13  1  0.07838559  0.32817877  0.49333653  1
  Ca2+  Ca14  1  0.08246057  0.31896742  0.82936077  1
  Ca2+  Ca15  1  0.08904851  0.83531559  0.16772166  1
  Ca2+  Ca16  1  0.08578092  0.83358561  0.50282325  1
  Ca2+  Ca17  1  0.08152704  0.82800906  0.81783836  1
  Ca2+  Ca18  1  0.57350543  0.33566348  0.16636277  1
  Ca2+  Ca19  1  0.58548450  0.33166338  0.49574571  1
  Ca2+  Ca20  1  0.57821038  0.33132682  0.82699107  1
  Ca2+  Ca21  1  0.56851593  0.83420048  0.16159605  1
  Ca2+  Ca22  1  0.57572641  0.83666874  0.49876551  1
  Ca2+  Ca23  1  0.57180932  0.83208231  0.82101078  1
  Ca2+  Ca24  1  0.33407777  0.41789663  0.17400229  1
  Ca2+  Ca25  1  0.32840865  0.41081892  0.50069651  1
  Ca2+  Ca26  1  0.33618234  0.42451176  0.84220256  1
  Ca2+  Ca27  1  0.33421398  0.92753805  0.17427597  1
  Ca2+  Ca28  1  0.32915826  0.91450191  0.50275895  1
  Ca2+  Ca29  1  0.33242017  0.91774826  0.83856100  1
  Ca2+  Ca30  1  0.83083511  0.40975888  0.17533525  1
  Ca2+  Ca31  1  0.82394789  0.41654013  0.50874392  1
  Ca2+  Ca32  1  0.82951529  0.41617570  0.83205626  1
  Ca2+  Ca33  1  0.83073594  0.92071736  0.17108962  1
  Ca2+  Ca34  1  0.82775118  0.92150797  0.51657462  1
  Ca2+  Ca35  1  0.83228332  0.91695722  0.82793089  1
  Ca2+  Ca36  1  0.40544070  0.17572830  0.16343875  1
  Ca2+  Ca37  1  0.42383093  0.16695211  0.49566861  1
  Ca2+  Ca38  1  0.41744557  0.17074010  0.83042721  1
  Ca2+  Ca39  1  0.40900411  0.67765635  0.16169867  1
  Ca2+  Ca40  1  0.41978945  0.67882095  0.50085375  1
  Ca2+  Ca41  1  0.41621945  0.67669826  0.82504981  1
  Ca2+  Ca42  1  0.92532761  0.17921780  0.15933368  1
  Ca2+  Ca43  1  0.92157303  0.16430547  0.49840421  1
  Ca2+  Ca44  1  0.92604745  0.16488189  0.82699671  1
  Ca2+  Ca45  1  0.92110063  0.66729240  0.16349966  1
  Ca2+  Ca46  1  0.91444087  0.66735481  0.50527178  1
  Ca2+  Ca47  1  0.92206244  0.67080833  0.81979303  1
  Al0+  Al48  1  -0.00255635  -0.00063287  -0.00004898  1
  Al0+  Al49  1  0.00125800  -0.00101157  0.33361745  1
  Al0+  Al50  1  0.00208105  -0.00035581  0.66657975  1
  Al0+  Al51  1  -0.00199948  0.50118954  -0.00383315  1
  Al0+  Al52  1  0.00126584  0.50146931  0.33204911  1
  Al0+  Al53  1  -0.00038264  0.49853408  0.66836135  1
  Al0+  Al54  1  0.49859309  -0.00050832  0.00122415  1
  Al0+  Al55  1  0.50173425  -0.00068783  0.33102947  1
  Al0+  Al56  1  0.49945110  0.00470475  0.66213225  1
  Al0+  Al57  1  0.50158022  0.50106431  0.00274796  1
  Al0+  Al58  1  0.50246869  0.49966811  0.33437046  1
  Al0+  Al59  1  0.49689496  0.50173208  0.66721201  1
  Al0+  Al60  1  0.24894871  0.24941671  -0.00549522  1
  Al0+  Al61  1  0.25237260  0.24961758  0.33914084  1
  Al0+  Al62  1  0.24775187  0.24925437  0.66314720  1
  Al0+  Al63  1  0.24946877  0.74929246  0.00118719  1
  Al0+  Al64  1  0.25017433  0.75023781  0.33134896  1
  Al0+  Al65  1  0.24876291  0.74926462  0.66148415  1
  Al0+  Al66  1  0.74955673  0.24983371  -0.00178534  1
  Al0+  Al67  1  0.75119151  0.24998940  0.33270138  1
  Al0+  Al68  1  0.74860478  0.25028716  0.67391451  1
  Al0+  Al69  1  0.74975819  0.74859457  0.00457481  1
  Al0+  Al70  1  0.75158275  0.74956147  0.33028077  1
  Al0+  Al71  1  0.74884087  0.74835516  0.66775647  1
  Al0+  Al72  1  0.07112309  0.17809995  0.98515051  1
  Al0+  Al73  1  0.32191562  0.57133129  0.01367712  1
  Al0+  Al74  1  0.18243139  0.92876605  0.68077088  1
  Al0+  Al75  1  0.82125733  0.57027794  0.68248718  1
  Al0+  Al76  1  0.67549756  0.42868307  0.68460948  1
  Al0+  Al77  1  0.82294593  0.07109879  0.68277948  1
  Al0+  Al78  1  0.42953273  0.82027560  0.31684963  1
  Al0+  Al79  1  0.92891956  0.82063851  0.65231596  1
  Al0+  Al80  1  0.92673992  0.32301809  0.98231271  1
  Al0+  Al81  1  0.07169067  0.67601144  0.65024074  1
  Al0+  Al82  1  0.42861970  0.82054232  0.98622484  1
  Al0+  Al83  1  0.68053295  0.42932701  0.34699194  1
  Al0+  Al84  1  0.67574967  0.92846804  0.68063552  1
  Al0+  Al85  1  0.17893256  0.42933904  0.34591924  1
  Al0+  Al86  1  0.42951634  0.32046131  0.32092812  1
  Al0+  Al87  1  0.57076745  0.18259315  0.65425410  1
  Al0+  Al88  1  0.93025146  0.32072570  0.32195289  1
  Al0+  Al89  1  0.57093303  0.67788910  0.65224364  1
  Al0+  Al90  1  0.07128947  0.17767583  0.65001271  1
  Al0+  Al91  1  0.42938456  0.32243651  0.98765660  1
  Al0+  Al92  1  0.32381678  0.07213740  0.35058404  1
  Al0+  Al93  1  0.32039101  0.07105695  0.01254592  1
  Al0+  Al94  1  0.17902248  0.92838719  0.34972567  1
  Al0+  Al95  1  0.42838388  0.82382834  0.65103749  1
  Si0+  Si96  1  0.57236666  0.17711051  0.98374683  1
  Si0+  Si97  1  0.31809216  0.57002876  0.68026107  1
  Si0+  Si98  1  0.92806502  0.82191959  0.31688942  1
  Si0+  Si99  1  0.57386606  0.67793094  0.31524334  1
  Si0+  Si100  1  0.67930680  0.92822072  0.01602861  1
  Si0+  Si101  1  0.06992430  0.68086256  0.98632622  1
  Si0+  Si102  1  0.07100035  0.67881686  0.31590386  1
  Si0+  Si103  1  0.07242592  0.17692334  0.31732456  1
  Si0+  Si104  1  0.17797647  0.42645236  0.68268251  1
  Si0+  Si105  1  0.68079223  0.92786017  0.34613238  1
  Si0+  Si106  1  0.17783283  0.42902627  0.01406602  1
  Si0+  Si107  1  0.92618091  0.82040364  0.98652552  1
  Si0+  Si108  1  0.82157140  0.57121670  0.01713201  1
  Si0+  Si109  1  0.17573356  0.92736494  0.01586229  1
  Si0+  Si110  1  0.82042424  0.07019492  0.34619318  1
  Si0+  Si111  1  0.82144397  0.07112321  0.01686825  1
  Si0+  Si112  1  0.32185981  0.07433224  0.68416494  1
  Si0+  Si113  1  0.42665407  0.32383637  0.65038715  1
  Si0+  Si114  1  0.67979066  0.42755576  0.01732704  1
  Si0+  Si115  1  0.92830374  0.32038441  0.65079799  1
  Si0+  Si116  1  0.82354407  0.57381461  0.34967633  1
  Si0+  Si117  1  0.57351285  0.17790327  0.31593169  1
  Si0+  Si118  1  0.32273147  0.57231565  0.35065053  1
  Si0+  Si119  1  0.57376147  0.67874785  0.98476050  1
  O2-  O120  1  0.24364754  -0.00272073  0.05879325  1
  O2-  O121  1  0.25178603  -0.00047426  0.39922671  1
  O2-  O122  1  0.25712896  0.00222406  0.72886962  1
  O2-  O123  1  0.24974204  0.49361536  0.06006783  1
  O2-  O124  1  0.25614204  0.50118522  0.39429557  1
  O2-  O125  1  0.24859287  0.49801153  0.72404296  1
  O2-  O126  1  0.74952505  0.00042439  0.05921281  1
  O2-  O127  1  0.75133814  -0.00180962  0.38842027  1
  O2-  O128  1  0.75054869  -0.00226594  0.73167713  1
  O2-  O129  1  0.75393942  0.49678636  0.05891501  1
  O2-  O130  1  0.75511504  0.50463187  0.39188804  1
  O2-  O131  1  0.74748311  0.50108989  0.73474556  1
  O2-  O132  1  0.00722944  0.24923142  0.27314199  1
  O2-  O133  1  -0.00522238  0.25099589  0.60453934  1
  O2-  O134  1  -0.00160672  0.24975226  0.93484261  1
  O2-  O135  1  0.00023046  0.75164492  0.27460523  1
  O2-  O136  1  -0.00123438  0.74732144  0.60049662  1
  O2-  O137  1  0.00084904  0.75373251  0.94548175  1
  O2-  O138  1  0.50175920  0.24372976  0.27237259  1
  O2-  O139  1  0.49835807  0.25846544  0.60674312  1
  O2-  O140  1  0.50300233  0.24643088  0.94200990  1
  O2-  O141  1  0.50405334  0.74473349  0.26966424  1
  O2-  O142  1  0.50521501  0.75553621  0.60215506  1
  O2-  O143  1  0.50307986  0.74517192  0.94131245  1
  O2-  O144  1  0.06953060  0.17932385  0.09930716  1
  O2-  O145  1  0.06764529  0.17553993  0.42261187  1
  O2-  O146  1  0.07342772  0.18004128  0.76305278  1
  O2-  O147  1  0.06816606  0.67978395  0.09190912  1
  O2-  O148  1  0.07020768  0.67586456  0.42009403  1
  O2-  O149  1  0.07318404  0.67796314  0.76457756  1
  O2-  O150  1  0.57610257  0.17793821  0.08959978  1
  O2-  O151  1  0.57702151  0.17929324  0.42109310  1
  O2-  O152  1  0.56697052  0.18246850  0.76762428  1
  O2-  O153  1  0.57702319  0.68180300  0.09067960  1
  O2-  O154  1  0.57599116  0.68059631  0.42008134  1
  O2-  O155  1  0.56422782  0.67666951  0.76627250  1
  O2-  O156  1  0.17737656  0.43282479  0.23248512  1
  O2-  O157  1  0.17883064  0.42598134  0.57737780  1
  O2-  O158  1  0.17794855  0.43299283  0.90845792  1
  O2-  O159  1  0.17791723  0.93026179  0.23537615  1
  O2-  O160  1  0.18345000  0.92937615  0.56803430  1
  O2-  O161  1  0.17526284  0.92515821  0.91060883  1
  O2-  O162  1  0.68207219  0.43012304  0.23315675  1
  O2-  O163  1  0.67771172  0.42795091  0.57080793  1
  O2-  O164  1  0.67803752  0.42869234  0.91296864  1
  O2-  O165  1  0.68344910  0.92875389  0.24019550  1
  O2-  O166  1  0.67708194  0.93285522  0.56638758  1
  O2-  O167  1  0.68083903  0.92576242  0.91185089  1
  O2-  O168  1  0.43093228  0.32297031  0.10092411  1
  O2-  O169  1  0.43233810  0.32135552  0.43357670  1
  O2-  O170  1  0.42533272  0.32315358  0.75635365  1
  O2-  O171  1  0.42991824  0.82041502  0.09962947  1
  O2-  O172  1  0.43138743  0.81961543  0.42923846  1
  O2-  O173  1  0.42645480  0.82051416  0.76499253  1
  O2-  O174  1  0.92790813  0.32231890  0.09670283  1
  O2-  O175  1  0.92909951  0.31786885  0.43446810  1
  O2-  O176  1  0.93234204  0.32010767  0.75638062  1
  O2-  O177  1  0.92441178  0.81865944  0.09234381  1
  O2-  O178  1  0.92311465  0.82219776  0.42067348  1
  O2-  O179  1  0.93268962  0.81957845  0.76677492  1
  O2-  O180  1  0.32117414  0.07245601  0.23631487  1
  O2-  O181  1  0.31962482  0.07669741  0.57882741  1
  O2-  O182  1  0.32271595  0.06851929  0.89992228  1
  O2-  O183  1  0.31952518  0.57249810  0.24449238  1
  O2-  O184  1  0.31763428  0.56809167  0.57511492  1
  O2-  O185  1  0.31864315  0.57234361  0.90053896  1
  O2-  O186  1  0.81915761  0.06867536  0.24037794  1
  O2-  O187  1  0.82088893  0.07144688  0.56829715  1
  O2-  O188  1  0.82355612  0.06947197  0.91271270  1
  O2-  O189  1  0.82247773  0.57540963  0.24324114  1
  O2-  O190  1  0.82301095  0.56500523  0.56866260  1
  O2-  O191  1  0.82079479  0.57627705  0.91320282  1
  O2-  O192  1  0.04338891  0.08472493  0.26934675  1
  O2-  O193  1  0.04138599  0.08172543  0.59622916  1
  O2-  O194  1  0.04068789  0.07885291  0.93419661  1
  O2-  O195  1  0.04098956  0.58919355  0.26458584  1
  O2-  O196  1  0.04388815  0.57655149  0.59883552  1
  O2-  O197  1  0.04156345  0.59017324  0.93791242  1
  O2-  O198  1  0.55285717  0.08315863  0.26967212  1
  O2-  O199  1  0.54118906  0.08810420  0.59589528  1
  O2-  O200  1  0.54649821  0.08350460  0.93905312  1
  O2-  O201  1  0.55003729  0.58355766  0.26986644  1
  O2-  O202  1  0.53576031  0.58187901  0.59747925  1
  O2-  O203  1  0.55197940  0.58385352  0.94153259  1
  O2-  O204  1  0.16804249  0.20035209  0.27598008  1
  O2-  O205  1  0.16617648  0.21163798  0.59466233  1
  O2-  O206  1  0.16767565  0.20573776  0.92872183  1
  O2-  O207  1  0.16219257  0.70658012  0.26679763  1
  O2-  O208  1  0.16803834  0.70486995  0.59468086  1
  O2-  O209  1  0.16181132  0.70659934  0.93894082  1
  O2-  O210  1  0.66557137  0.20694311  0.26726563  1
  O2-  O211  1  0.66907820  0.21036320  0.60172043  1
  O2-  O212  1  0.66543559  0.20246889  0.93721902  1
  O2-  O213  1  0.66759272  0.70406367  0.26716206  1
  O2-  O214  1  0.67212076  0.69541967  0.60213109  1
  O2-  O215  1  0.66722531  0.70639943  0.93922516  1
  O2-  O216  1  0.08460733  0.45955422  0.05976005  1
  O2-  O217  1  0.08355988  0.46365530  0.40053717  1
  O2-  O218  1  0.08684793  0.45304903  0.73087860  1
  O2-  O219  1  0.08049687  0.94962961  0.06195703  1
  O2-  O220  1  0.07894753  0.95464798  0.40072067  1
  O2-  O221  1  0.08589106  0.95925570  0.73441493  1
  O2-  O222  1  0.58972263  0.45882062  0.06687258  1
  O2-  O223  1  0.58417629  0.45883922  0.40144228  1
  O2-  O224  1  0.57582652  0.45738015  0.73569653  1
  O2-  O225  1  0.58813289  0.95687478  0.06464691  1
  O2-  O226  1  0.58860249  0.95342441  0.39160644  1
  O2-  O227  1  0.57858912  0.96286216  0.73356356  1
  O2-  O228  1  0.19854338  0.33371890  0.05736266  1
  O2-  O229  1  0.20647244  0.33331584  0.40173523  1
  O2-  O230  1  0.20759461  0.33516472  0.73010205  1
  O2-  O231  1  0.20180841  0.83407531  0.06277173  1
  O2-  O232  1  0.20534995  0.82812076  0.39895095  1
  O2-  O233  1  0.21010257  0.82998687  0.73288322  1
  O2-  O234  1  0.70536099  0.33459418  0.06439743  1
  O2-  O235  1  0.71192720  0.33234552  0.39959122  1
  O2-  O236  1  0.70446791  0.33192994  0.73999946  1
  O2-  O237  1  0.70960340  0.83783412  0.06657767  1
  O2-  O238  1  0.70857178  0.83551595  0.39142888  1
  O2-  O239  1  0.69936428  0.82893059  0.73275394  1
  O2-  O240  1  0.46161550  0.41749210  0.26665186  1
  O2-  O241  1  0.44682670  0.41841878  0.60535675  1
  O2-  O242  1  0.46190872  0.41920129  0.93444460  1
  O2-  O243  1  0.46348656  0.91648056  0.26240495  1
  O2-  O244  1  0.45205702  0.92324390  0.59904547  1
  O2-  O245  1  0.46091666  0.91676930  0.93358022  1
  O2-  O246  1  0.95725530  0.41886989  0.26760092  1
  O2-  O247  1  0.95563774  0.41311103  0.60485873  1
  O2-  O248  1  0.95262218  0.42249445  0.93084226  1
  O2-  O249  1  0.95575152  0.91365396  0.26759380  1
  O2-  O250  1  0.95841952  0.91808661  0.59929273  1
  O2-  O251  1  0.94729535  0.91407106  0.94148620  1
  O2-  O252  1  0.33117325  0.29266627  0.26746501  1
  O2-  O253  1  0.33436370  0.29477546  0.60379873  1
  O2-  O254  1  0.33288889  0.29561468  0.93239840  1
  O2-  O255  1  0.33263208  0.78905222  0.26285854  1
  O2-  O256  1  0.33378844  0.78692545  0.59662873  1
  O2-  O257  1  0.33125376  0.78968908  0.93437923  1
  O2-  O258  1  0.83535452  0.28629690  0.26524891  1
  O2-  O259  1  0.83270551  0.29721007  0.60925871  1
  O2-  O260  1  0.82767495  0.29501829  0.93203972  1
  O2-  O261  1  0.83765826  0.79277647  0.26509419  1
  O2-  O262  1  0.82929635  0.79510065  0.60077733  1
  O2-  O263  1  0.83559848  0.78832847  0.94030094  1
  O2-  O264  1  0.41686178  0.04073177  0.06858187  1
  O2-  O265  1  0.42417307  0.04366999  0.39933334  1
  O2-  O266  1  0.41720302  0.05408013  0.72756960  1
  O2-  O267  1  0.41969416  0.54555800  0.06839476  1
  O2-  O268  1  0.41772811  0.55024502  0.39389237  1
  O2-  O269  1  0.40888341  0.54405020  0.73020610  1
  O2-  O270  1  0.91166608  0.04131107  0.06752999  1
  O2-  O271  1  0.91294583  0.04392605  0.39165224  1
  O2-  O272  1  0.92057819  0.04117798  0.73586791  1
  O2-  O273  1  0.91505327  0.54684717  0.06426554  1
  O2-  O274  1  0.91781870  0.55083792  0.39339183  1
  O2-  O275  1  0.91974473  0.54064735  0.73672343  1
  O2-  O276  1  0.28910584  0.16895674  0.06535684  1
  O2-  O277  1  0.29895582  0.17015650  0.40476206  1
  O2-  O278  1  0.29157955  0.16711745  0.73031251  1
  O2-  O279  1  0.28538412  0.66565347  0.07003127  1
  O2-  O280  1  0.29293744  0.66451490  0.39575152  1
  O2-  O281  1  0.28805832  0.66099274  0.72769743  1
  O2-  O282  1  0.79246166  0.16319059  0.06422360  1
  O2-  O283  1  0.79187048  0.16087271  0.39384480  1
  O2-  O284  1  0.79292707  0.16749230  0.73818481  1
  O2-  O285  1  0.79141224  0.66136942  0.06893701  1
  O2-  O286  1  0.79811084  0.66813475  0.39421472  1
  O2-  O287  1  0.79686391  0.66956309  0.73594481  1
