# generated using pymatgen
data_Ca2Al2SiO7
_symmetry_space_group_name_H-M   'P 1'
_cell_length_a   15.46498653
_cell_length_b   15.46752710
_cell_length_c   15.28988050
_cell_angle_alpha   89.99060706
_cell_angle_beta   89.99763748
_cell_angle_gamma   89.98206505
_symmetry_Int_Tables_number   1
_chemical_formula_structural   Ca2Al2SiO7
_chemical_formula_sum   'Ca48 Al48 Si24 O168'
_cell_volume   3657.41713622
_cell_formula_units_Z   24
loop_
 _symmetry_equiv_pos_site_id
 _symmetry_equiv_pos_as_xyz
  1  'x, y, z'
loop_
 _atom_type_symbol
 _atom_type_oxidation_number
  Ca2+  2.0
  Al0+  0.0
  Si0+  0.0
  O2-  -2.0
loop_
 _atom_site_type_symbol
 _atom_site_label
 _atom_site_symmetry_multiplicity
 _atom_site_fract_x
 _atom_site_fract_y
 _atom_site_fract_z
 _atom_site_occupancy
  Ca2+  Ca0  1  0.17584876  0.09576146  0.16862355  1
  Ca2+  Ca1  1  0.16967747  0.09319259  0.50069038  1
  Ca2+  Ca2  1  0.16932681  0.09130867  0.84112174  1
  Ca2+  Ca3  1  0.17211010  0.57960384  0.16597236  1
  Ca2+  Ca4  1  0.17509990  0.58591197  0.50569260  1
  Ca2+  Ca5  1  0.16941257  0.57877405  0.84337982  1
  Ca2+  Ca6  1  0.67337501  0.08095423  0.16317789  1
  Ca2+  Ca7  1  0.66309419  0.08346223  0.50729695  1
  Ca2+  Ca8  1  0.67041175  0.08163763  0.84425815  1
  Ca2+  Ca9  1  0.66758994  0.57607834  0.16490755  1
  Ca2+  Ca10  1  0.67227788  0.57825053  0.51348282  1
  Ca2+  Ca11  1  0.66984833  0.57421729  0.83382350  1
  Ca2+  Ca12  1  0.08222401  0.32580412  0.15558221  1
  Ca2+  Ca13  1  0.07943613  0.32540239  0.50017204  1
  Ca2+  Ca14  1  0.07680880  0.32827282  0.83173294  1
  Ca2+  Ca15  1  0.08002646  0.82650042  0.15606840  1
  Ca2+  Ca16  1  0.08548037  0.82616842  0.50027253  1
  Ca2+  Ca17  1  0.08099973  0.82169892  0.83444612  1
  Ca2+  Ca18  1  0.57129049  0.33794858  0.15985303  1
  Ca2+  Ca19  1  0.57652706  0.33510544  0.50206541  1
  Ca2+  Ca20  1  0.57418160  0.33978444  0.82787220  1
  Ca2+  Ca21  1  0.57863024  0.83487321  0.16261545  1
  Ca2+  Ca22  1  0.57882544  0.82495961  0.49646771  1
  Ca2+  Ca23  1  0.58641960  0.82845203  0.82986793  1
  Ca2+  Ca24  1  0.33153189  0.42084999  0.16685095  1
  Ca2+  Ca25  1  0.33796228  0.41542753  0.50107606  1
  Ca2+  Ca26  1  0.32863113  0.41666203  0.84511228  1
  Ca2+  Ca27  1  0.33473376  0.92995321  0.17281074  1
  Ca2+  Ca28  1  0.33709812  0.92196319  0.49929887  1
  Ca2+  Ca29  1  0.33079972  0.92766452  0.84211433  1
  Ca2+  Ca30  1  0.82615372  0.40430247  0.16358576  1
  Ca2+  Ca31  1  0.82672828  0.41928859  0.51504166  1
  Ca2+  Ca32  1  0.82532807  0.40758325  0.83759964  1
  Ca2+  Ca33  1  0.83531939  0.91800678  0.16195798  1
  Ca2+  Ca34  1  0.83236625  0.91997567  0.50568237  1
  Ca2+  Ca35  1  0.82855231  0.92258215  0.84594388  1
  Ca2+  Ca36  1  0.40906871  0.17608976  0.16095363  1
  Ca2+  Ca37  1  0.41822096  0.17858581  0.49657839  1
  Ca2+  Ca38  1  0.41957747  0.17770315  0.82936114  1
  Ca2+  Ca39  1  0.40715611  0.66942181  0.16275710  1
  Ca2+  Ca40  1  0.42299888  0.66735440  0.49262850  1
  Ca2+  Ca41  1  0.42353681  0.66269089  0.82910711  1
  Ca2+  Ca42  1  0.92895323  0.16691257  0.15498166  1
  Ca2+  Ca43  1  0.92492673  0.17100965  0.49796046  1
  Ca2+  Ca44  1  0.92161344  0.17325892  0.83120663  1
  Ca2+  Ca45  1  0.92457866  0.67352329  0.15347612  1
  Ca2+  Ca46  1  0.92332111  0.65682930  0.50254535  1
  Ca2+  Ca47  1  0.92503458  0.66328197  0.82937450  1
  Al0+  Al48  1  0.00037084  -0.00187317  -0.00432423  1
  Al0+  Al49  1  0.00010288  -0.00135113  0.33138769  1
  Al0+  Al50  1  0.00105900  -0.00212733  0.66451224  1
  Al0+  Al51  1  -0.00019344  0.49876190  -0.00225325  1
  Al0+  Al52  1  -0.00083526  0.49879612  0.33220453  1
  Al0+  Al53  1  0.00261661  0.50126842  0.66059404  1
  Al0+  Al54  1  0.49935850  -0.00032887  0.00830576  1
  Al0+  Al55  1  0.50037845  -0.00158382  0.33514797  1
  Al0+  Al56  1  0.49816031  0.00152694  0.66550809  1
  Al0+  Al57  1  0.50094129  0.50199058  0.00432679  1
  Al0+  Al58  1  0.50166002  0.49932476  0.33349503  1
  Al0+  Al59  1  0.50132326  0.50327911  0.66125628  1
  Al0+  Al60  1  0.25052760  0.25273648  -0.00009740  1
  Al0+  Al61  1  0.25031093  0.25083358  0.33261826  1
  Al0+  Al62  1  0.25053631  0.25152260  0.66050761  1
  Al0+  Al63  1  0.25109239  0.75269259  -0.00214226  1
  Al0+  Al64  1  0.25091784  0.74999594  0.33390096  1
  Al0+  Al65  1  0.24812095  0.75283615  0.66467974  1
  Al0+  Al66  1  0.74933762  0.24732888  0.00891336  1
  Al0+  Al67  1  0.74940513  0.24781013  0.33656143  1
  Al0+  Al68  1  0.74833046  0.24902268  0.66391449  1
  Al0+  Al69  1  0.74757372  0.74990492  0.00191419  1
  Al0+  Al70  1  0.75018349  0.74904901  0.33427947  1
  Al0+  Al71  1  0.74999384  0.75048703  0.66613688  1
  Al0+  Al72  1  0.67849635  0.42796695  0.68232998  1
  Al0+  Al73  1  0.43172271  0.32089193  0.31704781  1
  Al0+  Al74  1  0.92506252  0.32042571  0.98602507  1
  Al0+  Al75  1  0.92778622  0.32121666  0.65199476  1
  Al0+  Al76  1  0.42904759  0.32327769  0.65194467  1
  Al0+  Al77  1  0.82369400  0.57169300  0.68243354  1
  Al0+  Al78  1  0.06922350  0.17980703  0.31837193  1
  Al0+  Al79  1  0.82329351  0.07027791  0.01518521  1
  Al0+  Al80  1  0.07102410  0.17693019  0.65079012  1
  Al0+  Al81  1  0.07185004  0.67891216  0.65153311  1
  Al0+  Al82  1  0.07277290  0.17941964  0.98504571  1
  Al0+  Al83  1  0.32060708  0.07226613  0.34962209  1
  Al0+  Al84  1  0.42959923  0.81998078  0.31867350  1
  Al0+  Al85  1  0.17674239  0.42913447  0.01383738  1
  Al0+  Al86  1  0.67793651  0.92620576  0.01615242  1
  Al0+  Al87  1  0.43108181  0.32265388  0.98750255  1
  Al0+  Al88  1  0.57080487  0.17684675  0.65391849  1
  Al0+  Al89  1  0.31938472  0.07237575  0.01249113  1
  Al0+  Al90  1  0.57114236  0.68146098  0.65373260  1
  Al0+  Al91  1  0.67926313  0.42831092  0.01440437  1
  Al0+  Al92  1  0.92656029  0.82061738  0.98436883  1
  Al0+  Al93  1  0.07277756  0.67828104  0.98540783  1
  Al0+  Al94  1  0.32183717  0.57282683  0.01294660  1
  Al0+  Al95  1  0.32003321  0.57091254  0.34859311  1
  Si0+  Si96  1  0.17831920  0.92755277  0.68315049  1
  Si0+  Si97  1  0.57017792  0.17671541  0.98753629  1
  Si0+  Si98  1  0.42979105  0.82368545  0.98511443  1
  Si0+  Si99  1  0.32101795  0.57385506  0.67959053  1
  Si0+  Si100  1  0.82188487  0.06996496  0.68007448  1
  Si0+  Si101  1  0.17880198  0.92797776  0.01569305  1
  Si0+  Si102  1  0.82184891  0.06859594  0.35053392  1
  Si0+  Si103  1  0.57332300  0.67847387  0.31469473  1
  Si0+  Si104  1  0.17655655  0.42860704  0.35224119  1
  Si0+  Si105  1  0.82211805  0.57200724  0.01608943  1
  Si0+  Si106  1  0.42679042  0.82340991  0.65086798  1
  Si0+  Si107  1  0.92794490  0.81983630  0.31906318  1
  Si0+  Si108  1  0.82102443  0.57186405  0.34764751  1
  Si0+  Si109  1  0.57025388  0.67906644  0.98542395  1
  Si0+  Si110  1  0.92800913  0.82091914  0.64910297  1
  Si0+  Si111  1  0.67769788  0.92962900  0.67998258  1
  Si0+  Si112  1  0.07122020  0.67818248  0.31831135  1
  Si0+  Si113  1  0.68016918  0.42821262  0.34985360  1
  Si0+  Si114  1  0.17699050  0.92756204  0.35093434  1
  Si0+  Si115  1  0.31891512  0.07177624  0.68137796  1
  Si0+  Si116  1  0.92587662  0.32201075  0.31674014  1
  Si0+  Si117  1  0.57391071  0.17595090  0.31505097  1
  Si0+  Si118  1  0.67980366  0.92746337  0.35123980  1
  Si0+  Si119  1  0.18144620  0.42911784  0.67977043  1
  O2-  O120  1  0.24208382  0.00071526  0.06048221  1
  O2-  O121  1  0.24420437  -0.00227569  0.39579570  1
  O2-  O122  1  0.24601745  0.00251453  0.72375053  1
  O2-  O123  1  0.24825702  0.50263846  0.06293281  1
  O2-  O124  1  0.24517916  0.49748091  0.39737144  1
  O2-  O125  1  0.25303819  0.50042429  0.72111932  1
  O2-  O126  1  0.75253751  -0.00391726  0.06539545  1
  O2-  O127  1  0.74900546  -0.00018686  0.39424524  1
  O2-  O128  1  0.74687931  0.00222899  0.72125368  1
  O2-  O129  1  0.75828882  0.49916478  0.06173551  1
  O2-  O130  1  0.75362533  0.49777205  0.38991532  1
  O2-  O131  1  0.75522966  0.49596157  0.73164197  1
  O2-  O132  1  -0.00481666  0.25490200  0.27271963  1
  O2-  O133  1  -0.00214267  0.24773289  0.60090292  1
  O2-  O134  1  -0.00157684  0.24968729  0.93666914  1
  O2-  O135  1  -0.00121594  0.74848230  0.27782327  1
  O2-  O136  1  -0.00590303  0.75035516  0.60351502  1
  O2-  O137  1  -0.00355523  0.74629419  0.93550747  1
  O2-  O138  1  0.50494800  0.24388992  0.27107021  1
  O2-  O139  1  0.50202876  0.25119557  0.60314724  1
  O2-  O140  1  0.50601044  0.24796699  0.94152627  1
  O2-  O141  1  0.50189241  0.74378828  0.27004984  1
  O2-  O142  1  0.49481300  0.75426754  0.60673608  1
  O2-  O143  1  0.49915646  0.75095568  0.94373533  1
  O2-  O144  1  0.07257842  0.18082169  0.09884371  1
  O2-  O145  1  0.06581375  0.17998559  0.43147441  1
  O2-  O146  1  0.07163026  0.17681085  0.76344703  1
  O2-  O147  1  0.07244794  0.68212158  0.09989435  1
  O2-  O148  1  0.07046755  0.67881581  0.42353919  1
  O2-  O149  1  0.07655407  0.68227380  0.76350262  1
  O2-  O150  1  0.56742469  0.17659679  0.09334245  1
  O2-  O151  1  0.57564563  0.17754171  0.42070139  1
  O2-  O152  1  0.56654707  0.16890185  0.76685455  1
  O2-  O153  1  0.57080333  0.67896987  0.09066427  1
  O2-  O154  1  0.57521429  0.68180064  0.42035435  1
  O2-  O155  1  0.56966587  0.68289298  0.76684792  1
  O2-  O156  1  0.17411227  0.43123422  0.24711435  1
  O2-  O157  1  0.18277078  0.42995428  0.57426594  1
  O2-  O158  1  0.17968417  0.42867418  0.89971036  1
  O2-  O159  1  0.17637158  0.92528928  0.24578849  1
  O2-  O160  1  0.18017202  0.92351510  0.57809617  1
  O2-  O161  1  0.18413289  0.92514177  0.90997082  1
  O2-  O162  1  0.68058625  0.42864812  0.24469643  1
  O2-  O163  1  0.67812772  0.43230150  0.56797403  1
  O2-  O164  1  0.67570867  0.43121367  0.90205604  1
  O2-  O165  1  0.68158879  0.92529001  0.24684338  1
  O2-  O166  1  0.67929859  0.92940741  0.57435854  1
  O2-  O167  1  0.67549269  0.92858271  0.90207956  1
  O2-  O168  1  0.43176215  0.32222415  0.10068404  1
  O2-  O169  1  0.43496108  0.32133308  0.43009024  1
  O2-  O170  1  0.42688771  0.32185713  0.76540450  1
  O2-  O171  1  0.43021852  0.82384847  0.09017790  1
  O2-  O172  1  0.43352545  0.81919927  0.43209570  1
  O2-  O173  1  0.42735473  0.82467250  0.75650206  1
  O2-  O174  1  0.92589827  0.31690732  0.10021555  1
  O2-  O175  1  0.92494889  0.32175062  0.42219285  1
  O2-  O176  1  0.92824554  0.31888190  0.76488619  1
  O2-  O177  1  0.92906867  0.81777803  0.09905890  1
  O2-  O178  1  0.92655541  0.81997076  0.42420577  1
  O2-  O179  1  0.92918575  0.82254350  0.75381530  1
  O2-  O180  1  0.31975245  0.07102550  0.23676343  1
  O2-  O181  1  0.31949333  0.06924061  0.57628014  1
  O2-  O182  1  0.32183896  0.06922468  0.89891744  1
  O2-  O183  1  0.31629526  0.57276908  0.23623660  1
  O2-  O184  1  0.31897572  0.57577492  0.57423537  1
  O2-  O185  1  0.32369431  0.57189555  0.89881959  1
  O2-  O186  1  0.82228834  0.06674558  0.24617184  1
  O2-  O187  1  0.82296548  0.06527127  0.57428781  1
  O2-  O188  1  0.81949518  0.07035960  0.90119650  1
  O2-  O189  1  0.81971600  0.57578815  0.24288992  1
  O2-  O190  1  0.81988545  0.57156785  0.56766762  1
  O2-  O191  1  0.81818460  0.57580063  0.91119712  1
  O2-  O192  1  0.03926065  0.08177111  0.26672568  1
  O2-  O193  1  0.04499585  0.07730324  0.59793830  1
  O2-  O194  1  0.04955272  0.07919117  0.93425711  1
  O2-  O195  1  0.04370093  0.58606075  0.27175721  1
  O2-  O196  1  0.04574992  0.58375111  0.59260992  1
  O2-  O197  1  0.04839487  0.57921179  0.93364289  1
  O2-  O198  1  0.55112848  0.08069411  0.27262780  1
  O2-  O199  1  0.53974855  0.07994314  0.59681541  1
  O2-  O200  1  0.54234094  0.08335363  0.94228876  1
  O2-  O201  1  0.55184260  0.58333296  0.27164494  1
  O2-  O202  1  0.54156871  0.58740555  0.59513585  1
  O2-  O203  1  0.54076938  0.58889476  0.93691502  1
  O2-  O204  1  0.16655846  0.21009033  0.26756374  1
  O2-  O205  1  0.16764180  0.20910737  0.59656636  1
  O2-  O206  1  0.16981393  0.21050917  0.93165721  1
  O2-  O207  1  0.16221013  0.70776189  0.27216296  1
  O2-  O208  1  0.16614151  0.71641376  0.59512774  1
  O2-  O209  1  0.16926960  0.71248931  0.93113994  1
  O2-  O210  1  0.66851435  0.20170930  0.27053008  1
  O2-  O211  1  0.66950632  0.19939205  0.59892853  1
  O2-  O212  1  0.66607064  0.19730032  0.94611949  1
  O2-  O213  1  0.66599856  0.70821329  0.26857544  1
  O2-  O214  1  0.66634463  0.71436994  0.59733067  1
  O2-  O215  1  0.66117438  0.70714994  0.93745904  1
  O2-  O216  1  0.07779771  0.45446430  0.06820559  1
  O2-  O217  1  0.08169022  0.45375518  0.39765491  1
  O2-  O218  1  0.08948696  0.45788860  0.72461597  1
  O2-  O219  1  0.08261097  0.94523507  0.05840064  1
  O2-  O220  1  0.08218793  0.95078671  0.39707314  1
  O2-  O221  1  0.08476164  0.95072932  0.72869431  1
  O2-  O222  1  0.58684172  0.46691605  0.07178711  1
  O2-  O223  1  0.58959653  0.45841439  0.39731084  1
  O2-  O224  1  0.58066072  0.46401094  0.73250190  1
  O2-  O225  1  0.58213327  0.95754343  0.07298730  1
  O2-  O226  1  0.58785374  0.95325160  0.39905128  1
  O2-  O227  1  0.58417472  0.95341034  0.72591515  1
  O2-  O228  1  0.20900990  0.33328216  0.06906162  1
  O2-  O229  1  0.20414122  0.33562834  0.39779582  1
  O2-  O230  1  0.20903057  0.33705957  0.72646384  1
  O2-  O231  1  0.20942700  0.83713710  0.06463009  1
  O2-  O232  1  0.20535509  0.83499509  0.39861756  1
  O2-  O233  1  0.21026987  0.83804012  0.73301126  1
  O2-  O234  1  0.70510474  0.33224444  0.07243713  1
  O2-  O235  1  0.70525514  0.33520186  0.39688434  1
  O2-  O236  1  0.70015523  0.32653231  0.73202379  1
  O2-  O237  1  0.70299122  0.82774375  0.07154529  1
  O2-  O238  1  0.71047152  0.83602081  0.39941149  1
  O2-  O239  1  0.70670700  0.83884960  0.72784480  1
  O2-  O240  1  0.46482895  0.41752666  0.26426018  1
  O2-  O241  1  0.45642314  0.42121341  0.59762443  1
  O2-  O242  1  0.46288471  0.41968874  0.93542549  1
  O2-  O243  1  0.46279593  0.91630854  0.26571968  1
  O2-  O244  1  0.45372297  0.91578508  0.60329050  1
  O2-  O245  1  0.46034494  0.91466682  0.93759229  1
  O2-  O246  1  0.94778590  0.41701208  0.27157283  1
  O2-  O247  1  0.95797082  0.41840991  0.59704482  1
  O2-  O248  1  0.94800051  0.42022225  0.93498781  1
  O2-  O249  1  0.95536447  0.91098988  0.27110477  1
  O2-  O250  1  0.95730910  0.91248681  0.59989592  1
  O2-  O251  1  0.95495570  0.91741537  0.92967166  1
  O2-  O252  1  0.33335290  0.29249114  0.26693850  1
  O2-  O253  1  0.33317265  0.29232760  0.59543675  1
  O2-  O254  1  0.33539866  0.29179803  0.93380972  1
  O2-  O255  1  0.33176315  0.79199988  0.26603160  1
  O2-  O256  1  0.33358956  0.79922496  0.60406104  1
  O2-  O257  1  0.33819095  0.79944382  0.93622774  1
  O2-  O258  1  0.83169607  0.29421003  0.27303118  1
  O2-  O259  1  0.82934994  0.29422533  0.59825743  1
  O2-  O260  1  0.82569830  0.28949698  0.93644948  1
  O2-  O261  1  0.83629246  0.79144980  0.27182781  1
  O2-  O262  1  0.83366184  0.79918645  0.60257640  1
  O2-  O263  1  0.82564826  0.79650857  0.93523685  1
  O2-  O264  1  0.41285976  0.03824845  0.07003309  1
  O2-  O265  1  0.41745892  0.03839639  0.40253009  1
  O2-  O266  1  0.40984649  0.04100533  0.72897320  1
  O2-  O267  1  0.41885798  0.54586032  0.06889452  1
  O2-  O268  1  0.41915888  0.54183865  0.39966235  1
  O2-  O269  1  0.41487723  0.55053685  0.72361574  1
  O2-  O270  1  0.92180898  0.03963280  0.06760012  1
  O2-  O271  1  0.91242236  0.03674331  0.39867512  1
  O2-  O272  1  0.91264497  0.03820479  0.72669558  1
  O2-  O273  1  0.91744724  0.55285041  0.06062312  1
  O2-  O274  1  0.91460279  0.54705564  0.39377417  1
  O2-  O275  1  0.92630264  0.55070421  0.72844523  1
  O2-  O276  1  0.29006868  0.16842666  0.06710869  1
  O2-  O277  1  0.28922739  0.16884474  0.40359076  1
  O2-  O278  1  0.29251697  0.16484899  0.72633395  1
  O2-  O279  1  0.29461791  0.67279298  0.06425263  1
  O2-  O280  1  0.28981441  0.66807714  0.40320947  1
  O2-  O281  1  0.29188588  0.66583818  0.72604677  1
  O2-  O282  1  0.79246140  0.16469107  0.07478166  1
  O2-  O283  1  0.79537375  0.16115975  0.39796203  1
  O2-  O284  1  0.79753380  0.16261352  0.72528266  1
  O2-  O285  1  0.79029337  0.66288383  0.06533470  1
  O2-  O286  1  0.79163811  0.66254369  0.39723570  1
  O2-  O287  1  0.79202121  0.67022238  0.73312992  1
