# generated using pymatgen
data_Ca2Al2SiO7
_symmetry_space_group_name_H-M   'P 1'
_cell_length_a   15.45838733
_cell_length_b   15.45869844
_cell_length_c   15.28464213
_cell_angle_alpha   90.00359373
_cell_angle_beta   90.00544948
_cell_angle_gamma   89.98407313
_symmetry_Int_Tables_number   1
_chemical_formula_structural   Ca2Al2SiO7
_chemical_formula_sum   'Ca48 Al48 Si24 O168'
_cell_volume   3652.51800399
_cell_formula_units_Z   24
loop_
 _symmetry_equiv_pos_site_id
 _symmetry_equiv_pos_as_xyz
  1  'x, y, z'
loop_
 _atom_type_symbol
 _atom_type_oxidation_number
  Ca2+  2.0
  Al0+  0.0
  Si0+  0.0
  O2-  -2.0
loop_
 _atom_site_type_symbol
 _atom_site_label
 _atom_site_symmetry_multiplicity
 _atom_site_fract_x
 _atom_site_fract_y
 _atom_site_fract_z
 _atom_site_occupancy
  Ca2+  Ca0  1  0.16557477  0.08429003  0.16668093  1
  Ca2+  Ca1  1  0.16327000  0.08130711  0.50589873  1
  Ca2+  Ca2  1  0.16499137  0.07510279  0.84280432  1
  Ca2+  Ca3  1  0.16243450  0.56915320  0.17250410  1
  Ca2+  Ca4  1  0.16489734  0.58088823  0.50443831  1
  Ca2+  Ca5  1  0.16801228  0.58237491  0.83704820  1
  Ca2+  Ca6  1  0.67622392  0.08979857  0.17352292  1
  Ca2+  Ca7  1  0.67138015  0.08503126  0.49634211  1
  Ca2+  Ca8  1  0.67431568  0.08432263  0.84349460  1
  Ca2+  Ca9  1  0.67012862  0.57627285  0.17427732  1
  Ca2+  Ca10  1  0.66457025  0.57612014  0.50175114  1
  Ca2+  Ca11  1  0.66943803  0.58176922  0.83767797  1
  Ca2+  Ca12  1  0.08419288  0.32438103  0.15861955  1
  Ca2+  Ca13  1  0.08770108  0.32250878  0.49141236  1
  Ca2+  Ca14  1  0.09197302  0.32012806  0.83651383  1
  Ca2+  Ca15  1  0.08144988  0.82879914  0.16001878  1
  Ca2+  Ca16  1  0.08605605  0.82469117  0.50091317  1
  Ca2+  Ca17  1  0.07694678  0.84091588  0.82588045  1
  Ca2+  Ca18  1  0.57632193  0.32764078  0.16128452  1
  Ca2+  Ca19  1  0.57636147  0.33018051  0.48722453  1
  Ca2+  Ca20  1  0.57975002  0.32485519  0.83645801  1
  Ca2+  Ca21  1  0.58051616  0.83840198  0.16130605  1
  Ca2+  Ca22  1  0.57722866  0.83785499  0.49555107  1
  Ca2+  Ca23  1  0.56691306  0.83929173  0.83147353  1
  Ca2+  Ca24  1  0.32473472  0.40418850  0.16890576  1
  Ca2+  Ca25  1  0.32924329  0.42012292  0.50212439  1
  Ca2+  Ca26  1  0.32903276  0.42260179  0.84145112  1
  Ca2+  Ca27  1  0.33287986  0.92257990  0.16275674  1
  Ca2+  Ca28  1  0.32668378  0.91878451  0.51016612  1
  Ca2+  Ca29  1  0.32202781  0.91582560  0.84216593  1
  Ca2+  Ca30  1  0.82827007  0.40942339  0.17228363  1
  Ca2+  Ca31  1  0.82584386  0.41236555  0.49918789  1
  Ca2+  Ca32  1  0.83686431  0.41567966  0.84095927  1
  Ca2+  Ca33  1  0.83283591  0.92882908  0.17144178  1
  Ca2+  Ca34  1  0.83276231  0.91909608  0.50016495  1
  Ca2+  Ca35  1  0.83814607  0.91973222  0.84270068  1
  Ca2+  Ca36  1  0.42578282  0.17232379  0.15910716  1
  Ca2+  Ca37  1  0.42240907  0.17473578  0.48711186  1
  Ca2+  Ca38  1  0.41196046  0.16654732  0.83825234  1
  Ca2+  Ca39  1  0.41937040  0.67403781  0.16185550  1
  Ca2+  Ca40  1  0.40533517  0.67344072  0.50212095  1
  Ca2+  Ca41  1  0.40812529  0.67744179  0.82940685  1
  Ca2+  Ca42  1  0.92292067  0.16467744  0.15951820  1
  Ca2+  Ca43  1  0.92851966  0.16104412  0.49551547  1
  Ca2+  Ca44  1  0.92801097  0.16422322  0.83617315  1
  Ca2+  Ca45  1  0.92112914  0.67266335  0.16149999  1
  Ca2+  Ca46  1  0.92753617  0.67126730  0.49662045  1
  Ca2+  Ca47  1  0.92558333  0.68065724  0.82633848  1
  Al0+  Al48  1  -0.00108324  -0.00148318  0.00274428  1
  Al0+  Al49  1  0.00025327  -0.00142655  0.33420994  1
  Al0+  Al50  1  -0.00139656  0.00157347  0.66169089  1
  Al0+  Al51  1  0.00007157  0.50116890  0.00120056  1
  Al0+  Al52  1  0.00155914  0.50017350  0.33571377  1
  Al0+  Al53  1  -0.00300465  0.49811333  0.66454896  1
  Al0+  Al54  1  0.49924112  -0.00165230  -0.00537659  1
  Al0+  Al55  1  0.49997914  0.00141763  0.33353619  1
  Al0+  Al56  1  0.50170031  0.00107269  0.66198166  1
  Al0+  Al57  1  0.50141692  0.49968331  -0.00312056  1
  Al0+  Al58  1  0.49832839  0.50392367  0.33415929  1
  Al0+  Al59  1  0.49917673  0.49922071  0.67351984  1
  Al0+  Al60  1  0.25187295  0.25012358  -0.00119554  1
  Al0+  Al61  1  0.24936720  0.24971611  0.33177488  1
  Al0+  Al62  1  0.25167258  0.25060745  0.66208360  1
  Al0+  Al63  1  0.25154502  0.74818851  0.00293628  1
  Al0+  Al64  1  0.24899515  0.74961747  0.32678829  1
  Al0+  Al65  1  0.24918442  0.75023553  0.66700834  1
  Al0+  Al66  1  0.74979988  0.25042964  -0.00324408  1
  Al0+  Al67  1  0.75107463  0.25001339  0.34288834  1
  Al0+  Al68  1  0.74949823  0.24901007  0.66798717  1
  Al0+  Al69  1  0.75151283  0.74836295  -0.00318624  1
  Al0+  Al70  1  0.74902516  0.75150154  0.33810437  1
  Al0+  Al71  1  0.74812747  0.74931510  0.66416385  1
  Al0+  Al72  1  0.93018584  0.82032733  0.98837389  1
  Al0+  Al73  1  0.07042714  0.17718289  0.31857917  1
  Al0+  Al74  1  0.67799493  0.43056953  0.34627371  1
  Al0+  Al75  1  0.31878280  0.56990809  0.68104902  1
  Al0+  Al76  1  0.67695931  0.92885106  0.34893819  1
  Al0+  Al77  1  0.32222954  0.07092141  0.01518144  1
  Al0+  Al78  1  0.17952809  0.43041548  0.01287930  1
  Al0+  Al79  1  0.42816362  0.32200402  0.98257242  1
  Al0+  Al80  1  0.42936214  0.82045837  0.65249324  1
  Al0+  Al81  1  0.07115628  0.67752077  0.65241871  1
  Al0+  Al82  1  0.07129285  0.18137087  0.65266086  1
  Al0+  Al83  1  0.17949028  0.93191564  0.67815535  1
  Al0+  Al84  1  0.92841705  0.32274763  0.98708039  1
  Al0+  Al85  1  0.81979633  0.07137279  0.01259700  1
  Al0+  Al86  1  0.07156801  0.17824654  0.98614130  1
  Al0+  Al87  1  0.42891122  0.81979512  0.98684182  1
  Al0+  Al88  1  0.57159430  0.17787712  0.98438254  1
  Al0+  Al89  1  0.07120775  0.67823517  0.31743131  1
  Al0+  Al90  1  0.92654236  0.82302442  0.64939235  1
  Al0+  Al91  1  0.57267886  0.17942253  0.31876099  1
  Al0+  Al92  1  0.42887469  0.32419132  0.31874447  1
  Al0+  Al93  1  0.17739187  0.92758601  0.01676711  1
  Al0+  Al94  1  0.17977459  0.42783363  0.34780767  1
  Al0+  Al95  1  0.82324243  0.07154439  0.35107163  1
  Si0+  Si96  1  0.67979833  0.42997192  0.01468079  1
  Si0+  Si97  1  0.82058794  0.57132699  0.68227307  1
  Si0+  Si98  1  0.82095671  0.57247072  0.01476904  1
  Si0+  Si99  1  0.57247374  0.68011164  0.31986287  1
  Si0+  Si100  1  0.42871529  0.82195617  0.31823047  1
  Si0+  Si101  1  0.82238276  0.57331746  0.35147530  1
  Si0+  Si102  1  0.92677037  0.82027922  0.31599186  1
  Si0+  Si103  1  0.57336672  0.67720522  0.98326131  1
  Si0+  Si104  1  0.92503124  0.32145921  0.64851999  1
  Si0+  Si105  1  0.67716906  0.92774189  0.68290971  1
  Si0+  Si106  1  0.17623276  0.42550439  0.68294056  1
  Si0+  Si107  1  0.32487841  0.07378066  0.68116659  1
  Si0+  Si108  1  0.67817128  0.92620259  0.01320919  1
  Si0+  Si109  1  0.92873478  0.32215578  0.32012756  1
  Si0+  Si110  1  0.57318748  0.17997094  0.64954582  1
  Si0+  Si111  1  0.67921519  0.42848035  0.68446016  1
  Si0+  Si112  1  0.32481691  0.57149975  0.01881281  1
  Si0+  Si113  1  0.57102227  0.67580714  0.64989049  1
  Si0+  Si114  1  0.43108089  0.32196488  0.65136832  1
  Si0+  Si115  1  0.32073471  0.57507622  0.34955268  1
  Si0+  Si116  1  0.07221280  0.67756152  0.98438167  1
  Si0+  Si117  1  0.18048103  0.92689488  0.34840920  1
  Si0+  Si118  1  0.81930861  0.06950497  0.68344305  1
  Si0+  Si119  1  0.32020325  0.07039692  0.34806922  1
  O2-  O120  1  0.24780668  0.00173432  0.06671728  1
  O2-  O121  1  0.24922282  -0.00019828  0.39128322  1
  O2-  O122  1  0.25522374  0.00599627  0.72412125  1
  O2-  O123  1  0.25697895  0.50201575  0.06189744  1
  O2-  O124  1  0.25448388  0.50371732  0.39293885  1
  O2-  O125  1  0.24120322  0.49784303  0.72693519  1
  O2-  O126  1  0.74394965  -0.00333648  0.05776819  1
  O2-  O127  1  0.74935444  -0.00013962  0.40009747  1
  O2-  O128  1  0.75087433  -0.00456721  0.72545968  1
  O2-  O129  1  0.75265319  0.49901334  0.05726096  1
  O2-  O130  1  0.75336896  0.50414506  0.39527786  1
  O2-  O131  1  0.75091598  0.49917086  0.72612559  1
  O2-  O132  1  -0.00479411  0.25266064  0.27513371  1
  O2-  O133  1  -0.00120643  0.25839731  0.60530886  1
  O2-  O134  1  0.00092134  0.25225251  0.93596557  1
  O2-  O135  1  -0.00515367  0.75127302  0.27162203  1
  O2-  O136  1  -0.00079196  0.75002218  0.60196555  1
  O2-  O137  1  0.00948197  0.75135777  0.94038306  1
  O2-  O138  1  0.50319159  0.25402312  0.27010074  1
  O2-  O139  1  0.49942622  0.24872410  0.60902001  1
  O2-  O140  1  0.49703276  0.24665872  0.93249430  1
  O2-  O141  1  0.50389629  0.75354580  0.27821154  1
  O2-  O142  1  0.50349815  0.74504419  0.60471835  1
  O2-  O143  1  0.50404248  0.74518187  0.93996679  1
  O2-  O144  1  0.06905846  0.17941151  0.09953437  1
  O2-  O145  1  0.07101976  0.17841727  0.43218602  1
  O2-  O146  1  0.07104187  0.18029519  0.76519118  1
  O2-  O147  1  0.06758363  0.67591688  0.09009488  1
  O2-  O148  1  0.07191245  0.68036185  0.43043619  1
  O2-  O149  1  0.06840511  0.67633401  0.76589905  1
  O2-  O150  1  0.57453289  0.18212024  0.09746056  1
  O2-  O151  1  0.56821283  0.18069502  0.43329426  1
  O2-  O152  1  0.57703838  0.18095062  0.75419290  1
  O2-  O153  1  0.57485328  0.67634858  0.08914574  1
  O2-  O154  1  0.57157783  0.67808707  0.42481745  1
  O2-  O155  1  0.57242365  0.67589865  0.75538251  1
  O2-  O156  1  0.17952204  0.42870235  0.23498252  1
  O2-  O157  1  0.18008154  0.42377123  0.57729541  1
  O2-  O158  1  0.17968829  0.43449081  0.89938268  1
  O2-  O159  1  0.18275271  0.92503672  0.24372838  1
  O2-  O160  1  0.18248528  0.93254993  0.56433343  1
  O2-  O161  1  0.17765344  0.92706496  0.90287063  1
  O2-  O162  1  0.67966873  0.43344888  0.23319894  1
  O2-  O163  1  0.67826542  0.42933797  0.57933697  1
  O2-  O164  1  0.67972845  0.43290879  0.90912018  1
  O2-  O165  1  0.67806884  0.92547854  0.23553852  1
  O2-  O166  1  0.67477031  0.93012779  0.57814736  1
  O2-  O167  1  0.68067414  0.92480128  0.90718046  1
  O2-  O168  1  0.43304738  0.32522192  0.09560102  1
  O2-  O169  1  0.43015934  0.32272587  0.43346519  1
  O2-  O170  1  0.43205183  0.32224867  0.75599158  1
  O2-  O171  1  0.43230714  0.81793075  0.10043467  1
  O2-  O172  1  0.42654192  0.82020855  0.42348568  1
  O2-  O173  1  0.43078238  0.81980082  0.76510669  1
  O2-  O174  1  0.92668955  0.32257967  0.10060332  1
  O2-  O175  1  0.93089123  0.32289378  0.42611290  1
  O2-  O176  1  0.92043159  0.31996028  0.75358482  1
  O2-  O177  1  0.92581319  0.81532911  0.10119424  1
  O2-  O178  1  0.92738902  0.81861529  0.42158947  1
  O2-  O179  1  0.92637022  0.82204002  0.76315547  1
  O2-  O180  1  0.32208508  0.06846124  0.24357919  1
  O2-  O181  1  0.32593978  0.07335866  0.57505224  1
  O2-  O182  1  0.32122739  0.06684698  0.90104121  1
  O2-  O183  1  0.32101407  0.57955171  0.24445466  1
  O2-  O184  1  0.32151030  0.56651136  0.56784274  1
  O2-  O185  1  0.32392808  0.57243358  0.91298898  1
  O2-  O186  1  0.82366876  0.07059275  0.23757047  1
  O2-  O187  1  0.81675243  0.07137379  0.57864143  1
  O2-  O188  1  0.81927663  0.06935263  0.89882613  1
  O2-  O189  1  0.82000426  0.57488903  0.24568374  1
  O2-  O190  1  0.81810021  0.57019777  0.57729920  1
  O2-  O191  1  0.81770021  0.57374498  0.90953461  1
  O2-  O192  1  0.04176146  0.07931475  0.26669284  1
  O2-  O193  1  0.03699622  0.08706708  0.59676998  1
  O2-  O194  1  0.03982529  0.08046231  0.93433815  1
  O2-  O195  1  0.04020347  0.58088851  0.26530968  1
  O2-  O196  1  0.04141587  0.57849515  0.59943943  1
  O2-  O197  1  0.04099303  0.58711747  0.93605648  1
  O2-  O198  1  0.54342410  0.08113274  0.26695868  1
  O2-  O199  1  0.54845212  0.08768323  0.60208733  1
  O2-  O200  1  0.54787236  0.07882843  0.93066567  1
  O2-  O201  1  0.54259437  0.59049983  0.26935923  1
  O2-  O202  1  0.54442484  0.58120634  0.60597773  1
  O2-  O203  1  0.54918413  0.58429315  0.93542072  1
  O2-  O204  1  0.16683093  0.20795308  0.26616362  1
  O2-  O205  1  0.16907869  0.20872477  0.59738553  1
  O2-  O206  1  0.16979107  0.20551665  0.93280007  1
  O2-  O207  1  0.16610463  0.71030180  0.26113830  1
  O2-  O208  1  0.16887085  0.70627843  0.59875273  1
  O2-  O209  1  0.16896119  0.69544063  0.94322021  1
  O2-  O210  1  0.67376288  0.20655867  0.27248526  1
  O2-  O211  1  0.66353288  0.21186972  0.60152769  1
  O2-  O212  1  0.66679065  0.21283356  0.92807774  1
  O2-  O213  1  0.66551355  0.70402188  0.27266545  1
  O2-  O214  1  0.66453076  0.69904571  0.60280992  1
  O2-  O215  1  0.66625620  0.70206667  0.93518063  1
  O2-  O216  1  0.08350589  0.46314773  0.06797943  1
  O2-  O217  1  0.08338613  0.45854718  0.40313272  1
  O2-  O218  1  0.07945641  0.44465103  0.72462061  1
  O2-  O219  1  0.07882622  0.95261332  0.07031658  1
  O2-  O220  1  0.08766280  0.95134456  0.39458430  1
  O2-  O221  1  0.08161000  0.96294029  0.72952897  1
  O2-  O222  1  0.58889758  0.46067969  0.06199166  1
  O2-  O223  1  0.58252666  0.46538314  0.40183147  1
  O2-  O224  1  0.58893091  0.45713099  0.73413621  1
  O2-  O225  1  0.58313232  0.94757943  0.05657995  1
  O2-  O226  1  0.57810221  0.95728468  0.40294574  1
  O2-  O227  1  0.58617806  0.96000419  0.73025727  1
  O2-  O228  1  0.20822383  0.33295557  0.06534148  1
  O2-  O229  1  0.21204085  0.33180991  0.40291718  1
  O2-  O230  1  0.20855716  0.33360003  0.72903300  1
  O2-  O231  1  0.20874294  0.82899501  0.06920397  1
  O2-  O232  1  0.21235548  0.83568183  0.39515574  1
  O2-  O233  1  0.20859146  0.83511291  0.73156469  1
  O2-  O234  1  0.70638657  0.33827494  0.06125784  1
  O2-  O235  1  0.70789523  0.33639012  0.40575439  1
  O2-  O236  1  0.70780043  0.33643445  0.73102992  1
  O2-  O237  1  0.70424778  0.83207015  0.05884809  1
  O2-  O238  1  0.70288409  0.82994946  0.40439206  1
  O2-  O239  1  0.69876685  0.83312573  0.72752954  1
  O2-  O240  1  0.45291723  0.42472382  0.26863538  1
  O2-  O241  1  0.46286858  0.41321002  0.60533192  1
  O2-  O242  1  0.46140021  0.41945798  0.92874916  1
  O2-  O243  1  0.45469717  0.91402952  0.27168668  1
  O2-  O244  1  0.46106893  0.91692622  0.59747839  1
  O2-  O245  1  0.45871435  0.91396968  0.92868478  1
  O2-  O246  1  0.95147642  0.41655521  0.27491788  1
  O2-  O247  1  0.94247294  0.41719571  0.60365216  1
  O2-  O248  1  0.95371690  0.42279136  0.93455466  1
  O2-  O249  1  0.95438402  0.91341376  0.27153845  1
  O2-  O250  1  0.95422659  0.92051792  0.59579153  1
  O2-  O251  1  0.95659334  0.91708323  0.93399353  1
  O2-  O252  1  0.33233361  0.29096194  0.26724906  1
  O2-  O253  1  0.33897507  0.29767395  0.60279369  1
  O2-  O254  1  0.32991218  0.29695809  0.92851955  1
  O2-  O255  1  0.33990082  0.79006807  0.26826158  1
  O2-  O256  1  0.33380455  0.78883234  0.59756674  1
  O2-  O257  1  0.33275713  0.78660725  0.93304144  1
  O2-  O258  1  0.83311905  0.29905972  0.27821636  1
  O2-  O259  1  0.83265071  0.29060983  0.60144862  1
  O2-  O260  1  0.83071227  0.29628381  0.93182516  1
  O2-  O261  1  0.83219675  0.79487397  0.27196047  1
  O2-  O262  1  0.82748359  0.79315199  0.59776567  1
  O2-  O263  1  0.83549227  0.78556405  0.93160483  1
  O2-  O264  1  0.42044934  0.03744842  0.06698091  1
  O2-  O265  1  0.41154148  0.04263822  0.39710099  1
  O2-  O266  1  0.41942273  0.04882513  0.72559353  1
  O2-  O267  1  0.42042305  0.54825265  0.06233066  1
  O2-  O268  1  0.41517687  0.55439401  0.39646499  1
  O2-  O269  1  0.41487353  0.53869199  0.73723823  1
  O2-  O270  1  0.91426430  0.03899570  0.06837396  1
  O2-  O271  1  0.92065826  0.03813552  0.40492996  1
  O2-  O272  1  0.91230472  0.04417095  0.72847955  1
  O2-  O273  1  0.91312465  0.54897761  0.06255426  1
  O2-  O274  1  0.91523178  0.54677186  0.39803359  1
  O2-  O275  1  0.91234753  0.54433397  0.73028761  1
  O2-  O276  1  0.30033682  0.17136655  0.06571767  1
  O2-  O277  1  0.29249796  0.16181965  0.39638606  1
  O2-  O278  1  0.30078079  0.16868719  0.72513792  1
  O2-  O279  1  0.30011456  0.66449348  0.06609090  1
  O2-  O280  1  0.29029950  0.66758334  0.39660232  1
  O2-  O281  1  0.29012926  0.66698025  0.73482298  1
  O2-  O282  1  0.78911135  0.16856541  0.06539596  1
  O2-  O283  1  0.79689825  0.16886590  0.40820846  1
  O2-  O284  1  0.78748298  0.16065236  0.73039832  1
  O2-  O285  1  0.78898371  0.66201604  0.06490034  1
  O2-  O286  1  0.79523520  0.66552356  0.39932865  1
  O2-  O287  1  0.79059710  0.66278355  0.73000667  1
