# generated using pymatgen
data_Ca2Al2SiO7
_symmetry_space_group_name_H-M   'P 1'
_cell_length_a   15.46249056
_cell_length_b   15.46198815
_cell_length_c   15.28763415
_cell_angle_alpha   90.00730235
_cell_angle_beta   89.98979794
_cell_angle_gamma   89.99256782
_symmetry_Int_Tables_number   1
_chemical_formula_structural   Ca2Al2SiO7
_chemical_formula_sum   'Ca48 Al48 Si24 O168'
_cell_volume   3654.98038529
_cell_formula_units_Z   24
loop_
 _symmetry_equiv_pos_site_id
 _symmetry_equiv_pos_as_xyz
  1  'x, y, z'
loop_
 _atom_type_symbol
 _atom_type_oxidation_number
  Ca2+  2.0
  Al0+  0.0
  Si0+  0.0
  O2-  -2.0
loop_
 _atom_site_type_symbol
 _atom_site_label
 _atom_site_symmetry_multiplicity
 _atom_site_fract_x
 _atom_site_fract_y
 _atom_site_fract_z
 _atom_site_occupancy
  Ca2+  Ca0  1  0.17193252  0.08656846  0.16849529  1
  Ca2+  Ca1  1  0.17308393  0.07941542  0.50780215  1
  Ca2+  Ca2  1  0.17963931  0.07628239  0.83503450  1
  Ca2+  Ca3  1  0.16656765  0.58394158  0.16879340  1
  Ca2+  Ca4  1  0.17177232  0.57381874  0.50735950  1
  Ca2+  Ca5  1  0.16596043  0.57915554  0.83839879  1
  Ca2+  Ca6  1  0.67325241  0.07538400  0.17307806  1
  Ca2+  Ca7  1  0.66285808  0.08386147  0.49470068  1
  Ca2+  Ca8  1  0.67006747  0.07443540  0.84604178  1
  Ca2+  Ca9  1  0.67132682  0.58562843  0.17503186  1
  Ca2+  Ca10  1  0.66369081  0.58378125  0.49341271  1
  Ca2+  Ca11  1  0.66950921  0.58397695  0.84373137  1
  Ca2+  Ca12  1  0.07478533  0.32530339  0.16230267  1
  Ca2+  Ca13  1  0.08510919  0.32641285  0.49456411  1
  Ca2+  Ca14  1  0.07871058  0.33396615  0.83250282  1
  Ca2+  Ca15  1  0.07262365  0.82546471  0.15646240  1
  Ca2+  Ca16  1  0.08438653  0.83664269  0.49624706  1
  Ca2+  Ca17  1  0.08158152  0.83285156  0.83340418  1
  Ca2+  Ca18  1  0.58043143  0.33278995  0.16532089  1
  Ca2+  Ca19  1  0.57348529  0.32890229  0.48834176  1
  Ca2+  Ca20  1  0.57089373  0.33068420  0.82963649  1
  Ca2+  Ca21  1  0.58711390  0.82974049  0.16161296  1
  Ca2+  Ca22  1  0.57206374  0.83387357  0.49017516  1
  Ca2+  Ca23  1  0.58003794  0.83357625  0.83580457  1
  Ca2+  Ca24  1  0.33843598  0.41477167  0.16987809  1
  Ca2+  Ca25  1  0.33137698  0.41069763  0.50760105  1
  Ca2+  Ca26  1  0.32902009  0.40827658  0.83746460  1
  Ca2+  Ca27  1  0.34015386  0.91761184  0.16829886  1
  Ca2+  Ca28  1  0.33256664  0.91987011  0.51106441  1
  Ca2+  Ca29  1  0.34040575  0.92241631  0.83922951  1
  Ca2+  Ca30  1  0.83006679  0.42648007  0.17281068  1
  Ca2+  Ca31  1  0.82362972  0.41880857  0.49653116  1
  Ca2+  Ca32  1  0.83184154  0.42162334  0.84531080  1
  Ca2+  Ca33  1  0.82266530  0.91636363  0.17035179  1
  Ca2+  Ca34  1  0.82508465  0.92135834  0.49683226  1
  Ca2+  Ca35  1  0.82821507  0.92123505  0.84754574  1
  Ca2+  Ca36  1  0.42201578  0.17387931  0.16332889  1
  Ca2+  Ca37  1  0.41571675  0.17502400  0.49313344  1
  Ca2+  Ca38  1  0.40764324  0.17012416  0.83140898  1
  Ca2+  Ca39  1  0.43085068  0.67868990  0.16205645  1
  Ca2+  Ca40  1  0.41978572  0.67903804  0.49086687  1
  Ca2+  Ca41  1  0.42168425  0.67869745  0.83232044  1
  Ca2+  Ca42  1  0.91656987  0.16359257  0.16090078  1
  Ca2+  Ca43  1  0.92547740  0.16241839  0.48818460  1
  Ca2+  Ca44  1  0.90916193  0.17236751  0.83297997  1
  Ca2+  Ca45  1  0.91668015  0.66546656  0.15426813  1
  Ca2+  Ca46  1  0.91768746  0.66602672  0.49489805  1
  Ca2+  Ca47  1  0.91586948  0.67045217  0.83953199  1
  Al0+  Al48  1  0.00387380  -0.00043789  -0.00241963  1
  Al0+  Al49  1  0.00215201  -0.00124203  0.33102803  1
  Al0+  Al50  1  -0.00023847  0.00009046  0.67024106  1
  Al0+  Al51  1  -0.00019466  0.49638296  -0.00307470  1
  Al0+  Al52  1  0.00183598  0.49914843  0.33904669  1
  Al0+  Al53  1  -0.00014331  0.50063647  0.66913974  1
  Al0+  Al54  1  0.50033819  0.00096702  0.00687712  1
  Al0+  Al55  1  0.49843831  0.00475311  0.33197066  1
  Al0+  Al56  1  0.50268875  0.00001254  0.66723330  1
  Al0+  Al57  1  0.49712091  0.49937799  -0.00853636  1
  Al0+  Al58  1  0.49912924  0.50426719  0.33153559  1
  Al0+  Al59  1  0.50096559  0.49972479  0.66325285  1
  Al0+  Al60  1  0.24847825  0.24878439  0.00184665  1
  Al0+  Al61  1  0.24718745  0.24940666  0.32587779  1
  Al0+  Al62  1  0.24719606  0.24903136  0.67129757  1
  Al0+  Al63  1  0.25081584  0.74785959  -0.00611763  1
  Al0+  Al64  1  0.24836630  0.74949572  0.33055104  1
  Al0+  Al65  1  0.24831519  0.74797939  0.66599170  1
  Al0+  Al66  1  0.74922008  0.24992595  -0.00158351  1
  Al0+  Al67  1  0.75072577  0.25262523  0.33860697  1
  Al0+  Al68  1  0.74916686  0.25334505  0.66543355  1
  Al0+  Al69  1  0.75198236  0.74851261  -0.00135333  1
  Al0+  Al70  1  0.75019869  0.75258226  0.34228559  1
  Al0+  Al71  1  0.75248664  0.75035071  0.66526213  1
  Al0+  Al72  1  0.17731683  0.92603041  0.68209496  1
  Al0+  Al73  1  0.82312593  0.57272729  0.34963950  1
  Al0+  Al74  1  0.07178721  0.67616994  0.98436599  1
  Al0+  Al75  1  0.68030596  0.92808361  0.01519354  1
  Al0+  Al76  1  0.57289396  0.67832387  0.98516522  1
  Al0+  Al77  1  0.17940295  0.42887803  0.68157163  1
  Al0+  Al78  1  0.82349575  0.07146706  0.34777287  1
  Al0+  Al79  1  0.32278299  0.06901366  0.68065420  1
  Al0+  Al80  1  0.42783085  0.32265199  0.31831754  1
  Al0+  Al81  1  0.67622244  0.93058922  0.35082205  1
  Al0+  Al82  1  0.57400502  0.18029939  0.31727957  1
  Al0+  Al83  1  0.82393557  0.07371934  0.01364922  1
  Al0+  Al84  1  0.42785651  0.31957444  0.98486459  1
  Al0+  Al85  1  0.82016768  0.56789037  0.01196549  1
  Al0+  Al86  1  0.06932784  0.17710813  0.31937348  1
  Al0+  Al87  1  0.92942770  0.82156030  0.98553921  1
  Al0+  Al88  1  0.92804398  0.31769029  0.98784227  1
  Al0+  Al89  1  0.67584450  0.43008944  0.34814595  1
  Al0+  Al90  1  0.42952278  0.82094868  0.65320939  1
  Al0+  Al91  1  0.43038264  0.82344728  0.98497018  1
  Al0+  Al92  1  0.57251942  0.68257950  0.31908569  1
  Al0+  Al93  1  0.42716407  0.31833074  0.65324855  1
  Al0+  Al94  1  0.32010004  0.07089311  0.01714791  1
  Al0+  Al95  1  0.42584863  0.82402412  0.31916221  1
  Si0+  Si96  1  0.31858500  0.07310584  0.34755874  1
  Si0+  Si97  1  0.57473849  0.17884692  0.65018628  1
  Si0+  Si98  1  0.07325259  0.17725188  0.98044438  1
  Si0+  Si99  1  0.06985127  0.67741307  0.64983304  1
  Si0+  Si100  1  0.93008526  0.82203765  0.64972956  1
  Si0+  Si101  1  0.67412730  0.42824732  0.01423670  1
  Si0+  Si102  1  0.17878334  0.42891316  0.01705712  1
  Si0+  Si103  1  0.67807482  0.42925353  0.68308692  1
  Si0+  Si104  1  0.31926296  0.57278369  0.34727925  1
  Si0+  Si105  1  0.06682027  0.17964756  0.65269764  1
  Si0+  Si106  1  0.57473203  0.67853500  0.64851430  1
  Si0+  Si107  1  0.82045965  0.57070804  0.68346174  1
  Si0+  Si108  1  0.93068945  0.81997522  0.32117163  1
  Si0+  Si109  1  0.06993643  0.67651459  0.32047356  1
  Si0+  Si110  1  0.92924901  0.32360856  0.31922181  1
  Si0+  Si111  1  0.18078386  0.42833538  0.34800842  1
  Si0+  Si112  1  0.32350219  0.57147507  0.68354912  1
  Si0+  Si113  1  0.92765933  0.32364391  0.64979307  1
  Si0+  Si114  1  0.18051726  0.92781160  0.34635496  1
  Si0+  Si115  1  0.82123375  0.07222355  0.68034916  1
  Si0+  Si116  1  0.57160432  0.17865068  0.98379995  1
  Si0+  Si117  1  0.17966037  0.92461823  0.01787421  1
  Si0+  Si118  1  0.32099183  0.57095185  0.01464521  1
  Si0+  Si119  1  0.68097427  0.92881672  0.68163966  1
  O2-  O120  1  0.24805120  -0.00728504  0.06337048  1
  O2-  O121  1  0.25357196  -0.00388122  0.38922740  1
  O2-  O122  1  0.25632424  -0.00897538  0.73049942  1
  O2-  O123  1  0.24959531  0.50022906  0.05853090  1
  O2-  O124  1  0.25406799  0.49645464  0.39073979  1
  O2-  O125  1  0.25741835  0.50009293  0.72836508  1
  O2-  O126  1  0.75504905  -0.00092053  0.06265915  1
  O2-  O127  1  0.74761252  0.00492559  0.40036645  1
  O2-  O128  1  0.74924805  0.00308359  0.72268957  1
  O2-  O129  1  0.74226563  0.49724075  0.05828279  1
  O2-  O130  1  0.74864994  0.50241716  0.39895481  1
  O2-  O131  1  0.74765035  0.50161084  0.72512776  1
  O2-  O132  1  -0.00981261  0.24819171  0.27506155  1
  O2-  O133  1  -0.00436316  0.24973327  0.60797716  1
  O2-  O134  1  -0.00192165  0.23985243  0.93755729  1
  O2-  O135  1  -0.00584887  0.74182781  0.27960964  1
  O2-  O136  1  0.00312454  0.75254181  0.60722782  1
  O2-  O137  1  0.00251390  0.75070152  0.93403326  1
  O2-  O138  1  0.50329913  0.25458282  0.26861217  1
  O2-  O139  1  0.50147704  0.24361469  0.60730284  1
  O2-  O140  1  0.50186958  0.24512488  0.93737632  1
  O2-  O141  1  0.50422902  0.75855333  0.27048840  1
  O2-  O142  1  0.50324392  0.74526451  0.60626860  1
  O2-  O143  1  0.50316474  0.75230541  0.93478009  1
  O2-  O144  1  0.07556974  0.18128635  0.08615053  1
  O2-  O145  1  0.07181968  0.17968743  0.43325189  1
  O2-  O146  1  0.06397342  0.18055874  0.75733664  1
  O2-  O147  1  0.07018598  0.67582517  0.09861513  1
  O2-  O148  1  0.07243556  0.67759864  0.42590526  1
  O2-  O149  1  0.06667000  0.67344999  0.75411007  1
  O2-  O150  1  0.57266164  0.18226463  0.08877594  1
  O2-  O151  1  0.56794975  0.18056667  0.43166004  1
  O2-  O152  1  0.58060923  0.18214885  0.75549815  1
  O2-  O153  1  0.57132356  0.67589989  0.09817208  1
  O2-  O154  1  0.56692887  0.68199629  0.43326114  1
  O2-  O155  1  0.57748749  0.67896864  0.75386155  1
  O2-  O156  1  0.17715519  0.43102381  0.24319942  1
  O2-  O157  1  0.17834639  0.42993857  0.56797440  1
  O2-  O158  1  0.17904423  0.42868893  0.91173063  1
  O2-  O159  1  0.17908759  0.92617220  0.24178582  1
  O2-  O160  1  0.17436265  0.93113469  0.56784244  1
  O2-  O161  1  0.17943424  0.92614086  0.91227814  1
  O2-  O162  1  0.67813778  0.43126275  0.23466859  1
  O2-  O163  1  0.67932236  0.42746269  0.57851908  1
  O2-  O164  1  0.67651880  0.42874660  0.90785087  1
  O2-  O165  1  0.68109155  0.92705919  0.23818338  1
  O2-  O166  1  0.68215082  0.92791643  0.57691171  1
  O2-  O167  1  0.68089491  0.93065869  0.90035003  1
  O2-  O168  1  0.42848618  0.32054126  0.09734955  1
  O2-  O169  1  0.42311454  0.31866395  0.43230129  1
  O2-  O170  1  0.42871952  0.31716669  0.76609466  1
  O2-  O171  1  0.42915230  0.81977785  0.09797428  1
  O2-  O172  1  0.42161211  0.81938085  0.43330108  1
  O2-  O173  1  0.43323212  0.82058615  0.76570524  1
  O2-  O174  1  0.93222848  0.32056876  0.10060247  1
  O2-  O175  1  0.93548028  0.32625166  0.42533047  1
  O2-  O176  1  0.92719214  0.32305595  0.75483853  1
  O2-  O177  1  0.93062978  0.81903626  0.09944211  1
  O2-  O178  1  0.93638050  0.82158731  0.42690682  1
  O2-  O179  1  0.92813078  0.82102239  0.75421841  1
  O2-  O180  1  0.31387757  0.07573989  0.24287722  1
  O2-  O181  1  0.31825894  0.07161571  0.56664876  1
  O2-  O182  1  0.31708227  0.07201021  0.90393893  1
  O2-  O183  1  0.31366256  0.57455603  0.24245133  1
  O2-  O184  1  0.31974041  0.57167914  0.57747213  1
  O2-  O185  1  0.31951107  0.56920674  0.90947242  1
  O2-  O186  1  0.82743837  0.06560989  0.23519456  1
  O2-  O187  1  0.82415049  0.07040324  0.57563634  1
  O2-  O188  1  0.81830594  0.07442711  0.89886836  1
  O2-  O189  1  0.82889355  0.56963574  0.23672091  1
  O2-  O190  1  0.82225901  0.56985707  0.57861998  1
  O2-  O191  1  0.82036240  0.56509972  0.89816017  1
  O2-  O192  1  0.04400782  0.08011252  0.26398678  1
  O2-  O193  1  0.03922038  0.08751892  0.60484003  1
  O2-  O194  1  0.05813196  0.08136415  0.93622844  1
  O2-  O195  1  0.04797362  0.58267860  0.27462390  1
  O2-  O196  1  0.03681810  0.58715625  0.60084554  1
  O2-  O197  1  0.04135455  0.57875619  0.93057530  1
  O2-  O198  1  0.54417983  0.08323245  0.26412961  1
  O2-  O199  1  0.55489538  0.08317310  0.60688282  1
  O2-  O200  1  0.54669052  0.08439427  0.93979292  1
  O2-  O201  1  0.54204812  0.58567102  0.26572742  1
  O2-  O202  1  0.55185425  0.58358872  0.60387188  1
  O2-  O203  1  0.54085290  0.58220658  0.92830362  1
  O2-  O204  1  0.16109920  0.21387838  0.26119444  1
  O2-  O205  1  0.15840501  0.20905265  0.60603553  1
  O2-  O206  1  0.16258756  0.21316760  0.93283854  1
  O2-  O207  1  0.15898201  0.70789902  0.27059075  1
  O2-  O208  1  0.16291636  0.69911024  0.60176196  1
  O2-  O209  1  0.16999308  0.70086621  0.92980867  1
  O2-  O210  1  0.67476024  0.20587206  0.26846042  1
  O2-  O211  1  0.66600214  0.20994998  0.60113087  1
  O2-  O212  1  0.66399935  0.20464223  0.93471371  1
  O2-  O213  1  0.67445858  0.70632074  0.27200129  1
  O2-  O214  1  0.66817491  0.70617638  0.60261223  1
  O2-  O215  1  0.67129410  0.70390644  0.93106330  1
  O2-  O216  1  0.08742675  0.45706123  0.06454511  1
  O2-  O217  1  0.09144612  0.45802769  0.39975665  1
  O2-  O218  1  0.08338783  0.46317605  0.73544626  1
  O2-  O219  1  0.08584489  0.95083941  0.06350916  1
  O2-  O220  1  0.09024001  0.95800947  0.39557020  1
  O2-  O221  1  0.08129843  0.96095412  0.73677659  1
  O2-  O222  1  0.57927278  0.45231625  0.05723686  1
  O2-  O223  1  0.57756893  0.46056986  0.40233697  1
  O2-  O224  1  0.58520989  0.45509220  0.72962096  1
  O2-  O225  1  0.58355354  0.95686575  0.06931117  1
  O2-  O226  1  0.57682849  0.96032381  0.40289403  1
  O2-  O227  1  0.58916504  0.95389767  0.72960017  1
  O2-  O228  1  0.20664695  0.33762795  0.06466632  1
  O2-  O229  1  0.20674868  0.33525216  0.39413982  1
  O2-  O230  1  0.20520204  0.33238800  0.73736100  1
  O2-  O231  1  0.20279024  0.82922894  0.06155288  1
  O2-  O232  1  0.20425381  0.83478696  0.39503149  1
  O2-  O233  1  0.19460983  0.82351492  0.72994622  1
  O2-  O234  1  0.70042079  0.33473528  0.05850285  1
  O2-  O235  1  0.70522128  0.33351477  0.40570437  1
  O2-  O236  1  0.70799593  0.33822512  0.73158219  1
  O2-  O237  1  0.70968488  0.82956092  0.06607082  1
  O2-  O238  1  0.70792320  0.83515024  0.40871846  1
  O2-  O239  1  0.71306477  0.83770020  0.72806084  1
  O2-  O240  1  0.44998028  0.42355120  0.26891402  1
  O2-  O241  1  0.45610609  0.41667220  0.60092473  1
  O2-  O242  1  0.45512252  0.41524091  0.92742397  1
  O2-  O243  1  0.44387429  0.92596090  0.27252015  1
  O2-  O244  1  0.46056861  0.91831477  0.59998402  1
  O2-  O245  1  0.45803530  0.92332747  0.93484103  1
  O2-  O246  1  0.96473620  0.41397467  0.27226692  1
  O2-  O247  1  0.95941498  0.41443957  0.60333308  1
  O2-  O248  1  0.96398401  0.41085256  0.92982847  1
  O2-  O249  1  0.96616440  0.90707519  0.27118543  1
  O2-  O250  1  0.95708767  0.91474784  0.60336931  1
  O2-  O251  1  0.95750242  0.92012678  0.93112418  1
  O2-  O252  1  0.33080499  0.29168384  0.26410957  1
  O2-  O253  1  0.32844279  0.28927025  0.60180523  1
  O2-  O254  1  0.33021472  0.28740631  0.93329916  1
  O2-  O255  1  0.32983175  0.78849504  0.26493653  1
  O2-  O256  1  0.33068575  0.79184180  0.60128732  1
  O2-  O257  1  0.33293790  0.79287641  0.93111045  1
  O2-  O258  1  0.83268924  0.30892469  0.27826936  1
  O2-  O259  1  0.83458324  0.29928839  0.60327172  1
  O2-  O260  1  0.83095838  0.29237928  0.93010447  1
  O2-  O261  1  0.83590066  0.79973757  0.27931865  1
  O2-  O262  1  0.83972212  0.79071890  0.60087494  1
  O2-  O263  1  0.83358983  0.79057416  0.92920425  1
  O2-  O264  1  0.41725876  0.04576167  0.07137527  1
  O2-  O265  1  0.41219022  0.05477104  0.39411304  1
  O2-  O266  1  0.42375809  0.04831828  0.73235442  1
  O2-  O267  1  0.41231844  0.54012595  0.06074179  1
  O2-  O268  1  0.41218399  0.55245393  0.39436453  1
  O2-  O269  1  0.41915550  0.54993437  0.72653678  1
  O2-  O270  1  0.92663456  0.05250852  0.05980669  1
  O2-  O271  1  0.92119324  0.03601569  0.40169808  1
  O2-  O272  1  0.91164907  0.04418937  0.72961796  1
  O2-  O273  1  0.91651480  0.53366504  0.06467762  1
  O2-  O274  1  0.92095262  0.54088672  0.40553477  1
  O2-  O275  1  0.91141093  0.54070288  0.73062731  1
  O2-  O276  1  0.28341839  0.16604825  0.07104188  1
  O2-  O277  1  0.28237909  0.16278327  0.39504885  1
  O2-  O278  1  0.28557855  0.16401160  0.73526672  1
  O2-  O279  1  0.29282821  0.66243901  0.06220246  1
  O2-  O280  1  0.28368524  0.66140460  0.39755438  1
  O2-  O281  1  0.29356010  0.66327992  0.73007869  1
  O2-  O282  1  0.79443819  0.17194432  0.06609724  1
  O2-  O283  1  0.80408594  0.17238613  0.40014186  1
  O2-  O284  1  0.79563189  0.16659171  0.72443754  1
  O2-  O285  1  0.79630521  0.66586559  0.06423531  1
  O2-  O286  1  0.79846169  0.67063762  0.40576363  1
  O2-  O287  1  0.79494022  0.66427053  0.72879398  1
