# generated using pymatgen
data_Ca2Al2SiO7
_symmetry_space_group_name_H-M   'P 1'
_cell_length_a   15.45557289
_cell_length_b   15.45502761
_cell_length_c   15.28130758
_cell_angle_alpha   90.00281182
_cell_angle_beta   89.99062400
_cell_angle_gamma   90.01919144
_symmetry_Int_Tables_number   1
_chemical_formula_structural   Ca2Al2SiO7
_chemical_formula_sum   'Ca48 Al48 Si24 O168'
_cell_volume   3650.18923048
_cell_formula_units_Z   24
loop_
 _symmetry_equiv_pos_site_id
 _symmetry_equiv_pos_as_xyz
  1  'x, y, z'
loop_
 _atom_type_symbol
 _atom_type_oxidation_number
  Ca2+  2.0
  Al0+  0.0
  Si0+  0.0
  O2-  -2.0
loop_
 _atom_site_type_symbol
 _atom_site_label
 _atom_site_symmetry_multiplicity
 _atom_site_fract_x
 _atom_site_fract_y
 _atom_site_fract_z
 _atom_site_occupancy
  Ca2+  Ca0  1  0.16959321  0.07491401  0.17001121  1
  Ca2+  Ca1  1  0.17981228  0.08823528  0.50238520  1
  Ca2+  Ca2  1  0.17430499  0.08226246  0.83609409  1
  Ca2+  Ca3  1  0.16691992  0.58077206  0.16861106  1
  Ca2+  Ca4  1  0.18065503  0.57739274  0.50578916  1
  Ca2+  Ca5  1  0.16577414  0.57370802  0.83635519  1
  Ca2+  Ca6  1  0.67310749  0.08469880  0.16569064  1
  Ca2+  Ca7  1  0.67517507  0.07921101  0.50701329  1
  Ca2+  Ca8  1  0.67434576  0.07753204  0.84050513  1
  Ca2+  Ca9  1  0.67497187  0.57635400  0.17676947  1
  Ca2+  Ca10  1  0.66458714  0.57285300  0.50351515  1
  Ca2+  Ca11  1  0.66053444  0.57771845  0.83043845  1
  Ca2+  Ca12  1  0.07775280  0.33478553  0.16350891  1
  Ca2+  Ca13  1  0.07185516  0.33966101  0.49841242  1
  Ca2+  Ca14  1  0.07980885  0.33822336  0.82526701  1
  Ca2+  Ca15  1  0.07816242  0.82724274  0.15265002  1
  Ca2+  Ca16  1  0.08324462  0.83058169  0.49557943  1
  Ca2+  Ca17  1  0.08143391  0.83590304  0.83567058  1
  Ca2+  Ca18  1  0.58016317  0.33035066  0.16540754  1
  Ca2+  Ca19  1  0.57460800  0.34095865  0.49582775  1
  Ca2+  Ca20  1  0.58030036  0.32635467  0.82450398  1
  Ca2+  Ca21  1  0.57777957  0.83887839  0.16264083  1
  Ca2+  Ca22  1  0.58240916  0.82903009  0.49884563  1
  Ca2+  Ca23  1  0.59251219  0.82860207  0.82606944  1
  Ca2+  Ca24  1  0.32812264  0.42017533  0.17427196  1
  Ca2+  Ca25  1  0.33580951  0.42196993  0.51068368  1
  Ca2+  Ca26  1  0.32670857  0.41714061  0.83217862  1
  Ca2+  Ca27  1  0.33012505  0.91875429  0.17382750  1
  Ca2+  Ca28  1  0.34311607  0.92880700  0.50064274  1
  Ca2+  Ca29  1  0.33084315  0.92269321  0.83645710  1
  Ca2+  Ca30  1  0.82789595  0.42081196  0.17913793  1
  Ca2+  Ca31  1  0.82343477  0.41132810  0.50265587  1
  Ca2+  Ca32  1  0.82860262  0.41062588  0.83156906  1
  Ca2+  Ca33  1  0.83332057  0.92431626  0.16840491  1
  Ca2+  Ca34  1  0.82990184  0.92936932  0.50886799  1
  Ca2+  Ca35  1  0.82636399  0.92413979  0.84126678  1
  Ca2+  Ca36  1  0.42135945  0.16940812  0.16380934  1
  Ca2+  Ca37  1  0.41101380  0.17738572  0.49364001  1
  Ca2+  Ca38  1  0.42229342  0.16788483  0.82588254  1
  Ca2+  Ca39  1  0.41253673  0.67062199  0.16865094  1
  Ca2+  Ca40  1  0.42048325  0.66398998  0.49423912  1
  Ca2+  Ca41  1  0.42144392  0.66813813  0.82295089  1
  Ca2+  Ca42  1  0.90611046  0.17071615  0.16521463  1
  Ca2+  Ca43  1  0.90882741  0.17462681  0.49677996  1
  Ca2+  Ca44  1  0.91596145  0.16628055  0.82689449  1
  Ca2+  Ca45  1  0.92046140  0.67042317  0.15609222  1
  Ca2+  Ca46  1  0.91751013  0.66400982  0.49439654  1
  Ca2+  Ca47  1  0.92088305  0.67249489  0.83260485  1
  Al0+  Al48  1  0.00125045  0.00264108  0.00356179  1
  Al0+  Al49  1  0.00000518  -0.00111179  0.33782687  1
  Al0+  Al50  1  0.00150103  0.00038165  0.66691896  1
  Al0+  Al51  1  0.00081606  0.50022756  -0.00047356  1
  Al0+  Al52  1  -0.00017666  0.49972472  0.33090774  1
  Al0+  Al53  1  -0.00002132  0.50076965  0.66373558  1
  Al0+  Al54  1  0.50199120  0.00164920  -0.00168081  1
  Al0+  Al55  1  0.49906159  -0.00086010  0.33210971  1
  Al0+  Al56  1  0.50100632  -0.00138561  0.67424331  1
  Al0+  Al57  1  0.49822437  0.50126522  0.00083082  1
  Al0+  Al58  1  0.49934404  0.50006259  0.33179660  1
  Al0+  Al59  1  0.50159326  0.50087825  0.66807929  1
  Al0+  Al60  1  0.24796894  0.25343814  0.00520495  1
  Al0+  Al61  1  0.24788901  0.24830812  0.32986496  1
  Al0+  Al62  1  0.24973987  0.24908290  0.67135174  1
  Al0+  Al63  1  0.25077238  0.74941747  -0.00250614  1
  Al0+  Al64  1  0.24972073  0.74798162  0.33277526  1
  Al0+  Al65  1  0.25034840  0.75075783  0.66807599  1
  Al0+  Al66  1  0.74720325  0.25009641  -0.00168511  1
  Al0+  Al67  1  0.74922958  0.24911975  0.33617235  1
  Al0+  Al68  1  0.75053964  0.25019307  0.67047693  1
  Al0+  Al69  1  0.74896603  0.75078027  -0.00025417  1
  Al0+  Al70  1  0.75088979  0.74945394  0.33478016  1
  Al0+  Al71  1  0.75076789  0.74924416  0.66214842  1
  Al0+  Al72  1  0.92840213  0.82337659  0.98465594  1
  Al0+  Al73  1  0.18111367  0.92913776  0.01277429  1
  Al0+  Al74  1  0.68038418  0.92705987  0.68113389  1
  Al0+  Al75  1  0.31901149  0.57016047  0.34609811  1
  Al0+  Al76  1  0.32290299  0.57215331  0.68221754  1
  Al0+  Al77  1  0.92879650  0.31899315  0.31888260  1
  Al0+  Al78  1  0.82200849  0.07207022  0.68298602  1
  Al0+  Al79  1  0.32099496  0.07062625  0.34470541  1
  Al0+  Al80  1  0.92890601  0.32029403  0.65311442  1
  Al0+  Al81  1  0.82105475  0.06953290  0.34855795  1
  Al0+  Al82  1  0.42704355  0.32259823  0.31901630  1
  Al0+  Al83  1  0.17789498  0.43001289  0.68022109  1
  Al0+  Al84  1  0.67855388  0.92669660  0.01732942  1
  Al0+  Al85  1  0.67907950  0.42899905  0.34774577  1
  Al0+  Al86  1  0.32124743  0.07142561  0.68056051  1
  Al0+  Al87  1  0.82129047  0.07266731  0.01625195  1
  Al0+  Al88  1  0.17763828  0.43004744  0.01622807  1
  Al0+  Al89  1  0.67934190  0.43001980  0.68157525  1
  Al0+  Al90  1  0.07217625  0.67802360  0.98253501  1
  Al0+  Al91  1  0.57108804  0.67949757  0.65156286  1
  Al0+  Al92  1  0.82352982  0.57263023  0.34755296  1
  Al0+  Al93  1  0.43013477  0.82055968  0.31985073  1
  Al0+  Al94  1  0.56984094  0.18069353  0.98492244  1
  Al0+  Al95  1  0.42961572  0.31832007  0.65487572  1
  Si0+  Si96  1  0.82015780  0.56982281  0.01191393  1
  Si0+  Si97  1  0.92892212  0.82233584  0.31916916  1
  Si0+  Si98  1  0.32341026  0.57197343  0.01792386  1
  Si0+  Si99  1  0.07195087  0.67911540  0.64953274  1
  Si0+  Si100  1  0.07286022  0.17996877  0.98566063  1
  Si0+  Si101  1  0.67742510  0.42928731  0.01411361  1
  Si0+  Si102  1  0.67644860  0.92709784  0.35013830  1
  Si0+  Si103  1  0.57069624  0.67832467  0.98579070  1
  Si0+  Si104  1  0.17868705  0.92658818  0.34979664  1
  Si0+  Si105  1  0.17745418  0.42635104  0.34962070  1
  Si0+  Si106  1  0.42910174  0.82162237  0.98454222  1
  Si0+  Si107  1  0.57289590  0.67788835  0.31486134  1
  Si0+  Si108  1  0.42615286  0.82326661  0.65028146  1
  Si0+  Si109  1  0.92893704  0.32058993  0.98566009  1
  Si0+  Si110  1  0.32296908  0.07292725  0.01714461  1
  Si0+  Si111  1  0.93052947  0.82144130  0.65014356  1
  Si0+  Si112  1  0.17740152  0.92693255  0.68285648  1
  Si0+  Si113  1  0.57109763  0.17742389  0.31785518  1
  Si0+  Si114  1  0.42624793  0.32353655  0.98311935  1
  Si0+  Si115  1  0.82329111  0.57245355  0.68385229  1
  Si0+  Si116  1  0.07282438  0.17581318  0.64963118  1
  Si0+  Si117  1  0.07057738  0.67973276  0.31828095  1
  Si0+  Si118  1  0.57187061  0.17600061  0.65010197  1
  Si0+  Si119  1  0.07166289  0.17570315  0.31513657  1
  O2-  O120  1  0.25619317  0.00228581  0.06123567  1
  O2-  O121  1  0.24702755  -0.00429476  0.39316372  1
  O2-  O122  1  0.24736109  -0.00502759  0.72552157  1
  O2-  O123  1  0.25348591  0.50416864  0.06138362  1
  O2-  O124  1  0.25102651  0.48976975  0.39306156  1
  O2-  O125  1  0.25038682  0.50075232  0.73180454  1
  O2-  O126  1  0.75172772  -0.00206302  0.06622650  1
  O2-  O127  1  0.74701322  -0.00623064  0.39384560  1
  O2-  O128  1  0.75011573  0.00015193  0.73194766  1
  O2-  O129  1  0.74892212  0.49984329  0.05519260  1
  O2-  O130  1  0.75177590  0.50088484  0.39734837  1
  O2-  O131  1  0.75555739  0.50338989  0.72911756  1
  O2-  O132  1  0.00181570  0.24330000  0.27036358  1
  O2-  O133  1  0.00301623  0.24417533  0.60670223  1
  O2-  O134  1  -0.00028526  0.24914829  0.94401441  1
  O2-  O135  1  -0.00279774  0.74881626  0.27693337  1
  O2-  O136  1  0.00199550  0.75111623  0.60657606  1
  O2-  O137  1  0.00166163  0.75242177  0.93343589  1
  O2-  O138  1  0.50188201  0.24680290  0.27408197  1
  O2-  O139  1  0.50254309  0.24321413  0.60481137  1
  O2-  O140  1  0.49308477  0.25364035  0.93881652  1
  O2-  O141  1  0.50582072  0.74813154  0.27008959  1
  O2-  O142  1  0.49399482  0.75320218  0.60695993  1
  O2-  O143  1  0.50175306  0.75162342  0.94367209  1
  O2-  O144  1  0.07539190  0.18133002  0.09065412  1
  O2-  O145  1  0.07374884  0.17612083  0.42051011  1
  O2-  O146  1  0.07267731  0.17410437  0.75554443  1
  O2-  O147  1  0.06896104  0.67786207  0.09678555  1
  O2-  O148  1  0.07193586  0.68220683  0.42363406  1
  O2-  O149  1  0.07042992  0.67913459  0.75424634  1
  O2-  O150  1  0.56986857  0.18372379  0.09844999  1
  O2-  O151  1  0.56979848  0.17555936  0.42329008  1
  O2-  O152  1  0.56979550  0.17836765  0.75592752  1
  O2-  O153  1  0.56943179  0.67523102  0.09069701  1
  O2-  O154  1  0.57187925  0.67826702  0.42022257  1
  O2-  O155  1  0.57057951  0.68085581  0.76545802  1
  O2-  O156  1  0.17622523  0.42997719  0.24367978  1
  O2-  O157  1  0.17705605  0.43270215  0.56661964  1
  O2-  O158  1  0.17708159  0.42953282  0.90357965  1
  O2-  O159  1  0.17851353  0.92643188  0.24415075  1
  O2-  O160  1  0.17563530  0.92591461  0.57718019  1
  O2-  O161  1  0.18382031  0.93219379  0.89965291  1
  O2-  O162  1  0.68060679  0.43068720  0.23305318  1
  O2-  O163  1  0.67864814  0.43076276  0.56901404  1
  O2-  O164  1  0.67703460  0.43004528  0.90911983  1
  O2-  O165  1  0.67664368  0.92714920  0.24464053  1
  O2-  O166  1  0.68230523  0.92771909  0.56705079  1
  O2-  O167  1  0.67981040  0.92595893  0.90427450  1
  O2-  O168  1  0.42825505  0.32428694  0.08895816  1
  O2-  O169  1  0.42645384  0.32217487  0.43209829  1
  O2-  O170  1  0.43055096  0.31624979  0.76826253  1
  O2-  O171  1  0.42794066  0.81994678  0.08988982  1
  O2-  O172  1  0.43162821  0.82109687  0.43258495  1
  O2-  O173  1  0.42458329  0.82247631  0.75615522  1
  O2-  O174  1  0.92893363  0.32101973  0.09090561  1
  O2-  O175  1  0.92997061  0.31880570  0.43164806  1
  O2-  O176  1  0.93134827  0.32087821  0.76680254  1
  O2-  O177  1  0.92963513  0.81907323  0.09891017  1
  O2-  O178  1  0.93210878  0.82341670  0.42450793  1
  O2-  O179  1  0.93162489  0.82101052  0.75490066  1
  O2-  O180  1  0.31924654  0.06800492  0.23158240  1
  O2-  O181  1  0.32030477  0.07136859  0.56722056  1
  O2-  O182  1  0.32110606  0.07268768  0.91143263  1
  O2-  O183  1  0.31427412  0.57232207  0.23280045  1
  O2-  O184  1  0.32100166  0.57204314  0.56835720  1
  O2-  O185  1  0.32746551  0.57051451  0.91286215  1
  O2-  O186  1  0.82056118  0.06863629  0.23570693  1
  O2-  O187  1  0.82095501  0.07000870  0.56901615  1
  O2-  O188  1  0.81983798  0.07410704  0.90318576  1
  O2-  O189  1  0.82230298  0.57209971  0.23304002  1
  O2-  O190  1  0.82338554  0.57221322  0.57842529  1
  O2-  O191  1  0.81994932  0.56864142  0.90687253  1
  O2-  O192  1  0.04691698  0.08029420  0.27146448  1
  O2-  O193  1  0.05021410  0.08185639  0.60182259  1
  O2-  O194  1  0.04811825  0.08791396  0.93782174  1
  O2-  O195  1  0.04530031  0.58762023  0.27014528  1
  O2-  O196  1  0.04258184  0.58906064  0.59987182  1
  O2-  O197  1  0.03886911  0.58079407  0.92956438  1
  O2-  O198  1  0.54448399  0.08484623  0.26968083  1
  O2-  O199  1  0.54827666  0.08051582  0.60728582  1
  O2-  O200  1  0.54152711  0.08345983  0.93042364  1
  O2-  O201  1  0.54542709  0.58564969  0.26702804  1
  O2-  O202  1  0.54043560  0.58322433  0.59761975  1
  O2-  O203  1  0.54056104  0.58707204  0.93710845  1
  O2-  O204  1  0.16375156  0.20132742  0.26552313  1
  O2-  O205  1  0.16627472  0.20299957  0.60439488  1
  O2-  O206  1  0.16430848  0.21001949  0.93778088  1
  O2-  O207  1  0.16066823  0.70947677  0.26881095  1
  O2-  O208  1  0.16408674  0.70794879  0.60228838  1
  O2-  O209  1  0.17153407  0.70406640  0.93068483  1
  O2-  O210  1  0.66391684  0.20472300  0.27112822  1
  O2-  O211  1  0.66606710  0.20240438  0.60668734  1
  O2-  O212  1  0.66478365  0.21443922  0.92901323  1
  O2-  O213  1  0.66811979  0.70144026  0.26996482  1
  O2-  O214  1  0.66738034  0.70954112  0.59546790  1
  O2-  O215  1  0.66277023  0.70298052  0.93768775  1
  O2-  O216  1  0.08119958  0.46215161  0.07066904  1
  O2-  O217  1  0.08568205  0.45783396  0.39512571  1
  O2-  O218  1  0.08032073  0.46233198  0.73346786  1
  O2-  O219  1  0.08580452  0.96042396  0.06871396  1
  O2-  O220  1  0.08571023  0.95112670  0.39767366  1
  O2-  O221  1  0.08504706  0.95388897  0.73015347  1
  O2-  O222  1  0.58566133  0.45791159  0.06149972  1
  O2-  O223  1  0.58083253  0.45924112  0.39899722  1
  O2-  O224  1  0.58528167  0.46351707  0.73819863  1
  O2-  O225  1  0.57955239  0.95789173  0.06833844  1
  O2-  O226  1  0.58365108  0.95417182  0.39623817  1
  O2-  O227  1  0.58144742  0.94941197  0.73512252  1
  O2-  O228  1  0.20637474  0.33397581  0.07302765  1
  O2-  O229  1  0.19553144  0.33014830  0.39149589  1
  O2-  O230  1  0.20301514  0.33133714  0.73370104  1
  O2-  O231  1  0.21005991  0.83125670  0.06563681  1
  O2-  O232  1  0.20434527  0.83338689  0.39588671  1
  O2-  O233  1  0.20143049  0.83380900  0.73016340  1
  O2-  O234  1  0.70554410  0.33829302  0.06149724  1
  O2-  O235  1  0.70553446  0.33103469  0.40095222  1
  O2-  O236  1  0.71008603  0.33421299  0.73693487  1
  O2-  O237  1  0.70342376  0.82699107  0.07025761  1
  O2-  O238  1  0.69980263  0.83237585  0.39444291  1
  O2-  O239  1  0.71179113  0.82854846  0.73214812  1
  O2-  O240  1  0.45819693  0.41835299  0.26270352  1
  O2-  O241  1  0.46173860  0.41536379  0.60308257  1
  O2-  O242  1  0.45338898  0.41731176  0.93804904  1
  O2-  O243  1  0.45872930  0.91702869  0.26330056  1
  O2-  O244  1  0.45511812  0.91691849  0.60561200  1
  O2-  O245  1  0.45356628  0.91466341  0.93836158  1
  O2-  O246  1  0.96003840  0.41606093  0.26407615  1
  O2-  O247  1  0.95970840  0.41708579  0.59829366  1
  O2-  O248  1  0.95751716  0.41186251  0.93829208  1
  O2-  O249  1  0.95932610  0.91323875  0.27137277  1
  O2-  O250  1  0.95974908  0.91315468  0.60218641  1
  O2-  O251  1  0.95844989  0.92257021  0.93431999  1
  O2-  O252  1  0.33034416  0.29151072  0.26432564  1
  O2-  O253  1  0.33163132  0.28899966  0.60241146  1
  O2-  O254  1  0.33080453  0.29970541  0.94043953  1
  O2-  O255  1  0.33335530  0.78740492  0.26577047  1
  O2-  O256  1  0.33148679  0.80156004  0.60412041  1
  O2-  O257  1  0.33872944  0.79290964  0.93513128  1
  O2-  O258  1  0.83119124  0.28904837  0.26546759  1
  O2-  O259  1  0.83149595  0.28997281  0.60005500  1
  O2-  O260  1  0.83652226  0.29429207  0.93882134  1
  O2-  O261  1  0.83563876  0.79824887  0.27290041  1
  O2-  O262  1  0.84017655  0.79271945  0.60082447  1
  O2-  O263  1  0.83049847  0.79153533  0.93212900  1
  O2-  O264  1  0.41699247  0.04826997  0.06146441  1
  O2-  O265  1  0.41690079  0.03971423  0.39950604  1
  O2-  O266  1  0.41632769  0.04100266  0.73714334  1
  O2-  O267  1  0.41609478  0.54547907  0.06693099  1
  O2-  O268  1  0.41806311  0.54599555  0.39632423  1
  O2-  O269  1  0.42033020  0.54401476  0.73564013  1
  O2-  O270  1  0.92119962  0.05037892  0.06852260  1
  O2-  O271  1  0.91772075  0.03945862  0.40328776  1
  O2-  O272  1  0.92185629  0.04368390  0.73270645  1
  O2-  O273  1  0.91129878  0.54170391  0.06008957  1
  O2-  O274  1  0.92288217  0.54619001  0.39894500  1
  O2-  O275  1  0.91701239  0.54774111  0.72934964  1
  O2-  O276  1  0.29555728  0.16617457  0.06265212  1
  O2-  O277  1  0.28789362  0.16676514  0.39856506  1
  O2-  O278  1  0.28839367  0.16481972  0.73865619  1
  O2-  O279  1  0.29823673  0.66635160  0.06217652  1
  O2-  O280  1  0.28425851  0.66476510  0.40159782  1
  O2-  O281  1  0.29514378  0.67146782  0.73376004  1
  O2-  O282  1  0.78623856  0.17048253  0.06856002  1
  O2-  O283  1  0.78937988  0.16534470  0.40200070  1
  O2-  O284  1  0.79569984  0.17000188  0.73623340  1
  O2-  O285  1  0.79295524  0.66142231  0.05965118  1
  O2-  O286  1  0.79857967  0.67196494  0.40064259  1
  O2-  O287  1  0.79650376  0.66595163  0.72864309  1
