# generated using pymatgen
data_Ca2Al2SiO7
_symmetry_space_group_name_H-M   'P 1'
_cell_length_a   15.46725515
_cell_length_b   15.46573628
_cell_length_c   15.28910745
_cell_angle_alpha   89.99781525
_cell_angle_beta   89.99043595
_cell_angle_gamma   90.00421005
_symmetry_Int_Tables_number   1
_chemical_formula_structural   Ca2Al2SiO7
_chemical_formula_sum   'Ca48 Al48 Si24 O168'
_cell_volume   3657.34538751
_cell_formula_units_Z   24
loop_
 _symmetry_equiv_pos_site_id
 _symmetry_equiv_pos_as_xyz
  1  'x, y, z'
loop_
 _atom_type_symbol
 _atom_type_oxidation_number
  Ca2+  2.0
  Al0+  0.0
  Si0+  0.0
  O2-  -2.0
loop_
 _atom_site_type_symbol
 _atom_site_label
 _atom_site_symmetry_multiplicity
 _atom_site_fract_x
 _atom_site_fract_y
 _atom_site_fract_z
 _atom_site_occupancy
  Ca2+  Ca0  1  0.17077948  0.08827179  0.16848088  1
  Ca2+  Ca1  1  0.16892342  0.08784407  0.50282927  1
  Ca2+  Ca2  1  0.17939619  0.08261680  0.83684601  1
  Ca2+  Ca3  1  0.17865412  0.58305113  0.17786560  1
  Ca2+  Ca4  1  0.16487894  0.58277815  0.49514579  1
  Ca2+  Ca5  1  0.17330725  0.58278548  0.84397479  1
  Ca2+  Ca6  1  0.66482025  0.07359431  0.16643289  1
  Ca2+  Ca7  1  0.67506918  0.06781824  0.50806302  1
  Ca2+  Ca8  1  0.67161901  0.07217970  0.84406174  1
  Ca2+  Ca9  1  0.66536379  0.58512858  0.16733164  1
  Ca2+  Ca10  1  0.66228310  0.58589503  0.50144969  1
  Ca2+  Ca11  1  0.66668797  0.58049945  0.84319079  1
  Ca2+  Ca12  1  0.07652228  0.33482467  0.16791664  1
  Ca2+  Ca13  1  0.07919968  0.32719355  0.48526114  1
  Ca2+  Ca14  1  0.07533313  0.33383766  0.83449471  1
  Ca2+  Ca15  1  0.07848707  0.83075817  0.16635374  1
  Ca2+  Ca16  1  0.06997813  0.83291352  0.49133624  1
  Ca2+  Ca17  1  0.07504242  0.83328966  0.82894647  1
  Ca2+  Ca18  1  0.58037899  0.33075128  0.15802803  1
  Ca2+  Ca19  1  0.57463701  0.32820599  0.49144377  1
  Ca2+  Ca20  1  0.59226678  0.32494433  0.83753883  1
  Ca2+  Ca21  1  0.58413054  0.82588161  0.15970364  1
  Ca2+  Ca22  1  0.59171063  0.82578177  0.49613490  1
  Ca2+  Ca23  1  0.59303175  0.82522633  0.83325787  1
  Ca2+  Ca24  1  0.33378313  0.42764571  0.17703058  1
  Ca2+  Ca25  1  0.33121494  0.41928861  0.49461955  1
  Ca2+  Ca26  1  0.33089674  0.42498383  0.84161898  1
  Ca2+  Ca27  1  0.34341995  0.92206180  0.16580526  1
  Ca2+  Ca28  1  0.32940149  0.92404093  0.50510330  1
  Ca2+  Ca29  1  0.33763392  0.92233665  0.84180569  1
  Ca2+  Ca30  1  0.83264459  0.41597866  0.16481524  1
  Ca2+  Ca31  1  0.83703371  0.41792521  0.49955102  1
  Ca2+  Ca32  1  0.82801172  0.42454205  0.84899977  1
  Ca2+  Ca33  1  0.82112632  0.91336933  0.17195595  1
  Ca2+  Ca34  1  0.82881500  0.91247738  0.50602922  1
  Ca2+  Ca35  1  0.82573475  0.92266614  0.83791744  1
  Ca2+  Ca36  1  0.41968321  0.17324546  0.15880627  1
  Ca2+  Ca37  1  0.41328537  0.17169735  0.49301936  1
  Ca2+  Ca38  1  0.42300359  0.15633166  0.83436409  1
  Ca2+  Ca39  1  0.42354242  0.66665076  0.15797875  1
  Ca2+  Ca40  1  0.42811974  0.66483712  0.49226854  1
  Ca2+  Ca41  1  0.42643651  0.66947358  0.83461853  1
  Ca2+  Ca42  1  0.91392273  0.17645186  0.15998446  1
  Ca2+  Ca43  1  0.92111228  0.16921277  0.48902344  1
  Ca2+  Ca44  1  0.90375679  0.16925208  0.83343125  1
  Ca2+  Ca45  1  0.91867306  0.66673426  0.16614950  1
  Ca2+  Ca46  1  0.91908058  0.68016376  0.49155193  1
  Ca2+  Ca47  1  0.90866649  0.67392223  0.83002236  1
  Al0+  Al48  1  0.00201245  0.00153288  0.00126731  1
  Al0+  Al49  1  0.00101170  0.00124570  0.32445182  1
  Al0+  Al50  1  0.00091792  0.00156055  0.66636742  1
  Al0+  Al51  1  -0.00057286  0.49890503  -0.00181211  1
  Al0+  Al52  1  0.00050239  0.50014739  0.33183244  1
  Al0+  Al53  1  0.00085484  0.49863027  0.66744907  1
  Al0+  Al54  1  0.49870253  0.00138607  0.00201184  1
  Al0+  Al55  1  0.50207233  -0.00132867  0.34203247  1
  Al0+  Al56  1  0.50058856  -0.00194875  0.67145677  1
  Al0+  Al57  1  0.49879829  0.50022112  0.00200747  1
  Al0+  Al58  1  0.50071040  0.49972107  0.33141206  1
  Al0+  Al59  1  0.49863503  0.49934957  0.66314011  1
  Al0+  Al60  1  0.24791460  0.24904689  0.00155487  1
  Al0+  Al61  1  0.25021534  0.25326183  0.32854917  1
  Al0+  Al62  1  0.24876901  0.25175754  0.67188189  1
  Al0+  Al63  1  0.24930495  0.75019212  -0.00095222  1
  Al0+  Al64  1  0.25176629  0.75335357  0.33774245  1
  Al0+  Al65  1  0.25157660  0.74868808  0.66654666  1
  Al0+  Al66  1  0.74920464  0.25101333  -0.00169660  1
  Al0+  Al67  1  0.74973674  0.24869531  0.33248096  1
  Al0+  Al68  1  0.74787821  0.25062496  0.66439240  1
  Al0+  Al69  1  0.75154495  0.74943586  0.00305695  1
  Al0+  Al70  1  0.74896220  0.74891373  0.33066067  1
  Al0+  Al71  1  0.75104009  0.74757663  0.66152639  1
  Al0+  Al72  1  0.56880249  0.67904982  0.65196534  1
  Al0+  Al73  1  0.32069369  0.07026148  0.01538530  1
  Al0+  Al74  1  0.57234487  0.67864683  0.98442707  1
  Al0+  Al75  1  0.68071086  0.92758639  0.34946585  1
  Al0+  Al76  1  0.82267983  0.57222246  0.01606579  1
  Al0+  Al77  1  0.17883796  0.43044090  0.34855451  1
  Al0+  Al78  1  0.92783113  0.82128058  0.31599675  1
  Al0+  Al79  1  0.93014780  0.31942283  0.98405235  1
  Al0+  Al80  1  0.32371681  0.57407961  0.35084055  1
  Al0+  Al81  1  0.31951519  0.57136711  0.01282624  1
  Al0+  Al82  1  0.07254571  0.17883535  0.31688898  1
  Al0+  Al83  1  0.42802311  0.82131629  0.98538679  1
  Al0+  Al84  1  0.92611009  0.32156343  0.31753801  1
  Al0+  Al85  1  0.67815135  0.42965407  0.01516693  1
  Al0+  Al86  1  0.43051618  0.31986703  0.31962002  1
  Al0+  Al87  1  0.82274950  0.07310706  0.68014488  1
  Al0+  Al88  1  0.82229613  0.07225504  0.01638937  1
  Al0+  Al89  1  0.67922941  0.92865314  0.01630526  1
  Al0+  Al90  1  0.68126608  0.92527430  0.68299579  1
  Al0+  Al91  1  0.56958194  0.17996195  0.98681620  1
  Al0+  Al92  1  0.93153588  0.82036868  0.65452146  1
  Al0+  Al93  1  0.31991668  0.07148539  0.67958198  1
  Al0+  Al94  1  0.07314338  0.68010678  0.31904024  1
  Al0+  Al95  1  0.56927819  0.67975740  0.31899099  1
  Si0+  Si96  1  0.07343704  0.17656790  0.97892219  1
  Si0+  Si97  1  0.17827885  0.43008045  0.68336571  1
  Si0+  Si98  1  0.17795509  0.92655575  0.68212943  1
  Si0+  Si99  1  0.92757689  0.32204859  0.65192332  1
  Si0+  Si100  1  0.92957185  0.82260052  0.98476580  1
  Si0+  Si101  1  0.82153477  0.56762939  0.67879537  1
  Si0+  Si102  1  0.82299625  0.07223370  0.34857704  1
  Si0+  Si103  1  0.57078287  0.17565261  0.31890213  1
  Si0+  Si104  1  0.17655234  0.92988855  0.34846296  1
  Si0+  Si105  1  0.42776156  0.31959654  0.65234337  1
  Si0+  Si106  1  0.17711279  0.42782364  0.01684847  1
  Si0+  Si107  1  0.42599464  0.82364852  0.64874084  1
  Si0+  Si108  1  0.07059626  0.67932408  0.98534193  1
  Si0+  Si109  1  0.31995768  0.07162414  0.34725093  1
  Si0+  Si110  1  0.42801149  0.82520948  0.31999508  1
  Si0+  Si111  1  0.07491886  0.67544026  0.65101317  1
  Si0+  Si112  1  0.67640448  0.42911977  0.67920058  1
  Si0+  Si113  1  0.67863054  0.42669149  0.34942602  1
  Si0+  Si114  1  0.42560281  0.32217544  0.98245671  1
  Si0+  Si115  1  0.17746456  0.92730094  0.01742848  1
  Si0+  Si116  1  0.32243392  0.57013261  0.68215775  1
  Si0+  Si117  1  0.57091814  0.17692824  0.65089541  1
  Si0+  Si118  1  0.82038669  0.56986319  0.34960849  1
  Si0+  Si119  1  0.07217669  0.18269677  0.65352226  1
  O2-  O120  1  0.24740709  -0.00552276  0.06188949  1
  O2-  O121  1  0.24720887  0.00245199  0.38986235  1
  O2-  O122  1  0.24984806  -0.00810661  0.72595087  1
  O2-  O123  1  0.24795920  0.49415396  0.05934024  1
  O2-  O124  1  0.24889278  0.50381132  0.40076990  1
  O2-  O125  1  0.24614979  0.50448741  0.72442097  1
  O2-  O126  1  0.75295937  -0.00123798  0.06699348  1
  O2-  O127  1  0.75805429  0.00104032  0.39435027  1
  O2-  O128  1  0.75064445  0.00135753  0.73018280  1
  O2-  O129  1  0.74794616  0.50313864  0.06586636  1
  O2-  O130  1  0.75076446  0.49672652  0.39237199  1
  O2-  O131  1  0.75124422  0.49613299  0.72047243  1
  O2-  O132  1  -0.00288145  0.24802622  0.26894040  1
  O2-  O133  1  -0.00468393  0.24745761  0.61133015  1
  O2-  O134  1  0.00165873  0.24231285  0.93475365  1
  O2-  O135  1  0.00137893  0.75032608  0.26659490  1
  O2-  O136  1  0.00894561  0.74720713  0.60886943  1
  O2-  O137  1  -0.00128352  0.74904893  0.94227774  1
  O2-  O138  1  0.50471168  0.24549000  0.27352785  1
  O2-  O139  1  0.49695277  0.24628142  0.60988292  1
  O2-  O140  1  0.49406484  0.25391956  0.93714047  1
  O2-  O141  1  0.49176292  0.75265788  0.27614501  1
  O2-  O142  1  0.49579205  0.75591212  0.60533591  1
  O2-  O143  1  0.50234620  0.75257161  0.93370127  1
  O2-  O144  1  0.07649476  0.17856051  0.08380871  1
  O2-  O145  1  0.07223174  0.17964228  0.43189447  1
  O2-  O146  1  0.07682881  0.18707018  0.75790928  1
  O2-  O147  1  0.07193690  0.68072300  0.08972514  1
  O2-  O148  1  0.06905747  0.68300501  0.43339393  1
  O2-  O149  1  0.07485546  0.67341480  0.75680567  1
  O2-  O150  1  0.56636368  0.18109233  0.09990473  1
  O2-  O151  1  0.56774557  0.17746482  0.42529906  1
  O2-  O152  1  0.57245290  0.17943620  0.75556791  1
  O2-  O153  1  0.56984603  0.67865294  0.09759327  1
  O2-  O154  1  0.56985419  0.68051441  0.43278862  1
  O2-  O155  1  0.56780564  0.67414578  0.76422944  1
  O2-  O156  1  0.18175741  0.43060008  0.23547694  1
  O2-  O157  1  0.17681326  0.42744922  0.57913597  1
  O2-  O158  1  0.17752409  0.43025449  0.90991623  1
  O2-  O159  1  0.17755883  0.92773812  0.24397760  1
  O2-  O160  1  0.17729255  0.92858146  0.57647439  1
  O2-  O161  1  0.17597110  0.92821361  0.91130680  1
  O2-  O162  1  0.67750039  0.42570292  0.24522973  1
  O2-  O163  1  0.67585381  0.42867117  0.57387907  1
  O2-  O164  1  0.68116208  0.42985187  0.90029139  1
  O2-  O165  1  0.67717136  0.92960401  0.23720976  1
  O2-  O166  1  0.68394567  0.92594520  0.56912130  1
  O2-  O167  1  0.68246835  0.92757466  0.90257044  1
  O2-  O168  1  0.42548450  0.32022471  0.08782775  1
  O2-  O169  1  0.43089405  0.31684685  0.43388986  1
  O2-  O170  1  0.42764610  0.32245748  0.75696602  1
  O2-  O171  1  0.42685486  0.81865726  0.09907793  1
  O2-  O172  1  0.42947821  0.82826426  0.42586779  1
  O2-  O173  1  0.42116260  0.82142666  0.75356286  1
  O2-  O174  1  0.93315507  0.32109790  0.09631049  1
  O2-  O175  1  0.92629296  0.31889154  0.43250799  1
  O2-  O176  1  0.92944452  0.32602016  0.75652693  1
  O2-  O177  1  0.93206733  0.82317880  0.08925580  1
  O2-  O178  1  0.92923693  0.82039394  0.43027055  1
  O2-  O179  1  0.93254446  0.81731229  0.76783659  1
  O2-  O180  1  0.32190645  0.06965509  0.24276171  1
  O2-  O181  1  0.31533529  0.07450178  0.56599063  1
  O2-  O182  1  0.31748575  0.07045811  0.90192791  1
  O2-  O183  1  0.32365763  0.57187598  0.23760716  1
  O2-  O184  1  0.32429361  0.56741327  0.57778185  1
  O2-  O185  1  0.31656750  0.56968407  0.89850344  1
  O2-  O186  1  0.81917504  0.07461961  0.24380720  1
  O2-  O187  1  0.82199649  0.07520635  0.56638857  1
  O2-  O188  1  0.82014601  0.06897010  0.90236894  1
  O2-  O189  1  0.81958334  0.57065084  0.24515633  1
  O2-  O190  1  0.82401502  0.56558249  0.57369701  1
  O2-  O191  1  0.82395903  0.57058299  0.90124578  1
  O2-  O192  1  0.05229234  0.07999172  0.26286964  1
  O2-  O193  1  0.05234121  0.08833422  0.60776461  1
  O2-  O194  1  0.05308797  0.08110688  0.93402016  1
  O2-  O195  1  0.04690633  0.58136356  0.26787254  1
  O2-  O196  1  0.04626263  0.58231968  0.60506437  1
  O2-  O197  1  0.04553841  0.58705592  0.93696018  1
  O2-  O198  1  0.54213804  0.08250034  0.27519963  1
  O2-  O199  1  0.54517105  0.08381080  0.60529840  1
  O2-  O200  1  0.53685850  0.08467887  0.93162252  1
  O2-  O201  1  0.54265965  0.58220450  0.26679983  1
  O2-  O202  1  0.53517712  0.58290984  0.59650195  1
  O2-  O203  1  0.54137123  0.57977366  0.93226026  1
  O2-  O204  1  0.16894948  0.21040405  0.26303081  1
  O2-  O205  1  0.16162367  0.21670241  0.60414836  1
  O2-  O206  1  0.16569624  0.20740852  0.93124746  1
  O2-  O207  1  0.17276221  0.70959530  0.26964411  1
  O2-  O208  1  0.16993326  0.69654116  0.60587238  1
  O2-  O209  1  0.16054431  0.70883281  0.93444606  1
  O2-  O210  1  0.66497944  0.19857773  0.27511349  1
  O2-  O211  1  0.66055536  0.20856645  0.60042586  1
  O2-  O212  1  0.66443201  0.21222773  0.92988416  1
  O2-  O213  1  0.66492146  0.71021457  0.26551828  1
  O2-  O214  1  0.66642924  0.70581929  0.59752050  1
  O2-  O215  1  0.67295302  0.70481273  0.93311421  1
  O2-  O216  1  0.08451639  0.45541377  0.06119668  1
  O2-  O217  1  0.07935788  0.45634032  0.40278680  1
  O2-  O218  1  0.08595295  0.45594918  0.73229246  1
  O2-  O219  1  0.08546131  0.95474465  0.06493870  1
  O2-  O220  1  0.08446502  0.95844147  0.39586277  1
  O2-  O221  1  0.08646420  0.95565090  0.73020824  1
  O2-  O222  1  0.57851641  0.45282434  0.06658197  1
  O2-  O223  1  0.58789255  0.45634785  0.39837286  1
  O2-  O224  1  0.58569859  0.45912199  0.72676775  1
  O2-  O225  1  0.58127271  0.95912781  0.06760246  1
  O2-  O226  1  0.58572057  0.95992128  0.40769638  1
  O2-  O227  1  0.58086445  0.94923976  0.73283978  1
  O2-  O228  1  0.19832628  0.33298716  0.06026114  1
  O2-  O229  1  0.21146161  0.33217488  0.40204077  1
  O2-  O230  1  0.20959660  0.34108078  0.73399013  1
  O2-  O231  1  0.20059628  0.83317727  0.06224373  1
  O2-  O232  1  0.20471506  0.84053562  0.40076109  1
  O2-  O233  1  0.19887912  0.83083400  0.72694914  1
  O2-  O234  1  0.70785331  0.33204326  0.06704434  1
  O2-  O235  1  0.70456259  0.33419775  0.39845663  1
  O2-  O236  1  0.70076296  0.33606468  0.72529092  1
  O2-  O237  1  0.70764009  0.83045230  0.06845768  1
  O2-  O238  1  0.71243910  0.83033075  0.40217538  1
  O2-  O239  1  0.71360651  0.82677965  0.73334101  1
  O2-  O240  1  0.46172321  0.41542325  0.26633576  1
  O2-  O241  1  0.45833543  0.40939103  0.60249572  1
  O2-  O242  1  0.45043076  0.41594848  0.93670958  1
  O2-  O243  1  0.45821003  0.91775254  0.27411427  1
  O2-  O244  1  0.44925247  0.91877383  0.60414028  1
  O2-  O245  1  0.45091583  0.92210528  0.93576780  1
  O2-  O246  1  0.95432014  0.41985405  0.26669084  1
  O2-  O247  1  0.95968993  0.41257264  0.60349112  1
  O2-  O248  1  0.96415560  0.41542490  0.92795719  1
  O2-  O249  1  0.95434883  0.91921605  0.26311284  1
  O2-  O250  1  0.96083055  0.91776898  0.60039389  1
  O2-  O251  1  0.96106625  0.91340397  0.93682350  1
  O2-  O252  1  0.33547382  0.29110192  0.26412589  1
  O2-  O253  1  0.33500519  0.29210939  0.60603418  1
  O2-  O254  1  0.33103004  0.29699508  0.93719219  1
  O2-  O255  1  0.33226713  0.80774290  0.27644132  1
  O2-  O256  1  0.33195478  0.79786539  0.60163649  1
  O2-  O257  1  0.32935633  0.79203380  0.93087652  1
  O2-  O258  1  0.82703081  0.29458659  0.26550946  1
  O2-  O259  1  0.83391741  0.30047337  0.60490429  1
  O2-  O260  1  0.83300128  0.29190045  0.92936956  1
  O2-  O261  1  0.83158380  0.78813941  0.26404839  1
  O2-  O262  1  0.83812895  0.78462066  0.59781396  1
  O2-  O263  1  0.83826449  0.79448457  0.93734611  1
  O2-  O264  1  0.41614991  0.04263638  0.07159823  1
  O2-  O265  1  0.41008284  0.04294268  0.39844985  1
  O2-  O266  1  0.41753796  0.04508152  0.73261828  1
  O2-  O267  1  0.41568506  0.54278545  0.06630158  1
  O2-  O268  1  0.42064579  0.53796545  0.40378493  1
  O2-  O269  1  0.41148948  0.53506537  0.73032797  1
  O2-  O270  1  0.92393773  0.05029211  0.06471217  1
  O2-  O271  1  0.91962272  0.05043802  0.39041715  1
  O2-  O272  1  0.92273086  0.04900556  0.73216801  1
  O2-  O273  1  0.92056814  0.54010116  0.06728226  1
  O2-  O274  1  0.91225750  0.54355371  0.39787939  1
  O2-  O275  1  0.91356149  0.54165385  0.72770537  1
  O2-  O276  1  0.28828877  0.16713581  0.06817012  1
  O2-  O277  1  0.29259265  0.16409404  0.39337920  1
  O2-  O278  1  0.28524478  0.16610200  0.73537648  1
  O2-  O279  1  0.28635442  0.66689118  0.06592284  1
  O2-  O280  1  0.29886210  0.67370866  0.40423565  1
  O2-  O281  1  0.29950510  0.66395476  0.72810588  1
  O2-  O282  1  0.79222307  0.17058095  0.06597062  1
  O2-  O283  1  0.79557623  0.16510710  0.39712580  1
  O2-  O284  1  0.79319119  0.17301678  0.73059976  1
  O2-  O285  1  0.80018264  0.67095573  0.06873451  1
  O2-  O286  1  0.78915825  0.66039362  0.39779487  1
  O2-  O287  1  0.79300452  0.65905022  0.72507281  1
