# generated using pymatgen
data_Ca2Al2SiO7
_symmetry_space_group_name_H-M   'P 1'
_cell_length_a   15.45893412
_cell_length_b   15.45875513
_cell_length_c   15.28434931
_cell_angle_alpha   89.98646444
_cell_angle_beta   90.01842302
_cell_angle_gamma   90.01270125
_symmetry_Int_Tables_number   1
_chemical_formula_structural   Ca2Al2SiO7
_chemical_formula_sum   'Ca48 Al48 Si24 O168'
_cell_volume   3652.59040026
_cell_formula_units_Z   24
loop_
 _symmetry_equiv_pos_site_id
 _symmetry_equiv_pos_as_xyz
  1  'x, y, z'
loop_
 _atom_type_symbol
 _atom_type_oxidation_number
  Ca2+  2.0
  Al0+  0.0
  Si0+  0.0
  O2-  -2.0
loop_
 _atom_site_type_symbol
 _atom_site_label
 _atom_site_symmetry_multiplicity
 _atom_site_fract_x
 _atom_site_fract_y
 _atom_site_fract_z
 _atom_site_occupancy
  Ca2+  Ca0  1  0.16408197  0.08499150  0.16662848  1
  Ca2+  Ca1  1  0.16916728  0.08588293  0.50834385  1
  Ca2+  Ca2  1  0.17474180  0.08352316  0.84046338  1
  Ca2+  Ca3  1  0.16443757  0.57683849  0.17245373  1
  Ca2+  Ca4  1  0.15688678  0.57120227  0.50594564  1
  Ca2+  Ca5  1  0.16561134  0.57760083  0.84210151  1
  Ca2+  Ca6  1  0.66892460  0.08070078  0.17034741  1
  Ca2+  Ca7  1  0.67458238  0.07735758  0.51262339  1
  Ca2+  Ca8  1  0.67140582  0.07817571  0.83156059  1
  Ca2+  Ca9  1  0.67102281  0.57581721  0.17773026  1
  Ca2+  Ca10  1  0.67259714  0.58400638  0.50702096  1
  Ca2+  Ca11  1  0.66574593  0.57786381  0.83476359  1
  Ca2+  Ca12  1  0.09284830  0.32726249  0.16255742  1
  Ca2+  Ca13  1  0.09129348  0.32475931  0.49574631  1
  Ca2+  Ca14  1  0.09418489  0.32647204  0.82820305  1
  Ca2+  Ca15  1  0.08653393  0.82270749  0.15978419  1
  Ca2+  Ca16  1  0.08283745  0.81693171  0.49677726  1
  Ca2+  Ca17  1  0.09230009  0.82173051  0.83015191  1
  Ca2+  Ca18  1  0.57827650  0.34441740  0.16493967  1
  Ca2+  Ca19  1  0.57772893  0.34233959  0.49364649  1
  Ca2+  Ca20  1  0.58381410  0.33774087  0.82862059  1
  Ca2+  Ca21  1  0.58286516  0.82404307  0.16439049  1
  Ca2+  Ca22  1  0.58445797  0.82711505  0.50115156  1
  Ca2+  Ca23  1  0.57522585  0.82903099  0.81879408  1
  Ca2+  Ca24  1  0.32427411  0.41871623  0.16706470  1
  Ca2+  Ca25  1  0.32483811  0.41301820  0.50126624  1
  Ca2+  Ca26  1  0.32196084  0.42479729  0.83780268  1
  Ca2+  Ca27  1  0.32602084  0.92100273  0.16337108  1
  Ca2+  Ca28  1  0.33609472  0.92378280  0.50860292  1
  Ca2+  Ca29  1  0.33160394  0.92484828  0.83831034  1
  Ca2+  Ca30  1  0.82328734  0.42035788  0.17415713  1
  Ca2+  Ca31  1  0.82325255  0.42652314  0.50588973  1
  Ca2+  Ca32  1  0.82392219  0.41987354  0.83187531  1
  Ca2+  Ca33  1  0.83706864  0.91869168  0.16918169  1
  Ca2+  Ca34  1  0.82881444  0.92185852  0.50966096  1
  Ca2+  Ca35  1  0.83213004  0.91740457  0.82879227  1
  Ca2+  Ca36  1  0.41386767  0.17442263  0.16395605  1
  Ca2+  Ca37  1  0.41627735  0.17287891  0.49584329  1
  Ca2+  Ca38  1  0.41190171  0.16492366  0.82774466  1
  Ca2+  Ca39  1  0.42150032  0.65742434  0.16285511  1
  Ca2+  Ca40  1  0.42961918  0.66732955  0.49928123  1
  Ca2+  Ca41  1  0.41744574  0.67152857  0.82391940  1
  Ca2+  Ca42  1  0.92859643  0.17146466  0.15993668  1
  Ca2+  Ca43  1  0.92530363  0.16606538  0.49723924  1
  Ca2+  Ca44  1  0.92805943  0.16756026  0.82566078  1
  Ca2+  Ca45  1  0.92681420  0.65757545  0.16749799  1
  Ca2+  Ca46  1  0.92085212  0.65533200  0.49879174  1
  Ca2+  Ca47  1  0.92699860  0.66108800  0.82773464  1
  Al0+  Al48  1  -0.00068925  0.00012309  -0.00158331  1
  Al0+  Al49  1  0.00196305  -0.00091843  0.33008896  1
  Al0+  Al50  1  0.00213705  -0.00160543  0.66604867  1
  Al0+  Al51  1  -0.00301077  0.49829017  -0.00111096  1
  Al0+  Al52  1  -0.00140426  0.49715852  0.33651757  1
  Al0+  Al53  1  -0.00317919  0.49534493  0.67165736  1
  Al0+  Al54  1  0.50099155  0.00044546  0.00524066  1
  Al0+  Al55  1  0.49924668  0.00065673  0.33190135  1
  Al0+  Al56  1  0.49960447  0.00197133  0.66935109  1
  Al0+  Al57  1  0.49972127  0.49884214  0.00399311  1
  Al0+  Al58  1  0.49689812  0.50080991  0.32688312  1
  Al0+  Al59  1  0.49762307  0.50035242  0.66518516  1
  Al0+  Al60  1  0.25303411  0.25180141  0.00149138  1
  Al0+  Al61  1  0.25262082  0.25012043  0.32828669  1
  Al0+  Al62  1  0.25076717  0.24977013  0.66991221  1
  Al0+  Al63  1  0.25257318  0.75234761  0.00333385  1
  Al0+  Al64  1  0.25019432  0.75180017  0.33050014  1
  Al0+  Al65  1  0.25063750  0.75005854  0.65386151  1
  Al0+  Al66  1  0.74913904  0.24904909  0.00336812  1
  Al0+  Al67  1  0.75046872  0.24839076  0.33714263  1
  Al0+  Al68  1  0.75155556  0.24997775  0.67316858  1
  Al0+  Al69  1  0.75047847  0.74991034  -0.00080929  1
  Al0+  Al70  1  0.74976762  0.75158946  0.33153030  1
  Al0+  Al71  1  0.75149962  0.74994105  0.67260717  1
  Al0+  Al72  1  0.82525212  0.07169517  0.68223471  1
  Al0+  Al73  1  0.17665287  0.43034199  0.01514932  1
  Al0+  Al74  1  0.07112582  0.67918050  0.98733322  1
  Al0+  Al75  1  0.32047839  0.57320685  0.01353427  1
  Al0+  Al76  1  0.17930458  0.42913887  0.67951650  1
  Al0+  Al77  1  0.18098595  0.42881931  0.34750954  1
  Al0+  Al78  1  0.06994153  0.67629613  0.31981786  1
  Al0+  Al79  1  0.57199594  0.67797275  0.65321477  1
  Al0+  Al80  1  0.67492629  0.43015513  0.68157673  1
  Al0+  Al81  1  0.07093745  0.17946254  0.31880612  1
  Al0+  Al82  1  0.42851438  0.82437503  0.65094136  1
  Al0+  Al83  1  0.82025481  0.57206813  0.34875690  1
  Al0+  Al84  1  0.17723580  0.92962852  0.01471249  1
  Al0+  Al85  1  0.67989531  0.42907389  0.01537349  1
  Al0+  Al86  1  0.43051874  0.32098768  0.31823871  1
  Al0+  Al87  1  0.67574952  0.42864262  0.34888044  1
  Al0+  Al88  1  0.82147350  0.57197589  0.68463820  1
  Al0+  Al89  1  0.07001893  0.67550361  0.65349909  1
  Al0+  Al90  1  0.07177838  0.18140537  0.98428226  1
  Al0+  Al91  1  0.32233458  0.07211479  0.01758161  1
  Al0+  Al92  1  0.57025683  0.68150992  0.31844361  1
  Al0+  Al93  1  0.67906615  0.92903957  0.68153481  1
  Al0+  Al94  1  0.07198625  0.17983517  0.65362577  1
  Al0+  Al95  1  0.31941208  0.07063477  0.67842234  1
  Si0+  Si96  1  0.57297383  0.17976447  0.65390833  1
  Si0+  Si97  1  0.82096188  0.57389068  0.01816186  1
  Si0+  Si98  1  0.92876311  0.82162685  0.65056477  1
  Si0+  Si99  1  0.42793435  0.82597496  0.31304966  1
  Si0+  Si100  1  0.92529425  0.31983476  0.64883230  1
  Si0+  Si101  1  0.57069034  0.67840930  0.98494362  1
  Si0+  Si102  1  0.43167683  0.32081148  0.98234650  1
  Si0+  Si103  1  0.17888702  0.92466951  0.68010608  1
  Si0+  Si104  1  0.43162203  0.82300323  0.98561438  1
  Si0+  Si105  1  0.82334344  0.06970473  0.34711918  1
  Si0+  Si106  1  0.67917685  0.92804519  0.01640013  1
  Si0+  Si107  1  0.92622501  0.82302672  0.98150086  1
  Si0+  Si108  1  0.67836080  0.93041652  0.34725435  1
  Si0+  Si109  1  0.57202864  0.17711745  0.98428569  1
  Si0+  Si110  1  0.42950443  0.31995104  0.65320262  1
  Si0+  Si111  1  0.92892359  0.82278552  0.31685824  1
  Si0+  Si112  1  0.31981870  0.07002586  0.34845945  1
  Si0+  Si113  1  0.32028015  0.57334660  0.67890329  1
  Si0+  Si114  1  0.92398440  0.32061504  0.98214445  1
  Si0+  Si115  1  0.17800872  0.92823532  0.34999261  1
  Si0+  Si116  1  0.32117057  0.57537124  0.35134424  1
  Si0+  Si117  1  0.82052488  0.07015136  0.01616224  1
  Si0+  Si118  1  0.57337510  0.17635804  0.31765109  1
  Si0+  Si119  1  0.92577071  0.32008722  0.31709575  1
  O2-  O120  1  0.24524703  0.00504601  0.06695716  1
  O2-  O121  1  0.24994419  -0.00128726  0.39142321  1
  O2-  O122  1  0.24658225  -0.00582796  0.72411379  1
  O2-  O123  1  0.24303510  0.50780804  0.06467914  1
  O2-  O124  1  0.25018005  0.50880306  0.39525696  1
  O2-  O125  1  0.24668410  0.51112073  0.72422039  1
  O2-  O126  1  0.75177277  -0.00300555  0.05954147  1
  O2-  O127  1  0.74939533  0.00155786  0.38866633  1
  O2-  O128  1  0.75228356  0.00001580  0.73195786  1
  O2-  O129  1  0.75276952  0.50477135  0.06191207  1
  O2-  O130  1  0.74508090  0.50285654  0.39809362  1
  O2-  O131  1  0.74447531  0.50376076  0.73249776  1
  O2-  O132  1  -0.00337078  0.25411311  0.27170397  1
  O2-  O133  1  -0.00428389  0.25196260  0.60522620  1
  O2-  O134  1  -0.00108545  0.25833518  0.93811672  1
  O2-  O135  1  -0.00555908  0.75095280  0.27349414  1
  O2-  O136  1  -0.00572457  0.74995737  0.60646286  1
  O2-  O137  1  -0.00348723  0.75474605  0.93995168  1
  O2-  O138  1  0.51055076  0.24979459  0.27282004  1
  O2-  O139  1  0.50535871  0.25340968  0.61129160  1
  O2-  O140  1  0.50147797  0.24771818  0.94093400  1
  O2-  O141  1  0.49352439  0.75394169  0.26937653  1
  O2-  O142  1  0.50218297  0.75269651  0.60314909  1
  O2-  O143  1  0.50006179  0.74968045  0.94329562  1
  O2-  O144  1  0.06801093  0.18156990  0.09776815  1
  O2-  O145  1  0.07022768  0.17789648  0.43190338  1
  O2-  O146  1  0.07346320  0.18229612  0.76653282  1
  O2-  O147  1  0.06805055  0.67986161  0.10057605  1
  O2-  O148  1  0.06859593  0.67757933  0.43277210  1
  O2-  O149  1  0.07241090  0.67856528  0.76666704  1
  O2-  O150  1  0.57293629  0.17563391  0.08959985  1
  O2-  O151  1  0.57039653  0.17009285  0.42288916  1
  O2-  O152  1  0.57108451  0.17855068  0.75923940  1
  O2-  O153  1  0.57156167  0.68111061  0.09031957  1
  O2-  O154  1  0.57142704  0.68493885  0.43099902  1
  O2-  O155  1  0.56641116  0.67745948  0.76738408  1
  O2-  O156  1  0.18307474  0.42816558  0.23473269  1
  O2-  O157  1  0.18320952  0.42574560  0.56625311  1
  O2-  O158  1  0.18129880  0.42947078  0.90149617  1
  O2-  O159  1  0.17744708  0.92860189  0.24499067  1
  O2-  O160  1  0.17916781  0.92632396  0.57407516  1
  O2-  O161  1  0.18161955  0.92789571  0.90116043  1
  O2-  O162  1  0.67970835  0.42935253  0.23502413  1
  O2-  O163  1  0.67477463  0.42926315  0.56846993  1
  O2-  O164  1  0.67926864  0.42968117  0.90266123  1
  O2-  O165  1  0.67882072  0.93212187  0.24154842  1
  O2-  O166  1  0.68021384  0.93253818  0.56728936  1
  O2-  O167  1  0.67732523  0.92947309  0.91202866  1
  O2-  O168  1  0.43340709  0.32004269  0.08752372  1
  O2-  O169  1  0.42813949  0.31580877  0.43176030  1
  O2-  O170  1  0.42895152  0.31841122  0.75832937  1
  O2-  O171  1  0.43611408  0.82554543  0.09078778  1
  O2-  O172  1  0.43111562  0.83132883  0.41806600  1
  O2-  O173  1  0.42792883  0.82352701  0.76511490  1
  O2-  O174  1  0.91922642  0.31565467  0.08781379  1
  O2-  O175  1  0.92318552  0.31579132  0.42228975  1
  O2-  O176  1  0.92344742  0.31804933  0.75445248  1
  O2-  O177  1  0.92267019  0.82327191  0.08725990  1
  O2-  O178  1  0.93092360  0.82899046  0.42186996  1
  O2-  O179  1  0.93160838  0.82369724  0.75604207  1
  O2-  O180  1  0.32069871  0.06852309  0.24362135  1
  O2-  O181  1  0.31837815  0.07293836  0.56477771  1
  O2-  O182  1  0.32503693  0.06870652  0.90417439  1
  O2-  O183  1  0.32034754  0.57449157  0.24564899  1
  O2-  O184  1  0.32302456  0.56911076  0.57345077  1
  O2-  O185  1  0.32288934  0.57108298  0.89963562  1
  O2-  O186  1  0.82246909  0.06798134  0.24156275  1
  O2-  O187  1  0.82308507  0.06985173  0.56783279  1
  O2-  O188  1  0.81868987  0.07034164  0.91169748  1
  O2-  O189  1  0.81948749  0.57052040  0.23470744  1
  O2-  O190  1  0.82161638  0.56918044  0.57121940  1
  O2-  O191  1  0.81876771  0.57611586  0.91304060  1
  O2-  O192  1  0.03916396  0.08295365  0.26435597  1
  O2-  O193  1  0.04530912  0.08116572  0.60072554  1
  O2-  O194  1  0.03912861  0.08393912  0.93298785  1
  O2-  O195  1  0.03873884  0.57918436  0.26678705  1
  O2-  O196  1  0.03750466  0.57763838  0.60295497  1
  O2-  O197  1  0.03993290  0.58184271  0.93421387  1
  O2-  O198  1  0.54280584  0.08517766  0.26752200  1
  O2-  O199  1  0.54257665  0.08978636  0.60464275  1
  O2-  O200  1  0.54431812  0.08451751  0.93820252  1
  O2-  O201  1  0.53994689  0.58552114  0.26299125  1
  O2-  O202  1  0.53922933  0.58143041  0.59800427  1
  O2-  O203  1  0.54226588  0.58607674  0.94000962  1
  O2-  O204  1  0.16725391  0.20952895  0.26495677  1
  O2-  O205  1  0.16803855  0.21408500  0.59944226  1
  O2-  O206  1  0.17099808  0.20978905  0.93410050  1
  O2-  O207  1  0.16687524  0.70908401  0.26713119  1
  O2-  O208  1  0.16459169  0.70542070  0.59484073  1
  O2-  O209  1  0.16933103  0.71079919  0.93618668  1
  O2-  O210  1  0.66973898  0.19490870  0.27374359  1
  O2-  O211  1  0.66676450  0.20242365  0.60810290  1
  O2-  O212  1  0.66420511  0.20465590  0.93768856  1
  O2-  O213  1  0.66585048  0.71544783  0.26256036  1
  O2-  O214  1  0.67212978  0.70566535  0.60400475  1
  O2-  O215  1  0.66303198  0.70642130  0.93901703  1
  O2-  O216  1  0.07470270  0.44917677  0.06485626  1
  O2-  O217  1  0.08218412  0.45222930  0.40004665  1
  O2-  O218  1  0.08079982  0.44916873  0.73256960  1
  O2-  O219  1  0.07674858  0.95337134  0.06652826  1
  O2-  O220  1  0.08648557  0.95740800  0.39676537  1
  O2-  O221  1  0.08524500  0.94678098  0.72610135  1
  O2-  O222  1  0.58382041  0.46022852  0.06899955  1
  O2-  O223  1  0.57416109  0.45384818  0.39514792  1
  O2-  O224  1  0.57537441  0.45602061  0.73450431  1
  O2-  O225  1  0.58998452  0.95852380  0.06727629  1
  O2-  O226  1  0.58643807  0.95872848  0.39363760  1
  O2-  O227  1  0.58259093  0.96149659  0.73569544  1
  O2-  O228  1  0.21346077  0.33460825  0.06793816  1
  O2-  O229  1  0.21834287  0.33265312  0.39955198  1
  O2-  O230  1  0.21929959  0.33698070  0.73536472  1
  O2-  O231  1  0.21149377  0.83449856  0.07119473  1
  O2-  O232  1  0.20523798  0.83600711  0.39679981  1
  O2-  O233  1  0.20659346  0.83072430  0.72413139  1
  O2-  O234  1  0.70834167  0.33126073  0.06896356  1
  O2-  O235  1  0.70238426  0.32824046  0.39967877  1
  O2-  O236  1  0.70469511  0.33203524  0.73497589  1
  O2-  O237  1  0.70645540  0.83567709  0.06377804  1
  O2-  O238  1  0.70625520  0.83941286  0.39434569  1
  O2-  O239  1  0.70533869  0.83198567  0.73718333  1
  O2-  O240  1  0.45474655  0.41745747  0.26086564  1
  O2-  O241  1  0.45190751  0.41220437  0.60432157  1
  O2-  O242  1  0.46249794  0.41200052  0.93538135  1
  O2-  O243  1  0.45800213  0.91782175  0.26445207  1
  O2-  O244  1  0.45866222  0.92322938  0.59842297  1
  O2-  O245  1  0.46376003  0.91408059  0.93871205  1
  O2-  O246  1  0.94859102  0.41427029  0.27210452  1
  O2-  O247  1  0.94981040  0.41359037  0.60397144  1
  O2-  O248  1  0.94099300  0.41690350  0.93909760  1
  O2-  O249  1  0.95869785  0.91385602  0.26626205  1
  O2-  O250  1  0.95592016  0.91392316  0.60153051  1
  O2-  O251  1  0.94855482  0.91736948  0.93596387  1
  O2-  O252  1  0.33830254  0.28311609  0.26071716  1
  O2-  O253  1  0.34073906  0.28533736  0.60421721  1
  O2-  O254  1  0.33989995  0.29427147  0.93494862  1
  O2-  O255  1  0.33264142  0.80415797  0.26925494  1
  O2-  O256  1  0.33261721  0.79765347  0.59208679  1
  O2-  O257  1  0.33873275  0.79978097  0.93941204  1
  O2-  O258  1  0.83313577  0.29071855  0.26899527  1
  O2-  O259  1  0.83230853  0.29199738  0.60188973  1
  O2-  O260  1  0.83297851  0.28690867  0.93472034  1
  O2-  O261  1  0.83394776  0.80289610  0.27056268  1
  O2-  O262  1  0.83314300  0.80104573  0.60678868  1
  O2-  O263  1  0.83238002  0.79676384  0.93483528  1
  O2-  O264  1  0.41952968  0.03975917  0.07234364  1
  O2-  O265  1  0.41285976  0.04287655  0.39493079  1
  O2-  O266  1  0.41631860  0.04458144  0.73368209  1
  O2-  O267  1  0.41581089  0.53687958  0.06871522  1
  O2-  O268  1  0.41434816  0.54583879  0.39510120  1
  O2-  O269  1  0.41097349  0.54322256  0.72789906  1
  O2-  O270  1  0.91197769  0.04293365  0.06438540  1
  O2-  O271  1  0.91413176  0.03847251  0.39415633  1
  O2-  O272  1  0.92286548  0.04084239  0.73540541  1
  O2-  O273  1  0.91423808  0.54684151  0.06333696  1
  O2-  O274  1  0.91696525  0.54023824  0.40229987  1
  O2-  O275  1  0.91625929  0.53626847  0.74069759  1
  O2-  O276  1  0.29859270  0.17188284  0.06818220  1
  O2-  O277  1  0.29204830  0.16181164  0.39455773  1
  O2-  O278  1  0.28746296  0.16477982  0.73581688  1
  O2-  O279  1  0.30448654  0.67379418  0.06621342  1
  O2-  O280  1  0.30138036  0.67152899  0.39459521  1
  O2-  O281  1  0.30059922  0.67011097  0.72027442  1
  O2-  O282  1  0.78897297  0.15950341  0.06608454  1
  O2-  O283  1  0.79897875  0.16130044  0.39556466  1
  O2-  O284  1  0.79616513  0.16809903  0.73751519  1
  O2-  O285  1  0.79560952  0.66789185  0.06435209  1
  O2-  O286  1  0.79582575  0.67334132  0.39815765  1
  O2-  O287  1  0.80154548  0.67174324  0.73753474  1
