# generated using pymatgen
data_Ca2Al2SiO7
_symmetry_space_group_name_H-M   'P 1'
_cell_length_a   15.45451886
_cell_length_b   15.45568986
_cell_length_c   15.28109756
_cell_angle_alpha   90.00408792
_cell_angle_beta   89.99242543
_cell_angle_gamma   90.00592275
_symmetry_Int_Tables_number   1
_chemical_formula_structural   Ca2Al2SiO7
_chemical_formula_sum   'Ca48 Al48 Si24 O168'
_cell_volume   3650.04672884
_cell_formula_units_Z   24
loop_
 _symmetry_equiv_pos_site_id
 _symmetry_equiv_pos_as_xyz
  1  'x, y, z'
loop_
 _atom_type_symbol
 _atom_type_oxidation_number
  Ca2+  2.0
  Al0+  0.0
  Si0+  0.0
  O2-  -2.0
loop_
 _atom_site_type_symbol
 _atom_site_label
 _atom_site_symmetry_multiplicity
 _atom_site_fract_x
 _atom_site_fract_y
 _atom_site_fract_z
 _atom_site_occupancy
  Ca2+  Ca0  1  0.16258189  0.06790270  0.17114784  1
  Ca2+  Ca1  1  0.17078146  0.07532556  0.50914331  1
  Ca2+  Ca2  1  0.16606246  0.07501501  0.83183919  1
  Ca2+  Ca3  1  0.17154553  0.57917882  0.17384720  1
  Ca2+  Ca4  1  0.17847278  0.57757015  0.50172566  1
  Ca2+  Ca5  1  0.17184401  0.59313245  0.83612445  1
  Ca2+  Ca6  1  0.67129923  0.08721801  0.16773428  1
  Ca2+  Ca7  1  0.67338056  0.07884956  0.50519709  1
  Ca2+  Ca8  1  0.66106776  0.07788226  0.83697516  1
  Ca2+  Ca9  1  0.67576884  0.58442886  0.16981879  1
  Ca2+  Ca10  1  0.67420312  0.59240857  0.50257359  1
  Ca2+  Ca11  1  0.68043248  0.58064493  0.84090327  1
  Ca2+  Ca12  1  0.07896827  0.33564823  0.16056304  1
  Ca2+  Ca13  1  0.09043319  0.32694063  0.49687231  1
  Ca2+  Ca14  1  0.07782967  0.32942155  0.82878253  1
  Ca2+  Ca15  1  0.08145909  0.82797583  0.15647220  1
  Ca2+  Ca16  1  0.08183508  0.83898368  0.50033847  1
  Ca2+  Ca17  1  0.07547866  0.83557219  0.83196143  1
  Ca2+  Ca18  1  0.57558953  0.33275668  0.15627595  1
  Ca2+  Ca19  1  0.57563887  0.33282287  0.49247454  1
  Ca2+  Ca20  1  0.58558846  0.33113841  0.83715956  1
  Ca2+  Ca21  1  0.57692726  0.82542118  0.16211264  1
  Ca2+  Ca22  1  0.57770617  0.83137721  0.49855148  1
  Ca2+  Ca23  1  0.57139699  0.83944023  0.82594519  1
  Ca2+  Ca24  1  0.33177055  0.41688337  0.17538425  1
  Ca2+  Ca25  1  0.33763344  0.42501095  0.50039143  1
  Ca2+  Ca26  1  0.33519000  0.42232124  0.83646061  1
  Ca2+  Ca27  1  0.32195227  0.90855625  0.16770032  1
  Ca2+  Ca28  1  0.32256884  0.91774961  0.51216071  1
  Ca2+  Ca29  1  0.32505551  0.91286618  0.83883228  1
  Ca2+  Ca30  1  0.83230437  0.42472670  0.16785365  1
  Ca2+  Ca31  1  0.83333463  0.43244128  0.50487857  1
  Ca2+  Ca32  1  0.83331261  0.42545737  0.84426793  1
  Ca2+  Ca33  1  0.83663564  0.92212334  0.17133418  1
  Ca2+  Ca34  1  0.82804070  0.91754446  0.50721612  1
  Ca2+  Ca35  1  0.83064287  0.90890858  0.83524451  1
  Ca2+  Ca36  1  0.42049600  0.17950707  0.15797024  1
  Ca2+  Ca37  1  0.41234472  0.17007474  0.49579099  1
  Ca2+  Ca38  1  0.41607858  0.16894511  0.83107203  1
  Ca2+  Ca39  1  0.42123952  0.66468336  0.16329616  1
  Ca2+  Ca40  1  0.41799379  0.66587405  0.49496504  1
  Ca2+  Ca41  1  0.41333890  0.67819837  0.82736135  1
  Ca2+  Ca42  1  0.91479875  0.17281703  0.15964723  1
  Ca2+  Ca43  1  0.92394528  0.16108297  0.49669309  1
  Ca2+  Ca44  1  0.92133132  0.17388695  0.82871853  1
  Ca2+  Ca45  1  0.92347783  0.66627067  0.15614741  1
  Ca2+  Ca46  1  0.90978262  0.67188258  0.49807341  1
  Ca2+  Ca47  1  0.91891411  0.66972580  0.83056605  1
  Al0+  Al48  1  0.00030390  -0.00156138  0.00104415  1
  Al0+  Al49  1  -0.00061486  0.00043586  0.34016929  1
  Al0+  Al50  1  -0.00028050  0.00141075  0.66181511  1
  Al0+  Al51  1  0.00289540  0.50014185  -0.00549368  1
  Al0+  Al52  1  -0.00011481  0.49979546  0.34285612  1
  Al0+  Al53  1  0.00022949  0.50084615  0.66851899  1
  Al0+  Al54  1  0.49943419  0.00097896  -0.00263233  1
  Al0+  Al55  1  0.49963993  -0.00052507  0.33009711  1
  Al0+  Al56  1  0.50012675  0.00159917  0.66621550  1
  Al0+  Al57  1  0.50166139  0.49944628  -0.00153636  1
  Al0+  Al58  1  0.50124104  0.50029876  0.32717021  1
  Al0+  Al59  1  0.50025811  0.49970735  0.67112537  1
  Al0+  Al60  1  0.25203809  0.24969838  -0.00357876  1
  Al0+  Al61  1  0.24832864  0.24689899  0.32875302  1
  Al0+  Al62  1  0.24937658  0.24982726  0.66583337  1
  Al0+  Al63  1  0.25007122  0.74965521  -0.00111334  1
  Al0+  Al64  1  0.24752723  0.74884330  0.34170139  1
  Al0+  Al65  1  0.24812739  0.74952251  0.66861114  1
  Al0+  Al66  1  0.74945418  0.25041421  -0.00533061  1
  Al0+  Al67  1  0.75186082  0.25003749  0.33931328  1
  Al0+  Al68  1  0.74939972  0.25151846  0.66289441  1
  Al0+  Al69  1  0.75046708  0.75108348  0.00337688  1
  Al0+  Al70  1  0.74831140  0.75144837  0.33091565  1
  Al0+  Al71  1  0.75019582  0.75020942  0.67216371  1
  Al0+  Al72  1  0.42908148  0.31915343  0.31988701  1
  Al0+  Al73  1  0.42759220  0.32341982  0.98167165  1
  Al0+  Al74  1  0.67995031  0.42814537  0.01605961  1
  Al0+  Al75  1  0.57127360  0.17942183  0.98403550  1
  Al0+  Al76  1  0.82368601  0.57214074  0.01652731  1
  Al0+  Al77  1  0.92777013  0.82250305  0.98670619  1
  Al0+  Al78  1  0.17800729  0.42586135  0.34740333  1
  Al0+  Al79  1  0.68016350  0.93079700  0.68004573  1
  Al0+  Al80  1  0.43005270  0.81863223  0.98774447  1
  Al0+  Al81  1  0.06976535  0.18114968  0.65188523  1
  Al0+  Al82  1  0.82075290  0.57113223  0.68237019  1
  Al0+  Al83  1  0.17960345  0.92972457  0.01454057  1
  Al0+  Al84  1  0.42731170  0.82179813  0.65219042  1
  Al0+  Al85  1  0.07187965  0.67830642  0.98594792  1
  Al0+  Al86  1  0.57153368  0.68031755  0.31906513  1
  Al0+  Al87  1  0.32152115  0.07280767  0.68215560  1
  Al0+  Al88  1  0.17705040  0.92892737  0.68440633  1
  Al0+  Al89  1  0.32151964  0.57032666  0.68187737  1
  Al0+  Al90  1  0.82038275  0.57235602  0.34727858  1
  Al0+  Al91  1  0.93024263  0.32095781  0.98791353  1
  Al0+  Al92  1  0.32357075  0.56948553  0.34682185  1
  Al0+  Al93  1  0.92861246  0.81889417  0.65166381  1
  Al0+  Al94  1  0.81975346  0.07187336  0.34696333  1
  Al0+  Al95  1  0.17934840  0.92812656  0.34865556  1
  Si0+  Si96  1  0.92685698  0.32419290  0.64720283  1
  Si0+  Si97  1  0.57015446  0.67813997  0.65242552  1
  Si0+  Si98  1  0.07234063  0.17607265  0.98483645  1
  Si0+  Si99  1  0.92950741  0.82165980  0.31950254  1
  Si0+  Si100  1  0.67576629  0.92911926  0.01625933  1
  Si0+  Si101  1  0.32316472  0.07272995  0.01836910  1
  Si0+  Si102  1  0.06900254  0.17747227  0.31659844  1
  Si0+  Si103  1  0.82060855  0.07031830  0.01212886  1
  Si0+  Si104  1  0.57361950  0.67786355  0.98244536  1
  Si0+  Si105  1  0.57483004  0.17715512  0.31782850  1
  Si0+  Si106  1  0.67650155  0.92808492  0.34846244  1
  Si0+  Si107  1  0.18052108  0.42653872  0.01257983  1
  Si0+  Si108  1  0.32084112  0.57104367  0.01422252  1
  Si0+  Si109  1  0.92936910  0.32224438  0.32021106  1
  Si0+  Si110  1  0.67839756  0.42813791  0.34966436  1
  Si0+  Si111  1  0.82194273  0.07373318  0.68385180  1
  Si0+  Si112  1  0.42470749  0.82192155  0.31784794  1
  Si0+  Si113  1  0.57217596  0.17853746  0.64863266  1
  Si0+  Si114  1  0.17910939  0.42774298  0.68437684  1
  Si0+  Si115  1  0.07005459  0.67803382  0.32155735  1
  Si0+  Si116  1  0.67758099  0.42624085  0.68335366  1
  Si0+  Si117  1  0.07238917  0.67601207  0.64611160  1
  Si0+  Si118  1  0.32238059  0.07075463  0.34670563  1
  Si0+  Si119  1  0.43000162  0.32171162  0.65079957  1
  O2-  O120  1  0.25383131  0.00474133  0.06291703  1
  O2-  O121  1  0.25909596  -0.00140583  0.39242146  1
  O2-  O122  1  0.25368201  -0.00267970  0.73286229  1
  O2-  O123  1  0.25297633  0.49607979  0.05491704  1
  O2-  O124  1  0.25379677  0.49448172  0.39627666  1
  O2-  O125  1  0.24472794  0.49833614  0.72979837  1
  O2-  O126  1  0.75014755  -0.00133359  0.05568973  1
  O2-  O127  1  0.74256921  -0.00056690  0.39219189  1
  O2-  O128  1  0.75391094  0.00571175  0.72916666  1
  O2-  O129  1  0.75081110  0.50082976  0.06686517  1
  O2-  O130  1  0.74449825  0.49874975  0.39468328  1
  O2-  O131  1  0.74932740  0.49210107  0.72595540  1
  O2-  O132  1  -0.00017580  0.25111829  0.27581097  1
  O2-  O133  1  -0.00518710  0.25518741  0.60251426  1
  O2-  O134  1  0.00555030  0.24679080  0.94129061  1
  O2-  O135  1  -0.00079746  0.74912358  0.27828729  1
  O2-  O136  1  0.00315452  0.74490276  0.60229002  1
  O2-  O137  1  -0.00308164  0.74794684  0.93722601  1
  O2-  O138  1  0.50501700  0.24455463  0.27437400  1
  O2-  O139  1  0.50049869  0.24990001  0.60797538  1
  O2-  O140  1  0.49905791  0.25046877  0.93255612  1
  O2-  O141  1  0.49339268  0.75295064  0.27389717  1
  O2-  O142  1  0.50017995  0.74456748  0.60617058  1
  O2-  O143  1  0.50625268  0.74721177  0.93809663  1
  O2-  O144  1  0.06962845  0.17561215  0.09098069  1
  O2-  O145  1  0.06856656  0.17716561  0.42150249  1
  O2-  O146  1  0.06706335  0.18398808  0.76521282  1
  O2-  O147  1  0.07350490  0.67831807  0.10057744  1
  O2-  O148  1  0.06941742  0.67877023  0.42632986  1
  O2-  O149  1  0.07111240  0.67457554  0.75148982  1
  O2-  O150  1  0.57074757  0.17986158  0.09824481  1
  O2-  O151  1  0.57473972  0.17737189  0.42360607  1
  O2-  O152  1  0.57540534  0.17961258  0.75305665  1
  O2-  O153  1  0.57189838  0.67940809  0.08851573  1
  O2-  O154  1  0.57376068  0.68412616  0.43233771  1
  O2-  O155  1  0.56867188  0.67876708  0.75778646  1
  O2-  O156  1  0.17535766  0.42887830  0.23337430  1
  O2-  O157  1  0.18198373  0.42705430  0.57873597  1
  O2-  O158  1  0.18105144  0.42509437  0.90770385  1
  O2-  O159  1  0.17711084  0.92810338  0.23520603  1
  O2-  O160  1  0.17788140  0.93240020  0.57033834  1
  O2-  O161  1  0.17825423  0.93162323  0.90235599  1
  O2-  O162  1  0.68174783  0.42544209  0.24460451  1
  O2-  O163  1  0.67590289  0.42584752  0.57740638  1
  O2-  O164  1  0.68301111  0.42943942  0.90220176  1
  O2-  O165  1  0.67737083  0.92798278  0.24271184  1
  O2-  O166  1  0.68118224  0.93250088  0.56642335  1
  O2-  O167  1  0.67382241  0.92983954  0.91139491  1
  O2-  O168  1  0.42600826  0.32158216  0.09551406  1
  O2-  O169  1  0.43088694  0.31736356  0.43361431  1
  O2-  O170  1  0.43111327  0.32239754  0.75534707  1
  O2-  O171  1  0.42997539  0.81519798  0.10141466  1
  O2-  O172  1  0.42698641  0.82406520  0.42319287  1
  O2-  O173  1  0.42947818  0.82117942  0.76532818  1
  O2-  O174  1  0.93169464  0.31933410  0.10178738  1
  O2-  O175  1  0.92978991  0.32049959  0.42510346  1
  O2-  O176  1  0.92693458  0.32249632  0.75283659  1
  O2-  O177  1  0.93096840  0.82571272  0.10107578  1
  O2-  O178  1  0.92841495  0.82124750  0.42458772  1
  O2-  O179  1  0.92802238  0.81740454  0.76420904  1
  O2-  O180  1  0.32011090  0.07135705  0.24125829  1
  O2-  O181  1  0.31938972  0.07388767  0.56776195  1
  O2-  O182  1  0.32259242  0.07238615  0.91315854  1
  O2-  O183  1  0.32050013  0.57048997  0.23281359  1
  O2-  O184  1  0.32470271  0.56606034  0.56895191  1
  O2-  O185  1  0.31894240  0.57202469  0.90913452  1
  O2-  O186  1  0.82059554  0.07182613  0.23333575  1
  O2-  O187  1  0.81881711  0.07317656  0.57783239  1
  O2-  O188  1  0.82128803  0.07007732  0.90737664  1
  O2-  O189  1  0.82322889  0.57061585  0.23491892  1
  O2-  O190  1  0.81713131  0.57194833  0.56864023  1
  O2-  O191  1  0.82210039  0.57062335  0.90301387  1
  O2-  O192  1  0.03599974  0.08647794  0.26997376  1
  O2-  O193  1  0.03836902  0.08618920  0.59481397  1
  O2-  O194  1  0.04321268  0.08459386  0.93788756  1
  O2-  O195  1  0.04194034  0.58531070  0.27570150  1
  O2-  O196  1  0.04761207  0.58122394  0.60124367  1
  O2-  O197  1  0.04945775  0.58026627  0.92986704  1
  O2-  O198  1  0.55292162  0.08242524  0.27138268  1
  O2-  O199  1  0.54530043  0.08774198  0.59924802  1
  O2-  O200  1  0.54310690  0.08116334  0.93099630  1
  O2-  O201  1  0.54497913  0.58378677  0.26296310  1
  O2-  O202  1  0.54669424  0.58326836  0.60662571  1
  O2-  O203  1  0.54924835  0.58439392  0.93701464  1
  O2-  O204  1  0.16069289  0.20065530  0.26700836  1
  O2-  O205  1  0.16613992  0.21310835  0.59658628  1
  O2-  O206  1  0.16618255  0.19975156  0.93963422  1
  O2-  O207  1  0.16257212  0.70526544  0.27476045  1
  O2-  O208  1  0.16615397  0.70173840  0.60075289  1
  O2-  O209  1  0.16819237  0.71035380  0.93178354  1
  O2-  O210  1  0.66927951  0.20384832  0.27357128  1
  O2-  O211  1  0.66377222  0.20712455  0.59917774  1
  O2-  O212  1  0.66860413  0.20636817  0.92802709  1
  O2-  O213  1  0.66593253  0.71505514  0.26154091  1
  O2-  O214  1  0.66328071  0.70717771  0.60735809  1
  O2-  O215  1  0.66792832  0.70324725  0.93911546  1
  O2-  O216  1  0.08912007  0.45511278  0.06001494  1
  O2-  O217  1  0.08274849  0.45557341  0.40561486  1
  O2-  O218  1  0.08364286  0.44937159  0.72805246  1
  O2-  O219  1  0.08315209  0.96127003  0.07025168  1
  O2-  O220  1  0.08521723  0.96414409  0.40335648  1
  O2-  O221  1  0.07902975  0.96388152  0.73399931  1
  O2-  O222  1  0.58002816  0.45539748  0.06731113  1
  O2-  O223  1  0.58388582  0.45223285  0.39362862  1
  O2-  O224  1  0.58549310  0.45264026  0.73116684  1
  O2-  O225  1  0.58557914  0.95966278  0.06578993  1
  O2-  O226  1  0.58137619  0.95055582  0.39360920  1
  O2-  O227  1  0.58429085  0.96341288  0.73363554  1
  O2-  O228  1  0.20552795  0.33390196  0.06106585  1
  O2-  O229  1  0.20304874  0.32489556  0.39663849  1
  O2-  O230  1  0.20675587  0.33542643  0.73090208  1
  O2-  O231  1  0.21318131  0.83319530  0.06837290  1
  O2-  O232  1  0.20408957  0.83178487  0.40490895  1
  O2-  O233  1  0.19993181  0.82852549  0.73395923  1
  O2-  O234  1  0.70814028  0.32845438  0.06683454  1
  O2-  O235  1  0.70448252  0.33572559  0.39889948  1
  O2-  O236  1  0.70124575  0.33134010  0.72789194  1
  O2-  O237  1  0.70151583  0.83740515  0.06489914  1
  O2-  O238  1  0.70563812  0.83667601  0.39602875  1
  O2-  O239  1  0.70940565  0.83542601  0.73607468  1
  O2-  O240  1  0.45805199  0.41532025  0.26485776  1
  O2-  O241  1  0.46092109  0.41313304  0.60337382  1
  O2-  O242  1  0.45665300  0.42178994  0.92922206  1
  O2-  O243  1  0.44985179  0.91550857  0.26989691  1
  O2-  O244  1  0.46070098  0.91804183  0.59825817  1
  O2-  O245  1  0.45784655  0.91618856  0.93540207  1
  O2-  O246  1  0.95791119  0.41455415  0.27431300  1
  O2-  O247  1  0.95346983  0.41819611  0.60245404  1
  O2-  O248  1  0.96228560  0.41483135  0.93058907  1
  O2-  O249  1  0.95949149  0.91393265  0.27394819  1
  O2-  O250  1  0.95603094  0.91692586  0.59791742  1
  O2-  O251  1  0.95771854  0.91992374  0.93247108  1
  O2-  O252  1  0.33265202  0.28784965  0.26467268  1
  O2-  O253  1  0.33791959  0.29477196  0.60398091  1
  O2-  O254  1  0.32929928  0.29483641  0.92794121  1
  O2-  O255  1  0.33004693  0.79512114  0.27447459  1
  O2-  O256  1  0.32967745  0.79190521  0.60025111  1
  O2-  O257  1  0.33531197  0.78582002  0.93289868  1
  O2-  O258  1  0.83701213  0.29352498  0.27399678  1
  O2-  O259  1  0.83242133  0.30060944  0.60102345  1
  O2-  O260  1  0.83608966  0.28897991  0.93120090  1
  O2-  O261  1  0.83667827  0.79832183  0.27236503  1
  O2-  O262  1  0.83101554  0.78677545  0.59843707  1
  O2-  O263  1  0.82709642  0.79912729  0.93661413  1
  O2-  O264  1  0.41695850  0.04724734  0.06430774  1
  O2-  O265  1  0.41895577  0.05253048  0.39077676  1
  O2-  O266  1  0.42258449  0.05184639  0.73130706  1
  O2-  O267  1  0.41455290  0.54679082  0.05925824  1
  O2-  O268  1  0.42321105  0.54282067  0.39843306  1
  O2-  O269  1  0.41710463  0.53841270  0.73731416  1
  O2-  O270  1  0.91181811  0.04389670  0.06223652  1
  O2-  O271  1  0.91372869  0.03847906  0.40370115  1
  O2-  O272  1  0.91623514  0.05025972  0.72708981  1
  O2-  O273  1  0.92362982  0.54118886  0.06562180  1
  O2-  O274  1  0.91436908  0.54076090  0.40537694  1
  O2-  O275  1  0.91890502  0.54283732  0.73398363  1
  O2-  O276  1  0.29768376  0.16751253  0.06306619  1
  O2-  O277  1  0.29223120  0.16249465  0.39361462  1
  O2-  O278  1  0.28963891  0.17034941  0.73516360  1
  O2-  O279  1  0.29012934  0.66063101  0.06370120  1
  O2-  O280  1  0.29268042  0.66555025  0.40264198  1
  O2-  O281  1  0.29065720  0.66670167  0.73521149  1
  O2-  O282  1  0.79131609  0.16159640  0.06005519  1
  O2-  O283  1  0.79317961  0.16783820  0.40516866  1
  O2-  O284  1  0.79647738  0.16904908  0.72663169  1
  O2-  O285  1  0.79587574  0.67129078  0.06964152  1
  O2-  O286  1  0.78792870  0.66977580  0.39935353  1
  O2-  O287  1  0.78712960  0.66505177  0.73805742  1
