# generated using pymatgen
data_Ca2Al2SiO7
_symmetry_space_group_name_H-M   'P 1'
_cell_length_a   15.45831725
_cell_length_b   15.45883882
_cell_length_c   15.28429542
_cell_angle_alpha   89.99960443
_cell_angle_beta   89.99788615
_cell_angle_gamma   90.00246238
_symmetry_Int_Tables_number   1
_chemical_formula_structural   Ca2Al2SiO7
_chemical_formula_sum   'Ca48 Al48 Si24 O168'
_cell_volume   3652.45192038
_cell_formula_units_Z   24
loop_
 _symmetry_equiv_pos_site_id
 _symmetry_equiv_pos_as_xyz
  1  'x, y, z'
loop_
 _atom_type_symbol
 _atom_type_oxidation_number
  Ca2+  2.0
  Al0+  0.0
  Si0+  0.0
  O2-  -2.0
loop_
 _atom_site_type_symbol
 _atom_site_label
 _atom_site_symmetry_multiplicity
 _atom_site_fract_x
 _atom_site_fract_y
 _atom_site_fract_z
 _atom_site_occupancy
  Ca2+  Ca0  1  0.15899220  0.08236627  0.16333898  1
  Ca2+  Ca1  1  0.16183469  0.08860638  0.50398998  1
  Ca2+  Ca2  1  0.16204789  0.08130694  0.84095098  1
  Ca2+  Ca3  1  0.18096848  0.58082945  0.16932149  1
  Ca2+  Ca4  1  0.17175881  0.57503403  0.50954940  1
  Ca2+  Ca5  1  0.16839859  0.57123107  0.84102998  1
  Ca2+  Ca6  1  0.66428470  0.07344844  0.17411288  1
  Ca2+  Ca7  1  0.66994503  0.07239542  0.51002371  1
  Ca2+  Ca8  1  0.67177417  0.07987826  0.83424928  1
  Ca2+  Ca9  1  0.67319778  0.58409208  0.16387669  1
  Ca2+  Ca10  1  0.67897457  0.58482845  0.50621291  1
  Ca2+  Ca11  1  0.67102611  0.58664982  0.83932165  1
  Ca2+  Ca12  1  0.08410801  0.32585048  0.16311097  1
  Ca2+  Ca13  1  0.07984066  0.32592413  0.49525203  1
  Ca2+  Ca14  1  0.09264012  0.32644060  0.82774228  1
  Ca2+  Ca15  1  0.07581245  0.83213445  0.15462653  1
  Ca2+  Ca16  1  0.08202582  0.82376532  0.49991470  1
  Ca2+  Ca17  1  0.08058166  0.82633907  0.83265038  1
  Ca2+  Ca18  1  0.57487049  0.34338228  0.16011806  1
  Ca2+  Ca19  1  0.57074001  0.33918395  0.49622350  1
  Ca2+  Ca20  1  0.57113616  0.34762116  0.83286401  1
  Ca2+  Ca21  1  0.57738724  0.82727952  0.15610365  1
  Ca2+  Ca22  1  0.59332167  0.83074276  0.50003112  1
  Ca2+  Ca23  1  0.58256368  0.82192519  0.82968226  1
  Ca2+  Ca24  1  0.33657486  0.42214336  0.16582636  1
  Ca2+  Ca25  1  0.33134789  0.41513398  0.50413287  1
  Ca2+  Ca26  1  0.32594948  0.41519271  0.84150042  1
  Ca2+  Ca27  1  0.32583093  0.91006562  0.16674431  1
  Ca2+  Ca28  1  0.33090457  0.92267457  0.50494009  1
  Ca2+  Ca29  1  0.32706426  0.91696191  0.84372195  1
  Ca2+  Ca30  1  0.83306061  0.42596805  0.17124531  1
  Ca2+  Ca31  1  0.84083623  0.42318195  0.50402901  1
  Ca2+  Ca32  1  0.82815235  0.43128452  0.84309518  1
  Ca2+  Ca33  1  0.82847332  0.91446432  0.17062765  1
  Ca2+  Ca34  1  0.82333691  0.92277726  0.50796018  1
  Ca2+  Ca35  1  0.83414046  0.91856511  0.83405517  1
  Ca2+  Ca36  1  0.41698492  0.17968718  0.16115412  1
  Ca2+  Ca37  1  0.41487812  0.18012436  0.49588703  1
  Ca2+  Ca38  1  0.41476500  0.18064014  0.83003400  1
  Ca2+  Ca39  1  0.42032942  0.66483861  0.15436841  1
  Ca2+  Ca40  1  0.42531418  0.66259706  0.49614064  1
  Ca2+  Ca41  1  0.42763032  0.65922604  0.83368574  1
  Ca2+  Ca42  1  0.92456624  0.17287687  0.16152318  1
  Ca2+  Ca43  1  0.92406700  0.16834777  0.49365496  1
  Ca2+  Ca44  1  0.92682517  0.16640722  0.82682201  1
  Ca2+  Ca45  1  0.90968898  0.67131527  0.15988666  1
  Ca2+  Ca46  1  0.92119891  0.65609463  0.49959293  1
  Ca2+  Ca47  1  0.91371526  0.66859677  0.82806911  1
  Al0+  Al48  1  0.00010111  -0.00024513  -0.00366570  1
  Al0+  Al49  1  -0.00044653  -0.00281446  0.33138663  1
  Al0+  Al50  1  -0.00008002  -0.00079871  0.66449404  1
  Al0+  Al51  1  0.00024798  0.49905109  0.01021943  1
  Al0+  Al52  1  0.00280120  0.49885199  0.33190294  1
  Al0+  Al53  1  0.00187942  0.49936884  0.67218149  1
  Al0+  Al54  1  0.49974989  0.00187381  -0.00314403  1
  Al0+  Al55  1  0.49723762  -0.00123731  0.33887241  1
  Al0+  Al56  1  0.49863469  0.00069958  0.67205422  1
  Al0+  Al57  1  0.50096993  0.50039346  -0.00214762  1
  Al0+  Al58  1  0.50152263  0.50225227  0.33299743  1
  Al0+  Al59  1  0.50031557  0.50339259  0.65487356  1
  Al0+  Al60  1  0.25068534  0.24814678  -0.00293587  1
  Al0+  Al61  1  0.25096727  0.24864814  0.32431339  1
  Al0+  Al62  1  0.24964688  0.25004339  0.66093662  1
  Al0+  Al63  1  0.24764843  0.75150123  0.00451759  1
  Al0+  Al64  1  0.25105577  0.74944415  0.34006193  1
  Al0+  Al65  1  0.25042637  0.75058877  0.66195755  1
  Al0+  Al66  1  0.75103431  0.25024229  0.00408970  1
  Al0+  Al67  1  0.74973709  0.24958048  0.33033909  1
  Al0+  Al68  1  0.74834733  0.25000420  0.67120171  1
  Al0+  Al69  1  0.74954984  0.75276880  -0.00491373  1
  Al0+  Al70  1  0.75067975  0.74846770  0.34142347  1
  Al0+  Al71  1  0.74862545  0.75120170  0.66878005  1
  Al0+  Al72  1  0.17878784  0.42403980  0.01732209  1
  Al0+  Al73  1  0.82085848  0.57457233  0.01536427  1
  Al0+  Al74  1  0.56959395  0.68024831  0.98521239  1
  Al0+  Al75  1  0.57131085  0.68191728  0.64902065  1
  Al0+  Al76  1  0.18169500  0.42848540  0.67866381  1
  Al0+  Al77  1  0.43020587  0.32040866  0.65191524  1
  Al0+  Al78  1  0.32036669  0.57038886  0.01200798  1
  Al0+  Al79  1  0.67900079  0.42860385  0.01453578  1
  Al0+  Al80  1  0.06820336  0.18202668  0.98419085  1
  Al0+  Al81  1  0.06890208  0.17862041  0.65264191  1
  Al0+  Al82  1  0.92881103  0.82023943  0.98620721  1
  Al0+  Al83  1  0.43160804  0.32221842  0.31690782  1
  Al0+  Al84  1  0.42514276  0.82323803  0.98611443  1
  Al0+  Al85  1  0.07129722  0.67708665  0.65451384  1
  Al0+  Al86  1  0.32255845  0.57129615  0.34970207  1
  Al0+  Al87  1  0.67796815  0.92965977  0.34649250  1
  Al0+  Al88  1  0.82294705  0.07265941  0.68205143  1
  Al0+  Al89  1  0.17864356  0.93014515  0.01259305  1
  Al0+  Al90  1  0.43176122  0.31986201  0.98579885  1
  Al0+  Al91  1  0.07018171  0.17661323  0.31550199  1
  Al0+  Al92  1  0.82206666  0.56889523  0.34856950  1
  Al0+  Al93  1  0.82162186  0.56864109  0.68071837  1
  Al0+  Al94  1  0.67760418  0.92906700  0.68618206  1
  Al0+  Al95  1  0.92735673  0.32345961  0.31734889  1
  Si0+  Si96  1  0.07423101  0.67895692  0.31854371  1
  Si0+  Si97  1  0.92859387  0.82079176  0.64824456  1
  Si0+  Si98  1  0.67444561  0.42883675  0.68069001  1
  Si0+  Si99  1  0.32343977  0.07166313  0.01696553  1
  Si0+  Si100  1  0.92951255  0.81715901  0.32037072  1
  Si0+  Si101  1  0.57220185  0.68233153  0.31814895  1
  Si0+  Si102  1  0.42757631  0.82213996  0.31978155  1
  Si0+  Si103  1  0.17933933  0.92741332  0.68086696  1
  Si0+  Si104  1  0.82267653  0.07182654  0.34816182  1
  Si0+  Si105  1  0.57232618  0.17604844  0.65076279  1
  Si0+  Si106  1  0.31894856  0.07185624  0.68120276  1
  Si0+  Si107  1  0.67838494  0.93143012  0.01469570  1
  Si0+  Si108  1  0.57594111  0.17613169  0.98319235  1
  Si0+  Si109  1  0.42704388  0.82481003  0.64843797  1
  Si0+  Si110  1  0.57053894  0.17497431  0.31906051  1
  Si0+  Si111  1  0.18111604  0.42645242  0.35012732  1
  Si0+  Si112  1  0.82245108  0.07052421  0.01606639  1
  Si0+  Si113  1  0.17676040  0.92823970  0.35036566  1
  Si0+  Si114  1  0.92609624  0.32446768  0.98297617  1
  Si0+  Si115  1  0.31896093  0.07066607  0.34816439  1
  Si0+  Si116  1  0.32339299  0.57330173  0.68175708  1
  Si0+  Si117  1  0.07189432  0.67598344  0.98664433  1
  Si0+  Si118  1  0.92604540  0.32254433  0.65412893  1
  Si0+  Si119  1  0.67792020  0.42686296  0.35051920  1
  O2-  O120  1  0.25730140  0.00009134  0.06111917  1
  O2-  O121  1  0.24532325  0.00227909  0.39147304  1
  O2-  O122  1  0.24984475  -0.00116474  0.72258922  1
  O2-  O123  1  0.24944518  0.49876500  0.06521806  1
  O2-  O124  1  0.24930924  0.49502328  0.39585777  1
  O2-  O125  1  0.25490423  0.50480655  0.72505839  1
  O2-  O126  1  0.74742325  0.00353482  0.05875755  1
  O2-  O127  1  0.74915313  0.00834915  0.39213908  1
  O2-  O128  1  0.75059061  0.00159963  0.73375385  1
  O2-  O129  1  0.75238345  0.49896860  0.06515500  1
  O2-  O130  1  0.75206282  0.48929287  0.39515844  1
  O2-  O131  1  0.74671178  0.49326566  0.72482257  1
  O2-  O132  1  -0.00233475  0.24917234  0.26785641  1
  O2-  O133  1  -0.00980636  0.24993770  0.60834468  1
  O2-  O134  1  -0.00231330  0.26001635  0.93687408  1
  O2-  O135  1  0.00074103  0.74747532  0.27642321  1
  O2-  O136  1  -0.00516764  0.74920024  0.60434870  1
  O2-  O137  1  -0.00100538  0.74015266  0.94195714  1
  O2-  O138  1  0.50914505  0.24862209  0.27257495  1
  O2-  O139  1  0.50753825  0.24763377  0.60519045  1
  O2-  O140  1  0.50959242  0.24744100  0.93979530  1
  O2-  O141  1  0.49852253  0.75161144  0.27754692  1
  O2-  O142  1  0.49680847  0.75807109  0.60272078  1
  O2-  O143  1  0.49472195  0.75011635  0.93532949  1
  O2-  O144  1  0.06474326  0.17912448  0.09705210  1
  O2-  O145  1  0.06909488  0.17638592  0.42940401  1
  O2-  O146  1  0.07138086  0.17875579  0.76531642  1
  O2-  O147  1  0.07331483  0.68145343  0.09269225  1
  O2-  O148  1  0.07412939  0.68133281  0.42394080  1
  O2-  O149  1  0.07234747  0.68014621  0.76714581  1
  O2-  O150  1  0.57316731  0.17079570  0.08896980  1
  O2-  O151  1  0.56625091  0.17290029  0.42453785  1
  O2-  O152  1  0.56921817  0.17405492  0.75596560  1
  O2-  O153  1  0.57137156  0.68395315  0.09949227  1
  O2-  O154  1  0.57249496  0.68419063  0.42333630  1
  O2-  O155  1  0.56944612  0.67940761  0.76142142  1
  O2-  O156  1  0.18247214  0.42845029  0.24491934  1
  O2-  O157  1  0.18267768  0.42798155  0.56517089  1
  O2-  O158  1  0.18152500  0.42390204  0.90333163  1
  O2-  O159  1  0.17687021  0.92523981  0.24564608  1
  O2-  O160  1  0.18098090  0.92739603  0.57509887  1
  O2-  O161  1  0.17757093  0.93275848  0.89930084  1
  O2-  O162  1  0.67516017  0.43098253  0.24542772  1
  O2-  O163  1  0.67409327  0.43019116  0.57476233  1
  O2-  O164  1  0.67988274  0.42978145  0.90065312  1
  O2-  O165  1  0.67883911  0.92921208  0.23299718  1
  O2-  O166  1  0.67958557  0.93143457  0.57186206  1
  O2-  O167  1  0.67901364  0.93285891  0.91028754  1
  O2-  O168  1  0.43308898  0.31786020  0.09898655  1
  O2-  O169  1  0.43033225  0.31901509  0.43029648  1
  O2-  O170  1  0.42969394  0.31931982  0.76468202  1
  O2-  O171  1  0.42945650  0.82414047  0.10060908  1
  O2-  O172  1  0.42654682  0.82344020  0.42485528  1
  O2-  O173  1  0.42436875  0.82473822  0.75333351  1
  O2-  O174  1  0.92439600  0.31940168  0.08847359  1
  O2-  O175  1  0.93008831  0.32279170  0.43160995  1
  O2-  O176  1  0.92809711  0.32263622  0.75933672  1
  O2-  O177  1  0.92867649  0.82172256  0.10030300  1
  O2-  O178  1  0.93179096  0.81843428  0.42524871  1
  O2-  O179  1  0.93160008  0.82233167  0.75369172  1
  O2-  O180  1  0.32269696  0.06712439  0.24369075  1
  O2-  O181  1  0.31829406  0.07103605  0.57541967  1
  O2-  O182  1  0.32177610  0.07231111  0.91114358  1
  O2-  O183  1  0.32181365  0.57458064  0.23717818  1
  O2-  O184  1  0.32177662  0.57187664  0.57563185  1
  O2-  O185  1  0.31921360  0.56895487  0.89828738  1
  O2-  O186  1  0.82335134  0.06734598  0.24242774  1
  O2-  O187  1  0.82237775  0.07012319  0.56786220  1
  O2-  O188  1  0.82234950  0.06892519  0.91125907  1
  O2-  O189  1  0.81688344  0.57532235  0.23637060  1
  O2-  O190  1  0.82219618  0.56587264  0.56721235  1
  O2-  O191  1  0.81908659  0.57480914  0.90182451  1
  O2-  O192  1  0.04208902  0.07653868  0.26444978  1
  O2-  O193  1  0.04253755  0.08068113  0.59780691  1
  O2-  O194  1  0.03399844  0.08632298  0.93053773  1
  O2-  O195  1  0.05209878  0.58590294  0.27292305  1
  O2-  O196  1  0.04147602  0.58011459  0.59989806  1
  O2-  O197  1  0.05210397  0.57943760  0.94495636  1
  O2-  O198  1  0.53797199  0.08313321  0.27191335  1
  O2-  O199  1  0.54226203  0.08346946  0.60408722  1
  O2-  O200  1  0.54808348  0.08461418  0.93403602  1
  O2-  O201  1  0.54628796  0.59002891  0.27208848  1
  O2-  O202  1  0.54061406  0.58766861  0.58973895  1
  O2-  O203  1  0.54343411  0.58231900  0.93076768  1
  O2-  O204  1  0.16876785  0.20246276  0.26242162  1
  O2-  O205  1  0.16392651  0.21135663  0.59647241  1
  O2-  O206  1  0.16718907  0.20590041  0.93185438  1
  O2-  O207  1  0.16524503  0.71186188  0.27274039  1
  O2-  O208  1  0.16620411  0.71091150  0.59679450  1
  O2-  O209  1  0.16279123  0.70725572  0.93926471  1
  O2-  O210  1  0.66715084  0.19044153  0.27568420  1
  O2-  O211  1  0.66799640  0.19667030  0.60639208  1
  O2-  O212  1  0.67128168  0.19796649  0.93954147  1
  O2-  O213  1  0.66371651  0.71346259  0.27264689  1
  O2-  O214  1  0.66829482  0.71414319  0.59541278  1
  O2-  O215  1  0.66534028  0.71370882  0.93065953  1
  O2-  O216  1  0.07988186  0.44742334  0.07094335  1
  O2-  O217  1  0.08733300  0.45216924  0.39553397  1
  O2-  O218  1  0.08626330  0.45687001  0.73502136  1
  O2-  O219  1  0.08329587  0.96522813  0.06770412  1
  O2-  O220  1  0.08417408  0.95335750  0.39799786  1
  O2-  O221  1  0.08698809  0.95380827  0.72614667  1
  O2-  O222  1  0.58188344  0.46013163  0.06762218  1
  O2-  O223  1  0.58705044  0.45961051  0.39830085  1
  O2-  O224  1  0.58189852  0.46150175  0.72468197  1
  O2-  O225  1  0.58580422  0.95841864  0.06219687  1
  O2-  O226  1  0.58075315  0.95667021  0.40211601  1
  O2-  O227  1  0.57848043  0.95676524  0.73778263  1
  O2-  O228  1  0.21095015  0.32631531  0.06899237  1
  O2-  O229  1  0.20775723  0.33134783  0.39294297  1
  O2-  O230  1  0.21534313  0.33212014  0.73130674  1
  O2-  O231  1  0.20398261  0.83431923  0.07130345  1
  O2-  O232  1  0.20839578  0.83886240  0.40083398  1
  O2-  O233  1  0.20790776  0.83576076  0.72783924  1
  O2-  O234  1  0.70165738  0.32841919  0.06835728  1
  O2-  O235  1  0.69434462  0.32943617  0.39315576  1
  O2-  O236  1  0.69040232  0.33300862  0.72539582  1
  O2-  O237  1  0.70849577  0.84058802  0.06186687  1
  O2-  O238  1  0.71414226  0.83644713  0.40312385  1
  O2-  O239  1  0.70702527  0.83125083  0.73761018  1
  O2-  O240  1  0.46260149  0.41976649  0.26522826  1
  O2-  O241  1  0.45887041  0.41614345  0.59477552  1
  O2-  O242  1  0.46028848  0.41612959  0.93099220  1
  O2-  O243  1  0.45392551  0.91444512  0.27287239  1
  O2-  O244  1  0.45090882  0.92028184  0.60391504  1
  O2-  O245  1  0.45275955  0.92218734  0.93351595  1
  O2-  O246  1  0.95781377  0.42117948  0.26370699  1
  O2-  O247  1  0.95764872  0.41389452  0.60695358  1
  O2-  O248  1  0.94737748  0.42121771  0.94245734  1
  O2-  O249  1  0.95555090  0.90892934  0.27173078  1
  O2-  O250  1  0.95847997  0.91235805  0.59990667  1
  O2-  O251  1  0.96482026  0.91372727  0.93033015  1
  O2-  O252  1  0.33714808  0.28810025  0.26225516  1
  O2-  O253  1  0.33663037  0.28404748  0.59513360  1
  O2-  O254  1  0.33702423  0.28439754  0.93133416  1
  O2-  O255  1  0.33446220  0.79474740  0.27455129  1
  O2-  O256  1  0.33405423  0.79978484  0.59962432  1
  O2-  O257  1  0.32413118  0.80054777  0.93662346  1
  O2-  O258  1  0.82705756  0.29896724  0.26508003  1
  O2-  O259  1  0.82994033  0.30332363  0.60932326  1
  O2-  O260  1  0.83297922  0.29603963  0.93725686  1
  O2-  O261  1  0.83728141  0.78810261  0.27422368  1
  O2-  O262  1  0.83362147  0.79872157  0.60458401  1
  O2-  O263  1  0.83263114  0.79523917  0.92981457  1
  O2-  O264  1  0.41856969  0.05085333  0.06260013  1
  O2-  O265  1  0.40808871  0.04040593  0.40033469  1
  O2-  O266  1  0.41077637  0.04817290  0.72974272  1
  O2-  O267  1  0.41882443  0.54248601  0.06479416  1
  O2-  O268  1  0.42047663  0.54207677  0.40209815  1
  O2-  O269  1  0.41837767  0.54707658  0.72304991  1
  O2-  O270  1  0.91157928  0.03647097  0.06399685  1
  O2-  O271  1  0.91424984  0.03966025  0.39523648  1
  O2-  O272  1  0.92114231  0.04056342  0.73418812  1
  O2-  O273  1  0.91976650  0.55151691  0.06976805  1
  O2-  O274  1  0.92191871  0.54231379  0.39952604  1
  O2-  O275  1  0.91752993  0.54063268  0.73643170  1
  O2-  O276  1  0.29312952  0.16280520  0.06434710  1
  O2-  O277  1  0.29229044  0.16359991  0.39416874  1
  O2-  O278  1  0.28823684  0.16242737  0.72795210  1
  O2-  O279  1  0.29288361  0.66866015  0.06715208  1
  O2-  O280  1  0.29147118  0.66736952  0.40586079  1
  O2-  O281  1  0.29949144  0.66842336  0.72432151  1
  O2-  O282  1  0.79950923  0.16323072  0.06386672  1
  O2-  O283  1  0.80370129  0.16782007  0.39180668  1
  O2-  O284  1  0.79690458  0.17132972  0.73643856  1
  O2-  O285  1  0.78814592  0.67321427  0.06694327  1
  O2-  O286  1  0.78829203  0.66317354  0.40591023  1
  O2-  O287  1  0.79155093  0.66651690  0.73063666  1
