# generated using pymatgen
data_Ca2Al2SiO7
_symmetry_space_group_name_H-M   'P 1'
_cell_length_a   15.46035978
_cell_length_b   15.45880362
_cell_length_c   15.28485118
_cell_angle_alpha   90.00089947
_cell_angle_beta   89.98823544
_cell_angle_gamma   89.99860181
_symmetry_Int_Tables_number   1
_chemical_formula_structural   Ca2Al2SiO7
_chemical_formula_sum   'Ca48 Al48 Si24 O168'
_cell_volume   3653.05895837
_cell_formula_units_Z   24
loop_
 _symmetry_equiv_pos_site_id
 _symmetry_equiv_pos_as_xyz
  1  'x, y, z'
loop_
 _atom_type_symbol
 _atom_type_oxidation_number
  Ca2+  2.0
  Al0+  0.0
  Si0+  0.0
  O2-  -2.0
loop_
 _atom_site_type_symbol
 _atom_site_label
 _atom_site_symmetry_multiplicity
 _atom_site_fract_x
 _atom_site_fract_y
 _atom_site_fract_z
 _atom_site_occupancy
  Ca2+  Ca0  1  0.16750512  0.08865403  0.17193871  1
  Ca2+  Ca1  1  0.16865199  0.08253869  0.50150450  1
  Ca2+  Ca2  1  0.15775035  0.07884413  0.83702251  1
  Ca2+  Ca3  1  0.16362287  0.57555530  0.16962174  1
  Ca2+  Ca4  1  0.17968955  0.58852176  0.50330447  1
  Ca2+  Ca5  1  0.16813638  0.57987158  0.83866282  1
  Ca2+  Ca6  1  0.67256637  0.08736065  0.16972773  1
  Ca2+  Ca7  1  0.66963038  0.07894859  0.50794476  1
  Ca2+  Ca8  1  0.68099914  0.07881699  0.83341892  1
  Ca2+  Ca9  1  0.67642176  0.57287903  0.17717648  1
  Ca2+  Ca10  1  0.67373013  0.57302202  0.50681885  1
  Ca2+  Ca11  1  0.67174891  0.58335054  0.82805558  1
  Ca2+  Ca12  1  0.07652632  0.32877474  0.15784476  1
  Ca2+  Ca13  1  0.06963976  0.32936953  0.49331912  1
  Ca2+  Ca14  1  0.07477995  0.33149338  0.83242129  1
  Ca2+  Ca15  1  0.07797856  0.82234376  0.15765538  1
  Ca2+  Ca16  1  0.08015066  0.83665381  0.50231863  1
  Ca2+  Ca17  1  0.07511163  0.83188927  0.82968718  1
  Ca2+  Ca18  1  0.58125671  0.33138970  0.16680287  1
  Ca2+  Ca19  1  0.59001739  0.33071901  0.49457486  1
  Ca2+  Ca20  1  0.57870453  0.34005324  0.82806492  1
  Ca2+  Ca21  1  0.57410456  0.83397833  0.16590318  1
  Ca2+  Ca22  1  0.58513733  0.82608994  0.49702305  1
  Ca2+  Ca23  1  0.58450071  0.82750065  0.82274313  1
  Ca2+  Ca24  1  0.32719553  0.41600816  0.16913198  1
  Ca2+  Ca25  1  0.33509758  0.42878147  0.50530067  1
  Ca2+  Ca26  1  0.32858691  0.42040097  0.84102846  1
  Ca2+  Ca27  1  0.33102303  0.92219098  0.17857758  1
  Ca2+  Ca28  1  0.33010919  0.91934626  0.50260684  1
  Ca2+  Ca29  1  0.32426335  0.91663506  0.83363583  1
  Ca2+  Ca30  1  0.83594827  0.41787791  0.17610755  1
  Ca2+  Ca31  1  0.82746482  0.41776477  0.50620523  1
  Ca2+  Ca32  1  0.83369818  0.41317202  0.83468311  1
  Ca2+  Ca33  1  0.84115167  0.92318273  0.16526141  1
  Ca2+  Ca34  1  0.82937553  0.92459686  0.51486815  1
  Ca2+  Ca35  1  0.84228117  0.92367658  0.83571481  1
  Ca2+  Ca36  1  0.42274443  0.16741169  0.16367609  1
  Ca2+  Ca37  1  0.42535618  0.16362452  0.48948269  1
  Ca2+  Ca38  1  0.41562530  0.17644211  0.83249369  1
  Ca2+  Ca39  1  0.41222624  0.66802289  0.16861525  1
  Ca2+  Ca40  1  0.41934333  0.66718920  0.49628514  1
  Ca2+  Ca41  1  0.42424581  0.66238111  0.82297395  1
  Ca2+  Ca42  1  0.92459273  0.17688794  0.15992542  1
  Ca2+  Ca43  1  0.91364878  0.17639462  0.49467754  1
  Ca2+  Ca44  1  0.91112684  0.17326934  0.83005232  1
  Ca2+  Ca45  1  0.91918397  0.66912285  0.15808496  1
  Ca2+  Ca46  1  0.90410079  0.67076446  0.50000367  1
  Ca2+  Ca47  1  0.91708579  0.67500054  0.82523972  1
  Al0+  Al48  1  0.00038820  -0.00091621  0.00225090  1
  Al0+  Al49  1  0.00002003  -0.00043494  0.33064119  1
  Al0+  Al50  1  0.00264593  -0.00060523  0.66908434  1
  Al0+  Al51  1  0.00167102  0.49917754  -0.00241561  1
  Al0+  Al52  1  -0.00006113  0.50304636  0.33589974  1
  Al0+  Al53  1  0.00190940  0.50005129  0.66309805  1
  Al0+  Al54  1  0.50069235  -0.00072455  -0.00197958  1
  Al0+  Al55  1  0.49873417  -0.00000942  0.32825063  1
  Al0+  Al56  1  0.49855474  0.00143490  0.67263577  1
  Al0+  Al57  1  0.50048625  0.50055918  -0.00106734  1
  Al0+  Al58  1  0.50062249  0.49982029  0.33880663  1
  Al0+  Al59  1  0.50025616  0.50181872  0.66841381  1
  Al0+  Al60  1  0.25132158  0.25111168  -0.00381507  1
  Al0+  Al61  1  0.25046151  0.24891104  0.33794264  1
  Al0+  Al62  1  0.25047331  0.25186891  0.66393751  1
  Al0+  Al63  1  0.25149823  0.75099020  -0.00265511  1
  Al0+  Al64  1  0.24859763  0.75067854  0.33252439  1
  Al0+  Al65  1  0.25075691  0.75175589  0.67561239  1
  Al0+  Al66  1  0.74933410  0.24730810  0.00222872  1
  Al0+  Al67  1  0.74940561  0.24892037  0.32758793  1
  Al0+  Al68  1  0.74803074  0.24978740  0.67054331  1
  Al0+  Al69  1  0.74694813  0.75030697  -0.00059308  1
  Al0+  Al70  1  0.74819070  0.74980466  0.33179560  1
  Al0+  Al71  1  0.74850860  0.74792370  0.66315490  1
  Al0+  Al72  1  0.92787358  0.81922786  0.98528274  1
  Al0+  Al73  1  0.07285535  0.67727217  0.98431676  1
  Al0+  Al74  1  0.42860191  0.81918649  0.32117924  1
  Al0+  Al75  1  0.32014705  0.57046989  0.68157790  1
  Al0+  Al76  1  0.92785990  0.32041290  0.65181103  1
  Al0+  Al77  1  0.43150387  0.32073277  0.98745242  1
  Al0+  Al78  1  0.92689380  0.32086864  0.98422768  1
  Al0+  Al79  1  0.82332099  0.57340206  0.34783735  1
  Al0+  Al80  1  0.67733831  0.92711847  0.68004544  1
  Al0+  Al81  1  0.57045154  0.17835895  0.31988690  1
  Al0+  Al82  1  0.07265567  0.17899509  0.98452105  1
  Al0+  Al83  1  0.17936210  0.42958274  0.01311772  1
  Al0+  Al84  1  0.32152607  0.07159304  0.34571910  1
  Al0+  Al85  1  0.93031931  0.82044420  0.65184623  1
  Al0+  Al86  1  0.68005695  0.42856172  0.68351909  1
  Al0+  Al87  1  0.92953591  0.32255914  0.31850770  1
  Al0+  Al88  1  0.82157984  0.06990781  0.01717036  1
  Al0+  Al89  1  0.07210243  0.17782388  0.31911894  1
  Al0+  Al90  1  0.57059610  0.67900421  0.65075575  1
  Al0+  Al91  1  0.18049426  0.93121037  0.68119586  1
  Al0+  Al92  1  0.68075090  0.42641547  0.34733187  1
  Al0+  Al93  1  0.31901332  0.57137329  0.34598148  1
  Al0+  Al94  1  0.82169861  0.07080780  0.68023029  1
  Al0+  Al95  1  0.82341400  0.57075092  0.68250953  1
  Si0+  Si96  1  0.18019663  0.92839326  0.01736136  1
  Si0+  Si97  1  0.17851960  0.42665295  0.68306201  1
  Si0+  Si98  1  0.42885205  0.82334605  0.98334939  1
  Si0+  Si99  1  0.42863195  0.32218572  0.65044549  1
  Si0+  Si100  1  0.56863348  0.67959373  0.98544007  1
  Si0+  Si101  1  0.07475319  0.67878493  0.64899904  1
  Si0+  Si102  1  0.07213395  0.68138644  0.32008111  1
  Si0+  Si103  1  0.17702107  0.42689802  0.35135528  1
  Si0+  Si104  1  0.57142036  0.67676680  0.31495608  1
  Si0+  Si105  1  0.32401901  0.57254202  0.01741519  1
  Si0+  Si106  1  0.32203222  0.07047135  0.01476404  1
  Si0+  Si107  1  0.07351684  0.17756928  0.64897679  1
  Si0+  Si108  1  0.56836614  0.17917579  0.65326943  1
  Si0+  Si109  1  0.67616487  0.92663706  0.01917775  1
  Si0+  Si110  1  0.42690772  0.82339378  0.65112307  1
  Si0+  Si111  1  0.82013095  0.57112558  0.01303763  1
  Si0+  Si112  1  0.92631836  0.82121460  0.31900922  1
  Si0+  Si113  1  0.67715461  0.92943112  0.34599810  1
  Si0+  Si114  1  0.32276144  0.07533612  0.68500576  1
  Si0+  Si115  1  0.57224130  0.17591469  0.98059030  1
  Si0+  Si116  1  0.82113745  0.06822879  0.34674593  1
  Si0+  Si117  1  0.17724948  0.92817949  0.34918331  1
  Si0+  Si118  1  0.42750030  0.32447363  0.31906397  1
  Si0+  Si119  1  0.67715852  0.42909775  0.01532765  1
  O2-  O120  1  0.25090444  0.00024076  0.05856620  1
  O2-  O121  1  0.24407937  -0.00044020  0.39195198  1
  O2-  O122  1  0.25240827  0.00858943  0.72890511  1
  O2-  O123  1  0.25218768  0.50697005  0.06045025  1
  O2-  O124  1  0.24763340  0.49461971  0.39472386  1
  O2-  O125  1  0.24555921  0.49654572  0.72800525  1
  O2-  O126  1  0.74605813  -0.00592427  0.06327573  1
  O2-  O127  1  0.75086015  -0.00331032  0.38913390  1
  O2-  O128  1  0.75408336  -0.00629167  0.73004551  1
  O2-  O129  1  0.75374110  0.49528250  0.05570999  1
  O2-  O130  1  0.75443903  0.49740451  0.39562119  1
  O2-  O131  1  0.75500012  0.49659443  0.73500590  1
  O2-  O132  1  0.00432301  0.25316770  0.26897354  1
  O2-  O133  1  0.00248420  0.24428147  0.60610659  1
  O2-  O134  1  -0.00230419  0.24738057  0.93433970  1
  O2-  O135  1  -0.00481797  0.74699809  0.27908618  1
  O2-  O136  1  0.00253122  0.74340891  0.60342185  1
  O2-  O137  1  -0.00149701  0.74658296  0.93459923  1
  O2-  O138  1  0.49534360  0.25440589  0.27540487  1
  O2-  O139  1  0.49763606  0.24941722  0.60894615  1
  O2-  O140  1  0.50663280  0.24795981  0.93737860  1
  O2-  O141  1  0.50100891  0.74394143  0.27049357  1
  O2-  O142  1  0.49781142  0.75772275  0.60661225  1
  O2-  O143  1  0.49792045  0.75067534  0.94240660  1
  O2-  O144  1  0.07376404  0.18192913  0.09804703  1
  O2-  O145  1  0.06839335  0.17542287  0.43275371  1
  O2-  O146  1  0.07680982  0.17982913  0.75421942  1
  O2-  O147  1  0.07242976  0.67946109  0.09890230  1
  O2-  O148  1  0.07853077  0.68588602  0.42460533  1
  O2-  O149  1  0.07603887  0.68137530  0.75427890  1
  O2-  O150  1  0.56932735  0.17402295  0.08636793  1
  O2-  O151  1  0.56948537  0.17528658  0.43316097  1
  O2-  O152  1  0.56539918  0.17929524  0.75829384  1
  O2-  O153  1  0.56724402  0.68000541  0.09060684  1
  O2-  O154  1  0.57202625  0.67914604  0.41993399  1
  O2-  O155  1  0.56661411  0.67850715  0.76462695  1
  O2-  O156  1  0.17772226  0.42828499  0.24562945  1
  O2-  O157  1  0.18263602  0.42507903  0.57733730  1
  O2-  O158  1  0.18343401  0.42983596  0.90014988  1
  O2-  O159  1  0.17888196  0.92561366  0.24350851  1
  O2-  O160  1  0.18309436  0.93090111  0.56775593  1
  O2-  O161  1  0.18261157  0.92780020  0.91241145  1
  O2-  O162  1  0.67879967  0.42950530  0.23290732  1
  O2-  O163  1  0.67893537  0.42701885  0.57028188  1
  O2-  O164  1  0.67295028  0.43289917  0.91079329  1
  O2-  O165  1  0.67759837  0.92943647  0.24075135  1
  O2-  O166  1  0.67548301  0.93217967  0.56573599  1
  O2-  O167  1  0.67224709  0.92661097  0.91424835  1
  O2-  O168  1  0.43308941  0.31995432  0.10063352  1
  O2-  O169  1  0.42832183  0.32425327  0.42480828  1
  O2-  O170  1  0.42801804  0.32064713  0.75574514  1
  O2-  O171  1  0.42880244  0.82507331  0.08847106  1
  O2-  O172  1  0.42986935  0.81908966  0.43387527  1
  O2-  O173  1  0.42729817  0.82188369  0.75724871  1
  O2-  O174  1  0.92776733  0.32207637  0.09778993  1
  O2-  O175  1  0.92815817  0.31895972  0.43219642  1
  O2-  O176  1  0.92917615  0.31887164  0.76460774  1
  O2-  O177  1  0.92974492  0.81669875  0.09991214  1
  O2-  O178  1  0.92628213  0.82447096  0.42371144  1
  O2-  O179  1  0.93302590  0.82121449  0.76450040  1
  O2-  O180  1  0.32339896  0.06822767  0.23236014  1
  O2-  O181  1  0.32536702  0.07439161  0.57949975  1
  O2-  O182  1  0.32375334  0.06730296  0.90964705  1
  O2-  O183  1  0.31571943  0.57183774  0.23281949  1
  O2-  O184  1  0.31919210  0.57079971  0.56816169  1
  O2-  O185  1  0.32719275  0.57063571  0.91203082  1
  O2-  O186  1  0.82109993  0.06537169  0.24178914  1
  O2-  O187  1  0.81810542  0.07137004  0.56582607  1
  O2-  O188  1  0.81952574  0.06923755  0.90447035  1
  O2-  O189  1  0.82085724  0.57600433  0.23325999  1
  O2-  O190  1  0.81896544  0.56986227  0.56923578  1
  O2-  O191  1  0.81669806  0.57449897  0.90870322  1
  O2-  O192  1  0.04317099  0.07945783  0.26499717  1
  O2-  O193  1  0.05231632  0.08242729  0.60515295  1
  O2-  O194  1  0.04768423  0.07795655  0.93666349  1
  O2-  O195  1  0.04981930  0.58780084  0.27388867  1
  O2-  O196  1  0.05766267  0.58341453  0.60351513  1
  O2-  O197  1  0.04968844  0.57841967  0.93235810  1
  O2-  O198  1  0.53777370  0.08426439  0.26177591  1
  O2-  O199  1  0.53954006  0.08695446  0.60611420  1
  O2-  O200  1  0.54277519  0.08362171  0.93388464  1
  O2-  O201  1  0.54553518  0.58266663  0.27002494  1
  O2-  O202  1  0.53469860  0.58389679  0.59691484  1
  O2-  O203  1  0.54025314  0.58884986  0.93690534  1
  O2-  O204  1  0.17414761  0.20042609  0.27075639  1
  O2-  O205  1  0.16705656  0.20513543  0.60166667  1
  O2-  O206  1  0.17052578  0.20655154  0.93034799  1
  O2-  O207  1  0.15981771  0.71409900  0.26741866  1
  O2-  O208  1  0.16754603  0.71233676  0.60456225  1
  O2-  O209  1  0.17158489  0.70750257  0.93239709  1
  O2-  O210  1  0.66502680  0.20818503  0.26169989  1
  O2-  O211  1  0.66005682  0.20602633  0.60605235  1
  O2-  O212  1  0.66673499  0.19866807  0.93736592  1
  O2-  O213  1  0.66347912  0.70568757  0.26637677  1
  O2-  O214  1  0.66602756  0.70671300  0.59392698  1
  O2-  O215  1  0.65982142  0.70724039  0.93743889  1
  O2-  O216  1  0.08279318  0.45924177  0.06900607  1
  O2-  O217  1  0.08485526  0.45554570  0.39795627  1
  O2-  O218  1  0.08470420  0.45119285  0.72747939  1
  O2-  O219  1  0.08842436  0.95291007  0.06570075  1
  O2-  O220  1  0.08308822  0.95266921  0.39519622  1
  O2-  O221  1  0.08496195  0.95949249  0.73767774  1
  O2-  O222  1  0.58791859  0.46320175  0.06487652  1
  O2-  O223  1  0.58245671  0.45411272  0.40080064  1
  O2-  O224  1  0.58240494  0.46178862  0.73574692  1
  O2-  O225  1  0.58244246  0.95537573  0.06555718  1
  O2-  O226  1  0.58649934  0.95939013  0.39290266  1
  O2-  O227  1  0.58046677  0.95825658  0.73604605  1
  O2-  O228  1  0.21532658  0.33404694  0.06697659  1
  O2-  O229  1  0.20021009  0.33331966  0.39808235  1
  O2-  O230  1  0.20653530  0.33377403  0.72960668  1
  O2-  O231  1  0.21068130  0.83653770  0.06448066  1
  O2-  O232  1  0.20627196  0.83672666  0.39691032  1
  O2-  O233  1  0.21380883  0.83777844  0.73990779  1
  O2-  O234  1  0.69720674  0.33419051  0.05949520  1
  O2-  O235  1  0.70631485  0.32632958  0.39843817  1
  O2-  O236  1  0.70213223  0.32944005  0.73750471  1
  O2-  O237  1  0.69858160  0.83207747  0.06585549  1
  O2-  O238  1  0.70109237  0.83595352  0.39148830  1
  O2-  O239  1  0.69859736  0.82644294  0.72893632  1
  O2-  O240  1  0.45358016  0.41756071  0.27183414  1
  O2-  O241  1  0.45800130  0.41347395  0.60415502  1
  O2-  O242  1  0.46149310  0.41763393  0.93276798  1
  O2-  O243  1  0.46151538  0.91329906  0.26323315  1
  O2-  O244  1  0.44820579  0.91981886  0.60877523  1
  O2-  O245  1  0.45757092  0.91406370  0.93433938  1
  O2-  O246  1  0.95498909  0.42382904  0.26918972  1
  O2-  O247  1  0.95972222  0.41684736  0.59750769  1
  O2-  O248  1  0.95545309  0.41905430  0.93227011  1
  O2-  O249  1  0.95764358  0.91104250  0.26952794  1
  O2-  O250  1  0.96435830  0.91704736  0.59811949  1
  O2-  O251  1  0.95941645  0.91723591  0.93543470  1
  O2-  O252  1  0.33309067  0.29963174  0.27493423  1
  O2-  O253  1  0.33638984  0.29731865  0.60215319  1
  O2-  O254  1  0.33750764  0.28832311  0.93006068  1
  O2-  O255  1  0.33204361  0.78959983  0.26520662  1
  O2-  O256  1  0.33381166  0.79463006  0.60640348  1
  O2-  O257  1  0.33667968  0.79837254  0.93587752  1
  O2-  O258  1  0.83259038  0.29211762  0.26442709  1
  O2-  O259  1  0.82999086  0.28800273  0.60063409  1
  O2-  O260  1  0.82682658  0.29271313  0.93417892  1
  O2-  O261  1  0.83413279  0.79684854  0.27016935  1
  O2-  O262  1  0.83266438  0.79296685  0.59816634  1
  O2-  O263  1  0.82721350  0.79524517  0.93537386  1
  O2-  O264  1  0.41431889  0.04107123  0.06143794  1
  O2-  O265  1  0.41683101  0.03570641  0.39980002  1
  O2-  O266  1  0.41414312  0.04891274  0.73500608  1
  O2-  O267  1  0.41634401  0.54375640  0.06503638  1
  O2-  O268  1  0.41643175  0.54483087  0.40012352  1
  O2-  O269  1  0.41530016  0.53757840  0.73586260  1
  O2-  O270  1  0.91771908  0.03743257  0.07216467  1
  O2-  O271  1  0.91287142  0.04056136  0.39422665  1
  O2-  O272  1  0.92116578  0.04666630  0.73163806  1
  O2-  O273  1  0.91393966  0.54822125  0.05853139  1
  O2-  O274  1  0.92392900  0.55559609  0.40013011  1
  O2-  O275  1  0.92553853  0.54959012  0.73043974  1
  O2-  O276  1  0.29660047  0.16319467  0.06026660  1
  O2-  O277  1  0.29746828  0.16820701  0.40337584  1
  O2-  O278  1  0.29851389  0.17042373  0.72878748  1
  O2-  O279  1  0.30222758  0.66892293  0.05995966  1
  O2-  O280  1  0.28541533  0.66728728  0.40025210  1
  O2-  O281  1  0.29289267  0.66663866  0.73744564  1
  O2-  O282  1  0.78813177  0.16582188  0.07233616  1
  O2-  O283  1  0.79164069  0.16029323  0.39110791  1
  O2-  O284  1  0.78609019  0.16505983  0.73585303  1
  O2-  O285  1  0.78726210  0.66130260  0.06223788  1
  O2-  O286  1  0.78984936  0.67137589  0.39955910  1
  O2-  O287  1  0.78999667  0.66825791  0.73412126  1
