# generated using pymatgen
data_Ca2Al2SiO7
_symmetry_space_group_name_H-M   'P 1'
_cell_length_a   15.46017425
_cell_length_b   15.46161093
_cell_length_c   15.28514244
_cell_angle_alpha   89.97928038
_cell_angle_beta   89.99424393
_cell_angle_gamma   89.99441013
_symmetry_Int_Tables_number   1
_chemical_formula_structural   Ca2Al2SiO7
_chemical_formula_sum   'Ca48 Al48 Si24 O168'
_cell_volume   3653.74793149
_cell_formula_units_Z   24
loop_
 _symmetry_equiv_pos_site_id
 _symmetry_equiv_pos_as_xyz
  1  'x, y, z'
loop_
 _atom_type_symbol
 _atom_type_oxidation_number
  Ca2+  2.0
  Al0+  0.0
  Si0+  0.0
  O2-  -2.0
loop_
 _atom_site_type_symbol
 _atom_site_label
 _atom_site_symmetry_multiplicity
 _atom_site_fract_x
 _atom_site_fract_y
 _atom_site_fract_z
 _atom_site_occupancy
  Ca2+  Ca0  1  0.17061100  0.08444160  0.17133740  1
  Ca2+  Ca1  1  0.16944690  0.08515165  0.50880091  1
  Ca2+  Ca2  1  0.17866837  0.08954595  0.83328509  1
  Ca2+  Ca3  1  0.16841480  0.58022493  0.17284416  1
  Ca2+  Ca4  1  0.16545192  0.57354676  0.50999362  1
  Ca2+  Ca5  1  0.17403194  0.58521165  0.83323398  1
  Ca2+  Ca6  1  0.67414843  0.08136003  0.17442858  1
  Ca2+  Ca7  1  0.67597091  0.08837024  0.51011383  1
  Ca2+  Ca8  1  0.67002989  0.08967125  0.82979922  1
  Ca2+  Ca9  1  0.67118075  0.58667661  0.17160036  1
  Ca2+  Ca10  1  0.67637901  0.58003311  0.51183190  1
  Ca2+  Ca11  1  0.66355038  0.58422030  0.83326785  1
  Ca2+  Ca12  1  0.08845019  0.33075612  0.17013598  1
  Ca2+  Ca13  1  0.08648173  0.32867181  0.49931842  1
  Ca2+  Ca14  1  0.07806138  0.33127291  0.82102974  1
  Ca2+  Ca15  1  0.08253170  0.81914184  0.16410979  1
  Ca2+  Ca16  1  0.08672615  0.81674779  0.49790597  1
  Ca2+  Ca17  1  0.08804141  0.82093373  0.82874885  1
  Ca2+  Ca18  1  0.56837692  0.33795504  0.16327680  1
  Ca2+  Ca19  1  0.58143335  0.33304705  0.50158389  1
  Ca2+  Ca20  1  0.57653717  0.33208123  0.82498828  1
  Ca2+  Ca21  1  0.57880141  0.82744445  0.16380263  1
  Ca2+  Ca22  1  0.57151031  0.83109119  0.50109447  1
  Ca2+  Ca23  1  0.57714730  0.82064192  0.82371110  1
  Ca2+  Ca24  1  0.33279707  0.42030655  0.17127263  1
  Ca2+  Ca25  1  0.32271373  0.41740406  0.50667115  1
  Ca2+  Ca26  1  0.33171210  0.42544856  0.83564516  1
  Ca2+  Ca27  1  0.33629149  0.92161392  0.16955780  1
  Ca2+  Ca28  1  0.33731656  0.91869284  0.50847825  1
  Ca2+  Ca29  1  0.34179879  0.92705257  0.83125055  1
  Ca2+  Ca30  1  0.82832013  0.42298713  0.17479713  1
  Ca2+  Ca31  1  0.83089098  0.42332628  0.51131404  1
  Ca2+  Ca32  1  0.82921837  0.41623937  0.82459379  1
  Ca2+  Ca33  1  0.83113040  0.92071651  0.17537140  1
  Ca2+  Ca34  1  0.83727023  0.92957010  0.50524707  1
  Ca2+  Ca35  1  0.83535387  0.92215314  0.83230099  1
  Ca2+  Ca36  1  0.40904188  0.18062274  0.16182512  1
  Ca2+  Ca37  1  0.42039291  0.17033301  0.49750142  1
  Ca2+  Ca38  1  0.41561480  0.16987715  0.82565663  1
  Ca2+  Ca39  1  0.41742953  0.67139150  0.15786869  1
  Ca2+  Ca40  1  0.41345247  0.67270687  0.50057162  1
  Ca2+  Ca41  1  0.42070968  0.66468139  0.82296496  1
  Ca2+  Ca42  1  0.92276591  0.16186061  0.16786777  1
  Ca2+  Ca43  1  0.92270757  0.16896392  0.49798500  1
  Ca2+  Ca44  1  0.92284256  0.17344666  0.81773565  1
  Ca2+  Ca45  1  0.92900087  0.65438208  0.16600521  1
  Ca2+  Ca46  1  0.92567554  0.65193030  0.49866475  1
  Ca2+  Ca47  1  0.92746938  0.66186180  0.82469277  1
  Al0+  Al48  1  0.00094780  -0.00041790  0.00087872  1
  Al0+  Al49  1  0.00147276  -0.00114995  0.33250595  1
  Al0+  Al50  1  0.00131769  -0.00132589  0.67003678  1
  Al0+  Al51  1  -0.00037110  0.49817346  -0.00417296  1
  Al0+  Al52  1  0.00040905  0.49650561  0.33489184  1
  Al0+  Al53  1  -0.00210775  0.49820615  0.66792855  1
  Al0+  Al54  1  0.50235922  0.00125471  0.00742679  1
  Al0+  Al55  1  0.50084540  -0.00062510  0.32772396  1
  Al0+  Al56  1  0.50085521  0.00069340  0.66348981  1
  Al0+  Al57  1  0.49864645  0.49964770  -0.00257565  1
  Al0+  Al58  1  0.50023133  0.50067869  0.33020677  1
  Al0+  Al59  1  0.50033698  0.49980557  0.66680537  1
  Al0+  Al60  1  0.24932826  0.25091218  -0.00018651  1
  Al0+  Al61  1  0.25021350  0.24993344  0.32895336  1
  Al0+  Al62  1  0.24914206  0.24969508  0.67165530  1
  Al0+  Al63  1  0.24975501  0.75189891  0.00011558  1
  Al0+  Al64  1  0.25024539  0.75146874  0.32317971  1
  Al0+  Al65  1  0.24874063  0.75063312  0.66247680  1
  Al0+  Al66  1  0.74979936  0.25115422  0.00421425  1
  Al0+  Al67  1  0.75079351  0.24965796  0.33534921  1
  Al0+  Al68  1  0.74996886  0.25137453  0.66776309  1
  Al0+  Al69  1  0.75065245  0.75132910  -0.00147083  1
  Al0+  Al70  1  0.74971104  0.75161594  0.33984413  1
  Al0+  Al71  1  0.75024722  0.75156077  0.66666947  1
  Al0+  Al72  1  0.06905568  0.67910515  0.65305840  1
  Al0+  Al73  1  0.32202931  0.07044327  0.67743041  1
  Al0+  Al74  1  0.67769723  0.42883046  0.68212639  1
  Al0+  Al75  1  0.57099703  0.68020579  0.98687254  1
  Al0+  Al76  1  0.82206959  0.07021372  0.34801104  1
  Al0+  Al77  1  0.31985008  0.57281086  0.67903870  1
  Al0+  Al78  1  0.82026725  0.57027143  0.34614534  1
  Al0+  Al79  1  0.18171569  0.42842572  0.34647192  1
  Al0+  Al80  1  0.42897499  0.82053742  0.65303509  1
  Al0+  Al81  1  0.07318539  0.17757583  0.65279276  1
  Al0+  Al82  1  0.06888801  0.67592331  0.31948407  1
  Al0+  Al83  1  0.42907855  0.82152266  0.31631563  1
  Al0+  Al84  1  0.32101952  0.07159811  0.01547047  1
  Al0+  Al85  1  0.57014862  0.17993751  0.65449150  1
  Al0+  Al86  1  0.42932341  0.32067189  0.32074138  1
  Al0+  Al87  1  0.82200762  0.07072020  0.68110117  1
  Al0+  Al88  1  0.07045885  0.17752665  0.31861671  1
  Al0+  Al89  1  0.42813990  0.31979493  0.98420586  1
  Al0+  Al90  1  0.17801238  0.42809060  0.68276943  1
  Al0+  Al91  1  0.07103403  0.67849965  0.98492939  1
  Al0+  Al92  1  0.92885069  0.32013525  0.65031806  1
  Al0+  Al93  1  0.82054277  0.57336055  0.68390666  1
  Al0+  Al94  1  0.32100345  0.57145672  0.01417689  1
  Al0+  Al95  1  0.57259053  0.67583970  0.64981915  1
  Si0+  Si96  1  0.17804344  0.92673557  0.68304277  1
  Si0+  Si97  1  0.57329421  0.67934125  0.31732872  1
  Si0+  Si98  1  0.92703815  0.82346962  0.65012533  1
  Si0+  Si99  1  0.32265287  0.57480629  0.34778610  1
  Si0+  Si100  1  0.67751786  0.92955482  0.68418121  1
  Si0+  Si101  1  0.82119906  0.57098332  0.01457031  1
  Si0+  Si102  1  0.17605404  0.42918417  0.01791139  1
  Si0+  Si103  1  0.67538910  0.42804934  0.34916186  1
  Si0+  Si104  1  0.57384472  0.17844986  0.31576343  1
  Si0+  Si105  1  0.18032152  0.92778224  0.34741235  1
  Si0+  Si106  1  0.92699608  0.32032779  0.31501782  1
  Si0+  Si107  1  0.06944481  0.17837808  0.98523380  1
  Si0+  Si108  1  0.32079940  0.07026340  0.34723124  1
  Si0+  Si109  1  0.42646572  0.32247052  0.65057376  1
  Si0+  Si110  1  0.67838842  0.42890995  0.01662265  1
  Si0+  Si111  1  0.92808541  0.82183034  0.31832868  1
  Si0+  Si112  1  0.67607439  0.92908534  0.35235687  1
  Si0+  Si113  1  0.17656600  0.92877008  0.01927816  1
  Si0+  Si114  1  0.68111756  0.92777005  0.01635549  1
  Si0+  Si115  1  0.57386492  0.17803785  0.98534704  1
  Si0+  Si116  1  0.92828037  0.82368181  0.98355165  1
  Si0+  Si117  1  0.42875548  0.82493638  0.98331775  1
  Si0+  Si118  1  0.92637569  0.31986611  0.98545421  1
  Si0+  Si119  1  0.82180715  0.07178294  0.01570528  1
  O2-  O120  1  0.24659016  -0.00337362  0.06336183  1
  O2-  O121  1  0.25235671  -0.00254405  0.38993955  1
  O2-  O122  1  0.24585955  -0.00255836  0.72543690  1
  O2-  O123  1  0.24397583  0.49899569  0.06161622  1
  O2-  O124  1  0.25460399  0.50567586  0.39114984  1
  O2-  O125  1  0.24970482  0.50054844  0.73194812  1
  O2-  O126  1  0.75163899  0.00015696  0.05822794  1
  O2-  O127  1  0.74490582  -0.00168942  0.39479160  1
  O2-  O128  1  0.74789454  -0.00368062  0.72982525  1
  O2-  O129  1  0.74838747  0.50196776  0.05786260  1
  O2-  O130  1  0.74375529  0.49725823  0.39135690  1
  O2-  O131  1  0.74474921  0.50510329  0.73401673  1
  O2-  O132  1  -0.00552406  0.25057681  0.26991608  1
  O2-  O133  1  0.00192742  0.24882159  0.60132877  1
  O2-  O134  1  -0.00306771  0.24790325  0.94473687  1
  O2-  O135  1  -0.00928712  0.74827668  0.27280718  1
  O2-  O136  1  -0.00877604  0.75095423  0.60601216  1
  O2-  O137  1  -0.00400982  0.75430722  0.94024947  1
  O2-  O138  1  0.50568441  0.24745708  0.27191418  1
  O2-  O139  1  0.49560944  0.25376223  0.60687629  1
  O2-  O140  1  0.50213088  0.24261276  0.94102143  1
  O2-  O141  1  0.50217052  0.74442083  0.27101267  1
  O2-  O142  1  0.49771116  0.74591800  0.60184262  1
  O2-  O143  1  0.49300777  0.75193066  0.94079983  1
  O2-  O144  1  0.06799215  0.17723843  0.09069173  1
  O2-  O145  1  0.07155188  0.17641108  0.43054954  1
  O2-  O146  1  0.07106597  0.17811155  0.76719115  1
  O2-  O147  1  0.06742909  0.67747154  0.09847642  1
  O2-  O148  1  0.07006196  0.67742049  0.43195421  1
  O2-  O149  1  0.07011619  0.68302205  0.76635558  1
  O2-  O150  1  0.57761755  0.18075838  0.09104826  1
  O2-  O151  1  0.57379973  0.17703209  0.42101817  1
  O2-  O152  1  0.56785266  0.17972989  0.76809567  1
  O2-  O153  1  0.57383248  0.68397662  0.10048353  1
  O2-  O154  1  0.57351436  0.68064142  0.42207081  1
  O2-  O155  1  0.57155236  0.68001040  0.76383638  1
  O2-  O156  1  0.18274874  0.42951648  0.23273999  1
  O2-  O157  1  0.18096321  0.42715116  0.56885059  1
  O2-  O158  1  0.17416362  0.42844652  0.91301839  1
  O2-  O159  1  0.18038618  0.92916978  0.24207058  1
  O2-  O160  1  0.17769421  0.92570472  0.57721198  1
  O2-  O161  1  0.17274782  0.93043474  0.91418634  1
  O2-  O162  1  0.67591957  0.42858805  0.24268730  1
  O2-  O163  1  0.67997799  0.42800314  0.56825882  1
  O2-  O164  1  0.68022277  0.42440982  0.91243175  1
  O2-  O165  1  0.67801546  0.92896660  0.24590425  1
  O2-  O166  1  0.67769942  0.93244060  0.57867968  1
  O2-  O167  1  0.68160994  0.92716618  0.91184128  1
  O2-  O168  1  0.42959972  0.31953269  0.09790295  1
  O2-  O169  1  0.42908889  0.31728486  0.43327309  1
  O2-  O170  1  0.42717929  0.32040881  0.75641895  1
  O2-  O171  1  0.43197909  0.82504238  0.08928349  1
  O2-  O172  1  0.42925945  0.82410442  0.42858416  1
  O2-  O173  1  0.43216899  0.82337349  0.76676883  1
  O2-  O174  1  0.92405509  0.31971199  0.09071751  1
  O2-  O175  1  0.92556399  0.31988771  0.41958126  1
  O2-  O176  1  0.92887656  0.31685649  0.76501686  1
  O2-  O177  1  0.92777527  0.82612171  0.08924292  1
  O2-  O178  1  0.93207893  0.82601128  0.42315636  1
  O2-  O179  1  0.92977865  0.82526109  0.75613921  1
  O2-  O180  1  0.31835716  0.06949977  0.24177595  1
  O2-  O181  1  0.32209938  0.06906706  0.56398589  1
  O2-  O182  1  0.32111871  0.07034161  0.90265151  1
  O2-  O183  1  0.32229150  0.57371476  0.24167763  1
  O2-  O184  1  0.31710577  0.57249021  0.56506462  1
  O2-  O185  1  0.32122982  0.57051714  0.90179290  1
  O2-  O186  1  0.82025062  0.06689472  0.23368020  1
  O2-  O187  1  0.82153565  0.06872588  0.56812633  1
  O2-  O188  1  0.82187077  0.07239074  0.91112015  1
  O2-  O189  1  0.81868998  0.56817438  0.23172059  1
  O2-  O190  1  0.82083641  0.56971746  0.57022384  1
  O2-  O191  1  0.82165614  0.57081800  0.91037328  1
  O2-  O192  1  0.03929618  0.08112711  0.26238227  1
  O2-  O193  1  0.04638030  0.07748384  0.60308292  1
  O2-  O194  1  0.04338270  0.08571841  0.93910273  1
  O2-  O195  1  0.03795213  0.57938643  0.26441408  1
  O2-  O196  1  0.03908397  0.58208821  0.60117368  1
  O2-  O197  1  0.03904222  0.58218983  0.93196379  1
  O2-  O198  1  0.54915018  0.08505412  0.26834500  1
  O2-  O199  1  0.54136375  0.08467706  0.59771084  1
  O2-  O200  1  0.55299523  0.08183583  0.94331205  1
  O2-  O201  1  0.55282381  0.58438311  0.27119650  1
  O2-  O202  1  0.54813307  0.57657518  0.59769507  1
  O2-  O203  1  0.54459537  0.58240681  0.93513274  1
  O2-  O204  1  0.16540647  0.21071186  0.26199689  1
  O2-  O205  1  0.17212451  0.20519028  0.60085990  1
  O2-  O206  1  0.16098750  0.20701268  0.93938556  1
  O2-  O207  1  0.16299856  0.71074998  0.26257810  1
  O2-  O208  1  0.16315472  0.71283153  0.59678246  1
  O2-  O209  1  0.16743591  0.71213451  0.93255633  1
  O2-  O210  1  0.66810637  0.20312277  0.26936021  1
  O2-  O211  1  0.66597871  0.21111064  0.60040753  1
  O2-  O212  1  0.66715170  0.20659133  0.93951691  1
  O2-  O213  1  0.66661718  0.70930235  0.27100110  1
  O2-  O214  1  0.67096705  0.70782923  0.59878436  1
  O2-  O215  1  0.66735622  0.71315077  0.93348231  1
  O2-  O216  1  0.08134817  0.45373550  0.06404852  1
  O2-  O217  1  0.08384866  0.45465647  0.39863262  1
  O2-  O218  1  0.07949545  0.45517647  0.73467099  1
  O2-  O219  1  0.08333831  0.95594085  0.06739884  1
  O2-  O220  1  0.08898715  0.95547005  0.39448159  1
  O2-  O221  1  0.08497713  0.94900559  0.73176985  1
  O2-  O222  1  0.58675463  0.45684656  0.06384651  1
  O2-  O223  1  0.58141513  0.45188220  0.39474085  1
  O2-  O224  1  0.57802905  0.45164310  0.73463469  1
  O2-  O225  1  0.59056070  0.95491194  0.06728068  1
  O2-  O226  1  0.58204818  0.95588521  0.39601979  1
  O2-  O227  1  0.58575783  0.95851144  0.73152048  1
  O2-  O228  1  0.20313090  0.33544888  0.06351855  1
  O2-  O229  1  0.21435612  0.33174526  0.39889616  1
  O2-  O230  1  0.20534330  0.33035045  0.73773893  1
  O2-  O231  1  0.20172038  0.83516765  0.06573315  1
  O2-  O232  1  0.20816392  0.83502007  0.39259974  1
  O2-  O233  1  0.20682708  0.83512718  0.73091094  1
  O2-  O234  1  0.70861400  0.33856684  0.06754428  1
  O2-  O235  1  0.70019453  0.33375124  0.39323590  1
  O2-  O236  1  0.71061046  0.33279926  0.73811442  1
  O2-  O237  1  0.71139339  0.83759355  0.06691759  1
  O2-  O238  1  0.70002299  0.83610838  0.39937255  1
  O2-  O239  1  0.70243147  0.83605233  0.73062870  1
  O2-  O240  1  0.45888732  0.41773874  0.26453997  1
  O2-  O241  1  0.45125794  0.41528488  0.60383171  1
  O2-  O242  1  0.46122967  0.41503474  0.93096859  1
  O2-  O243  1  0.46241672  0.91724049  0.25981870  1
  O2-  O244  1  0.46189568  0.91680154  0.59769279  1
  O2-  O245  1  0.46042401  0.91816723  0.94002226  1
  O2-  O246  1  0.95539362  0.41240273  0.26690451  1
  O2-  O247  1  0.95499350  0.41868675  0.59860005  1
  O2-  O248  1  0.95411022  0.41064890  0.93710042  1
  O2-  O249  1  0.95884829  0.91221765  0.26757540  1
  O2-  O250  1  0.95714998  0.91544349  0.60341939  1
  O2-  O251  1  0.95440691  0.91746097  0.93693749  1
  O2-  O252  1  0.33564499  0.28672981  0.26267771  1
  O2-  O253  1  0.33348846  0.29421841  0.60606045  1
  O2-  O254  1  0.33085902  0.29004489  0.93182334  1
  O2-  O255  1  0.33323163  0.79469189  0.25839139  1
  O2-  O256  1  0.33036116  0.79669536  0.59849201  1
  O2-  O257  1  0.33230145  0.80732818  0.94157846  1
  O2-  O258  1  0.83266999  0.29571327  0.26778761  1
  O2-  O259  1  0.83106947  0.29083600  0.59834024  1
  O2-  O260  1  0.83446944  0.29136062  0.93881519  1
  O2-  O261  1  0.83117996  0.80263385  0.27537490  1
  O2-  O262  1  0.83152991  0.80623767  0.60558602  1
  O2-  O263  1  0.83461227  0.80005181  0.93757457  1
  O2-  O264  1  0.41841416  0.04389546  0.07106109  1
  O2-  O265  1  0.41515976  0.04461789  0.39010834  1
  O2-  O266  1  0.41776819  0.03809614  0.73296946  1
  O2-  O267  1  0.41759930  0.53898066  0.06865591  1
  O2-  O268  1  0.41775143  0.55112136  0.39119442  1
  O2-  O269  1  0.41897593  0.54624139  0.73051311  1
  O2-  O270  1  0.91395278  0.04354630  0.06311421  1
  O2-  O271  1  0.91832517  0.03649739  0.39995737  1
  O2-  O272  1  0.91766736  0.03862047  0.73735664  1
  O2-  O273  1  0.91201539  0.53801650  0.06199171  1
  O2-  O274  1  0.91570943  0.53654987  0.39876879  1
  O2-  O275  1  0.91656357  0.53915300  0.73779549  1
  O2-  O276  1  0.28645255  0.16777397  0.06921978  1
  O2-  O277  1  0.29150646  0.16144785  0.39286002  1
  O2-  O278  1  0.29219426  0.16516261  0.73530142  1
  O2-  O279  1  0.29333257  0.67045490  0.06646856  1
  O2-  O280  1  0.29668101  0.66985538  0.38954180  1
  O2-  O281  1  0.29055213  0.67126384  0.73190999  1
  O2-  O282  1  0.79330274  0.16276127  0.06522246  1
  O2-  O283  1  0.79434937  0.16816064  0.39971666  1
  O2-  O284  1  0.78880080  0.16569827  0.73578768  1
  O2-  O285  1  0.79623525  0.66431996  0.06122935  1
  O2-  O286  1  0.79565967  0.66833220  0.39958131  1
  O2-  O287  1  0.79900854  0.67467753  0.73452101  1
