# generated using pymatgen
data_Ca2Al2SiO7
_symmetry_space_group_name_H-M   'P 1'
_cell_length_a   15.46150433
_cell_length_b   15.46203929
_cell_length_c   15.28699197
_cell_angle_alpha   90.00225800
_cell_angle_beta   89.99938724
_cell_angle_gamma   89.98967573
_symmetry_Int_Tables_number   1
_chemical_formula_structural   Ca2Al2SiO7
_chemical_formula_sum   'Ca48 Al48 Si24 O168'
_cell_volume   3654.60588283
_cell_formula_units_Z   24
loop_
 _symmetry_equiv_pos_site_id
 _symmetry_equiv_pos_as_xyz
  1  'x, y, z'
loop_
 _atom_type_symbol
 _atom_type_oxidation_number
  Ca2+  2.0
  Al0+  0.0
  Si0+  0.0
  O2-  -2.0
loop_
 _atom_site_type_symbol
 _atom_site_label
 _atom_site_symmetry_multiplicity
 _atom_site_fract_x
 _atom_site_fract_y
 _atom_site_fract_z
 _atom_site_occupancy
  Ca2+  Ca0  1  0.17321102  0.07668937  0.18168281  1
  Ca2+  Ca1  1  0.17602052  0.07882155  0.50178059  1
  Ca2+  Ca2  1  0.17386790  0.07887046  0.83474431  1
  Ca2+  Ca3  1  0.16277479  0.58160758  0.16550548  1
  Ca2+  Ca4  1  0.17571127  0.57612164  0.50903973  1
  Ca2+  Ca5  1  0.16965907  0.57750020  0.83700786  1
  Ca2+  Ca6  1  0.66223038  0.08711387  0.17079909  1
  Ca2+  Ca7  1  0.66163077  0.08640740  0.50169113  1
  Ca2+  Ca8  1  0.66164363  0.08766060  0.83884244  1
  Ca2+  Ca9  1  0.66551813  0.57641931  0.17682079  1
  Ca2+  Ca10  1  0.67362566  0.58231963  0.49943857  1
  Ca2+  Ca11  1  0.67231630  0.57975668  0.84314356  1
  Ca2+  Ca12  1  0.07216868  0.33769664  0.16236246  1
  Ca2+  Ca13  1  0.08109364  0.33111637  0.48986642  1
  Ca2+  Ca14  1  0.07984739  0.34640568  0.83240244  1
  Ca2+  Ca15  1  0.08099922  0.83031639  0.16534416  1
  Ca2+  Ca16  1  0.08089060  0.83886874  0.49229064  1
  Ca2+  Ca17  1  0.08829330  0.82730549  0.83013571  1
  Ca2+  Ca18  1  0.58428639  0.33036546  0.16494902  1
  Ca2+  Ca19  1  0.57729385  0.32457597  0.48862895  1
  Ca2+  Ca20  1  0.58968481  0.32444723  0.83100396  1
  Ca2+  Ca21  1  0.57471067  0.82149127  0.16446687  1
  Ca2+  Ca22  1  0.57395726  0.82466379  0.48801600  1
  Ca2+  Ca23  1  0.57683194  0.82811897  0.83488863  1
  Ca2+  Ca24  1  0.32949463  0.41208059  0.17237250  1
  Ca2+  Ca25  1  0.33138916  0.41782116  0.50542417  1
  Ca2+  Ca26  1  0.32248641  0.41868040  0.83665994  1
  Ca2+  Ca27  1  0.33466996  0.91843633  0.17704601  1
  Ca2+  Ca28  1  0.32814517  0.92380062  0.50192252  1
  Ca2+  Ca29  1  0.33625623  0.91958576  0.83443648  1
  Ca2+  Ca30  1  0.82399814  0.41541137  0.17432203  1
  Ca2+  Ca31  1  0.83147396  0.42372474  0.49782052  1
  Ca2+  Ca32  1  0.82975691  0.42021386  0.84114340  1
  Ca2+  Ca33  1  0.83297278  0.91677497  0.17536897  1
  Ca2+  Ca34  1  0.83304587  0.91598107  0.50083206  1
  Ca2+  Ca35  1  0.82985817  0.92284644  0.83686281  1
  Ca2+  Ca36  1  0.42311064  0.16873861  0.16906190  1
  Ca2+  Ca37  1  0.41992128  0.16558768  0.49238315  1
  Ca2+  Ca38  1  0.42561278  0.16518163  0.82723376  1
  Ca2+  Ca39  1  0.42426313  0.67490633  0.16180008  1
  Ca2+  Ca40  1  0.41780557  0.66963617  0.48965016  1
  Ca2+  Ca41  1  0.41654806  0.66610191  0.83218824  1
  Ca2+  Ca42  1  0.92195825  0.17784879  0.16737348  1
  Ca2+  Ca43  1  0.92759159  0.17479570  0.48786231  1
  Ca2+  Ca44  1  0.91767971  0.17724588  0.83121059  1
  Ca2+  Ca45  1  0.91768785  0.66800467  0.16650725  1
  Ca2+  Ca46  1  0.91441254  0.66798123  0.49230531  1
  Ca2+  Ca47  1  0.92315588  0.65993534  0.83093130  1
  Al0+  Al48  1  0.00037712  0.00220751  0.00024721  1
  Al0+  Al49  1  -0.00083317  -0.00111145  0.32889392  1
  Al0+  Al50  1  -0.00157675  0.00067788  0.67162031  1
  Al0+  Al51  1  0.00011437  0.50192618  -0.00339871  1
  Al0+  Al52  1  -0.00119716  0.50072237  0.33392291  1
  Al0+  Al53  1  -0.00215849  0.50228999  0.67011126  1
  Al0+  Al54  1  0.50076785  0.00032521  -0.00629858  1
  Al0+  Al55  1  0.49996981  -0.00065405  0.33117485  1
  Al0+  Al56  1  0.50058466  -0.00253055  0.66574792  1
  Al0+  Al57  1  0.49934705  0.49989807  -0.00045080  1
  Al0+  Al58  1  0.49992061  0.49693349  0.33172978  1
  Al0+  Al59  1  0.50177974  0.49826830  0.67039102  1
  Al0+  Al60  1  0.24987379  0.24860505  0.00519984  1
  Al0+  Al61  1  0.25199478  0.24710197  0.33115325  1
  Al0+  Al62  1  0.24939819  0.24813649  0.67606027  1
  Al0+  Al63  1  0.24826007  0.75144917  -0.00751212  1
  Al0+  Al64  1  0.24806769  0.74932103  0.33384282  1
  Al0+  Al65  1  0.24966656  0.74882649  0.67123490  1
  Al0+  Al66  1  0.75209911  0.25160306  -0.00415370  1
  Al0+  Al67  1  0.75084607  0.24981581  0.33294319  1
  Al0+  Al68  1  0.75156316  0.24963300  0.66027069  1
  Al0+  Al69  1  0.74921559  0.75303387  -0.00297961  1
  Al0+  Al70  1  0.75155955  0.75009498  0.32962324  1
  Al0+  Al71  1  0.75073611  0.75083606  0.67221033  1
  Al0+  Al72  1  0.17826057  0.42832215  0.68012477  1
  Al0+  Al73  1  0.07265829  0.17804122  0.31963162  1
  Al0+  Al74  1  0.32456791  0.57113527  0.68136295  1
  Al0+  Al75  1  0.67702392  0.42640299  0.34996222  1
  Al0+  Al76  1  0.17719326  0.92700256  0.34709624  1
  Al0+  Al77  1  0.67909222  0.42895975  0.01342706  1
  Al0+  Al78  1  0.06819548  0.68122095  0.98497643  1
  Al0+  Al79  1  0.81838645  0.57236001  0.68240998  1
  Al0+  Al80  1  0.32334936  0.06945307  0.68398384  1
  Al0+  Al81  1  0.17665422  0.92944471  0.68348173  1
  Al0+  Al82  1  0.82085087  0.57209538  0.34734771  1
  Al0+  Al83  1  0.57048383  0.17856304  0.65142133  1
  Al0+  Al84  1  0.57175490  0.67637182  0.98360459  1
  Al0+  Al85  1  0.32327864  0.07079702  0.34821258  1
  Al0+  Al86  1  0.42917881  0.82076577  0.98291727  1
  Al0+  Al87  1  0.42635671  0.81992472  0.32070958  1
  Al0+  Al88  1  0.57191951  0.67723607  0.32079326  1
  Al0+  Al89  1  0.93042910  0.32333205  0.31889930  1
  Al0+  Al90  1  0.57182646  0.17830216  0.31862154  1
  Al0+  Al91  1  0.42761768  0.32185689  0.31934086  1
  Al0+  Al92  1  0.92934253  0.82082013  0.32138591  1
  Al0+  Al93  1  0.17891294  0.43026952  0.01663229  1
  Al0+  Al94  1  0.93155533  0.32007595  0.98500034  1
  Al0+  Al95  1  0.56943024  0.18295882  0.98590319  1
  Si0+  Si96  1  0.42392921  0.32264209  0.98203326  1
  Si0+  Si97  1  0.67898319  0.93083161  0.01570263  1
  Si0+  Si98  1  0.17881486  0.42860818  0.34566563  1
  Si0+  Si99  1  0.06994340  0.67945031  0.65073839  1
  Si0+  Si100  1  0.93086036  0.32268404  0.65003305  1
  Si0+  Si101  1  0.07357014  0.17700888  0.98181083  1
  Si0+  Si102  1  0.07264859  0.67669352  0.31877091  1
  Si0+  Si103  1  0.68053249  0.42581809  0.68309900  1
  Si0+  Si104  1  0.82130819  0.07084192  0.34798998  1
  Si0+  Si105  1  0.82128668  0.57412068  0.01693491  1
  Si0+  Si106  1  0.42882548  0.81832234  0.65026634  1
  Si0+  Si107  1  0.67978215  0.92885994  0.34706781  1
  Si0+  Si108  1  0.67955889  0.92907264  0.68188835  1
  Si0+  Si109  1  0.32294908  0.06888630  0.01646049  1
  Si0+  Si110  1  0.07045444  0.17730240  0.65382082  1
  Si0+  Si111  1  0.17839511  0.92897547  0.01578570  1
  Si0+  Si112  1  0.32062747  0.57398952  0.01782567  1
  Si0+  Si113  1  0.92707095  0.82612437  0.98121873  1
  Si0+  Si114  1  0.92873314  0.82218514  0.65288113  1
  Si0+  Si115  1  0.42635630  0.32153782  0.65295146  1
  Si0+  Si116  1  0.32084323  0.57068352  0.34496920  1
  Si0+  Si117  1  0.82021540  0.07217525  0.68112291  1
  Si0+  Si118  1  0.57351327  0.67822503  0.65280342  1
  Si0+  Si119  1  0.82156301  0.07182421  0.01548424  1
  O2-  O120  1  0.24953464  -0.00054824  0.05746692  1
  O2-  O121  1  0.24987708  -0.00143431  0.39606323  1
  O2-  O122  1  0.25087400  -0.00192813  0.73520080  1
  O2-  O123  1  0.25578098  0.50242352  0.06398134  1
  O2-  O124  1  0.25117161  0.49816635  0.38751333  1
  O2-  O125  1  0.25240503  0.49843815  0.72994394  1
  O2-  O126  1  0.75249940  -0.00081529  0.05791837  1
  O2-  O127  1  0.74837086  0.00183965  0.39084889  1
  O2-  O128  1  0.74627425  0.00468347  0.72404204  1
  O2-  O129  1  0.74855821  0.50951143  0.05926980  1
  O2-  O130  1  0.74843526  0.50065904  0.39813156  1
  O2-  O131  1  0.74431233  0.49777517  0.72921004  1
  O2-  O132  1  0.00475139  0.25352142  0.26916164  1
  O2-  O133  1  0.00557305  0.25394354  0.61100798  1
  O2-  O134  1  0.00905736  0.24880007  0.93589697  1
  O2-  O135  1  0.00432380  0.74658666  0.27602771  1
  O2-  O136  1  0.00140282  0.75359131  0.60978897  1
  O2-  O137  1  -0.00662517  0.75605006  0.93662387  1
  O2-  O138  1  0.50220705  0.25238273  0.26938789  1
  O2-  O139  1  0.49393887  0.25219556  0.60790905  1
  O2-  O140  1  0.49612994  0.25780790  0.93726601  1
  O2-  O141  1  0.49731862  0.74683079  0.27182011  1
  O2-  O142  1  0.49694610  0.74315230  0.61004660  1
  O2-  O143  1  0.49782272  0.74562525  0.93194058  1
  O2-  O144  1  0.06987415  0.17363285  0.08669580  1
  O2-  O145  1  0.07021602  0.18020982  0.43419723  1
  O2-  O146  1  0.06478949  0.17436848  0.75890307  1
  O2-  O147  1  0.06731535  0.68326930  0.09818404  1
  O2-  O148  1  0.07337411  0.67496672  0.42442460  1
  O2-  O149  1  0.06704383  0.67931343  0.75586398  1
  O2-  O150  1  0.56911987  0.18062828  0.09800353  1
  O2-  O151  1  0.56987086  0.17816064  0.43244239  1
  O2-  O152  1  0.57303866  0.18091768  0.76476375  1
  O2-  O153  1  0.57265064  0.67973436  0.09662143  1
  O2-  O154  1  0.57099320  0.68079389  0.43538019  1
  O2-  O155  1  0.57538467  0.68260768  0.75761308  1
  O2-  O156  1  0.17714329  0.43183898  0.24066419  1
  O2-  O157  1  0.17739127  0.42977133  0.56598923  1
  O2-  O158  1  0.17972170  0.43306903  0.90365886  1
  O2-  O159  1  0.17732816  0.92708927  0.23309288  1
  O2-  O160  1  0.17358636  0.93215113  0.57053660  1
  O2-  O161  1  0.17655732  0.93165445  0.91065512  1
  O2-  O162  1  0.67981368  0.42637103  0.23626389  1
  O2-  O163  1  0.68274608  0.42534758  0.57808078  1
  O2-  O164  1  0.68503261  0.42709909  0.89971627  1
  O2-  O165  1  0.68219304  0.92870834  0.24190294  1
  O2-  O166  1  0.68239945  0.92600678  0.57694030  1
  O2-  O167  1  0.68081733  0.93230183  0.90993971  1
  O2-  O168  1  0.42184800  0.31916934  0.08719030  1
  O2-  O169  1  0.42580268  0.32239063  0.43329785  1
  O2-  O170  1  0.42839322  0.32124299  0.75861585  1
  O2-  O171  1  0.43106390  0.82113774  0.09613092  1
  O2-  O172  1  0.42806249  0.81771476  0.43496762  1
  O2-  O173  1  0.43192840  0.82043631  0.75527840  1
  O2-  O174  1  0.93092905  0.31771760  0.09730509  1
  O2-  O175  1  0.93346454  0.32241776  0.43326207  1
  O2-  O176  1  0.92821523  0.32068664  0.75539175  1
  O2-  O177  1  0.92765843  0.82838307  0.08653460  1
  O2-  O178  1  0.92841583  0.82119305  0.43499397  1
  O2-  O179  1  0.92757264  0.82274590  0.75793055  1
  O2-  O180  1  0.32346247  0.06803640  0.23418812  1
  O2-  O181  1  0.32348159  0.06800579  0.57105671  1
  O2-  O182  1  0.32253643  0.06789593  0.91121892  1
  O2-  O183  1  0.31800682  0.57279743  0.24012303  1
  O2-  O184  1  0.32252434  0.57177399  0.56711888  1
  O2-  O185  1  0.31774526  0.57294647  0.91217283  1
  O2-  O186  1  0.82192808  0.06864955  0.24275660  1
  O2-  O187  1  0.82293333  0.06995232  0.57638048  1
  O2-  O188  1  0.82164819  0.06999242  0.90968469  1
  O2-  O189  1  0.82144607  0.57293577  0.23402401  1
  O2-  O190  1  0.81833849  0.57476111  0.56994810  1
  O2-  O191  1  0.82133302  0.57190353  0.91074157  1
  O2-  O192  1  0.03884455  0.08271263  0.26444351  1
  O2-  O193  1  0.03519296  0.08809227  0.60586869  1
  O2-  O194  1  0.04310749  0.08496606  0.93375624  1
  O2-  O195  1  0.04505469  0.58495626  0.27048066  1
  O2-  O196  1  0.03850304  0.58879625  0.60326723  1
  O2-  O197  1  0.03697322  0.58612530  0.92844123  1
  O2-  O198  1  0.54427700  0.08011298  0.26517519  1
  O2-  O199  1  0.54422671  0.07919262  0.60061211  1
  O2-  O200  1  0.53932570  0.08653601  0.93046550  1
  O2-  O201  1  0.54636240  0.57882825  0.26931850  1
  O2-  O202  1  0.55345044  0.58280986  0.60951110  1
  O2-  O203  1  0.54684403  0.57694880  0.93056090  1
  O2-  O204  1  0.17167528  0.19943368  0.26752343  1
  O2-  O205  1  0.16556141  0.19883279  0.61134545  1
  O2-  O206  1  0.16938997  0.19836092  0.93914280  1
  O2-  O207  1  0.16482672  0.70144463  0.27006504  1
  O2-  O208  1  0.16387221  0.70296329  0.60572576  1
  O2-  O209  1  0.16315736  0.71189163  0.92801890  1
  O2-  O210  1  0.67185084  0.20187125  0.26766472  1
  O2-  O211  1  0.66817716  0.20726767  0.59770534  1
  O2-  O212  1  0.66686265  0.21133674  0.93104565  1
  O2-  O213  1  0.66753850  0.70990969  0.26633909  1
  O2-  O214  1  0.66344087  0.71371787  0.60621102  1
  O2-  O215  1  0.66957496  0.70992664  0.93018969  1
  O2-  O216  1  0.08233487  0.46588346  0.06798163  1
  O2-  O217  1  0.08810097  0.45736897  0.39455753  1
  O2-  O218  1  0.08143767  0.46182015  0.73355620  1
  O2-  O219  1  0.08546469  0.95656490  0.06187931  1
  O2-  O220  1  0.07794758  0.95648085  0.39844164  1
  O2-  O221  1  0.07859342  0.95898030  0.73854262  1
  O2-  O222  1  0.57897691  0.45137630  0.06410238  1
  O2-  O223  1  0.57764031  0.45262228  0.40269669  1
  O2-  O224  1  0.58520023  0.44461033  0.72804851  1
  O2-  O225  1  0.58801732  0.96215193  0.06119932  1
  O2-  O226  1  0.58799397  0.95435284  0.39528168  1
  O2-  O227  1  0.58758759  0.95350775  0.72968988  1
  O2-  O228  1  0.20464630  0.33120663  0.06856110  1
  O2-  O229  1  0.20506727  0.33614329  0.39164131  1
  O2-  O230  1  0.19991804  0.32994145  0.73642046  1
  O2-  O231  1  0.20394176  0.83561043  0.05986930  1
  O2-  O232  1  0.20249485  0.82790919  0.40117910  1
  O2-  O233  1  0.20296278  0.82988451  0.73432592  1
  O2-  O234  1  0.71631397  0.33359089  0.06569946  1
  O2-  O235  1  0.70853492  0.32852503  0.40324075  1
  O2-  O236  1  0.71244626  0.33314656  0.72848157  1
  O2-  O237  1  0.70533531  0.83830467  0.06238708  1
  O2-  O238  1  0.71109023  0.83887666  0.39592983  1
  O2-  O239  1  0.71279859  0.84121594  0.73379411  1
  O2-  O240  1  0.45135541  0.41997707  0.26414658  1
  O2-  O241  1  0.45172062  0.41588336  0.60728134  1
  O2-  O242  1  0.44392884  0.41830729  0.93883762  1
  O2-  O243  1  0.45767161  0.91623745  0.26731816  1
  O2-  O244  1  0.46163247  0.90826033  0.60274898  1
  O2-  O245  1  0.46473023  0.91609357  0.92713795  1
  O2-  O246  1  0.95736393  0.42139772  0.26527373  1
  O2-  O247  1  0.95622578  0.41575759  0.60475633  1
  O2-  O248  1  0.96027107  0.41710585  0.93075603  1
  O2-  O249  1  0.95735248  0.91570546  0.26318238  1
  O2-  O250  1  0.95366513  0.91563059  0.60664834  1
  O2-  O251  1  0.95418044  0.91979332  0.93490472  1
  O2-  O252  1  0.33120151  0.29174830  0.26359501  1
  O2-  O253  1  0.33066217  0.29788613  0.61021586  1
  O2-  O254  1  0.33130245  0.29221461  0.93583593  1
  O2-  O255  1  0.32803334  0.79288610  0.26753062  1
  O2-  O256  1  0.33500695  0.79379713  0.60582479  1
  O2-  O257  1  0.33011653  0.79713371  0.92939793  1
  O2-  O258  1  0.83372951  0.29059534  0.26716927  1
  O2-  O259  1  0.84143372  0.29048995  0.60117769  1
  O2-  O260  1  0.83815448  0.28453632  0.92730120  1
  O2-  O261  1  0.83472538  0.79133056  0.26328513  1
  O2-  O262  1  0.83653654  0.79310732  0.60658987  1
  O2-  O263  1  0.83230845  0.80461253  0.93569175  1
  O2-  O264  1  0.41473679  0.03809333  0.06131939  1
  O2-  O265  1  0.42134384  0.04090592  0.40160352  1
  O2-  O266  1  0.42173805  0.03743228  0.73651286  1
  O2-  O267  1  0.41632463  0.55330891  0.06073808  1
  O2-  O268  1  0.41248183  0.54512096  0.39314701  1
  O2-  O269  1  0.42336856  0.54579881  0.73574770  1
  O2-  O270  1  0.91387075  0.04519153  0.06279630  1
  O2-  O271  1  0.91151858  0.03925526  0.39635802  1
  O2-  O272  1  0.90868536  0.04129219  0.73333928  1
  O2-  O273  1  0.91445208  0.54616504  0.06084365  1
  O2-  O274  1  0.91929476  0.54334132  0.40234533  1
  O2-  O275  1  0.91441057  0.54076156  0.73645489  1
  O2-  O276  1  0.29776241  0.16126445  0.06326907  1
  O2-  O277  1  0.29485838  0.16918478  0.40214571  1
  O2-  O278  1  0.29630172  0.16693767  0.73967101  1
  O2-  O279  1  0.28952282  0.66739187  0.06117413  1
  O2-  O280  1  0.29119190  0.66073262  0.39528808  1
  O2-  O281  1  0.29461673  0.66807600  0.73576055  1
  O2-  O282  1  0.79190288  0.16280130  0.06125607  1
  O2-  O283  1  0.79699917  0.16240810  0.39707425  1
  O2-  O284  1  0.79451910  0.16509008  0.72776783  1
  O2-  O285  1  0.80156268  0.67145510  0.05806721  1
  O2-  O286  1  0.79299074  0.67140807  0.40053485  1
  O2-  O287  1  0.79019825  0.66886226  0.73875229  1
