# generated using pymatgen
data_Ca2Al2SiO7
_symmetry_space_group_name_H-M   'P 1'
_cell_length_a   15.46830496
_cell_length_b   15.46669857
_cell_length_c   15.29026148
_cell_angle_alpha   90.00694685
_cell_angle_beta   90.01861349
_cell_angle_gamma   90.02766689
_symmetry_Int_Tables_number   1
_chemical_formula_structural   Ca2Al2SiO7
_chemical_formula_sum   'Ca48 Al48 Si24 O168'
_cell_volume   3658.09671378
_cell_formula_units_Z   24
loop_
 _symmetry_equiv_pos_site_id
 _symmetry_equiv_pos_as_xyz
  1  'x, y, z'
loop_
 _atom_type_symbol
 _atom_type_oxidation_number
  Ca2+  2.0
  Al0+  0.0
  Si0+  0.0
  O2-  -2.0
loop_
 _atom_site_type_symbol
 _atom_site_label
 _atom_site_symmetry_multiplicity
 _atom_site_fract_x
 _atom_site_fract_y
 _atom_site_fract_z
 _atom_site_occupancy
  Ca2+  Ca0  1  0.15378867  0.08098883  0.16640346  1
  Ca2+  Ca1  1  0.17197541  0.08281836  0.50897555  1
  Ca2+  Ca2  1  0.16534471  0.07530893  0.84073468  1
  Ca2+  Ca3  1  0.17380583  0.57375388  0.17022469  1
  Ca2+  Ca4  1  0.16353866  0.57183018  0.50385178  1
  Ca2+  Ca5  1  0.16407115  0.57486783  0.83814332  1
  Ca2+  Ca6  1  0.67062421  0.07539453  0.17017252  1
  Ca2+  Ca7  1  0.65848556  0.07745669  0.50480206  1
  Ca2+  Ca8  1  0.67066277  0.07697817  0.83852243  1
  Ca2+  Ca9  1  0.67455699  0.57441854  0.17741133  1
  Ca2+  Ca10  1  0.67946114  0.57668209  0.49990073  1
  Ca2+  Ca11  1  0.67455842  0.58505708  0.83502209  1
  Ca2+  Ca12  1  0.07875118  0.33152327  0.16127938  1
  Ca2+  Ca13  1  0.08336347  0.33194882  0.49016717  1
  Ca2+  Ca14  1  0.08365553  0.33567196  0.83370367  1
  Ca2+  Ca15  1  0.07626726  0.83201691  0.15413063  1
  Ca2+  Ca16  1  0.08982726  0.82540914  0.49896509  1
  Ca2+  Ca17  1  0.08300139  0.83212713  0.82873200  1
  Ca2+  Ca18  1  0.59063725  0.32909620  0.16426149  1
  Ca2+  Ca19  1  0.58592819  0.32140382  0.49075554  1
  Ca2+  Ca20  1  0.57751125  0.32499224  0.82430957  1
  Ca2+  Ca21  1  0.57970071  0.83586051  0.15951444  1
  Ca2+  Ca22  1  0.58529372  0.83681074  0.49511315  1
  Ca2+  Ca23  1  0.57866608  0.84359169  0.83161425  1
  Ca2+  Ca24  1  0.32466914  0.42441019  0.17219055  1
  Ca2+  Ca25  1  0.32110717  0.41570122  0.50224754  1
  Ca2+  Ca26  1  0.31937189  0.42062869  0.84234663  1
  Ca2+  Ca27  1  0.32831623  0.91351509  0.16347900  1
  Ca2+  Ca28  1  0.32638852  0.92491250  0.50840653  1
  Ca2+  Ca29  1  0.32385393  0.91890173  0.83609864  1
  Ca2+  Ca30  1  0.83696623  0.41840959  0.17580033  1
  Ca2+  Ca31  1  0.84089585  0.42387379  0.49938061  1
  Ca2+  Ca32  1  0.83936995  0.42191306  0.83627836  1
  Ca2+  Ca33  1  0.82855837  0.91984719  0.16766132  1
  Ca2+  Ca34  1  0.82002981  0.91861601  0.50479767  1
  Ca2+  Ca35  1  0.82430595  0.92015585  0.84549514  1
  Ca2+  Ca36  1  0.42469594  0.16550994  0.16640895  1
  Ca2+  Ca37  1  0.42483550  0.16084154  0.49731538  1
  Ca2+  Ca38  1  0.42175961  0.15969217  0.82540903  1
  Ca2+  Ca39  1  0.41327031  0.66782938  0.15710545  1
  Ca2+  Ca40  1  0.41506162  0.66883746  0.49339332  1
  Ca2+  Ca41  1  0.41116255  0.67131417  0.83452640  1
  Ca2+  Ca42  1  0.92374264  0.17689259  0.15856257  1
  Ca2+  Ca43  1  0.92604249  0.17515910  0.48801350  1
  Ca2+  Ca44  1  0.91875351  0.16788235  0.83839826  1
  Ca2+  Ca45  1  0.91429803  0.67109890  0.16185951  1
  Ca2+  Ca46  1  0.91688106  0.66222451  0.49988332  1
  Ca2+  Ca47  1  0.92095199  0.67281624  0.82623423  1
  Al0+  Al48  1  -0.00181040  0.00111459  -0.00038574  1
  Al0+  Al49  1  -0.00216316  -0.00266864  0.33286859  1
  Al0+  Al50  1  -0.00315392  0.00093817  0.66703682  1
  Al0+  Al51  1  0.00004724  0.49966730  0.00111592  1
  Al0+  Al52  1  0.00258799  0.50220284  0.33556062  1
  Al0+  Al53  1  0.00002449  0.50286658  0.67096141  1
  Al0+  Al54  1  0.49890928  -0.00229548  -0.00139803  1
  Al0+  Al55  1  0.49844400  -0.00090004  0.33100449  1
  Al0+  Al56  1  0.49900102  -0.00031335  0.66865033  1
  Al0+  Al57  1  0.50142887  0.49992712  -0.00000064  1
  Al0+  Al58  1  0.50186170  0.50053725  0.34070775  1
  Al0+  Al59  1  0.49976740  0.50087451  0.66360431  1
  Al0+  Al60  1  0.25121770  0.24909464  0.00104058  1
  Al0+  Al61  1  0.25324265  0.24752834  0.33213921  1
  Al0+  Al62  1  0.25061340  0.25198234  0.67457885  1
  Al0+  Al63  1  0.25164101  0.75178716  0.00117736  1
  Al0+  Al64  1  0.25039042  0.75129179  0.33442904  1
  Al0+  Al65  1  0.24945399  0.74997586  0.66297393  1
  Al0+  Al66  1  0.75155342  0.24940039  -0.00333304  1
  Al0+  Al67  1  0.75175851  0.24749849  0.32759536  1
  Al0+  Al68  1  0.74860343  0.25009630  0.66064514  1
  Al0+  Al69  1  0.74858314  0.74857611  -0.00046229  1
  Al0+  Al70  1  0.74813365  0.75012082  0.34019046  1
  Al0+  Al71  1  0.74857166  0.74982336  0.67360991  1
  Al0+  Al72  1  0.93207775  0.32297896  0.31953198  1
  Al0+  Al73  1  0.06975248  0.68085009  0.65242360  1
  Al0+  Al74  1  0.67782556  0.92828305  0.01627885  1
  Al0+  Al75  1  0.92674270  0.82072424  0.98716244  1
  Al0+  Al76  1  0.57125758  0.17751145  0.31755877  1
  Al0+  Al77  1  0.07453863  0.17609234  0.32004118  1
  Al0+  Al78  1  0.32202836  0.57403211  0.34943878  1
  Al0+  Al79  1  0.32197638  0.57081565  0.01314426  1
  Al0+  Al80  1  0.56847465  0.17946283  0.65276288  1
  Al0+  Al81  1  0.92872564  0.32290745  0.98239856  1
  Al0+  Al82  1  0.31986562  0.07076536  0.68121772  1
  Al0+  Al83  1  0.18144120  0.42806562  0.34825555  1
  Al0+  Al84  1  0.82112142  0.07271741  0.01641815  1
  Al0+  Al85  1  0.42906033  0.82038342  0.98435327  1
  Al0+  Al86  1  0.17908434  0.43041876  0.68166959  1
  Al0+  Al87  1  0.67974705  0.42383297  0.34776410  1
  Al0+  Al88  1  0.82220577  0.57127964  0.34787747  1
  Al0+  Al89  1  0.81957756  0.56891305  0.68276247  1
  Al0+  Al90  1  0.67986032  0.93047876  0.68137458  1
  Al0+  Al91  1  0.07280627  0.17921204  0.98300720  1
  Al0+  Al92  1  0.67802837  0.93170897  0.34741032  1
  Al0+  Al93  1  0.17644995  0.92798828  0.68052214  1
  Al0+  Al94  1  0.17868167  0.93084175  0.01353439  1
  Al0+  Al95  1  0.17740763  0.42715913  0.01732251  1
  Si0+  Si96  1  0.92650669  0.81872649  0.31986860  1
  Si0+  Si97  1  0.93047651  0.32182398  0.65190713  1
  Si0+  Si98  1  0.82195124  0.07570713  0.68230868  1
  Si0+  Si99  1  0.82078002  0.57072746  0.01423820  1
  Si0+  Si100  1  0.82309749  0.07045968  0.35086272  1
  Si0+  Si101  1  0.42979388  0.32323902  0.31647978  1
  Si0+  Si102  1  0.57338250  0.67771563  0.64949604  1
  Si0+  Si103  1  0.92485885  0.82318369  0.64940652  1
  Si0+  Si104  1  0.32345587  0.07218576  0.01825415  1
  Si0+  Si105  1  0.07158404  0.67995479  0.98481091  1
  Si0+  Si106  1  0.43027183  0.32281045  0.98586968  1
  Si0+  Si107  1  0.17636778  0.92893300  0.34703238  1
  Si0+  Si108  1  0.32426422  0.57318851  0.68272421  1
  Si0+  Si109  1  0.07199604  0.17877731  0.65345671  1
  Si0+  Si110  1  0.67918290  0.42871441  0.01141973  1
  Si0+  Si111  1  0.32127803  0.06858397  0.34645408  1
  Si0+  Si112  1  0.42869797  0.81964056  0.31782139  1
  Si0+  Si113  1  0.57166966  0.67912932  0.32001736  1
  Si0+  Si114  1  0.42601254  0.32416051  0.64962218  1
  Si0+  Si115  1  0.56968363  0.17910427  0.98439455  1
  Si0+  Si116  1  0.07279507  0.68117140  0.31734025  1
  Si0+  Si117  1  0.57161125  0.67564432  0.98239147  1
  Si0+  Si118  1  0.43045616  0.81927679  0.64985357  1
  Si0+  Si119  1  0.67702729  0.42652451  0.68264381  1
  O2-  O120  1  0.25019981  0.00817863  0.06221168  1
  O2-  O121  1  0.24283347  0.00489110  0.38727788  1
  O2-  O122  1  0.24387836  0.00353862  0.73111737  1
  O2-  O123  1  0.25102808  0.49923104  0.06391556  1
  O2-  O124  1  0.25247068  0.50053691  0.40001127  1
  O2-  O125  1  0.25651244  0.50385230  0.72596761  1
  O2-  O126  1  0.75069346  -0.00131867  0.06618337  1
  O2-  O127  1  0.74991325  0.00744263  0.39660432  1
  O2-  O128  1  0.75650174  0.00351063  0.72578811  1
  O2-  O129  1  0.75164591  0.49747129  0.05452838  1
  O2-  O130  1  0.75509766  0.49335200  0.39655958  1
  O2-  O131  1  0.74474797  0.49424052  0.72964173  1
  O2-  O132  1  0.00551877  0.25148515  0.27120547  1
  O2-  O133  1  0.00086313  0.24948371  0.61093867  1
  O2-  O134  1  0.00326770  0.25353776  0.93215485  1
  O2-  O135  1  -0.00088106  0.74994626  0.27648006  1
  O2-  O136  1  -0.00268422  0.75849415  0.60446599  1
  O2-  O137  1  0.00290104  0.74816328  0.93983756  1
  O2-  O138  1  0.50253736  0.25852195  0.27132930  1
  O2-  O139  1  0.49478134  0.25535524  0.60565585  1
  O2-  O140  1  0.49756682  0.24886023  0.94209636  1
  O2-  O141  1  0.49638647  0.74488179  0.27701246  1
  O2-  O142  1  0.50124313  0.74805629  0.60724027  1
  O2-  O143  1  0.50436718  0.74577534  0.93795937  1
  O2-  O144  1  0.07003056  0.18029912  0.09639828  1
  O2-  O145  1  0.07268211  0.17466036  0.43462014  1
  O2-  O146  1  0.07116998  0.17777522  0.75789179  1
  O2-  O147  1  0.06968078  0.68114645  0.09086629  1
  O2-  O148  1  0.07484904  0.68342264  0.42247310  1
  O2-  O149  1  0.06802763  0.68027542  0.76545960  1
  O2-  O150  1  0.56879799  0.18013515  0.08955853  1
  O2-  O151  1  0.56471613  0.17389893  0.43056579  1
  O2-  O152  1  0.56781749  0.18130732  0.76618188  1
  O2-  O153  1  0.57157942  0.67329931  0.08798810  1
  O2-  O154  1  0.57293360  0.68360995  0.42520422  1
  O2-  O155  1  0.57319008  0.67564330  0.75438815  1
  O2-  O156  1  0.18242732  0.43012828  0.23534464  1
  O2-  O157  1  0.17898069  0.42910725  0.56867417  1
  O2-  O158  1  0.17846816  0.43080772  0.90343894  1
  O2-  O159  1  0.17749104  0.92556943  0.24219280  1
  O2-  O160  1  0.18066293  0.92876914  0.56612168  1
  O2-  O161  1  0.18113598  0.92920283  0.90079028  1
  O2-  O162  1  0.67863499  0.42929324  0.23351797  1
  O2-  O163  1  0.67872491  0.42700467  0.57760116  1
  O2-  O164  1  0.67704455  0.43144211  0.90621181  1
  O2-  O165  1  0.67842219  0.92986000  0.23504856  1
  O2-  O166  1  0.67911768  0.93109799  0.56790820  1
  O2-  O167  1  0.67742528  0.93216948  0.90264801  1
  O2-  O168  1  0.43490188  0.32436656  0.09076818  1
  O2-  O169  1  0.42757291  0.31906738  0.42203153  1
  O2-  O170  1  0.42938002  0.32624798  0.75539545  1
  O2-  O171  1  0.43014704  0.81988838  0.09786817  1
  O2-  O172  1  0.42876559  0.82126512  0.42316024  1
  O2-  O173  1  0.43060656  0.81837421  0.75466774  1
  O2-  O174  1  0.92674432  0.32436583  0.09534696  1
  O2-  O175  1  0.93383428  0.32119818  0.43408171  1
  O2-  O176  1  0.92942088  0.32151587  0.75666869  1
  O2-  O177  1  0.92675406  0.81594854  0.10098325  1
  O2-  O178  1  0.92735483  0.81925524  0.42495962  1
  O2-  O179  1  0.92374916  0.82034489  0.75477399  1
  O2-  O180  1  0.32725094  0.06448057  0.24185224  1
  O2-  O181  1  0.31990879  0.06823622  0.56690869  1
  O2-  O182  1  0.32636835  0.06937115  0.91291098  1
  O2-  O183  1  0.31907988  0.57615413  0.23615546  1
  O2-  O184  1  0.32444250  0.57272799  0.57729873  1
  O2-  O185  1  0.32208734  0.56841645  0.89933059  1
  O2-  O186  1  0.82433544  0.06560261  0.24592976  1
  O2-  O187  1  0.82199584  0.07595879  0.57661522  1
  O2-  O188  1  0.81612372  0.07341765  0.90226646  1
  O2-  O189  1  0.81812607  0.57580159  0.23410008  1
  O2-  O190  1  0.81961736  0.56766201  0.57003188  1
  O2-  O191  1  0.81930101  0.57162122  0.90911560  1
  O2-  O192  1  0.04217995  0.07749647  0.26859454  1
  O2-  O193  1  0.04557521  0.08645825  0.60497301  1
  O2-  O194  1  0.04103084  0.08147688  0.93032769  1
  O2-  O195  1  0.04722500  0.58906833  0.27079507  1
  O2-  O196  1  0.03450326  0.58510178  0.59860257  1
  O2-  O197  1  0.04476143  0.58653520  0.93975553  1
  O2-  O198  1  0.53224574  0.08356957  0.26260149  1
  O2-  O199  1  0.53456433  0.08310109  0.59909420  1
  O2-  O200  1  0.54088089  0.08738454  0.93782690  1
  O2-  O201  1  0.55061884  0.58458154  0.27500068  1
  O2-  O202  1  0.54734808  0.58563225  0.60095132  1
  O2-  O203  1  0.54538201  0.58310725  0.93314428  1
  O2-  O204  1  0.17564879  0.19543881  0.26910542  1
  O2-  O205  1  0.16516203  0.20717045  0.60868476  1
  O2-  O206  1  0.17438831  0.20179417  0.93268077  1
  O2-  O207  1  0.16313942  0.71301595  0.26931839  1
  O2-  O208  1  0.16654973  0.70938264  0.59597761  1
  O2-  O209  1  0.16488189  0.70594631  0.93957263  1
  O2-  O210  1  0.66925533  0.20045074  0.26335012  1
  O2-  O211  1  0.66504010  0.20799190  0.59656045  1
  O2-  O212  1  0.66046771  0.20776461  0.93636327  1
  O2-  O213  1  0.66179508  0.71150155  0.27184291  1
  O2-  O214  1  0.66480076  0.70829335  0.60320256  1
  O2-  O215  1  0.66533242  0.70011843  0.93622326  1
  O2-  O216  1  0.07957267  0.45825771  0.06924889  1
  O2-  O217  1  0.08411228  0.45875317  0.40162955  1
  O2-  O218  1  0.08483977  0.46514159  0.73641854  1
  O2-  O219  1  0.08123534  0.95750099  0.06720717  1
  O2-  O220  1  0.08303523  0.94902428  0.39465257  1
  O2-  O221  1  0.07523577  0.95034092  0.72953845  1
  O2-  O222  1  0.58905846  0.45723103  0.06121460  1
  O2-  O223  1  0.58316717  0.45362462  0.40347890  1
  O2-  O224  1  0.58235451  0.45225340  0.72698765  1
  O2-  O225  1  0.57918010  0.95810800  0.06756017  1
  O2-  O226  1  0.58019740  0.96113485  0.40026962  1
  O2-  O227  1  0.58388415  0.96275220  0.73412699  1
  O2-  O228  1  0.20675697  0.32845121  0.06773206  1
  O2-  O229  1  0.21083525  0.32837956  0.39971911  1
  O2-  O230  1  0.20808944  0.33508886  0.73831580  1
  O2-  O231  1  0.21261339  0.83574483  0.06869772  1
  O2-  O232  1  0.21081797  0.84025105  0.39637534  1
  O2-  O233  1  0.20954502  0.83034539  0.73155739  1
  O2-  O234  1  0.70383478  0.33595070  0.05700539  1
  O2-  O235  1  0.70252189  0.32275858  0.39721743  1
  O2-  O236  1  0.70193552  0.33224109  0.72750731  1
  O2-  O237  1  0.70320931  0.82765243  0.06605754  1
  O2-  O238  1  0.70998543  0.83649979  0.40327252  1
  O2-  O239  1  0.70553161  0.83344983  0.73590099  1
  O2-  O240  1  0.45162400  0.41950426  0.27431713  1
  O2-  O241  1  0.45003642  0.41787198  0.60245628  1
  O2-  O242  1  0.46170855  0.41230261  0.93545846  1
  O2-  O243  1  0.45992250  0.90913844  0.26884807  1
  O2-  O244  1  0.45965204  0.91084170  0.60264633  1
  O2-  O245  1  0.46014953  0.91651316  0.92878758  1
  O2-  O246  1  0.95745786  0.42323801  0.26825775  1
  O2-  O247  1  0.96038792  0.41363175  0.60665226  1
  O2-  O248  1  0.95608438  0.42276342  0.93032081  1
  O2-  O249  1  0.95276439  0.91045148  0.27200008  1
  O2-  O250  1  0.94381087  0.91910373  0.60447949  1
  O2-  O251  1  0.95384228  0.91776038  0.93412147  1
  O2-  O252  1  0.33912734  0.29188720  0.26780080  1
  O2-  O253  1  0.33175496  0.29785043  0.60539944  1
  O2-  O254  1  0.33735922  0.29853709  0.93973346  1
  O2-  O255  1  0.33580193  0.79511343  0.27025454  1
  O2-  O256  1  0.33899144  0.79272921  0.60052170  1
  O2-  O257  1  0.33301292  0.78911775  0.92910835  1
  O2-  O258  1  0.83345222  0.29613434  0.26642876  1
  O2-  O259  1  0.83811961  0.29628051  0.60406418  1
  O2-  O260  1  0.83040937  0.29315854  0.92761700  1
  O2-  O261  1  0.83505731  0.78845547  0.27329143  1
  O2-  O262  1  0.83211573  0.79142068  0.60425254  1
  O2-  O263  1  0.83092151  0.78796459  0.93225246  1
  O2-  O264  1  0.41463691  0.04001096  0.06548503  1
  O2-  O265  1  0.40873740  0.03208844  0.39707005  1
  O2-  O266  1  0.41548461  0.03648605  0.73527977  1
  O2-  O267  1  0.42124890  0.54271866  0.06555487  1
  O2-  O268  1  0.42205072  0.55207683  0.40130657  1
  O2-  O269  1  0.41934483  0.55076036  0.72762541  1
  O2-  O270  1  0.91914892  0.04562925  0.06871017  1
  O2-  O271  1  0.91427357  0.03920582  0.40006579  1
  O2-  O272  1  0.91621796  0.05405614  0.72820466  1
  O2-  O273  1  0.91282487  0.54636233  0.06179310  1
  O2-  O274  1  0.92184526  0.54902710  0.40066831  1
  O2-  O275  1  0.91480505  0.53869142  0.73819224  1
  O2-  O276  1  0.30614685  0.16783046  0.06271479  1
  O2-  O277  1  0.30256729  0.16193781  0.39415596  1
  O2-  O278  1  0.30126480  0.17078650  0.73367833  1
  O2-  O279  1  0.29527387  0.66939230  0.06525057  1
  O2-  O280  1  0.29231640  0.67270590  0.40242648  1
  O2-  O281  1  0.29758575  0.66706786  0.72649917  1
  O2-  O282  1  0.78976431  0.17087405  0.06813627  1
  O2-  O283  1  0.80313443  0.16629579  0.39297013  1
  O2-  O284  1  0.79188357  0.16804768  0.72809064  1
  O2-  O285  1  0.79081843  0.66103982  0.06276429  1
  O2-  O286  1  0.78674610  0.66580752  0.40470082  1
  O2-  O287  1  0.78730720  0.66438712  0.73762818  1
