# generated using pymatgen
data_Ca2Al2SiO7
_symmetry_space_group_name_H-M   'P 1'
_cell_length_a   15.47351791
_cell_length_b   15.47771740
_cell_length_c   15.29542745
_cell_angle_alpha   90.00708812
_cell_angle_beta   89.95656129
_cell_angle_gamma   89.99580195
_symmetry_Int_Tables_number   1
_chemical_formula_structural   Ca2Al2SiO7
_chemical_formula_sum   'Ca48 Al48 Si24 O168'
_cell_volume   3663.17329212
_cell_formula_units_Z   24
loop_
 _symmetry_equiv_pos_site_id
 _symmetry_equiv_pos_as_xyz
  1  'x, y, z'
loop_
 _atom_type_symbol
 _atom_type_oxidation_number
  Ca2+  2.0
  Al0+  0.0
  Si0+  0.0
  O2-  -2.0
loop_
 _atom_site_type_symbol
 _atom_site_label
 _atom_site_symmetry_multiplicity
 _atom_site_fract_x
 _atom_site_fract_y
 _atom_site_fract_z
 _atom_site_occupancy
  Ca2+  Ca0  1  0.17935197  0.07265873  0.16668146  1
  Ca2+  Ca1  1  0.17978431  0.08303373  0.49950367  1
  Ca2+  Ca2  1  0.17623940  0.08242081  0.83487300  1
  Ca2+  Ca3  1  0.17206822  0.57363710  0.17709662  1
  Ca2+  Ca4  1  0.16985746  0.57638587  0.49457024  1
  Ca2+  Ca5  1  0.16681650  0.57852524  0.83422270  1
  Ca2+  Ca6  1  0.67514633  0.08310342  0.16957260  1
  Ca2+  Ca7  1  0.67510316  0.09507234  0.50357892  1
  Ca2+  Ca8  1  0.67605270  0.08253013  0.83685689  1
  Ca2+  Ca9  1  0.67144817  0.58395447  0.17518336  1
  Ca2+  Ca10  1  0.67041758  0.58602757  0.50136591  1
  Ca2+  Ca11  1  0.66373802  0.58126645  0.83742818  1
  Ca2+  Ca12  1  0.08650186  0.33211723  0.16477431  1
  Ca2+  Ca13  1  0.08786985  0.32566985  0.49574532  1
  Ca2+  Ca14  1  0.07927211  0.32153264  0.82503051  1
  Ca2+  Ca15  1  0.07516089  0.84910623  0.16334635  1
  Ca2+  Ca16  1  0.07156411  0.84573147  0.49306075  1
  Ca2+  Ca17  1  0.07154233  0.85034336  0.83277561  1
  Ca2+  Ca18  1  0.57489581  0.32343582  0.16638803  1
  Ca2+  Ca19  1  0.57410754  0.32049776  0.49583055  1
  Ca2+  Ca20  1  0.57340157  0.32269256  0.82650154  1
  Ca2+  Ca21  1  0.57247913  0.83895509  0.16514113  1
  Ca2+  Ca22  1  0.56979993  0.83767531  0.49838711  1
  Ca2+  Ca23  1  0.57299875  0.84633842  0.83663283  1
  Ca2+  Ca24  1  0.33498141  0.41994390  0.17833978  1
  Ca2+  Ca25  1  0.34019577  0.41480243  0.49919363  1
  Ca2+  Ca26  1  0.33867823  0.41227415  0.83736375  1
  Ca2+  Ca27  1  0.32849765  0.91856144  0.17790934  1
  Ca2+  Ca28  1  0.33668248  0.92310606  0.50586438  1
  Ca2+  Ca29  1  0.33469589  0.92850221  0.84350137  1
  Ca2+  Ca30  1  0.83054667  0.42558159  0.17734429  1
  Ca2+  Ca31  1  0.83419940  0.42428577  0.50080964  1
  Ca2+  Ca32  1  0.82963510  0.41854309  0.83772179  1
  Ca2+  Ca33  1  0.83022658  0.91966401  0.17099488  1
  Ca2+  Ca34  1  0.83378583  0.92197535  0.50354281  1
  Ca2+  Ca35  1  0.82950753  0.92181010  0.84188257  1
  Ca2+  Ca36  1  0.40365230  0.17449425  0.16508215  1
  Ca2+  Ca37  1  0.42390098  0.16497389  0.49065940  1
  Ca2+  Ca38  1  0.41525895  0.17090685  0.82320122  1
  Ca2+  Ca39  1  0.40503060  0.67914284  0.16791261  1
  Ca2+  Ca40  1  0.41050162  0.67682880  0.49458454  1
  Ca2+  Ca41  1  0.41544301  0.68336064  0.83176846  1
  Ca2+  Ca42  1  0.91581622  0.15842267  0.16438439  1
  Ca2+  Ca43  1  0.92324881  0.15474170  0.49576543  1
  Ca2+  Ca44  1  0.92248411  0.15460922  0.82600044  1
  Ca2+  Ca45  1  0.91569197  0.67803710  0.16486929  1
  Ca2+  Ca46  1  0.91640991  0.67850929  0.49130227  1
  Ca2+  Ca47  1  0.91887309  0.68236584  0.82876428  1
  Al0+  Al48  1  0.00250378  0.00237116  0.00098848  1
  Al0+  Al49  1  -0.00106580  0.00136402  0.33344219  1
  Al0+  Al50  1  0.00042359  0.00120098  0.65987185  1
  Al0+  Al51  1  -0.00023366  0.50075773  -0.00205912  1
  Al0+  Al52  1  -0.00061553  0.50064247  0.34139234  1
  Al0+  Al53  1  0.00057357  0.50185733  0.66932346  1
  Al0+  Al54  1  0.50412735  0.00438708  0.00425816  1
  Al0+  Al55  1  0.50362389  -0.00187284  0.32697633  1
  Al0+  Al56  1  0.50244273  0.00085726  0.66372659  1
  Al0+  Al57  1  0.49954682  0.49882608  -0.00262846  1
  Al0+  Al58  1  0.50101842  0.49846957  0.33572541  1
  Al0+  Al59  1  0.50076106  0.50040417  0.66623121  1
  Al0+  Al60  1  0.24681521  0.24990981  -0.00257753  1
  Al0+  Al61  1  0.24836658  0.24667239  0.33478914  1
  Al0+  Al62  1  0.24678509  0.25096132  0.66342786  1
  Al0+  Al63  1  0.24784969  0.74702940  -0.00280992  1
  Al0+  Al64  1  0.24489821  0.74583926  0.33807505  1
  Al0+  Al65  1  0.24709278  0.74668061  0.66565495  1
  Al0+  Al66  1  0.74879510  0.25342548  0.00372129  1
  Al0+  Al67  1  0.75077701  0.25097064  0.33313182  1
  Al0+  Al68  1  0.75006040  0.25354494  0.66996441  1
  Al0+  Al69  1  0.75086688  0.74998722  -0.00137509  1
  Al0+  Al70  1  0.75092529  0.75132178  0.33470929  1
  Al0+  Al71  1  0.75064662  0.75074243  0.66586471  1
  Al0+  Al72  1  0.32310190  0.07327376  0.01223869  1
  Al0+  Al73  1  0.82144083  0.07051889  0.67922678  1
  Al0+  Al74  1  0.42857405  0.31844028  0.98599448  1
  Al0+  Al75  1  0.93083769  0.82048562  0.65176808  1
  Al0+  Al76  1  0.17806698  0.92769479  0.34818314  1
  Al0+  Al77  1  0.32396823  0.06721984  0.34772262  1
  Al0+  Al78  1  0.17935735  0.42604687  0.34848633  1
  Al0+  Al79  1  0.42643658  0.81849513  0.32139599  1
  Al0+  Al80  1  0.42806444  0.31780444  0.31762242  1
  Al0+  Al81  1  0.42761969  0.32134682  0.65121499  1
  Al0+  Al82  1  0.82161582  0.07180738  0.01464762  1
  Al0+  Al83  1  0.32234941  0.07030760  0.67875606  1
  Al0+  Al84  1  0.81841702  0.07085463  0.34796538  1
  Al0+  Al85  1  0.57257607  0.17854530  0.65280013  1
  Al0+  Al86  1  0.57468784  0.17699630  0.31509442  1
  Al0+  Al87  1  0.67884725  0.92682205  0.01697730  1
  Al0+  Al88  1  0.42786096  0.82335652  0.98916068  1
  Al0+  Al89  1  0.18175121  0.92737764  0.01214191  1
  Al0+  Al90  1  0.32304620  0.57024158  0.34943218  1
  Al0+  Al91  1  0.42811103  0.82112581  0.65582904  1
  Al0+  Al92  1  0.81944134  0.57275686  0.34765920  1
  Al0+  Al93  1  0.93113542  0.82138877  0.98623623  1
  Al0+  Al94  1  0.06869834  0.17991072  0.65047921  1
  Al0+  Al95  1  0.93057802  0.82177570  0.31744113  1
  Si0+  Si96  1  0.93024567  0.32329952  0.31918388  1
  Si0+  Si97  1  0.06962550  0.17923620  0.31494865  1
  Si0+  Si98  1  0.32230931  0.57066290  0.68455156  1
  Si0+  Si99  1  0.67859356  0.42786223  0.35220146  1
  Si0+  Si100  1  0.57260957  0.67780380  0.31936504  1
  Si0+  Si101  1  0.92744532  0.32549606  0.65046555  1
  Si0+  Si102  1  0.57200478  0.67762188  0.98524315  1
  Si0+  Si103  1  0.57161192  0.67727650  0.65171345  1
  Si0+  Si104  1  0.17834323  0.42916546  0.68385341  1
  Si0+  Si105  1  0.67837291  0.92633899  0.35203630  1
  Si0+  Si106  1  0.92724748  0.32483682  0.98598840  1
  Si0+  Si107  1  0.06900376  0.67462780  0.31571124  1
  Si0+  Si108  1  0.17872654  0.92668510  0.68138558  1
  Si0+  Si109  1  0.06781768  0.18180957  0.98405051  1
  Si0+  Si110  1  0.07131484  0.67336951  0.98136529  1
  Si0+  Si111  1  0.67902112  0.43167658  0.68408905  1
  Si0+  Si112  1  0.82136852  0.57027137  0.01420280  1
  Si0+  Si113  1  0.57699566  0.18011972  0.98198678  1
  Si0+  Si114  1  0.82125500  0.57297977  0.68457111  1
  Si0+  Si115  1  0.17787404  0.42936697  0.01205618  1
  Si0+  Si116  1  0.07116778  0.67394959  0.64684064  1
  Si0+  Si117  1  0.32145866  0.56930530  0.01311301  1
  Si0+  Si118  1  0.67881109  0.92561842  0.68390781  1
  Si0+  Si119  1  0.67747433  0.43126179  0.01661148  1
  O2-  O120  1  0.26367816  -0.01082755  0.06036923  1
  O2-  O121  1  0.25733568  -0.00938652  0.39874860  1
  O2-  O122  1  0.25221185  -0.00974714  0.72522911  1
  O2-  O123  1  0.25027503  0.49798276  0.05406437  1
  O2-  O124  1  0.25566503  0.49322897  0.39900093  1
  O2-  O125  1  0.25270436  0.49712793  0.72616064  1
  O2-  O126  1  0.75151341  -0.00095996  0.06548005  1
  O2-  O127  1  0.74191773  -0.00032952  0.39612969  1
  O2-  O128  1  0.74738703  -0.00416769  0.72612716  1
  O2-  O129  1  0.74910292  0.50191575  0.05819670  1
  O2-  O130  1  0.74433724  0.49977354  0.39636040  1
  O2-  O131  1  0.75027180  0.50263757  0.72796412  1
  O2-  O132  1  0.00005249  0.25321616  0.27407651  1
  O2-  O133  1  -0.00851335  0.25386768  0.60543769  1
  O2-  O134  1  -0.00753979  0.24970104  0.94280579  1
  O2-  O135  1  0.00676332  0.74829052  0.27044982  1
  O2-  O136  1  0.00676899  0.74699564  0.60474401  1
  O2-  O137  1  0.00842602  0.74844951  0.93914880  1
  O2-  O138  1  0.49613818  0.24302720  0.26562776  1
  O2-  O139  1  0.49404373  0.24376705  0.60331170  1
  O2-  O140  1  0.49979042  0.24063453  0.93961671  1
  O2-  O141  1  0.49971527  0.74117883  0.27491253  1
  O2-  O142  1  0.50259228  0.74554582  0.60932694  1
  O2-  O143  1  0.50608891  0.75005836  0.94291004  1
  O2-  O144  1  0.06901698  0.18564445  0.08890170  1
  O2-  O145  1  0.06796907  0.17971336  0.42000449  1
  O2-  O146  1  0.06787146  0.18207787  0.76427439  1
  O2-  O147  1  0.06665141  0.66085049  0.08545431  1
  O2-  O148  1  0.06404840  0.67029690  0.42103777  1
  O2-  O149  1  0.06814981  0.66734126  0.75250021  1
  O2-  O150  1  0.58630517  0.18813150  0.08625421  1
  O2-  O151  1  0.57803158  0.18316825  0.42845476  1
  O2-  O152  1  0.57517250  0.18208121  0.76657142  1
  O2-  O153  1  0.57232700  0.67197289  0.09020861  1
  O2-  O154  1  0.57500424  0.68096326  0.42498539  1
  O2-  O155  1  0.57081697  0.67399521  0.75743035  1
  O2-  O156  1  0.17617227  0.42977485  0.23408944  1
  O2-  O157  1  0.17296401  0.43207760  0.57977434  1
  O2-  O158  1  0.17598912  0.43102551  0.90683125  1
  O2-  O159  1  0.17806852  0.93209113  0.23450078  1
  O2-  O160  1  0.17851166  0.92797934  0.57621413  1
  O2-  O161  1  0.17842451  0.93361246  0.89830604  1
  O2-  O162  1  0.68148194  0.42943040  0.24612645  1
  O2-  O163  1  0.68092285  0.43438369  0.57959106  1
  O2-  O164  1  0.67911212  0.43269929  0.91121084  1
  O2-  O165  1  0.68234089  0.92172601  0.24674579  1
  O2-  O166  1  0.68022220  0.91988626  0.57889410  1
  O2-  O167  1  0.68102519  0.92663015  0.90289368  1
  O2-  O168  1  0.42866575  0.32286620  0.09830649  1
  O2-  O169  1  0.43082674  0.31803432  0.43074990  1
  O2-  O170  1  0.43116068  0.32225776  0.76544549  1
  O2-  O171  1  0.42531179  0.81672969  0.10162712  1
  O2-  O172  1  0.42878237  0.81761492  0.43456814  1
  O2-  O173  1  0.42907027  0.82041790  0.76931482  1
  O2-  O174  1  0.93075505  0.33159279  0.09056863  1
  O2-  O175  1  0.93073441  0.32428361  0.42413133  1
  O2-  O176  1  0.93054026  0.32917200  0.75657344  1
  O2-  O177  1  0.93107871  0.81852959  0.09880943  1
  O2-  O178  1  0.93013771  0.81996003  0.43064600  1
  O2-  O179  1  0.93130425  0.81939301  0.76529546  1
  O2-  O180  1  0.31883560  0.06933043  0.23414911  1
  O2-  O181  1  0.32201044  0.06990053  0.56626665  1
  O2-  O182  1  0.31745187  0.07684041  0.89829376  1
  O2-  O183  1  0.31978242  0.56992399  0.23504771  1
  O2-  O184  1  0.32268966  0.57167242  0.58023339  1
  O2-  O185  1  0.32137217  0.56871302  0.90768737  1
  O2-  O186  1  0.81958634  0.06981633  0.23507433  1
  O2-  O187  1  0.82073635  0.06926065  0.56653537  1
  O2-  O188  1  0.82152261  0.07129593  0.90074194  1
  O2-  O189  1  0.81826117  0.57011912  0.23394703  1
  O2-  O190  1  0.82043737  0.57220399  0.57986648  1
  O2-  O191  1  0.82130131  0.56722793  0.90882755  1
  O2-  O192  1  0.03605253  0.09026674  0.26680504  1
  O2-  O193  1  0.03915291  0.08527018  0.59381655  1
  O2-  O194  1  0.04266920  0.09044094  0.93542036  1
  O2-  O195  1  0.03690121  0.58276241  0.26873999  1
  O2-  O196  1  0.03990642  0.58264473  0.59948100  1
  O2-  O197  1  0.03842083  0.58353796  0.92901650  1
  O2-  O198  1  0.55817341  0.07561875  0.26518965  1
  O2-  O199  1  0.55461168  0.07853001  0.60021356  1
  O2-  O200  1  0.56252484  0.08289013  0.94114392  1
  O2-  O201  1  0.55493220  0.58154200  0.27569669  1
  O2-  O202  1  0.54753572  0.58448157  0.60403636  1
  O2-  O203  1  0.54207374  0.58622911  0.93533687  1
  O2-  O204  1  0.16084394  0.20614905  0.26676774  1
  O2-  O205  1  0.16268575  0.21479358  0.59539986  1
  O2-  O206  1  0.15635055  0.21502469  0.93316352  1
  O2-  O207  1  0.16516046  0.69170236  0.27264629  1
  O2-  O208  1  0.16700115  0.69259281  0.60405145  1
  O2-  O209  1  0.16670477  0.69116231  0.93597126  1
  O2-  O210  1  0.67068820  0.21556334  0.26176970  1
  O2-  O211  1  0.66909755  0.21686242  0.60105481  1
  O2-  O212  1  0.66667924  0.21639038  0.93231536  1
  O2-  O213  1  0.66465807  0.70681743  0.27152491  1
  O2-  O214  1  0.66581154  0.70168081  0.60650557  1
  O2-  O215  1  0.66672263  0.69774280  0.93825114  1
  O2-  O216  1  0.08631487  0.45847874  0.05974050  1
  O2-  O217  1  0.08345352  0.45936040  0.40425658  1
  O2-  O218  1  0.08784573  0.46131905  0.73381384  1
  O2-  O219  1  0.08777422  0.96703635  0.06634557  1
  O2-  O220  1  0.08305854  0.96662826  0.40070464  1
  O2-  O221  1  0.08679115  0.96074243  0.72600718  1
  O2-  O222  1  0.58635123  0.46067140  0.06364502  1
  O2-  O223  1  0.58534453  0.45067466  0.39888375  1
  O2-  O224  1  0.58810690  0.46152652  0.73307491  1
  O2-  O225  1  0.58098192  0.95414216  0.07088394  1
  O2-  O226  1  0.58272719  0.94659210  0.39475523  1
  O2-  O227  1  0.58560509  0.95278549  0.72950237  1
  O2-  O228  1  0.20175388  0.33723682  0.05891700  1
  O2-  O229  1  0.20113683  0.32658746  0.40014142  1
  O2-  O230  1  0.20169579  0.33685404  0.73194240  1
  O2-  O231  1  0.19369702  0.82335729  0.05963228  1
  O2-  O232  1  0.19022125  0.82504294  0.39707177  1
  O2-  O233  1  0.19367870  0.82952993  0.72509572  1
  O2-  O234  1  0.70650479  0.34144386  0.06559790  1
  O2-  O235  1  0.71109647  0.33747984  0.39904763  1
  O2-  O236  1  0.70800007  0.34198179  0.73494679  1
  O2-  O237  1  0.70645673  0.82692933  0.06762485  1
  O2-  O238  1  0.70879311  0.83546441  0.40064463  1
  O2-  O239  1  0.70513068  0.83257279  0.73192222  1
  O2-  O240  1  0.45851342  0.41818819  0.26782052  1
  O2-  O241  1  0.46227628  0.41881614  0.60026959  1
  O2-  O242  1  0.46249446  0.41485084  0.93142400  1
  O2-  O243  1  0.45886800  0.91284012  0.26512439  1
  O2-  O244  1  0.46084815  0.91549470  0.60026113  1
  O2-  O245  1  0.45868218  0.92162955  0.93736997  1
  O2-  O246  1  0.95820494  0.41556949  0.27205373  1
  O2-  O247  1  0.95655607  0.41851551  0.60497328  1
  O2-  O248  1  0.95893558  0.41380021  0.93394635  1
  O2-  O249  1  0.96151391  0.91850576  0.26413312  1
  O2-  O250  1  0.96086353  0.91573077  0.59631404  1
  O2-  O251  1  0.96277647  0.91868696  0.93323245  1
  O2-  O252  1  0.32722942  0.29287370  0.26644352  1
  O2-  O253  1  0.32556354  0.30494472  0.60395130  1
  O2-  O254  1  0.32961955  0.29305793  0.93291074  1
  O2-  O255  1  0.32845999  0.78589885  0.27037320  1
  O2-  O256  1  0.33128134  0.78869384  0.60375636  1
  O2-  O257  1  0.33292977  0.78811253  0.93312890  1
  O2-  O258  1  0.83838822  0.29781652  0.27120945  1
  O2-  O259  1  0.83168561  0.30724055  0.60817171  1
  O2-  O260  1  0.83292290  0.30367791  0.94086888  1
  O2-  O261  1  0.83418751  0.78670041  0.26567350  1
  O2-  O262  1  0.83410607  0.78757783  0.59971672  1
  O2-  O263  1  0.83553476  0.78697496  0.93152981  1
  O2-  O264  1  0.42630091  0.06488354  0.05906499  1
  O2-  O265  1  0.42581824  0.04473853  0.39520947  1
  O2-  O266  1  0.42104019  0.04434633  0.73153321  1
  O2-  O267  1  0.41300743  0.54145065  0.06003457  1
  O2-  O268  1  0.42342299  0.54829982  0.40146960  1
  O2-  O269  1  0.41491282  0.54466609  0.73165669  1
  O2-  O270  1  0.92099669  0.04630390  0.06567106  1
  O2-  O271  1  0.91435811  0.03746192  0.40055765  1
  O2-  O272  1  0.91907136  0.03854155  0.73084443  1
  O2-  O273  1  0.91208916  0.53888501  0.06108623  1
  O2-  O274  1  0.91291661  0.53891890  0.40466221  1
  O2-  O275  1  0.91269269  0.54390216  0.73231052  1
  O2-  O276  1  0.27883770  0.16655481  0.06587248  1
  O2-  O277  1  0.28888110  0.16363731  0.40009881  1
  O2-  O278  1  0.28534444  0.16687910  0.73044690  1
  O2-  O279  1  0.29250746  0.66021339  0.06065630  1
  O2-  O280  1  0.28739781  0.66453603  0.40617154  1
  O2-  O281  1  0.29014142  0.66095598  0.73381274  1
  O2-  O282  1  0.79570545  0.17256044  0.06559438  1
  O2-  O283  1  0.79398382  0.17021525  0.40002435  1
  O2-  O284  1  0.79575527  0.16988097  0.73200502  1
  O2-  O285  1  0.79599777  0.66220769  0.06071525  1
  O2-  O286  1  0.78836712  0.66797296  0.40345451  1
  O2-  O287  1  0.79262243  0.66422429  0.73266146  1
