# generated using pymatgen
data_Ca2Al2SiO7
_symmetry_space_group_name_H-M   'P 1'
_cell_length_a   15.45898740
_cell_length_b   15.45957242
_cell_length_c   15.28405558
_cell_angle_alpha   90.01728067
_cell_angle_beta   90.01348056
_cell_angle_gamma   89.98658070
_symmetry_Int_Tables_number   1
_chemical_formula_structural   Ca2Al2SiO7
_chemical_formula_sum   'Ca48 Al48 Si24 O168'
_cell_volume   3652.72591552
_cell_formula_units_Z   24
loop_
 _symmetry_equiv_pos_site_id
 _symmetry_equiv_pos_as_xyz
  1  'x, y, z'
loop_
 _atom_type_symbol
 _atom_type_oxidation_number
  Ca2+  2.0
  Al0+  0.0
  Si0+  0.0
  O2-  -2.0
loop_
 _atom_site_type_symbol
 _atom_site_label
 _atom_site_symmetry_multiplicity
 _atom_site_fract_x
 _atom_site_fract_y
 _atom_site_fract_z
 _atom_site_occupancy
  Ca2+  Ca0  1  0.16826494  0.08375331  0.16423547  1
  Ca2+  Ca1  1  0.16807246  0.07352567  0.50752761  1
  Ca2+  Ca2  1  0.17014641  0.07726820  0.84653718  1
  Ca2+  Ca3  1  0.16461297  0.57652848  0.16793461  1
  Ca2+  Ca4  1  0.15780130  0.57828688  0.50299909  1
  Ca2+  Ca5  1  0.16691685  0.57466984  0.83753195  1
  Ca2+  Ca6  1  0.66608344  0.08261655  0.17431042  1
  Ca2+  Ca7  1  0.66178642  0.07788416  0.50211932  1
  Ca2+  Ca8  1  0.66215151  0.08462174  0.83406484  1
  Ca2+  Ca9  1  0.67048841  0.57394939  0.17474420  1
  Ca2+  Ca10  1  0.66909562  0.57633659  0.50188048  1
  Ca2+  Ca11  1  0.67116032  0.58002326  0.83936213  1
  Ca2+  Ca12  1  0.07771688  0.33593625  0.16032798  1
  Ca2+  Ca13  1  0.07522507  0.34330426  0.49545343  1
  Ca2+  Ca14  1  0.08033067  0.33889776  0.82890512  1
  Ca2+  Ca15  1  0.07608613  0.83256040  0.15903236  1
  Ca2+  Ca16  1  0.08596366  0.82192240  0.49229963  1
  Ca2+  Ca17  1  0.08611233  0.83300218  0.82841327  1
  Ca2+  Ca18  1  0.58876258  0.32180149  0.16166524  1
  Ca2+  Ca19  1  0.58221656  0.32277839  0.49343512  1
  Ca2+  Ca20  1  0.57232477  0.32106946  0.82453497  1
  Ca2+  Ca21  1  0.57187669  0.84009773  0.16415555  1
  Ca2+  Ca22  1  0.58037223  0.83998325  0.49176260  1
  Ca2+  Ca23  1  0.57617534  0.83569530  0.83110141  1
  Ca2+  Ca24  1  0.32062744  0.41881931  0.17171543  1
  Ca2+  Ca25  1  0.32143051  0.41520810  0.50783491  1
  Ca2+  Ca26  1  0.32457931  0.41788556  0.84195169  1
  Ca2+  Ca27  1  0.33461273  0.91746710  0.16447300  1
  Ca2+  Ca28  1  0.33122125  0.91650466  0.50481758  1
  Ca2+  Ca29  1  0.32248412  0.92023967  0.84289224  1
  Ca2+  Ca30  1  0.83257136  0.41020519  0.17483260  1
  Ca2+  Ca31  1  0.83297781  0.40935543  0.50038094  1
  Ca2+  Ca32  1  0.83778701  0.41182502  0.83605241  1
  Ca2+  Ca33  1  0.83103605  0.91545854  0.17459838  1
  Ca2+  Ca34  1  0.82268153  0.91112611  0.50369249  1
  Ca2+  Ca35  1  0.82765848  0.91568519  0.83937537  1
  Ca2+  Ca36  1  0.42844362  0.15997233  0.16028857  1
  Ca2+  Ca37  1  0.42461575  0.16976154  0.49957887  1
  Ca2+  Ca38  1  0.42221744  0.16288162  0.83040724  1
  Ca2+  Ca39  1  0.41155964  0.67561113  0.16148727  1
  Ca2+  Ca40  1  0.41749309  0.67564185  0.49349460  1
  Ca2+  Ca41  1  0.40464608  0.67112794  0.83648010  1
  Ca2+  Ca42  1  0.92271856  0.17779773  0.15878345  1
  Ca2+  Ca43  1  0.91703925  0.17596798  0.49786736  1
  Ca2+  Ca44  1  0.92616576  0.17645334  0.83466678  1
  Ca2+  Ca45  1  0.92055167  0.67642284  0.16693473  1
  Ca2+  Ca46  1  0.92864133  0.67173846  0.49357128  1
  Ca2+  Ca47  1  0.92530335  0.67305470  0.82968963  1
  Al0+  Al48  1  -0.00341056  0.00204244  -0.00378127  1
  Al0+  Al49  1  0.00080640  0.00150107  0.33373106  1
  Al0+  Al50  1  -0.00431411  0.00111514  0.66995982  1
  Al0+  Al51  1  -0.00250636  0.50391164  0.00089696  1
  Al0+  Al52  1  -0.00015381  0.50131239  0.32870827  1
  Al0+  Al53  1  -0.00011897  0.50265994  0.66342083  1
  Al0+  Al54  1  0.49897159  -0.00308017  -0.00655962  1
  Al0+  Al55  1  0.50085521  0.00106806  0.33075696  1
  Al0+  Al56  1  0.50071942  -0.00095814  0.66747026  1
  Al0+  Al57  1  0.50234475  0.49958827  0.00523538  1
  Al0+  Al58  1  0.49895538  0.49966368  0.33892433  1
  Al0+  Al59  1  0.49939443  0.50159537  0.66434739  1
  Al0+  Al60  1  0.25170723  0.24849063  0.00758926  1
  Al0+  Al61  1  0.25119512  0.25015990  0.34092314  1
  Al0+  Al62  1  0.24980280  0.24927836  0.66722466  1
  Al0+  Al63  1  0.24924654  0.74958039  0.00282951  1
  Al0+  Al64  1  0.25125463  0.74930676  0.32463576  1
  Al0+  Al65  1  0.24978227  0.74961513  0.66512591  1
  Al0+  Al66  1  0.75060457  0.24782285  -0.00925930  1
  Al0+  Al67  1  0.75070201  0.24874944  0.33133920  1
  Al0+  Al68  1  0.75043446  0.24843186  0.66078294  1
  Al0+  Al69  1  0.74971937  0.74881881  -0.00224380  1
  Al0+  Al70  1  0.74977867  0.74858334  0.33545510  1
  Al0+  Al71  1  0.74909320  0.74922635  0.67239900  1
  Al0+  Al72  1  0.07155841  0.67921355  0.31472980  1
  Al0+  Al73  1  0.93235344  0.32112174  0.65145264  1
  Al0+  Al74  1  0.32344825  0.07014522  0.01590123  1
  Al0+  Al75  1  0.92761605  0.82311136  0.32048936  1
  Al0+  Al76  1  0.42853437  0.81794951  0.98404556  1
  Al0+  Al77  1  0.17541171  0.92973886  0.01608043  1
  Al0+  Al78  1  0.57010404  0.17799839  0.98487103  1
  Al0+  Al79  1  0.17799386  0.92790578  0.67785123  1
  Al0+  Al80  1  0.17872859  0.43073220  0.34912187  1
  Al0+  Al81  1  0.68004341  0.92992340  0.34481872  1
  Al0+  Al82  1  0.67922514  0.42643132  0.34736008  1
  Al0+  Al83  1  0.32301771  0.57076544  0.01627707  1
  Al0+  Al84  1  0.67917664  0.92895098  0.68274315  1
  Al0+  Al85  1  0.07064733  0.68271730  0.65369587  1
  Al0+  Al86  1  0.17850264  0.43024616  0.67974112  1
  Al0+  Al87  1  0.93150581  0.31841620  0.32010319  1
  Al0+  Al88  1  0.42583624  0.32383570  0.65171569  1
  Al0+  Al89  1  0.43111622  0.82112332  0.31944558  1
  Al0+  Al90  1  0.56952882  0.17829945  0.64887872  1
  Al0+  Al91  1  0.92712523  0.82234823  0.98521519  1
  Al0+  Al92  1  0.17687798  0.42857264  0.01556196  1
  Al0+  Al93  1  0.93084444  0.32367239  0.98441639  1
  Al0+  Al94  1  0.07426326  0.18042961  0.98656811  1
  Al0+  Al95  1  0.56871774  0.18163119  0.31860543  1
  Si0+  Si96  1  0.81962897  0.57322385  0.01604172  1
  Si0+  Si97  1  0.07101146  0.68035894  0.98195612  1
  Si0+  Si98  1  0.68204310  0.42700237  0.01272664  1
  Si0+  Si99  1  0.67961618  0.92792867  0.01482220  1
  Si0+  Si100  1  0.32115280  0.07042517  0.68249698  1
  Si0+  Si101  1  0.07655799  0.17622846  0.31885738  1
  Si0+  Si102  1  0.82097737  0.07484765  0.68645486  1
  Si0+  Si103  1  0.82004956  0.56979154  0.68243564  1
  Si0+  Si104  1  0.92503629  0.82347159  0.65137066  1
  Si0+  Si105  1  0.32183457  0.57428361  0.35168848  1
  Si0+  Si106  1  0.57256688  0.67495444  0.31806710  1
  Si0+  Si107  1  0.07285605  0.17514908  0.65037313  1
  Si0+  Si108  1  0.57511263  0.67807307  0.65148405  1
  Si0+  Si109  1  0.82385373  0.07246025  0.35006808  1
  Si0+  Si110  1  0.32390447  0.57299013  0.68197184  1
  Si0+  Si111  1  0.43108246  0.81817965  0.65234644  1
  Si0+  Si112  1  0.67841044  0.42780807  0.68123990  1
  Si0+  Si113  1  0.42601568  0.32350389  0.31683675  1
  Si0+  Si114  1  0.42912456  0.32406926  0.98720454  1
  Si0+  Si115  1  0.57253201  0.67570772  0.98383555  1
  Si0+  Si116  1  0.82137418  0.57134152  0.35144272  1
  Si0+  Si117  1  0.81856889  0.07182746  0.01470618  1
  Si0+  Si118  1  0.17891489  0.92826066  0.34682126  1
  Si0+  Si119  1  0.32275536  0.06962836  0.34995496  1
  O2-  O120  1  0.24814507  0.00133215  0.06647050  1
  O2-  O121  1  0.24924013  -0.00027108  0.39052960  1
  O2-  O122  1  0.24729518  0.00673353  0.72533196  1
  O2-  O123  1  0.25137637  0.49845917  0.06572406  1
  O2-  O124  1  0.25388390  0.50537932  0.39636341  1
  O2-  O125  1  0.25946444  0.49939189  0.72422528  1
  O2-  O126  1  0.74946569  -0.00083621  0.05771771  1
  O2-  O127  1  0.75893114  -0.00078763  0.39341681  1
  O2-  O128  1  0.75376176  0.00341921  0.72961227  1
  O2-  O129  1  0.75315173  0.49717742  0.05656693  1
  O2-  O130  1  0.75281535  0.50197146  0.39552312  1
  O2-  O131  1  0.74969375  0.49782600  0.72519986  1
  O2-  O132  1  0.00869806  0.24612195  0.27564051  1
  O2-  O133  1  0.00865836  0.24769900  0.60504884  1
  O2-  O134  1  0.00973034  0.25893639  0.93518922  1
  O2-  O135  1  0.00211585  0.75559699  0.26810396  1
  O2-  O136  1  -0.00015981  0.76185211  0.60753559  1
  O2-  O137  1  0.00633160  0.75319743  0.93774419  1
  O2-  O138  1  0.49681291  0.25820174  0.27079206  1
  O2-  O139  1  0.49947797  0.25340093  0.60093417  1
  O2-  O140  1  0.49297589  0.25156692  0.94114711  1
  O2-  O141  1  0.50552289  0.74489097  0.27410370  1
  O2-  O142  1  0.50394043  0.74913896  0.60989519  1
  O2-  O143  1  0.50062183  0.73995728  0.93789499  1
  O2-  O144  1  0.06763568  0.17888539  0.10025401  1
  O2-  O145  1  0.07555094  0.17317951  0.42471132  1
  O2-  O146  1  0.07116763  0.17380416  0.75542730  1
  O2-  O147  1  0.06712442  0.67905121  0.08723485  1
  O2-  O148  1  0.07044652  0.68074295  0.42894140  1
  O2-  O149  1  0.06871355  0.68187324  0.76659192  1
  O2-  O150  1  0.57330092  0.17934027  0.09807766  1
  O2-  O151  1  0.56632629  0.17964270  0.43130691  1
  O2-  O152  1  0.56710942  0.17870449  0.76255799  1
  O2-  O153  1  0.57651025  0.67727504  0.08912557  1
  O2-  O154  1  0.57147876  0.67515065  0.42423229  1
  O2-  O155  1  0.57775319  0.67704400  0.75631672  1
  O2-  O156  1  0.17946947  0.43011861  0.23653588  1
  O2-  O157  1  0.17648724  0.43507527  0.56665084  1
  O2-  O158  1  0.17663757  0.43212900  0.90153238  1
  O2-  O159  1  0.17760457  0.93019183  0.24243202  1
  O2-  O160  1  0.18351075  0.92694484  0.56404642  1
  O2-  O161  1  0.17800252  0.93033674  0.90192278  1
  O2-  O162  1  0.68191370  0.42737013  0.23373367  1
  O2-  O163  1  0.67958706  0.43039616  0.57615938  1
  O2-  O164  1  0.68161340  0.43002873  0.90734532  1
  O2-  O165  1  0.67862734  0.93304534  0.23170058  1
  O2-  O166  1  0.67929949  0.92763968  0.56950414  1
  O2-  O167  1  0.68144508  0.92733919  0.90950528  1
  O2-  O168  1  0.43534371  0.32635529  0.09263859  1
  O2-  O169  1  0.42632975  0.32008607  0.42244400  1
  O2-  O170  1  0.42861561  0.32490167  0.76557123  1
  O2-  O171  1  0.43348607  0.81970916  0.09694928  1
  O2-  O172  1  0.43177528  0.82091013  0.43345360  1
  O2-  O173  1  0.43058945  0.81618734  0.75709736  1
  O2-  O174  1  0.92582439  0.31995156  0.09776534  1
  O2-  O175  1  0.93134747  0.31715357  0.43342455  1
  O2-  O176  1  0.93249350  0.32156330  0.76413780  1
  O2-  O177  1  0.92300738  0.81837372  0.09792769  1
  O2-  O178  1  0.92775432  0.82071541  0.43441702  1
  O2-  O179  1  0.92267894  0.81889150  0.75690216  1
  O2-  O180  1  0.32460995  0.06951774  0.24546282  1
  O2-  O181  1  0.32268502  0.06668395  0.57628082  1
  O2-  O182  1  0.32527122  0.06608052  0.90205528  1
  O2-  O183  1  0.32320478  0.57287449  0.24653661  1
  O2-  O184  1  0.32409690  0.57715654  0.57655169  1
  O2-  O185  1  0.32233005  0.56815887  0.90206986  1
  O2-  O186  1  0.82192845  0.07414382  0.24445082  1
  O2-  O187  1  0.82225780  0.07502105  0.58076350  1
  O2-  O188  1  0.81593410  0.07244590  0.90962782  1
  O2-  O189  1  0.81855462  0.57232476  0.24563224  1
  O2-  O190  1  0.81735469  0.57179224  0.57752392  1
  O2-  O191  1  0.81701369  0.57554207  0.91059456  1
  O2-  O192  1  0.05130576  0.08330730  0.27182018  1
  O2-  O193  1  0.04163831  0.08293322  0.60245573  1
  O2-  O194  1  0.03736997  0.08571960  0.93092723  1
  O2-  O195  1  0.03745502  0.58373587  0.26069222  1
  O2-  O196  1  0.03349526  0.58950971  0.59765128  1
  O2-  O197  1  0.03844438  0.58929750  0.93455839  1
  O2-  O198  1  0.53623236  0.08620625  0.26402723  1
  O2-  O199  1  0.53862361  0.07942278  0.59743262  1
  O2-  O200  1  0.54074442  0.08171839  0.93017654  1
  O2-  O201  1  0.54675361  0.58112713  0.27231162  1
  O2-  O202  1  0.54834130  0.58679259  0.60254118  1
  O2-  O203  1  0.55230141  0.58015724  0.93878277  1
  O2-  O204  1  0.17117818  0.20089624  0.27536651  1
  O2-  O205  1  0.16858799  0.19338238  0.60640282  1
  O2-  O206  1  0.17717401  0.19717613  0.93853912  1
  O2-  O207  1  0.17032185  0.70289893  0.26220643  1
  O2-  O208  1  0.16750054  0.71018071  0.59763277  1
  O2-  O209  1  0.16609279  0.70070400  0.93789253  1
  O2-  O210  1  0.66607145  0.21020433  0.26536364  1
  O2-  O211  1  0.66842062  0.20458542  0.59679250  1
  O2-  O212  1  0.66414328  0.21073005  0.92771908  1
  O2-  O213  1  0.66705889  0.69723794  0.27343948  1
  O2-  O214  1  0.66663374  0.70598357  0.60357986  1
  O2-  O215  1  0.66369739  0.70563517  0.93450137  1
  O2-  O216  1  0.07835343  0.46139501  0.06700533  1
  O2-  O217  1  0.08120212  0.46424625  0.40026140  1
  O2-  O218  1  0.08337876  0.46766030  0.73283682  1
  O2-  O219  1  0.07537212  0.95810314  0.06605069  1
  O2-  O220  1  0.08730445  0.95463451  0.39638029  1
  O2-  O221  1  0.07774074  0.95034562  0.72809724  1
  O2-  O222  1  0.59162596  0.45360898  0.06297021  1
  O2-  O223  1  0.58234152  0.45582277  0.40246036  1
  O2-  O224  1  0.58676747  0.45744226  0.72809821  1
  O2-  O225  1  0.58697588  0.95577091  0.05892658  1
  O2-  O226  1  0.58475544  0.96524925  0.39980388  1
  O2-  O227  1  0.58209801  0.95925867  0.73641369  1
  O2-  O228  1  0.20117202  0.32967187  0.06912038  1
  O2-  O229  1  0.20755164  0.33345704  0.40443209  1
  O2-  O230  1  0.20224005  0.33052933  0.73090646  1
  O2-  O231  1  0.20339548  0.83094157  0.06717214  1
  O2-  O232  1  0.20938827  0.83571898  0.39153267  1
  O2-  O233  1  0.21353286  0.83325146  0.73250017  1
  O2-  O234  1  0.71100012  0.33445010  0.05775753  1
  O2-  O235  1  0.71271974  0.33090741  0.40176365  1
  O2-  O236  1  0.70613218  0.33508357  0.72619910  1
  O2-  O237  1  0.70692258  0.83549142  0.06093608  1
  O2-  O238  1  0.70408357  0.83104889  0.39927342  1
  O2-  O239  1  0.70817766  0.83185619  0.73789167  1
  O2-  O240  1  0.44763281  0.41944338  0.27495463  1
  O2-  O241  1  0.45138462  0.42369066  0.59942043  1
  O2-  O242  1  0.45942554  0.41583386  0.93939028  1
  O2-  O243  1  0.46461004  0.91585323  0.26462977  1
  O2-  O244  1  0.45806369  0.91027292  0.60546045  1
  O2-  O245  1  0.46337791  0.91113211  0.92672429  1
  O2-  O246  1  0.95663533  0.41617898  0.26707846  1
  O2-  O247  1  0.96004965  0.41844713  0.59745043  1
  O2-  O248  1  0.94963213  0.42570704  0.93448361  1
  O2-  O249  1  0.95144580  0.92355260  0.26971017  1
  O2-  O250  1  0.93971629  0.92052545  0.60954672  1
  O2-  O251  1  0.94930848  0.92045756  0.93139852  1
  O2-  O252  1  0.33262774  0.29474786  0.27276588  1
  O2-  O253  1  0.32794359  0.29347656  0.59790293  1
  O2-  O254  1  0.33317899  0.30329876  0.94543123  1
  O2-  O255  1  0.33591449  0.79249118  0.26322102  1
  O2-  O256  1  0.34065087  0.78879640  0.60310415  1
  O2-  O257  1  0.33076342  0.78882956  0.93102888  1
  O2-  O258  1  0.83585820  0.28597688  0.26569627  1
  O2-  O259  1  0.83565815  0.28940898  0.59796842  1
  O2-  O260  1  0.83577927  0.28786982  0.92835098  1
  O2-  O261  1  0.82936009  0.79163194  0.26795842  1
  O2-  O262  1  0.83352364  0.78922926  0.60565025  1
  O2-  O263  1  0.83249593  0.78514644  0.92986721  1
  O2-  O264  1  0.42108503  0.03398966  0.06776372  1
  O2-  O265  1  0.41250674  0.03720161  0.39879888  1
  O2-  O266  1  0.41265377  0.03901624  0.72896624  1
  O2-  O267  1  0.42339443  0.54742774  0.06930365  1
  O2-  O268  1  0.41599722  0.55182775  0.39901727  1
  O2-  O269  1  0.41968562  0.55508059  0.72763581  1
  O2-  O270  1  0.91023966  0.04655090  0.06233169  1
  O2-  O271  1  0.91893718  0.05300766  0.39675454  1
  O2-  O272  1  0.91459453  0.05169285  0.73385103  1
  O2-  O273  1  0.91208441  0.55160774  0.06358348  1
  O2-  O274  1  0.91484565  0.54476147  0.39622939  1
  O2-  O275  1  0.91136904  0.54180843  0.72995121  1
  O2-  O276  1  0.30386659  0.16939308  0.07111065  1
  O2-  O277  1  0.29758539  0.16113663  0.39973943  1
  O2-  O278  1  0.30269733  0.16579770  0.72693654  1
  O2-  O279  1  0.29459787  0.66902839  0.06837870  1
  O2-  O280  1  0.29630799  0.66927858  0.39601551  1
  O2-  O281  1  0.29194043  0.66413663  0.72968790  1
  O2-  O282  1  0.78778655  0.16331808  0.06165660  1
  O2-  O283  1  0.79190624  0.16317131  0.39812863  1
  O2-  O284  1  0.79142253  0.16746561  0.73259457  1
  O2-  O285  1  0.78550950  0.66209966  0.06562603  1
  O2-  O286  1  0.79484799  0.66359945  0.40033251  1
  O2-  O287  1  0.79070085  0.65990690  0.73296797  1
