# generated using pymatgen
data_Ca2Al2SiO7
_symmetry_space_group_name_H-M   'P 1'
_cell_length_a   15.46414128
_cell_length_b   15.46765299
_cell_length_c   15.29026828
_cell_angle_alpha   90.00990957
_cell_angle_beta   90.01237173
_cell_angle_gamma   90.00257057
_symmetry_Int_Tables_number   1
_chemical_formula_structural   Ca2Al2SiO7
_chemical_formula_sum   'Ca48 Al48 Si24 O168'
_cell_volume   3657.33984610
_cell_formula_units_Z   24
loop_
 _symmetry_equiv_pos_site_id
 _symmetry_equiv_pos_as_xyz
  1  'x, y, z'
loop_
 _atom_type_symbol
 _atom_type_oxidation_number
  Ca2+  2.0
  Al0+  0.0
  Si0+  0.0
  O2-  -2.0
loop_
 _atom_site_type_symbol
 _atom_site_label
 _atom_site_symmetry_multiplicity
 _atom_site_fract_x
 _atom_site_fract_y
 _atom_site_fract_z
 _atom_site_occupancy
  Ca2+  Ca0  1  0.17291630  0.08506474  0.16626115  1
  Ca2+  Ca1  1  0.16613661  0.09225446  0.50562825  1
  Ca2+  Ca2  1  0.17452692  0.08418919  0.84256917  1
  Ca2+  Ca3  1  0.16779199  0.56957992  0.16945268  1
  Ca2+  Ca4  1  0.17040627  0.56747949  0.50478005  1
  Ca2+  Ca5  1  0.16957757  0.57047589  0.83923108  1
  Ca2+  Ca6  1  0.66891222  0.08632842  0.17096399  1
  Ca2+  Ca7  1  0.66081853  0.07736537  0.50738820  1
  Ca2+  Ca8  1  0.67368781  0.09334457  0.83804075  1
  Ca2+  Ca9  1  0.66914277  0.56819817  0.17220541  1
  Ca2+  Ca10  1  0.66617486  0.57947514  0.50055142  1
  Ca2+  Ca11  1  0.66217363  0.57720356  0.83628253  1
  Ca2+  Ca12  1  0.07962959  0.33416993  0.16302639  1
  Ca2+  Ca13  1  0.08831358  0.32522345  0.49479450  1
  Ca2+  Ca14  1  0.07966930  0.33372956  0.82801561  1
  Ca2+  Ca15  1  0.07795514  0.83068249  0.15351196  1
  Ca2+  Ca16  1  0.07853966  0.82993631  0.49346028  1
  Ca2+  Ca17  1  0.07664074  0.84463323  0.83529206  1
  Ca2+  Ca18  1  0.58161336  0.32977668  0.15617192  1
  Ca2+  Ca19  1  0.57715811  0.32358771  0.48932623  1
  Ca2+  Ca20  1  0.57623384  0.32461673  0.82998308  1
  Ca2+  Ca21  1  0.58297794  0.83238552  0.16205673  1
  Ca2+  Ca22  1  0.59507982  0.83178410  0.49827526  1
  Ca2+  Ca23  1  0.58229144  0.83026685  0.82789563  1
  Ca2+  Ca24  1  0.32485110  0.39965630  0.16903323  1
  Ca2+  Ca25  1  0.32652616  0.39879455  0.50245310  1
  Ca2+  Ca26  1  0.32612160  0.40355715  0.83790270  1
  Ca2+  Ca27  1  0.33959376  0.92524468  0.16395447  1
  Ca2+  Ca28  1  0.32917847  0.92095638  0.50457104  1
  Ca2+  Ca29  1  0.33004581  0.92433337  0.84780359  1
  Ca2+  Ca30  1  0.82205439  0.41314415  0.16838277  1
  Ca2+  Ca31  1  0.82780917  0.41847865  0.49757877  1
  Ca2+  Ca32  1  0.82598860  0.41219072  0.84422823  1
  Ca2+  Ca33  1  0.83065504  0.92260638  0.16768957  1
  Ca2+  Ca34  1  0.82161110  0.92612367  0.50688219  1
  Ca2+  Ca35  1  0.82917465  0.92948906  0.83704563  1
  Ca2+  Ca36  1  0.42951406  0.17431812  0.16185222  1
  Ca2+  Ca37  1  0.42576210  0.17503929  0.49755548  1
  Ca2+  Ca38  1  0.42447354  0.17045740  0.83222160  1
  Ca2+  Ca39  1  0.41609978  0.67471383  0.15972838  1
  Ca2+  Ca40  1  0.42273617  0.66883376  0.50120834  1
  Ca2+  Ca41  1  0.41961593  0.67419945  0.83127574  1
  Ca2+  Ca42  1  0.92183542  0.16808144  0.15850818  1
  Ca2+  Ca43  1  0.92814363  0.15876911  0.49966513  1
  Ca2+  Ca44  1  0.91817330  0.16697509  0.83181505  1
  Ca2+  Ca45  1  0.91102391  0.67170104  0.16011565  1
  Ca2+  Ca46  1  0.91251012  0.66621328  0.49312407  1
  Ca2+  Ca47  1  0.91575218  0.67491525  0.83188836  1
  Al0+  Al48  1  -0.00130437  -0.00132239  0.00294137  1
  Al0+  Al49  1  0.00048211  -0.00251516  0.32825389  1
  Al0+  Al50  1  -0.00280352  0.00017003  0.66429291  1
  Al0+  Al51  1  0.00077405  0.50088835  -0.00070798  1
  Al0+  Al52  1  0.00339254  0.50008232  0.34115083  1
  Al0+  Al53  1  0.00015076  0.50121464  0.66971880  1
  Al0+  Al54  1  0.50121114  -0.00164548  -0.00364317  1
  Al0+  Al55  1  0.49880059  0.00111294  0.33596523  1
  Al0+  Al56  1  0.49656960  -0.00098585  0.66782723  1
  Al0+  Al57  1  0.49897753  0.49964292  0.00027087  1
  Al0+  Al58  1  0.49748878  0.50298405  0.33261118  1
  Al0+  Al59  1  0.49709327  0.50470147  0.65893298  1
  Al0+  Al60  1  0.25145759  0.24746438  0.00775398  1
  Al0+  Al61  1  0.25068565  0.24638477  0.32998020  1
  Al0+  Al62  1  0.24722221  0.24807562  0.66628858  1
  Al0+  Al63  1  0.24968738  0.74751285  -0.00161780  1
  Al0+  Al64  1  0.24900046  0.74885063  0.33343771  1
  Al0+  Al65  1  0.24810521  0.74716726  0.66615660  1
  Al0+  Al66  1  0.75332923  0.25019732  0.00220942  1
  Al0+  Al67  1  0.75417186  0.24963921  0.33789793  1
  Al0+  Al68  1  0.75048235  0.25139578  0.66510490  1
  Al0+  Al69  1  0.75237405  0.75128959  -0.00708525  1
  Al0+  Al70  1  0.74974184  0.75218135  0.33757193  1
  Al0+  Al71  1  0.74918350  0.75105998  0.66645250  1
  Al0+  Al72  1  0.42897135  0.82057042  0.98756636  1
  Al0+  Al73  1  0.06748893  0.18041135  0.65605437  1
  Al0+  Al74  1  0.18362825  0.42786481  0.34816804  1
  Al0+  Al75  1  0.93120354  0.32206408  0.98826635  1
  Al0+  Al76  1  0.32491661  0.07097941  0.01746102  1
  Al0+  Al77  1  0.43059449  0.32235877  0.31739382  1
  Al0+  Al78  1  0.42801376  0.32062703  0.65265609  1
  Al0+  Al79  1  0.07003165  0.17726999  0.31712807  1
  Al0+  Al80  1  0.81998920  0.07121996  0.01510127  1
  Al0+  Al81  1  0.67693858  0.92921536  0.68395526  1
  Al0+  Al82  1  0.42778729  0.32145479  0.98499179  1
  Al0+  Al83  1  0.92927987  0.82203109  0.98415152  1
  Al0+  Al84  1  0.57299951  0.17844447  0.65139794  1
  Al0+  Al85  1  0.17892010  0.42812792  0.01428277  1
  Al0+  Al86  1  0.81990321  0.57114676  0.34657022  1
  Al0+  Al87  1  0.57412244  0.17824646  0.31902281  1
  Al0+  Al88  1  0.82103291  0.07301050  0.68259470  1
  Al0+  Al89  1  0.67868304  0.42976876  0.01023732  1
  Al0+  Al90  1  0.18134939  0.42796524  0.68146710  1
  Al0+  Al91  1  0.57413890  0.17876417  0.98592844  1
  Al0+  Al92  1  0.57102536  0.68197268  0.65137484  1
  Al0+  Al93  1  0.67629257  0.42695287  0.34914533  1
  Al0+  Al94  1  0.67874416  0.93308456  0.34565543  1
  Al0+  Al95  1  0.17901023  0.92815732  0.01472396  1
  Si0+  Si96  1  0.42430936  0.82199245  0.64960365  1
  Si0+  Si97  1  0.82102327  0.57169375  0.68293075  1
  Si0+  Si98  1  0.82193288  0.57378979  0.01305448  1
  Si0+  Si99  1  0.57279911  0.67799300  0.98450394  1
  Si0+  Si100  1  0.07163045  0.67842645  0.31826685  1
  Si0+  Si101  1  0.92674958  0.32664450  0.64913329  1
  Si0+  Si102  1  0.82639043  0.07192094  0.34982778  1
  Si0+  Si103  1  0.93086314  0.32497086  0.31800375  1
  Si0+  Si104  1  0.42675060  0.82094626  0.31966969  1
  Si0+  Si105  1  0.07214759  0.67728441  0.98143517  1
  Si0+  Si106  1  0.32233140  0.57175674  0.01678306  1
  Si0+  Si107  1  0.93025257  0.81975720  0.64911729  1
  Si0+  Si108  1  0.57231159  0.68140409  0.31751548  1
  Si0+  Si109  1  0.07043531  0.67713401  0.64965679  1
  Si0+  Si110  1  0.17745675  0.92547488  0.67928289  1
  Si0+  Si111  1  0.31775634  0.06911496  0.68134227  1
  Si0+  Si112  1  0.32192801  0.57446149  0.68533880  1
  Si0+  Si113  1  0.67689932  0.43124811  0.67971891  1
  Si0+  Si114  1  0.32143528  0.57754245  0.35175212  1
  Si0+  Si115  1  0.17764079  0.92664392  0.34829739  1
  Si0+  Si116  1  0.07164890  0.17799740  0.98537856  1
  Si0+  Si117  1  0.92864720  0.81812693  0.31739376  1
  Si0+  Si118  1  0.67906821  0.92552548  0.01538859  1
  Si0+  Si119  1  0.31873548  0.06807660  0.35108893  1
  O2-  O120  1  0.25199277  -0.00231054  0.06651603  1
  O2-  O121  1  0.24528974  -0.00146145  0.39357531  1
  O2-  O122  1  0.25017702  -0.00651077  0.72138293  1
  O2-  O123  1  0.25765944  0.49929881  0.06083932  1
  O2-  O124  1  0.26154412  0.50031935  0.39439237  1
  O2-  O125  1  0.25832711  0.50060425  0.72793589  1
  O2-  O126  1  0.74315761  -0.00228512  0.06029978  1
  O2-  O127  1  0.74945251  0.01169044  0.39243512  1
  O2-  O128  1  0.74315075  0.00689025  0.73268879  1
  O2-  O129  1  0.75329135  0.50561661  0.05627249  1
  O2-  O130  1  0.74863553  0.49996038  0.39896736  1
  O2-  O131  1  0.75150009  0.49900703  0.72371321  1
  O2-  O132  1  -0.00570376  0.25161857  0.27324522  1
  O2-  O133  1  -0.00643508  0.25493362  0.60700483  1
  O2-  O134  1  0.00783583  0.25026697  0.94029322  1
  O2-  O135  1  -0.00171930  0.74594427  0.27498649  1
  O2-  O136  1  0.00043635  0.74826100  0.60568336  1
  O2-  O137  1  0.00630861  0.74912107  0.93720054  1
  O2-  O138  1  0.51204643  0.25951235  0.26976252  1
  O2-  O139  1  0.50496021  0.25450102  0.60204070  1
  O2-  O140  1  0.50007227  0.24933976  0.93668754  1
  O2-  O141  1  0.49836379  0.75052050  0.27735899  1
  O2-  O142  1  0.49807311  0.75931500  0.60450610  1
  O2-  O143  1  0.50456579  0.74727878  0.94068398  1
  O2-  O144  1  0.06837179  0.17795709  0.09112447  1
  O2-  O145  1  0.06943831  0.17668916  0.43069467  1
  O2-  O146  1  0.06930015  0.18019761  0.76865323  1
  O2-  O147  1  0.06977262  0.67631310  0.08729530  1
  O2-  O148  1  0.07267611  0.68252807  0.42361469  1
  O2-  O149  1  0.06948737  0.67661701  0.75429138  1
  O2-  O150  1  0.57504265  0.18054412  0.09952439  1
  O2-  O151  1  0.56737676  0.17375031  0.43238425  1
  O2-  O152  1  0.57223757  0.18022751  0.76453858  1
  O2-  O153  1  0.57389335  0.67973500  0.09029890  1
  O2-  O154  1  0.57335798  0.68364502  0.42257089  1
  O2-  O155  1  0.56955814  0.68126420  0.76447337  1
  O2-  O156  1  0.18107409  0.43169344  0.23533409  1
  O2-  O157  1  0.18172532  0.42925551  0.56831373  1
  O2-  O158  1  0.17719877  0.43102609  0.90109972  1
  O2-  O159  1  0.17882919  0.92384932  0.24411443  1
  O2-  O160  1  0.17859408  0.92395296  0.57360252  1
  O2-  O161  1  0.17933516  0.93177685  0.90028504  1
  O2-  O162  1  0.67811117  0.42972536  0.23551505  1
  O2-  O163  1  0.67901363  0.43428775  0.57484570  1
  O2-  O164  1  0.67948718  0.43264108  0.89666466  1
  O2-  O165  1  0.68120060  0.92847462  0.23274398  1
  O2-  O166  1  0.68234725  0.92773926  0.56996949  1
  O2-  O167  1  0.68247624  0.92109945  0.91035283  1
  O2-  O168  1  0.43072131  0.32172618  0.09821434  1
  O2-  O169  1  0.42806375  0.31547022  0.43096650  1
  O2-  O170  1  0.42722442  0.31696820  0.76585029  1
  O2-  O171  1  0.43055344  0.81766923  0.10129517  1
  O2-  O172  1  0.42293469  0.81912589  0.42470109  1
  O2-  O173  1  0.41980430  0.81770419  0.75462914  1
  O2-  O174  1  0.93146875  0.32192717  0.10137642  1
  O2-  O175  1  0.93405425  0.32721893  0.42375458  1
  O2-  O176  1  0.92861466  0.33027654  0.75468497  1
  O2-  O177  1  0.92757955  0.81762641  0.09756695  1
  O2-  O178  1  0.93183687  0.81813335  0.42277916  1
  O2-  O179  1  0.93285155  0.81926861  0.75395294  1
  O2-  O180  1  0.31979917  0.06441753  0.24661314  1
  O2-  O181  1  0.31561192  0.06800915  0.57574824  1
  O2-  O182  1  0.32171387  0.07021451  0.90323391  1
  O2-  O183  1  0.31490478  0.58972918  0.24724005  1
  O2-  O184  1  0.31707952  0.58319077  0.58026173  1
  O2-  O185  1  0.32020957  0.57549486  0.91136322  1
  O2-  O186  1  0.83070376  0.06672810  0.24453703  1
  O2-  O187  1  0.82858098  0.06566559  0.56923498  1
  O2-  O188  1  0.82177084  0.07031974  0.90236110  1
  O2-  O189  1  0.81764780  0.57414626  0.23316753  1
  O2-  O190  1  0.82208666  0.57256772  0.57793268  1
  O2-  O191  1  0.82121392  0.57440061  0.90718339  1
  O2-  O192  1  0.04190208  0.07957225  0.26350794  1
  O2-  O193  1  0.03916213  0.08315056  0.59903795  1
  O2-  O194  1  0.04255108  0.08545096  0.93997673  1
  O2-  O195  1  0.04733080  0.58495001  0.27361069  1
  O2-  O196  1  0.04118723  0.58608433  0.60139375  1
  O2-  O197  1  0.04229993  0.58620895  0.93276284  1
  O2-  O198  1  0.53657011  0.08180304  0.26664134  1
  O2-  O199  1  0.53931412  0.07952226  0.60134273  1
  O2-  O200  1  0.54959694  0.07915298  0.93416263  1
  O2-  O201  1  0.54662700  0.58955562  0.26983654  1
  O2-  O202  1  0.53774361  0.58850949  0.59248895  1
  O2-  O203  1  0.54538912  0.58561808  0.93759099  1
  O2-  O204  1  0.16643098  0.20715049  0.26420784  1
  O2-  O205  1  0.16258226  0.21121133  0.59894913  1
  O2-  O206  1  0.16780262  0.19852552  0.94408580  1
  O2-  O207  1  0.16152196  0.71010789  0.26972440  1
  O2-  O208  1  0.16207523  0.70501352  0.60157598  1
  O2-  O209  1  0.16634547  0.69828964  0.93539850  1
  O2-  O210  1  0.67884287  0.19423128  0.27483902  1
  O2-  O211  1  0.67341610  0.20139949  0.59946221  1
  O2-  O212  1  0.67140232  0.21111034  0.93380623  1
  O2-  O213  1  0.66258391  0.71390960  0.27023859  1
  O2-  O214  1  0.66826924  0.71140260  0.59672968  1
  O2-  O215  1  0.66559413  0.70261776  0.93616540  1
  O2-  O216  1  0.08364099  0.46469191  0.06837434  1
  O2-  O217  1  0.08937929  0.46187846  0.40499294  1
  O2-  O218  1  0.08471863  0.46276049  0.73379944  1
  O2-  O219  1  0.08088102  0.95503874  0.06817068  1
  O2-  O220  1  0.08421662  0.95136281  0.39459866  1
  O2-  O221  1  0.08554544  0.95470277  0.72411890  1
  O2-  O222  1  0.58317563  0.46107565  0.06597831  1
  O2-  O223  1  0.57736959  0.45844856  0.39979310  1
  O2-  O224  1  0.58542388  0.46468722  0.72407829  1
  O2-  O225  1  0.58341707  0.94440344  0.05857495  1
  O2-  O226  1  0.58058820  0.95654827  0.40111785  1
  O2-  O227  1  0.57341242  0.94525661  0.73043903  1
  O2-  O228  1  0.20452697  0.33130004  0.06943811  1
  O2-  O229  1  0.21255090  0.32921540  0.39972037  1
  O2-  O230  1  0.20915033  0.33077929  0.73509907  1
  O2-  O231  1  0.20256177  0.82665617  0.06380738  1
  O2-  O232  1  0.20702508  0.83566573  0.39787937  1
  O2-  O233  1  0.20107862  0.83259828  0.72635181  1
  O2-  O234  1  0.71435633  0.33665925  0.06641865  1
  O2-  O235  1  0.70673425  0.32941849  0.40384943  1
  O2-  O236  1  0.70190343  0.33849883  0.72570407  1
  O2-  O237  1  0.70997641  0.83288744  0.06196709  1
  O2-  O238  1  0.71432346  0.83857304  0.40160556  1
  O2-  O239  1  0.71169097  0.83181061  0.73550603  1
  O2-  O240  1  0.44133249  0.42714782  0.27098794  1
  O2-  O241  1  0.44437712  0.42284126  0.60274344  1
  O2-  O242  1  0.45253222  0.42162093  0.93314775  1
  O2-  O243  1  0.45495985  0.91260319  0.27371575  1
  O2-  O244  1  0.44239049  0.91743582  0.60508584  1
  O2-  O245  1  0.45645110  0.91579273  0.93082176  1
  O2-  O246  1  0.96229754  0.41719089  0.27234393  1
  O2-  O247  1  0.95499591  0.41973691  0.60291556  1
  O2-  O248  1  0.95793615  0.41951285  0.93301017  1
  O2-  O249  1  0.95802901  0.90840357  0.26884207  1
  O2-  O250  1  0.95972209  0.90988907  0.59973244  1
  O2-  O251  1  0.96177764  0.91784761  0.92965982  1
  O2-  O252  1  0.33576973  0.28239787  0.26516704  1
  O2-  O253  1  0.33198316  0.28306911  0.60005717  1
  O2-  O254  1  0.32791526  0.29083674  0.93605593  1
  O2-  O255  1  0.33547367  0.79197433  0.27140700  1
  O2-  O256  1  0.33233244  0.79065089  0.60104672  1
  O2-  O257  1  0.33289741  0.78833600  0.93257947  1
  O2-  O258  1  0.83471338  0.30471757  0.27574344  1
  O2-  O259  1  0.83265943  0.30457615  0.60332721  1
  O2-  O260  1  0.83658537  0.28940332  0.93279580  1
  O2-  O261  1  0.83675386  0.79052836  0.27061733  1
  O2-  O262  1  0.83884675  0.79021084  0.60266450  1
  O2-  O263  1  0.83550715  0.78914586  0.92563297  1
  O2-  O264  1  0.42258641  0.03781987  0.06967869  1
  O2-  O265  1  0.40825997  0.03677256  0.40078451  1
  O2-  O266  1  0.40969331  0.04483938  0.72912471  1
  O2-  O267  1  0.41745701  0.55325457  0.06227959  1
  O2-  O268  1  0.41863514  0.56251629  0.39315288  1
  O2-  O269  1  0.41837508  0.55629237  0.72744926  1
  O2-  O270  1  0.91458580  0.03601977  0.07002675  1
  O2-  O271  1  0.91651834  0.03455788  0.39723168  1
  O2-  O272  1  0.91782370  0.03625590  0.73570109  1
  O2-  O273  1  0.91575519  0.55075148  0.05895666  1
  O2-  O274  1  0.91902436  0.54597516  0.40123214  1
  O2-  O275  1  0.91387034  0.54826088  0.73040747  1
  O2-  O276  1  0.29547043  0.16658113  0.07439240  1
  O2-  O277  1  0.28895661  0.15886748  0.39818154  1
  O2-  O278  1  0.28368360  0.15767177  0.72954303  1
  O2-  O279  1  0.29222036  0.66330607  0.06526805  1
  O2-  O280  1  0.28679851  0.66653428  0.40358314  1
  O2-  O281  1  0.28901589  0.66523652  0.73468039  1
  O2-  O282  1  0.79346096  0.16741812  0.07110775  1
  O2-  O283  1  0.81508485  0.16850208  0.39358462  1
  O2-  O284  1  0.80140939  0.17523397  0.73197549  1
  O2-  O285  1  0.79625459  0.66777647  0.05834862  1
  O2-  O286  1  0.79103412  0.66894190  0.40190031  1
  O2-  O287  1  0.79157943  0.66313225  0.72977110  1
