# generated using pymatgen
data_Ca2Al2SiO7
_symmetry_space_group_name_H-M   'P 1'
_cell_length_a   15.45536704
_cell_length_b   15.45598497
_cell_length_c   15.28253130
_cell_angle_alpha   90.00507296
_cell_angle_beta   90.00327592
_cell_angle_gamma   89.99934679
_symmetry_Int_Tables_number   1
_chemical_formula_structural   Ca2Al2SiO7
_chemical_formula_sum   'Ca48 Al48 Si24 O168'
_cell_volume   3650.65927888
_cell_formula_units_Z   24
loop_
 _symmetry_equiv_pos_site_id
 _symmetry_equiv_pos_as_xyz
  1  'x, y, z'
loop_
 _atom_type_symbol
 _atom_type_oxidation_number
  Ca2+  2.0
  Al0+  0.0
  Si0+  0.0
  O2-  -2.0
loop_
 _atom_site_type_symbol
 _atom_site_label
 _atom_site_symmetry_multiplicity
 _atom_site_fract_x
 _atom_site_fract_y
 _atom_site_fract_z
 _atom_site_occupancy
  Ca2+  Ca0  1  0.17636597  0.07538918  0.17110324  1
  Ca2+  Ca1  1  0.17795382  0.08190543  0.51235435  1
  Ca2+  Ca2  1  0.16137673  0.07217482  0.83344951  1
  Ca2+  Ca3  1  0.16488303  0.57766122  0.16711267  1
  Ca2+  Ca4  1  0.16984805  0.58098705  0.51329154  1
  Ca2+  Ca5  1  0.16397501  0.57736787  0.83312530  1
  Ca2+  Ca6  1  0.66869792  0.08072834  0.16775509  1
  Ca2+  Ca7  1  0.66938322  0.08519365  0.50743682  1
  Ca2+  Ca8  1  0.67899979  0.08352232  0.83663290  1
  Ca2+  Ca9  1  0.65672014  0.57255904  0.16801488  1
  Ca2+  Ca10  1  0.66372148  0.57646049  0.50546731  1
  Ca2+  Ca11  1  0.66379758  0.58223370  0.83931396  1
  Ca2+  Ca12  1  0.07890209  0.33312944  0.16154065  1
  Ca2+  Ca13  1  0.07670217  0.33366765  0.50049333  1
  Ca2+  Ca14  1  0.07978398  0.32905221  0.82089835  1
  Ca2+  Ca15  1  0.07989656  0.83730165  0.16304331  1
  Ca2+  Ca16  1  0.07614128  0.84060950  0.50295865  1
  Ca2+  Ca17  1  0.08107471  0.83620302  0.82257120  1
  Ca2+  Ca18  1  0.59103305  0.32979221  0.16517478  1
  Ca2+  Ca19  1  0.58541404  0.31973105  0.49560981  1
  Ca2+  Ca20  1  0.58397132  0.32949959  0.82681286  1
  Ca2+  Ca21  1  0.57173052  0.83364058  0.15490001  1
  Ca2+  Ca22  1  0.57699259  0.82652407  0.49507297  1
  Ca2+  Ca23  1  0.58360367  0.82736020  0.83081978  1
  Ca2+  Ca24  1  0.32739444  0.41629310  0.16882296  1
  Ca2+  Ca25  1  0.32539993  0.42510411  0.51319371  1
  Ca2+  Ca26  1  0.32111845  0.41990528  0.83295269  1
  Ca2+  Ca27  1  0.33358353  0.91296768  0.17216999  1
  Ca2+  Ca28  1  0.33252127  0.92414848  0.50692313  1
  Ca2+  Ca29  1  0.32507008  0.91682291  0.83459458  1
  Ca2+  Ca30  1  0.82292220  0.41626919  0.17313384  1
  Ca2+  Ca31  1  0.83115077  0.40621630  0.50167263  1
  Ca2+  Ca32  1  0.82940535  0.41672922  0.83793581  1
  Ca2+  Ca33  1  0.82831152  0.91909661  0.16793738  1
  Ca2+  Ca34  1  0.83714285  0.92027735  0.50926752  1
  Ca2+  Ca35  1  0.83431050  0.92828279  0.83872490  1
  Ca2+  Ca36  1  0.42309189  0.16047957  0.16782989  1
  Ca2+  Ca37  1  0.42572798  0.15458308  0.49630541  1
  Ca2+  Ca38  1  0.42291473  0.16531140  0.82500349  1
  Ca2+  Ca39  1  0.42051210  0.67871406  0.15682729  1
  Ca2+  Ca40  1  0.41602247  0.66908318  0.49915542  1
  Ca2+  Ca41  1  0.42460705  0.66770455  0.82877819  1
  Ca2+  Ca42  1  0.91252516  0.17123919  0.16509041  1
  Ca2+  Ca43  1  0.92076093  0.17295273  0.50353915  1
  Ca2+  Ca44  1  0.91820385  0.16897641  0.82179312  1
  Ca2+  Ca45  1  0.91445664  0.67369793  0.16628513  1
  Ca2+  Ca46  1  0.92329687  0.67862647  0.49988527  1
  Ca2+  Ca47  1  0.92379237  0.67644304  0.82114310  1
  Al0+  Al48  1  0.00312538  0.00299828  0.01080968  1
  Al0+  Al49  1  -0.00013605  -0.00000379  0.32781084  1
  Al0+  Al50  1  -0.00038344  0.00434979  0.66561842  1
  Al0+  Al51  1  -0.00148155  0.50008887  0.00551724  1
  Al0+  Al52  1  -0.00187629  0.50019039  0.32862714  1
  Al0+  Al53  1  -0.00368570  0.50213708  0.66215625  1
  Al0+  Al54  1  0.50097536  0.00150995  -0.00458101  1
  Al0+  Al55  1  0.50146573  -0.00167969  0.32772583  1
  Al0+  Al56  1  0.50103037  -0.00145970  0.66763671  1
  Al0+  Al57  1  0.49896084  0.49932037  0.00114207  1
  Al0+  Al58  1  0.49900791  0.49646246  0.33996496  1
  Al0+  Al59  1  0.49947733  0.49932975  0.66626532  1
  Al0+  Al60  1  0.24948944  0.24996862  0.00477803  1
  Al0+  Al61  1  0.25105027  0.24854334  0.33823605  1
  Al0+  Al62  1  0.25135525  0.25154763  0.67097293  1
  Al0+  Al63  1  0.24958583  0.75005479  0.00039963  1
  Al0+  Al64  1  0.24861965  0.74851115  0.32946481  1
  Al0+  Al65  1  0.25152437  0.74992366  0.67129352  1
  Al0+  Al66  1  0.75123473  0.25240906  0.00719253  1
  Al0+  Al67  1  0.75037158  0.24891798  0.32898221  1
  Al0+  Al68  1  0.74808010  0.24846224  0.66396424  1
  Al0+  Al69  1  0.75116120  0.75198410  -0.00041917  1
  Al0+  Al70  1  0.75114512  0.74771657  0.32839190  1
  Al0+  Al71  1  0.74791343  0.74757548  0.65719740  1
  Al0+  Al72  1  0.92890159  0.82389938  0.65443451  1
  Al0+  Al73  1  0.92852814  0.82251428  0.31673325  1
  Al0+  Al74  1  0.57148786  0.67808663  0.98518920  1
  Al0+  Al75  1  0.92731308  0.32220572  0.65369644  1
  Al0+  Al76  1  0.17895087  0.93129469  0.67994637  1
  Al0+  Al77  1  0.43031161  0.81851936  0.32066531  1
  Al0+  Al78  1  0.93076122  0.31977626  0.31698788  1
  Al0+  Al79  1  0.32291501  0.57245394  0.68340467  1
  Al0+  Al80  1  0.67843172  0.43131565  0.01245456  1
  Al0+  Al81  1  0.18108864  0.92780434  0.01568366  1
  Al0+  Al82  1  0.81871846  0.07066470  0.67711685  1
  Al0+  Al83  1  0.67883330  0.92854346  0.01399483  1
  Al0+  Al84  1  0.32241075  0.06816840  0.34690684  1
  Al0+  Al85  1  0.07425388  0.17954917  0.65294153  1
  Al0+  Al86  1  0.57033150  0.67670618  0.65087980  1
  Al0+  Al87  1  0.32524832  0.07235706  0.68308128  1
  Al0+  Al88  1  0.57013401  0.17963503  0.31780551  1
  Al0+  Al89  1  0.17467583  0.43033061  0.68049581  1
  Al0+  Al90  1  0.42685826  0.82367122  0.98090299  1
  Al0+  Al91  1  0.82206991  0.07225946  0.01728922  1
  Al0+  Al92  1  0.07329509  0.67956736  0.65359224  1
  Al0+  Al93  1  0.68016815  0.42822658  0.35013593  1
  Al0+  Al94  1  0.56911794  0.17841848  0.65502307  1
  Al0+  Al95  1  0.17769988  0.42845013  0.01502096  1
  Si0+  Si96  1  0.82281728  0.57280761  0.35225545  1
  Si0+  Si97  1  0.92914897  0.32098979  0.98597725  1
  Si0+  Si98  1  0.06911388  0.67744669  0.98619967  1
  Si0+  Si99  1  0.67968873  0.92736861  0.34713379  1
  Si0+  Si100  1  0.17707277  0.92660279  0.35025803  1
  Si0+  Si101  1  0.93154930  0.82395103  0.98612143  1
  Si0+  Si102  1  0.82095565  0.06957693  0.34929666  1
  Si0+  Si103  1  0.31894894  0.57111433  0.34705940  1
  Si0+  Si104  1  0.07179016  0.18059313  0.98669103  1
  Si0+  Si105  1  0.32317735  0.07275437  0.01677152  1
  Si0+  Si106  1  0.17696040  0.42903383  0.34812469  1
  Si0+  Si107  1  0.57283069  0.18172124  0.98458837  1
  Si0+  Si108  1  0.42850859  0.82145224  0.65000936  1
  Si0+  Si109  1  0.82304262  0.57361147  0.01661893  1
  Si0+  Si110  1  0.68058682  0.42881339  0.68061560  1
  Si0+  Si111  1  0.42672415  0.32066346  0.98565247  1
  Si0+  Si112  1  0.81910748  0.57331794  0.67994789  1
  Si0+  Si113  1  0.32110027  0.57037337  0.01796457  1
  Si0+  Si114  1  0.07151335  0.67801380  0.31412452  1
  Si0+  Si115  1  0.07528930  0.17849898  0.31490087  1
  Si0+  Si116  1  0.42806875  0.32217963  0.65084471  1
  Si0+  Si117  1  0.42639068  0.32303168  0.31746102  1
  Si0+  Si118  1  0.57139263  0.67401583  0.31694935  1
  Si0+  Si119  1  0.67824657  0.92390942  0.68045942  1
  O2-  O120  1  0.26076048  -0.00188540  0.06103486  1
  O2-  O121  1  0.24603835  -0.00484582  0.39306725  1
  O2-  O122  1  0.25002565  0.00345085  0.73219941  1
  O2-  O123  1  0.25166999  0.50282743  0.06378527  1
  O2-  O124  1  0.24859026  0.49948096  0.38919706  1
  O2-  O125  1  0.24621506  0.50327630  0.73065965  1
  O2-  O126  1  0.74993465  -0.00000982  0.06700923  1
  O2-  O127  1  0.75350397  -0.00527584  0.39087667  1
  O2-  O128  1  0.74854134  -0.00837363  0.72342937  1
  O2-  O129  1  0.74900213  0.50979537  0.05958342  1
  O2-  O130  1  0.75366903  0.50438596  0.39674261  1
  O2-  O131  1  0.74971524  0.50110345  0.72323056  1
  O2-  O132  1  0.00706678  0.24723427  0.26920419  1
  O2-  O133  1  0.00425941  0.25473136  0.60448181  1
  O2-  O134  1  0.00029558  0.25096910  0.94406018  1
  O2-  O135  1  0.00440569  0.74857093  0.27006576  1
  O2-  O136  1  0.00447185  0.75504129  0.60427055  1
  O2-  O137  1  0.00159612  0.75186263  0.94421688  1
  O2-  O138  1  0.49505847  0.25502212  0.27170663  1
  O2-  O139  1  0.49026367  0.24769281  0.60661519  1
  O2-  O140  1  0.49943578  0.25102111  0.94346029  1
  O2-  O141  1  0.50433463  0.74363345  0.27283815  1
  O2-  O142  1  0.49562087  0.75127126  0.60495969  1
  O2-  O143  1  0.50133216  0.75165397  0.93444508  1
  O2-  O144  1  0.07271324  0.18330476  0.09207730  1
  O2-  O145  1  0.07598057  0.17923878  0.41989368  1
  O2-  O146  1  0.06929580  0.17849488  0.76717180  1
  O2-  O147  1  0.06600012  0.67601534  0.09165764  1
  O2-  O148  1  0.07257371  0.67618511  0.41902578  1
  O2-  O149  1  0.06747132  0.67776876  0.76763316  1
  O2-  O150  1  0.57205858  0.18260849  0.08991115  1
  O2-  O151  1  0.57030284  0.17914710  0.43079625  1
  O2-  O152  1  0.57280971  0.18400908  0.76836613  1
  O2-  O153  1  0.56632245  0.67537639  0.09907251  1
  O2-  O154  1  0.56981124  0.67478073  0.42259609  1
  O2-  O155  1  0.57230667  0.67657545  0.76358741  1
  O2-  O156  1  0.17838174  0.42994477  0.24255579  1
  O2-  O157  1  0.17733186  0.43215934  0.56621203  1
  O2-  O158  1  0.17644135  0.42899064  0.90289529  1
  O2-  O159  1  0.17862899  0.92738780  0.24425042  1
  O2-  O160  1  0.18087552  0.93184994  0.56603242  1
  O2-  O161  1  0.17473919  0.93051038  0.90347939  1
  O2-  O162  1  0.68056600  0.43029126  0.23679370  1
  O2-  O163  1  0.68187257  0.42833377  0.57550869  1
  O2-  O164  1  0.68216912  0.42767432  0.89926820  1
  O2-  O165  1  0.67973034  0.92994633  0.24218744  1
  O2-  O166  1  0.67760814  0.92515498  0.57423430  1
  O2-  O167  1  0.68331823  0.92943177  0.90044721  1
  O2-  O168  1  0.42539466  0.31947108  0.09099624  1
  O2-  O169  1  0.42674617  0.32499866  0.42251971  1
  O2-  O170  1  0.43259650  0.32489086  0.75683864  1
  O2-  O171  1  0.42693724  0.82040321  0.09524601  1
  O2-  O172  1  0.43134232  0.81713886  0.43360322  1
  O2-  O173  1  0.43115511  0.82221191  0.75521210  1
  O2-  O174  1  0.93042188  0.32049343  0.09125666  1
  O2-  O175  1  0.93178326  0.31815928  0.42956465  1
  O2-  O176  1  0.92392763  0.32019951  0.76778738  1
  O2-  O177  1  0.93243861  0.82126852  0.09153115  1
  O2-  O178  1  0.92930744  0.82304330  0.42931072  1
  O2-  O179  1  0.92747163  0.82162801  0.76850479  1
  O2-  O180  1  0.32123199  0.06739701  0.23345163  1
  O2-  O181  1  0.32729377  0.06674244  0.56922871  1
  O2-  O182  1  0.31968385  0.07704530  0.91192096  1
  O2-  O183  1  0.31805502  0.57027771  0.24185118  1
  O2-  O184  1  0.32357888  0.56909442  0.56878729  1
  O2-  O185  1  0.32127187  0.56785725  0.91308969  1
  O2-  O186  1  0.81887373  0.06946442  0.24410244  1
  O2-  O187  1  0.81635018  0.07173570  0.56363640  1
  O2-  O188  1  0.82231616  0.07397937  0.90367336  1
  O2-  O189  1  0.82257719  0.57236471  0.24630428  1
  O2-  O190  1  0.81710149  0.57513889  0.57509026  1
  O2-  O191  1  0.82782655  0.57005320  0.91115420  1
  O2-  O192  1  0.04872035  0.08526475  0.26810259  1
  O2-  O193  1  0.04225821  0.08451512  0.59621411  1
  O2-  O194  1  0.04341793  0.08765258  0.94259432  1
  O2-  O195  1  0.04321784  0.58565076  0.26575073  1
  O2-  O196  1  0.03979746  0.58453558  0.59700479  1
  O2-  O197  1  0.03765812  0.58618839  0.93961887  1
  O2-  O198  1  0.53875396  0.08425168  0.26160974  1
  O2-  O199  1  0.54437145  0.08007413  0.60085630  1
  O2-  O200  1  0.54903679  0.08981863  0.93651131  1
  O2-  O201  1  0.54333288  0.57956081  0.27391853  1
  O2-  O202  1  0.53943866  0.57998218  0.59662129  1
  O2-  O203  1  0.54188555  0.57876212  0.93318797  1
  O2-  O204  1  0.16927596  0.20471312  0.26893798  1
  O2-  O205  1  0.17421626  0.20513848  0.60157381  1
  O2-  O206  1  0.16357611  0.20870487  0.94018309  1
  O2-  O207  1  0.16475273  0.70172310  0.26557744  1
  O2-  O208  1  0.17395422  0.70184032  0.60296876  1
  O2-  O209  1  0.16298795  0.69964238  0.94216782  1
  O2-  O210  1  0.66528483  0.21190386  0.26219434  1
  O2-  O211  1  0.66197330  0.21447518  0.59738007  1
  O2-  O212  1  0.66458643  0.21413401  0.93992870  1
  O2-  O213  1  0.66622491  0.69512848  0.27215019  1
  O2-  O214  1  0.66479990  0.70584926  0.59176207  1
  O2-  O215  1  0.67250869  0.70283277  0.93463039  1
  O2-  O216  1  0.08215329  0.46085810  0.07148602  1
  O2-  O217  1  0.08450498  0.45801065  0.39242409  1
  O2-  O218  1  0.07487902  0.45761570  0.73165251  1
  O2-  O219  1  0.08856742  0.96399451  0.07495812  1
  O2-  O220  1  0.08225263  0.95315139  0.39269653  1
  O2-  O221  1  0.08069222  0.96087410  0.73324454  1
  O2-  O222  1  0.58070978  0.45661293  0.06821241  1
  O2-  O223  1  0.58229037  0.45452557  0.40459966  1
  O2-  O224  1  0.58830476  0.45515407  0.72709629  1
  O2-  O225  1  0.57954348  0.95859532  0.06520075  1
  O2-  O226  1  0.58908964  0.95810143  0.39443190  1
  O2-  O227  1  0.58603145  0.95014075  0.72755922  1
  O2-  O228  1  0.21039351  0.33335631  0.07177166  1
  O2-  O229  1  0.20294582  0.33692533  0.39486385  1
  O2-  O230  1  0.20449109  0.33311297  0.73507498  1
  O2-  O231  1  0.20547705  0.82919074  0.06989883  1
  O2-  O232  1  0.20061209  0.83123073  0.39284663  1
  O2-  O233  1  0.20500364  0.83270712  0.73344922  1
  O2-  O234  1  0.71341668  0.33829599  0.07074590  1
  O2-  O235  1  0.71430916  0.33088561  0.40068029  1
  O2-  O236  1  0.70987288  0.33805875  0.72875503  1
  O2-  O237  1  0.70602039  0.82996264  0.06836163  1
  O2-  O238  1  0.70340066  0.83263002  0.39095562  1
  O2-  O239  1  0.70220565  0.82917602  0.72428749  1
  O2-  O240  1  0.45156056  0.41697014  0.27089647  1
  O2-  O241  1  0.45960294  0.41252029  0.60172102  1
  O2-  O242  1  0.45367431  0.41236761  0.93873880  1
  O2-  O243  1  0.46264626  0.91278436  0.26354364  1
  O2-  O244  1  0.45699218  0.91382249  0.60277203  1
  O2-  O245  1  0.45310396  0.92318576  0.92963469  1
  O2-  O246  1  0.95807033  0.41746010  0.26234425  1
  O2-  O247  1  0.94791925  0.42128989  0.59895980  1
  O2-  O248  1  0.95508036  0.41456053  0.94136840  1
  O2-  O249  1  0.95788604  0.91876164  0.26058781  1
  O2-  O250  1  0.95561563  0.92170039  0.60020795  1
  O2-  O251  1  0.96191853  0.91707482  0.94367300  1
  O2-  O252  1  0.33223115  0.29728035  0.27168364  1
  O2-  O253  1  0.33203952  0.30548268  0.60748844  1
  O2-  O254  1  0.33512212  0.29133530  0.93854668  1
  O2-  O255  1  0.33306578  0.78869231  0.26613884  1
  O2-  O256  1  0.33460709  0.79729625  0.60471193  1
  O2-  O257  1  0.32764089  0.79309897  0.93103209  1
  O2-  O258  1  0.83545690  0.28607576  0.26219605  1
  O2-  O259  1  0.83222932  0.28621784  0.59818183  1
  O2-  O260  1  0.83672631  0.29322056  0.94023616  1
  O2-  O261  1  0.83283462  0.78881872  0.26092374  1
  O2-  O262  1  0.83323551  0.79158149  0.59787730  1
  O2-  O263  1  0.83918292  0.79918901  0.93943322  1
  O2-  O264  1  0.41967443  0.05349147  0.05905844  1
  O2-  O265  1  0.41956593  0.03487422  0.39819507  1
  O2-  O266  1  0.42285768  0.04146263  0.73709933  1
  O2-  O267  1  0.41319998  0.54247500  0.06597625  1
  O2-  O268  1  0.41050005  0.54483150  0.39569395  1
  O2-  O269  1  0.41969091  0.53764365  0.73658125  1
  O2-  O270  1  0.91924341  0.04546673  0.07345422  1
  O2-  O271  1  0.91537831  0.04482852  0.39278214  1
  O2-  O272  1  0.91562816  0.04548527  0.73208571  1
  O2-  O273  1  0.91251082  0.54253309  0.06862785  1
  O2-  O274  1  0.91727513  0.54647936  0.39575458  1
  O2-  O275  1  0.91067400  0.54765164  0.72831799  1
  O2-  O276  1  0.29191703  0.16320788  0.06714769  1
  O2-  O277  1  0.29612327  0.16624404  0.40088228  1
  O2-  O278  1  0.30503431  0.17346653  0.73295134  1
  O2-  O279  1  0.29478239  0.66391697  0.06387411  1
  O2-  O280  1  0.29004732  0.66254937  0.39462314  1
  O2-  O281  1  0.30061902  0.67106300  0.73688058  1
  O2-  O282  1  0.79117180  0.16934637  0.07194475  1
  O2-  O283  1  0.78925034  0.16058240  0.39445322  1
  O2-  O284  1  0.78212970  0.16475749  0.73336667  1
  O2-  O285  1  0.80339986  0.66906227  0.06089941  1
  O2-  O286  1  0.79810217  0.66744571  0.39669071  1
  O2-  O287  1  0.78903093  0.66423014  0.72813341  1
