# generated using pymatgen
data_Ca2Al2SiO7
_symmetry_space_group_name_H-M   'P 1'
_cell_length_a   15.46405779
_cell_length_b   15.46413935
_cell_length_c   15.28922940
_cell_angle_alpha   89.99220110
_cell_angle_beta   89.99228633
_cell_angle_gamma   89.96685830
_symmetry_Int_Tables_number   1
_chemical_formula_structural   Ca2Al2SiO7
_chemical_formula_sum   'Ca48 Al48 Si24 O168'
_cell_volume   3656.24033052
_cell_formula_units_Z   24
loop_
 _symmetry_equiv_pos_site_id
 _symmetry_equiv_pos_as_xyz
  1  'x, y, z'
loop_
 _atom_type_symbol
 _atom_type_oxidation_number
  Ca2+  2.0
  Al0+  0.0
  Si0+  0.0
  O2-  -2.0
loop_
 _atom_site_type_symbol
 _atom_site_label
 _atom_site_symmetry_multiplicity
 _atom_site_fract_x
 _atom_site_fract_y
 _atom_site_fract_z
 _atom_site_occupancy
  Ca2+  Ca0  1  0.17058625  0.07998500  0.17227823  1
  Ca2+  Ca1  1  0.16716751  0.07454182  0.50986604  1
  Ca2+  Ca2  1  0.16295897  0.07974212  0.83230346  1
  Ca2+  Ca3  1  0.17281693  0.57717072  0.18100423  1
  Ca2+  Ca4  1  0.17842185  0.58483240  0.50147847  1
  Ca2+  Ca5  1  0.17713612  0.58140731  0.83319480  1
  Ca2+  Ca6  1  0.66841431  0.09017402  0.17001043  1
  Ca2+  Ca7  1  0.66012102  0.08424573  0.50401000  1
  Ca2+  Ca8  1  0.66938777  0.08957989  0.84185200  1
  Ca2+  Ca9  1  0.66385921  0.58282920  0.17116816  1
  Ca2+  Ca10  1  0.67510612  0.59602329  0.50439573  1
  Ca2+  Ca11  1  0.66517586  0.58140721  0.83687146  1
  Ca2+  Ca12  1  0.08359177  0.33743526  0.16627611  1
  Ca2+  Ca13  1  0.08126707  0.33808688  0.49800858  1
  Ca2+  Ca14  1  0.07434986  0.32597624  0.82180743  1
  Ca2+  Ca15  1  0.07475748  0.82423405  0.16729629  1
  Ca2+  Ca16  1  0.07931973  0.82639424  0.49298548  1
  Ca2+  Ca17  1  0.07809827  0.83651750  0.83004888  1
  Ca2+  Ca18  1  0.57422876  0.33470816  0.15945890  1
  Ca2+  Ca19  1  0.57361988  0.32637720  0.49764800  1
  Ca2+  Ca20  1  0.58126561  0.32859590  0.83064972  1
  Ca2+  Ca21  1  0.58047398  0.82029455  0.16788979  1
  Ca2+  Ca22  1  0.57200108  0.82329131  0.49655538  1
  Ca2+  Ca23  1  0.58024374  0.82190820  0.82624576  1
  Ca2+  Ca24  1  0.33155036  0.41715965  0.17701249  1
  Ca2+  Ca25  1  0.33967183  0.42390673  0.50154135  1
  Ca2+  Ca26  1  0.34679627  0.41864675  0.83270270  1
  Ca2+  Ca27  1  0.33793099  0.91768309  0.17474779  1
  Ca2+  Ca28  1  0.33130519  0.91010370  0.51032482  1
  Ca2+  Ca29  1  0.32998532  0.91250018  0.83135895  1
  Ca2+  Ca30  1  0.82040150  0.42130058  0.17412092  1
  Ca2+  Ca31  1  0.83252785  0.42882178  0.50737615  1
  Ca2+  Ca32  1  0.82684568  0.41930476  0.83651162  1
  Ca2+  Ca33  1  0.83646209  0.91685967  0.16906041  1
  Ca2+  Ca34  1  0.83149067  0.91447168  0.50329875  1
  Ca2+  Ca35  1  0.83099877  0.92422962  0.84288598  1
  Ca2+  Ca36  1  0.42784567  0.17804460  0.16242644  1
  Ca2+  Ca37  1  0.42393226  0.17429592  0.49361155  1
  Ca2+  Ca38  1  0.42715671  0.17844183  0.82447779  1
  Ca2+  Ca39  1  0.42433508  0.66002210  0.16667496  1
  Ca2+  Ca40  1  0.41794886  0.66948213  0.49361296  1
  Ca2+  Ca41  1  0.42904420  0.66525348  0.82379904  1
  Ca2+  Ca42  1  0.91698802  0.16563089  0.16183500  1
  Ca2+  Ca43  1  0.92177951  0.17394053  0.50390876  1
  Ca2+  Ca44  1  0.91719226  0.17158557  0.82558943  1
  Ca2+  Ca45  1  0.91327801  0.67244827  0.16890126  1
  Ca2+  Ca46  1  0.92041743  0.66550931  0.48795443  1
  Ca2+  Ca47  1  0.91292167  0.67217551  0.82826275  1
  Al0+  Al48  1  -0.00053265  -0.00115508  0.00240779  1
  Al0+  Al49  1  -0.00028530  0.00172179  0.33192739  1
  Al0+  Al50  1  -0.00066542  0.00045644  0.66804758  1
  Al0+  Al51  1  0.00235579  0.50156746  -0.00056898  1
  Al0+  Al52  1  -0.00135728  0.49874473  0.33446422  1
  Al0+  Al53  1  0.00006860  0.50214499  0.67014345  1
  Al0+  Al54  1  0.49948732  -0.00073791  -0.00109037  1
  Al0+  Al55  1  0.50231074  0.00053975  0.32677130  1
  Al0+  Al56  1  0.49872885  -0.00227736  0.66408152  1
  Al0+  Al57  1  0.50111019  0.50135860  -0.00269530  1
  Al0+  Al58  1  0.49938039  0.49793102  0.33211356  1
  Al0+  Al59  1  0.50477405  0.49853401  0.66332561  1
  Al0+  Al60  1  0.24946597  0.24939373  -0.00371953  1
  Al0+  Al61  1  0.24927607  0.24726776  0.33459361  1
  Al0+  Al62  1  0.24979928  0.24819651  0.66126894  1
  Al0+  Al63  1  0.24821035  0.74916777  0.00202912  1
  Al0+  Al64  1  0.24702231  0.74997813  0.32904194  1
  Al0+  Al65  1  0.24778138  0.74911768  0.67673054  1
  Al0+  Al66  1  0.75076924  0.25194648  0.00749075  1
  Al0+  Al67  1  0.75333555  0.24936184  0.33480663  1
  Al0+  Al68  1  0.75190833  0.25119442  0.65861547  1
  Al0+  Al69  1  0.75101264  0.75257141  -0.00748267  1
  Al0+  Al70  1  0.74801634  0.75345367  0.33042028  1
  Al0+  Al71  1  0.75037446  0.75290360  0.67005348  1
  Al0+  Al72  1  0.57008157  0.68052839  0.98514727  1
  Al0+  Al73  1  0.42633603  0.82088707  0.31915959  1
  Al0+  Al74  1  0.57229615  0.17721361  0.65223014  1
  Al0+  Al75  1  0.68002752  0.43177171  0.01354697  1
  Al0+  Al76  1  0.42608656  0.81762240  0.65443347  1
  Al0+  Al77  1  0.42856237  0.32245237  0.64968643  1
  Al0+  Al78  1  0.42762221  0.32116865  0.98370872  1
  Al0+  Al79  1  0.81656117  0.57205292  0.34484270  1
  Al0+  Al80  1  0.32302663  0.56866037  0.68125606  1
  Al0+  Al81  1  0.92991005  0.32407599  0.65151375  1
  Al0+  Al82  1  0.42778115  0.32001930  0.31775167  1
  Al0+  Al83  1  0.93138133  0.82033762  0.98451970  1
  Al0+  Al84  1  0.57357311  0.17922324  0.31670898  1
  Al0+  Al85  1  0.92792125  0.82290079  0.31963361  1
  Al0+  Al86  1  0.07052814  0.17734677  0.65190785  1
  Al0+  Al87  1  0.57338129  0.17929282  0.98561358  1
  Al0+  Al88  1  0.06996563  0.67608180  0.31930378  1
  Al0+  Al89  1  0.17794072  0.92892080  0.68146224  1
  Al0+  Al90  1  0.17797917  0.42575972  0.34901544  1
  Al0+  Al91  1  0.81990697  0.07083954  0.01415135  1
  Al0+  Al92  1  0.82240054  0.57367036  0.68149629  1
  Al0+  Al93  1  0.57067546  0.67801452  0.31885145  1
  Al0+  Al94  1  0.32166609  0.57131219  0.34787975  1
  Al0+  Al95  1  0.57368288  0.67885691  0.65147153  1
  Si0+  Si96  1  0.32049831  0.07146492  0.01475631  1
  Si0+  Si97  1  0.42456867  0.82259185  0.98311012  1
  Si0+  Si98  1  0.07023542  0.17829138  0.31745655  1
  Si0+  Si99  1  0.67926921  0.93141517  0.34890466  1
  Si0+  Si100  1  0.07018706  0.17856140  0.98620559  1
  Si0+  Si101  1  0.32283508  0.07212630  0.68378229  1
  Si0+  Si102  1  0.17870404  0.92928995  0.01796426  1
  Si0+  Si103  1  0.67726347  0.92986991  0.68230060  1
  Si0+  Si104  1  0.82384294  0.07212432  0.35206676  1
  Si0+  Si105  1  0.81897801  0.07070162  0.68034457  1
  Si0+  Si106  1  0.07027071  0.67962408  0.65413091  1
  Si0+  Si107  1  0.93025715  0.32141213  0.31694907  1
  Si0+  Si108  1  0.32027161  0.56943298  0.01424547  1
  Si0+  Si109  1  0.17822356  0.42650364  0.68407860  1
  Si0+  Si110  1  0.17778876  0.42742038  0.01318463  1
  Si0+  Si111  1  0.82394663  0.57464523  0.01619674  1
  Si0+  Si112  1  0.92956605  0.32251202  0.98795536  1
  Si0+  Si113  1  0.32214222  0.06825418  0.34754713  1
  Si0+  Si114  1  0.07365151  0.67727536  0.98056658  1
  Si0+  Si115  1  0.67694148  0.92691970  0.01738147  1
  Si0+  Si116  1  0.17801765  0.93016548  0.34725752  1
  Si0+  Si117  1  0.68170335  0.42668709  0.68271432  1
  Si0+  Si118  1  0.92961260  0.82184844  0.65303371  1
  Si0+  Si119  1  0.67760898  0.42577426  0.35195206  1
  O2-  O120  1  0.25327081  -0.00307267  0.05934412  1
  O2-  O121  1  0.25498993  -0.00632336  0.39006357  1
  O2-  O122  1  0.25286924  0.00394602  0.72849876  1
  O2-  O123  1  0.24985500  0.49701399  0.05489306  1
  O2-  O124  1  0.25047916  0.49768420  0.39778319  1
  O2-  O125  1  0.25189980  0.48943930  0.72941693  1
  O2-  O126  1  0.74228804  -0.00065517  0.06173534  1
  O2-  O127  1  0.75048735  0.00287275  0.39216729  1
  O2-  O128  1  0.74371179  0.00567679  0.72391745  1
  O2-  O129  1  0.75496509  0.50690047  0.06030252  1
  O2-  O130  1  0.74066462  0.50046297  0.39493358  1
  O2-  O131  1  0.74813596  0.49828510  0.72700710  1
  O2-  O132  1  0.00242553  0.25149547  0.27400144  1
  O2-  O133  1  0.00582696  0.25547579  0.60154815  1
  O2-  O134  1  -0.00025353  0.25056352  0.94556274  1
  O2-  O135  1  -0.00373191  0.74721782  0.27021481  1
  O2-  O136  1  -0.00324326  0.74784078  0.61145643  1
  O2-  O137  1  0.00312037  0.74383678  0.93608741  1
  O2-  O138  1  0.50478823  0.25384315  0.26730128  1
  O2-  O139  1  0.49731536  0.24575716  0.60281110  1
  O2-  O140  1  0.50018026  0.24895196  0.93541376  1
  O2-  O141  1  0.49314689  0.74461203  0.26865519  1
  O2-  O142  1  0.49507144  0.74426899  0.60340058  1
  O2-  O143  1  0.49506503  0.75597577  0.94004360  1
  O2-  O144  1  0.07124934  0.17852522  0.09159473  1
  O2-  O145  1  0.06711564  0.17366087  0.42173143  1
  O2-  O146  1  0.06461160  0.17589878  0.76624435  1
  O2-  O147  1  0.07567681  0.67764407  0.08563585  1
  O2-  O148  1  0.07044902  0.67980773  0.43329581  1
  O2-  O149  1  0.06929808  0.68137199  0.75959589  1
  O2-  O150  1  0.57182884  0.18172522  0.09864444  1
  O2-  O151  1  0.57015119  0.17750044  0.43001957  1
  O2-  O152  1  0.57488068  0.17891799  0.76579752  1
  O2-  O153  1  0.56858144  0.68018905  0.09799536  1
  O2-  O154  1  0.57447427  0.68437081  0.43160376  1
  O2-  O155  1  0.57379513  0.68214390  0.76538743  1
  O2-  O156  1  0.17879246  0.42606414  0.23433801  1
  O2-  O157  1  0.17431768  0.43162461  0.57924907  1
  O2-  O158  1  0.17308879  0.42801232  0.90859129  1
  O2-  O159  1  0.17548158  0.93563051  0.24186161  1
  O2-  O160  1  0.17558285  0.92936230  0.56831595  1
  O2-  O161  1  0.17669128  0.93102769  0.91300957  1
  O2-  O162  1  0.68185628  0.42351595  0.24605337  1
  O2-  O163  1  0.68498042  0.42393836  0.57745976  1
  O2-  O164  1  0.68327608  0.43064452  0.90048440  1
  O2-  O165  1  0.68063163  0.93162205  0.24382837  1
  O2-  O166  1  0.68082645  0.92772536  0.57723227  1
  O2-  O167  1  0.68020019  0.92701256  0.91158233  1
  O2-  O168  1  0.42433371  0.31952207  0.09683029  1
  O2-  O169  1  0.42683712  0.31601746  0.43075389  1
  O2-  O170  1  0.43218840  0.32063048  0.76342689  1
  O2-  O171  1  0.42245730  0.82160146  0.08848407  1
  O2-  O172  1  0.42774208  0.82316057  0.43233621  1
  O2-  O173  1  0.42913441  0.81788845  0.76837503  1
  O2-  O174  1  0.93268508  0.32265550  0.09313566  1
  O2-  O175  1  0.92980090  0.31988134  0.42158564  1
  O2-  O176  1  0.92895045  0.32022758  0.76603855  1
  O2-  O177  1  0.93392966  0.82103048  0.09715074  1
  O2-  O178  1  0.93121061  0.82509121  0.43355596  1
  O2-  O179  1  0.93151370  0.82350860  0.75822590  1
  O2-  O180  1  0.31767302  0.06844317  0.24187533  1
  O2-  O181  1  0.32242698  0.06912900  0.57815648  1
  O2-  O182  1  0.31687646  0.07172587  0.91007794  1
  O2-  O183  1  0.31911274  0.57043831  0.23353007  1
  O2-  O184  1  0.31875786  0.57298848  0.56906152  1
  O2-  O185  1  0.31843884  0.57017118  0.90909899  1
  O2-  O186  1  0.82695975  0.07198510  0.24695878  1
  O2-  O187  1  0.82186890  0.06680291  0.57528836  1
  O2-  O188  1  0.82279086  0.06994569  0.90076806  1
  O2-  O189  1  0.81660193  0.56867696  0.23142231  1
  O2-  O190  1  0.82264392  0.57542863  0.56843325  1
  O2-  O191  1  0.82531409  0.57179030  0.91060205  1
  O2-  O192  1  0.03869401  0.08906767  0.26639129  1
  O2-  O193  1  0.03403045  0.08181945  0.59768319  1
  O2-  O194  1  0.04121298  0.08702482  0.93997135  1
  O2-  O195  1  0.04227208  0.57789366  0.26551983  1
  O2-  O196  1  0.04599258  0.58750921  0.60757496  1
  O2-  O197  1  0.05131708  0.58257741  0.93481820  1
  O2-  O198  1  0.54417474  0.08248363  0.26161659  1
  O2-  O199  1  0.54648163  0.07755479  0.60090310  1
  O2-  O200  1  0.54858424  0.07821364  0.93595366  1
  O2-  O201  1  0.54884857  0.57755728  0.26775778  1
  O2-  O202  1  0.55739000  0.57785502  0.60244830  1
  O2-  O203  1  0.53847042  0.58536607  0.92995320  1
  O2-  O204  1  0.16265351  0.20185915  0.26937896  1
  O2-  O205  1  0.17116636  0.19382153  0.60104658  1
  O2-  O206  1  0.16086293  0.20498547  0.93666418  1
  O2-  O207  1  0.16510651  0.70782793  0.26212179  1
  O2-  O208  1  0.16086164  0.71154809  0.60869187  1
  O2-  O209  1  0.16613877  0.70690484  0.93391631  1
  O2-  O210  1  0.67582563  0.20225883  0.26956700  1
  O2-  O211  1  0.66963369  0.20506837  0.59744413  1
  O2-  O212  1  0.67336381  0.20909790  0.93638078  1
  O2-  O213  1  0.66562910  0.71390617  0.26309264  1
  O2-  O214  1  0.66984918  0.71727427  0.60031266  1
  O2-  O215  1  0.66655541  0.71017983  0.93072683  1
  O2-  O216  1  0.08675526  0.45631679  0.06314030  1
  O2-  O217  1  0.07845229  0.45255816  0.40001118  1
  O2-  O218  1  0.08689395  0.45759656  0.73332268  1
  O2-  O219  1  0.08932302  0.96194816  0.06683312  1
  O2-  O220  1  0.08877602  0.96549887  0.39554768  1
  O2-  O221  1  0.08215745  0.96381829  0.73732673  1
  O2-  O222  1  0.58329821  0.46359925  0.06719200  1
  O2-  O223  1  0.58142405  0.44335655  0.39367755  1
  O2-  O224  1  0.58780531  0.44951340  0.72876787  1
  O2-  O225  1  0.58080572  0.94583158  0.06136313  1
  O2-  O226  1  0.58756167  0.96064063  0.39597788  1
  O2-  O227  1  0.58377631  0.95116713  0.72924252  1
  O2-  O228  1  0.20217369  0.33394892  0.05974307  1
  O2-  O229  1  0.20108574  0.32508930  0.40029984  1
  O2-  O230  1  0.19583069  0.32895809  0.72603056  1
  O2-  O231  1  0.20251366  0.83553910  0.06378692  1
  O2-  O232  1  0.19689630  0.83571022  0.39184182  1
  O2-  O233  1  0.20618931  0.83459763  0.74174717  1
  O2-  O234  1  0.71238128  0.33771822  0.07177482  1
  O2-  O235  1  0.71166878  0.33474081  0.39872216  1
  O2-  O236  1  0.71265781  0.33405913  0.72933352  1
  O2-  O237  1  0.70935999  0.83493940  0.06300082  1
  O2-  O238  1  0.70840896  0.84105133  0.39796943  1
  O2-  O239  1  0.71150346  0.84198079  0.73364994  1
  O2-  O240  1  0.45107993  0.41952897  0.26560351  1
  O2-  O241  1  0.46140766  0.41835315  0.59602376  1
  O2-  O242  1  0.45778752  0.41927127  0.93272315  1
  O2-  O243  1  0.46067330  0.91662773  0.26347365  1
  O2-  O244  1  0.45327965  0.91588808  0.60162278  1
  O2-  O245  1  0.44627880  0.91751545  0.93830938  1
  O2-  O246  1  0.95592626  0.41209636  0.26716770  1
  O2-  O247  1  0.95643264  0.42382427  0.60103026  1
  O2-  O248  1  0.95780663  0.41393837  0.93978122  1
  O2-  O249  1  0.96104631  0.91992859  0.26571784  1
  O2-  O250  1  0.95951919  0.91216292  0.60510299  1
  O2-  O251  1  0.96576823  0.91681206  0.93137186  1
  O2-  O252  1  0.32991843  0.28598772  0.26561344  1
  O2-  O253  1  0.32807409  0.29982131  0.59995270  1
  O2-  O254  1  0.32887532  0.29278358  0.93019255  1
  O2-  O255  1  0.32566386  0.80268855  0.26702025  1
  O2-  O256  1  0.32483353  0.79294872  0.60645688  1
  O2-  O257  1  0.33035778  0.79599899  0.93844403  1
  O2-  O258  1  0.83981444  0.29003707  0.26916604  1
  O2-  O259  1  0.83603004  0.29096618  0.59407376  1
  O2-  O260  1  0.83817633  0.29441287  0.94186924  1
  O2-  O261  1  0.82979880  0.79865320  0.26556560  1
  O2-  O262  1  0.83650027  0.79843077  0.60766246  1
  O2-  O263  1  0.83491325  0.79494809  0.92818897  1
  O2-  O264  1  0.41338590  0.04663408  0.06196822  1
  O2-  O265  1  0.41602602  0.04443233  0.39164293  1
  O2-  O266  1  0.41567309  0.04437765  0.73093563  1
  O2-  O267  1  0.41236259  0.54342231  0.06054841  1
  O2-  O268  1  0.42115905  0.54529753  0.39987999  1
  O2-  O269  1  0.42207893  0.54009567  0.73279185  1
  O2-  O270  1  0.91612504  0.03721578  0.06937207  1
  O2-  O271  1  0.91475918  0.04132525  0.39993779  1
  O2-  O272  1  0.90848671  0.03831245  0.72991050  1
  O2-  O273  1  0.91882612  0.54964609  0.06072427  1
  O2-  O274  1  0.91310757  0.53935129  0.39772307  1
  O2-  O275  1  0.91903720  0.54499541  0.73780653  1
  O2-  O276  1  0.28694722  0.16151511  0.06290824  1
  O2-  O277  1  0.28952615  0.15735876  0.39618662  1
  O2-  O278  1  0.29703864  0.16604300  0.72963611  1
  O2-  O279  1  0.29109747  0.66121553  0.06144672  1
  O2-  O280  1  0.28961347  0.67066638  0.39835926  1
  O2-  O281  1  0.28639092  0.66168946  0.73990569  1
  O2-  O282  1  0.79536023  0.16766148  0.07106195  1
  O2-  O283  1  0.79953534  0.16472090  0.39967040  1
  O2-  O284  1  0.79656292  0.16518470  0.72495907  1
  O2-  O285  1  0.79885029  0.66995173  0.05804398  1
  O2-  O286  1  0.79088825  0.67125211  0.39713111  1
  O2-  O287  1  0.79176948  0.67055102  0.73634058  1
