# generated using pymatgen
data_Ca2Al2SiO7
_symmetry_space_group_name_H-M   'P 1'
_cell_length_a   15.45951351
_cell_length_b   15.45970320
_cell_length_c   15.28480691
_cell_angle_alpha   90.01415359
_cell_angle_beta   89.99437107
_cell_angle_gamma   90.02531419
_symmetry_Int_Tables_number   1
_chemical_formula_structural   Ca2Al2SiO7
_chemical_formula_sum   'Ca48 Al48 Si24 O168'
_cell_volume   3653.06057843
_cell_formula_units_Z   24
loop_
 _symmetry_equiv_pos_site_id
 _symmetry_equiv_pos_as_xyz
  1  'x, y, z'
loop_
 _atom_type_symbol
 _atom_type_oxidation_number
  Ca2+  2.0
  Al0+  0.0
  Si0+  0.0
  O2-  -2.0
loop_
 _atom_site_type_symbol
 _atom_site_label
 _atom_site_symmetry_multiplicity
 _atom_site_fract_x
 _atom_site_fract_y
 _atom_site_fract_z
 _atom_site_occupancy
  Ca2+  Ca0  1  0.17101617  0.07283430  0.17147329  1
  Ca2+  Ca1  1  0.17984773  0.08218034  0.50187177  1
  Ca2+  Ca2  1  0.17378117  0.07853303  0.83839815  1
  Ca2+  Ca3  1  0.17820482  0.57387997  0.16623335  1
  Ca2+  Ca4  1  0.16958111  0.57535346  0.50039872  1
  Ca2+  Ca5  1  0.17080503  0.57363487  0.84011919  1
  Ca2+  Ca6  1  0.66453596  0.07640693  0.16234618  1
  Ca2+  Ca7  1  0.66077946  0.07870196  0.50363124  1
  Ca2+  Ca8  1  0.66681847  0.08377377  0.84141830  1
  Ca2+  Ca9  1  0.67158614  0.57841035  0.16945045  1
  Ca2+  Ca10  1  0.67043884  0.56893089  0.50695078  1
  Ca2+  Ca11  1  0.67649742  0.57954138  0.83656962  1
  Ca2+  Ca12  1  0.08239846  0.33657815  0.15897202  1
  Ca2+  Ca13  1  0.08051341  0.34361993  0.49852180  1
  Ca2+  Ca14  1  0.07497554  0.34551864  0.83086230  1
  Ca2+  Ca15  1  0.08337176  0.83484463  0.15598987  1
  Ca2+  Ca16  1  0.08272477  0.83302439  0.49282105  1
  Ca2+  Ca17  1  0.07841989  0.83620094  0.83373718  1
  Ca2+  Ca18  1  0.57748681  0.32853530  0.15608910  1
  Ca2+  Ca19  1  0.59084324  0.32897633  0.49655415  1
  Ca2+  Ca20  1  0.58484461  0.32212281  0.82899583  1
  Ca2+  Ca21  1  0.57983777  0.83573163  0.15771853  1
  Ca2+  Ca22  1  0.57831712  0.83328979  0.49695978  1
  Ca2+  Ca23  1  0.57285586  0.83719969  0.83132804  1
  Ca2+  Ca24  1  0.33073124  0.42076348  0.17211870  1
  Ca2+  Ca25  1  0.32325983  0.41877348  0.50498107  1
  Ca2+  Ca26  1  0.32370667  0.41622911  0.84435674  1
  Ca2+  Ca27  1  0.32572128  0.91812595  0.16993555  1
  Ca2+  Ca28  1  0.33614657  0.92654215  0.50400241  1
  Ca2+  Ca29  1  0.33596438  0.91847586  0.83922850  1
  Ca2+  Ca30  1  0.83092960  0.41810055  0.16553713  1
  Ca2+  Ca31  1  0.82526357  0.41760264  0.51088121  1
  Ca2+  Ca32  1  0.83599298  0.42174714  0.83707025  1
  Ca2+  Ca33  1  0.82455748  0.91804793  0.16485052  1
  Ca2+  Ca34  1  0.82497114  0.91664025  0.50172141  1
  Ca2+  Ca35  1  0.82665891  0.92469702  0.84949843  1
  Ca2+  Ca36  1  0.42001886  0.17070970  0.15809653  1
  Ca2+  Ca37  1  0.41659645  0.16303075  0.49958887  1
  Ca2+  Ca38  1  0.42694017  0.16587945  0.82980026  1
  Ca2+  Ca39  1  0.41287429  0.66862714  0.15773899  1
  Ca2+  Ca40  1  0.41109243  0.67169750  0.49556513  1
  Ca2+  Ca41  1  0.40662450  0.67832764  0.83348422  1
  Ca2+  Ca42  1  0.91860005  0.17162851  0.15486391  1
  Ca2+  Ca43  1  0.91864390  0.17539800  0.49834663  1
  Ca2+  Ca44  1  0.91296946  0.17872314  0.83148301  1
  Ca2+  Ca45  1  0.91847527  0.67231067  0.15540884  1
  Ca2+  Ca46  1  0.91645168  0.66265548  0.49876654  1
  Ca2+  Ca47  1  0.91068469  0.66729899  0.83178911  1
  Al0+  Al48  1  -0.00036752  0.00031178  0.00197951  1
  Al0+  Al49  1  -0.00130275  0.00197652  0.33616921  1
  Al0+  Al50  1  -0.00016255  0.00061883  0.66255045  1
  Al0+  Al51  1  0.00092792  0.50067011  0.00478316  1
  Al0+  Al52  1  0.00076949  0.50293602  0.33175117  1
  Al0+  Al53  1  0.00016677  0.50217730  0.66731529  1
  Al0+  Al54  1  0.50038363  -0.00096438  -0.00348400  1
  Al0+  Al55  1  0.50150520  -0.00059346  0.33804078  1
  Al0+  Al56  1  0.49874093  0.00029352  0.66176065  1
  Al0+  Al57  1  0.50052745  0.50074206  -0.00306772  1
  Al0+  Al58  1  0.50221245  0.50065263  0.34077606  1
  Al0+  Al59  1  0.49957415  0.50041370  0.67168752  1
  Al0+  Al60  1  0.24916452  0.24834210  0.00004195  1
  Al0+  Al61  1  0.24896679  0.24956372  0.33878833  1
  Al0+  Al62  1  0.25087345  0.24746287  0.67606505  1
  Al0+  Al63  1  0.24956685  0.74814523  0.00135075  1
  Al0+  Al64  1  0.24818049  0.74975296  0.33702973  1
  Al0+  Al65  1  0.24681828  0.75100317  0.65933329  1
  Al0+  Al66  1  0.75220945  0.24972566  -0.00355065  1
  Al0+  Al67  1  0.75070052  0.24947265  0.33297159  1
  Al0+  Al68  1  0.75017054  0.24830365  0.65945838  1
  Al0+  Al69  1  0.75029319  0.74972783  0.00299461  1
  Al0+  Al70  1  0.74932114  0.75132412  0.33689693  1
  Al0+  Al71  1  0.74780047  0.74956779  0.66741852  1
  Al0+  Al72  1  0.42637037  0.32344613  0.98598680  1
  Al0+  Al73  1  0.82145480  0.07373883  0.01380020  1
  Al0+  Al74  1  0.17808514  0.42909466  0.34884520  1
  Al0+  Al75  1  0.42849058  0.81847890  0.98879562  1
  Al0+  Al76  1  0.82096179  0.57092941  0.01485538  1
  Al0+  Al77  1  0.32321085  0.57118955  0.34943374  1
  Al0+  Al78  1  0.93248124  0.32129966  0.65179797  1
  Al0+  Al79  1  0.56982440  0.18104255  0.64980657  1
  Al0+  Al80  1  0.17955190  0.42661837  0.01565004  1
  Al0+  Al81  1  0.57029942  0.17968434  0.98577586  1
  Al0+  Al82  1  0.42884175  0.81911306  0.65046970  1
  Al0+  Al83  1  0.32342793  0.57054668  0.01281031  1
  Al0+  Al84  1  0.17922225  0.92890148  0.01074643  1
  Al0+  Al85  1  0.18063450  0.42988674  0.68149135  1
  Al0+  Al86  1  0.17644145  0.92859062  0.34864881  1
  Al0+  Al87  1  0.82029901  0.57068676  0.68183394  1
  Al0+  Al88  1  0.67694167  0.92904528  0.01300594  1
  Al0+  Al89  1  0.68076439  0.42784079  0.34511492  1
  Al0+  Al90  1  0.32178019  0.06820856  0.68382514  1
  Al0+  Al91  1  0.93196688  0.32199563  0.98704545  1
  Al0+  Al92  1  0.92841139  0.82163121  0.98727795  1
  Al0+  Al93  1  0.32185896  0.07038385  0.34725644  1
  Al0+  Al94  1  0.67774786  0.42460520  0.68390279  1
  Al0+  Al95  1  0.68020136  0.92925194  0.34857860  1
  Si0+  Si96  1  0.92743122  0.82207695  0.31824277  1
  Si0+  Si97  1  0.82201399  0.07320161  0.35178917  1
  Si0+  Si98  1  0.06879522  0.68042653  0.64967008  1
  Si0+  Si99  1  0.32139875  0.57545280  0.68306794  1
  Si0+  Si100  1  0.82244216  0.06953338  0.67978922  1
  Si0+  Si101  1  0.67924947  0.92991052  0.68111073  1
  Si0+  Si102  1  0.57180751  0.67863709  0.31923778  1
  Si0+  Si103  1  0.42921807  0.32136278  0.32204857  1
  Si0+  Si104  1  0.92641079  0.82281961  0.65085077  1
  Si0+  Si105  1  0.07074658  0.68005643  0.31551460  1
  Si0+  Si106  1  0.07403371  0.17605442  0.64889479  1
  Si0+  Si107  1  0.82166583  0.57255063  0.34893087  1
  Si0+  Si108  1  0.07063948  0.67932004  0.98255729  1
  Si0+  Si109  1  0.42982322  0.82051402  0.31807557  1
  Si0+  Si110  1  0.42575048  0.32292036  0.65073212  1
  Si0+  Si111  1  0.67861463  0.42701750  0.01489640  1
  Si0+  Si112  1  0.57351578  0.67723564  0.64880528  1
  Si0+  Si113  1  0.32318043  0.07063791  0.01566379  1
  Si0+  Si114  1  0.57467505  0.67630896  0.98340016  1
  Si0+  Si115  1  0.92935114  0.32169385  0.31753298  1
  Si0+  Si116  1  0.07141237  0.17934284  0.31855083  1
  Si0+  Si117  1  0.07288846  0.17561810  0.98337021  1
  Si0+  Si118  1  0.17604966  0.92695203  0.68303323  1
  Si0+  Si119  1  0.57164733  0.17788980  0.31716042  1
  O2-  O120  1  0.25335635  0.00282166  0.05913420  1
  O2-  O121  1  0.25082235  -0.00251663  0.39854523  1
  O2-  O122  1  0.24584989  -0.00658838  0.72785977  1
  O2-  O123  1  0.25829160  0.49253663  0.06326479  1
  O2-  O124  1  0.25211848  0.49844334  0.39935508  1
  O2-  O125  1  0.25961745  0.50068109  0.72666170  1
  O2-  O126  1  0.74976154  0.00075634  0.06280921  1
  O2-  O127  1  0.75353357  0.00450403  0.39660026  1
  O2-  O128  1  0.75304673  -0.00235520  0.72227388  1
  O2-  O129  1  0.74539855  0.49704109  0.06083060  1
  O2-  O130  1  0.75642775  0.50097445  0.39259506  1
  O2-  O131  1  0.74987668  0.49754625  0.73199962  1
  O2-  O132  1  0.00190160  0.25197993  0.27611167  1
  O2-  O133  1  0.00919101  0.24851823  0.60382166  1
  O2-  O134  1  0.00737807  0.24793689  0.93996418  1
  O2-  O135  1  0.00098942  0.75393370  0.27552841  1
  O2-  O136  1  -0.00305401  0.75184814  0.60781919  1
  O2-  O137  1  0.00177066  0.74750271  0.93716874  1
  O2-  O138  1  0.49977419  0.24969358  0.27831069  1
  O2-  O139  1  0.49811698  0.25943129  0.60331342  1
  O2-  O140  1  0.49910966  0.25231731  0.93563993  1
  O2-  O141  1  0.49870872  0.74722752  0.27605440  1
  O2-  O142  1  0.50073056  0.74138510  0.60336211  1
  O2-  O143  1  0.50302997  0.74352483  0.94123426  1
  O2-  O144  1  0.07125299  0.17461977  0.08948854  1
  O2-  O145  1  0.06912944  0.17827565  0.42356763  1
  O2-  O146  1  0.06916511  0.16977154  0.75375890  1
  O2-  O147  1  0.06970704  0.68122888  0.08847001  1
  O2-  O148  1  0.06753721  0.67800387  0.42098844  1
  O2-  O149  1  0.07089554  0.68195962  0.75422248  1
  O2-  O150  1  0.56830823  0.17978579  0.10022029  1
  O2-  O151  1  0.57296002  0.17840646  0.42219036  1
  O2-  O152  1  0.56982869  0.17786657  0.76222424  1
  O2-  O153  1  0.57566490  0.67656168  0.08958667  1
  O2-  O154  1  0.57317093  0.68109601  0.42421539  1
  O2-  O155  1  0.57809335  0.68221650  0.75380896  1
  O2-  O156  1  0.17771372  0.42974606  0.23598773  1
  O2-  O157  1  0.18007575  0.43351996  0.56821310  1
  O2-  O158  1  0.17684215  0.43221734  0.90215448  1
  O2-  O159  1  0.17646195  0.92963515  0.23511302  1
  O2-  O160  1  0.17476270  0.92850057  0.57741941  1
  O2-  O161  1  0.17973150  0.93019454  0.89750617  1
  O2-  O162  1  0.68118845  0.42885135  0.23208219  1
  O2-  O163  1  0.68148810  0.42617077  0.56956668  1
  O2-  O164  1  0.68096799  0.42706234  0.90974538  1
  O2-  O165  1  0.68002505  0.92836325  0.23625276  1
  O2-  O166  1  0.68150497  0.93013608  0.57541434  1
  O2-  O167  1  0.67756555  0.93011017  0.89907300  1
  O2-  O168  1  0.42886526  0.32137020  0.10088307  1
  O2-  O169  1  0.43000028  0.32040471  0.42703100  1
  O2-  O170  1  0.42543831  0.31865976  0.75573309  1
  O2-  O171  1  0.42877358  0.81866859  0.10228063  1
  O2-  O172  1  0.43247249  0.82017933  0.42336369  1
  O2-  O173  1  0.42918157  0.81889930  0.76352811  1
  O2-  O174  1  0.93210668  0.32079353  0.10084143  1
  O2-  O175  1  0.92900639  0.32071165  0.42266864  1
  O2-  O176  1  0.93284753  0.32070260  0.76449943  1
  O2-  O177  1  0.92993757  0.81967432  0.10082380  1
  O2-  O178  1  0.92682040  0.81918073  0.42398269  1
  O2-  O179  1  0.92716773  0.82534689  0.75537363  1
  O2-  O180  1  0.32128583  0.06965288  0.23372728  1
  O2-  O181  1  0.32103233  0.06715685  0.57059750  1
  O2-  O182  1  0.32325213  0.06806754  0.91015155  1
  O2-  O183  1  0.32339094  0.57045403  0.23633716  1
  O2-  O184  1  0.31771373  0.57674140  0.57730659  1
  O2-  O185  1  0.31660695  0.57513375  0.89938868  1
  O2-  O186  1  0.82288304  0.07396532  0.24675892  1
  O2-  O187  1  0.82307937  0.06677775  0.57424138  1
  O2-  O188  1  0.82104979  0.07275965  0.89970655  1
  O2-  O189  1  0.82043134  0.57404868  0.24351935  1
  O2-  O190  1  0.81933373  0.57063895  0.56757943  1
  O2-  O191  1  0.82021904  0.57059499  0.90217348  1
  O2-  O192  1  0.04137708  0.08777124  0.27089301  1
  O2-  O193  1  0.04429323  0.08466578  0.59825456  1
  O2-  O194  1  0.04470104  0.08383189  0.93538756  1
  O2-  O195  1  0.04099540  0.58956193  0.26622109  1
  O2-  O196  1  0.03907588  0.59023798  0.59976987  1
  O2-  O197  1  0.04323542  0.58602484  0.93788503  1
  O2-  O198  1  0.54339491  0.08533025  0.27148541  1
  O2-  O199  1  0.53539837  0.08548331  0.59467295  1
  O2-  O200  1  0.54208350  0.08183027  0.93152964  1
  O2-  O201  1  0.54774545  0.58509486  0.27331479  1
  O2-  O202  1  0.55224899  0.58083433  0.60610212  1
  O2-  O203  1  0.55391282  0.58268676  0.93588084  1
  O2-  O204  1  0.16416040  0.20453506  0.27171516  1
  O2-  O205  1  0.16999444  0.19907754  0.60718427  1
  O2-  O206  1  0.16763504  0.19590284  0.93801935  1
  O2-  O207  1  0.16345035  0.70628045  0.26929962  1
  O2-  O208  1  0.15845656  0.70862413  0.59743795  1
  O2-  O209  1  0.16323912  0.70583592  0.93558642  1
  O2-  O210  1  0.66395831  0.20538975  0.27045532  1
  O2-  O211  1  0.66703012  0.20624424  0.59270507  1
  O2-  O212  1  0.66895162  0.20662888  0.93272872  1
  O2-  O213  1  0.66348666  0.70895874  0.27204499  1
  O2-  O214  1  0.66491130  0.70769185  0.59896974  1
  O2-  O215  1  0.66683946  0.70496036  0.93653185  1
  O2-  O216  1  0.08455935  0.46195500  0.07090144  1
  O2-  O217  1  0.08009019  0.46307674  0.40077739  1
  O2-  O218  1  0.08564670  0.46689606  0.73343271  1
  O2-  O219  1  0.08367153  0.95880585  0.06664261  1
  O2-  O220  1  0.07819657  0.95769465  0.40222978  1
  O2-  O221  1  0.08172815  0.95408247  0.72728706  1
  O2-  O222  1  0.58430401  0.45118098  0.05988564  1
  O2-  O223  1  0.58685486  0.45857368  0.40337344  1
  O2-  O224  1  0.57820252  0.45056541  0.73519947  1
  O2-  O225  1  0.57969358  0.95924958  0.06789365  1
  O2-  O226  1  0.58492528  0.95975248  0.40452339  1
  O2-  O227  1  0.58781616  0.96065040  0.72541196  1
  O2-  O228  1  0.19936608  0.32518556  0.06611818  1
  O2-  O229  1  0.20166756  0.33024089  0.40228132  1
  O2-  O230  1  0.20336405  0.33165345  0.73478170  1
  O2-  O231  1  0.20875920  0.83284927  0.06560209  1
  O2-  O232  1  0.19995638  0.82923786  0.40071467  1
  O2-  O233  1  0.19894020  0.83175956  0.72572158  1
  O2-  O234  1  0.70686026  0.33472353  0.06155832  1
  O2-  O235  1  0.71132191  0.33131682  0.39936329  1
  O2-  O236  1  0.70826778  0.32496567  0.73166724  1
  O2-  O237  1  0.70510624  0.83154968  0.06729470  1
  O2-  O238  1  0.71271388  0.83400631  0.40536576  1
  O2-  O239  1  0.70313086  0.83703414  0.72666942  1
  O2-  O240  1  0.45879191  0.41363643  0.27639736  1
  O2-  O241  1  0.44414403  0.42030697  0.60874514  1
  O2-  O242  1  0.44971419  0.42297405  0.93318230  1
  O2-  O243  1  0.46072935  0.91220785  0.27253091  1
  O2-  O244  1  0.46470522  0.91336765  0.59511691  1
  O2-  O245  1  0.45979815  0.91370419  0.93256350  1
  O2-  O246  1  0.95461840  0.41520382  0.27201213  1
  O2-  O247  1  0.96170887  0.41894128  0.59781490  1
  O2-  O248  1  0.96293201  0.41919711  0.93413251  1
  O2-  O249  1  0.95054528  0.91656223  0.27459313  1
  O2-  O250  1  0.95428409  0.91371517  0.60038727  1
  O2-  O251  1  0.95922912  0.91809730  0.93274568  1
  O2-  O252  1  0.33642924  0.29431621  0.27586350  1
  O2-  O253  1  0.33280967  0.29147680  0.60537117  1
  O2-  O254  1  0.32754785  0.29485251  0.93407627  1
  O2-  O255  1  0.33553131  0.79546764  0.27444115  1
  O2-  O256  1  0.33096622  0.79235651  0.59550159  1
  O2-  O257  1  0.33241145  0.78755733  0.93272116  1
  O2-  O258  1  0.83812927  0.29168496  0.26994650  1
  O2-  O259  1  0.83778707  0.28657757  0.59552586  1
  O2-  O260  1  0.83641655  0.29130634  0.93158913  1
  O2-  O261  1  0.83593922  0.79159408  0.27171564  1
  O2-  O262  1  0.83433099  0.79445934  0.60310183  1
  O2-  O263  1  0.83147919  0.79141257  0.93371306  1
  O2-  O264  1  0.41573309  0.04354695  0.06185383  1
  O2-  O265  1  0.41928574  0.04185503  0.40199973  1
  O2-  O266  1  0.41812817  0.03365903  0.73521903  1
  O2-  O267  1  0.42519928  0.55248572  0.06347089  1
  O2-  O268  1  0.42134655  0.54682768  0.40452177  1
  O2-  O269  1  0.41804242  0.56099530  0.72560631  1
  O2-  O270  1  0.91882643  0.04495506  0.06804985  1
  O2-  O271  1  0.91471868  0.04802108  0.39982313  1
  O2-  O272  1  0.91485528  0.04320174  0.72609139  1
  O2-  O273  1  0.91630386  0.54040732  0.07078004  1
  O2-  O274  1  0.91632103  0.54985867  0.39326049  1
  O2-  O275  1  0.91948396  0.54629585  0.73328047  1
  O2-  O276  1  0.29848204  0.16409102  0.06159788  1
  O2-  O277  1  0.29221914  0.16715094  0.40293928  1
  O2-  O278  1  0.29279322  0.16344546  0.73996142  1
  O2-  O279  1  0.28815432  0.66562713  0.06891016  1
  O2-  O280  1  0.29130111  0.66857154  0.40218282  1
  O2-  O281  1  0.28681522  0.66738132  0.72716773  1
  O2-  O282  1  0.79346988  0.17147574  0.06842118  1
  O2-  O283  1  0.79549855  0.16628017  0.39824718  1
  O2-  O284  1  0.79356904  0.16155221  0.72406578  1
  O2-  O285  1  0.79107993  0.66679799  0.07042446  1
  O2-  O286  1  0.79450198  0.66474976  0.39677883  1
  O2-  O287  1  0.79105931  0.67004862  0.73349438  1
