# generated using pymatgen
data_Ca2Al2SiO7
_symmetry_space_group_name_H-M   'P 1'
_cell_length_a   15.46571831
_cell_length_b   15.46943676
_cell_length_c   15.28992458
_cell_angle_alpha   90.00733120
_cell_angle_beta   90.01060193
_cell_angle_gamma   90.01254559
_symmetry_Int_Tables_number   1
_chemical_formula_structural   Ca2Al2SiO7
_chemical_formula_sum   'Ca48 Al48 Si24 O168'
_cell_volume   3658.05237363
_cell_formula_units_Z   24
loop_
 _symmetry_equiv_pos_site_id
 _symmetry_equiv_pos_as_xyz
  1  'x, y, z'
loop_
 _atom_type_symbol
 _atom_type_oxidation_number
  Ca2+  2.0
  Al0+  0.0
  Si0+  0.0
  O2-  -2.0
loop_
 _atom_site_type_symbol
 _atom_site_label
 _atom_site_symmetry_multiplicity
 _atom_site_fract_x
 _atom_site_fract_y
 _atom_site_fract_z
 _atom_site_occupancy
  Ca2+  Ca0  1  0.16672876  0.06953883  0.17070952  1
  Ca2+  Ca1  1  0.16932555  0.07713649  0.50830782  1
  Ca2+  Ca2  1  0.17206308  0.08738181  0.83485420  1
  Ca2+  Ca3  1  0.16504284  0.56934154  0.17079784  1
  Ca2+  Ca4  1  0.17188783  0.57547696  0.51028555  1
  Ca2+  Ca5  1  0.16669734  0.57521176  0.83246527  1
  Ca2+  Ca6  1  0.67243345  0.08835052  0.17183061  1
  Ca2+  Ca7  1  0.67142960  0.08247424  0.50164772  1
  Ca2+  Ca8  1  0.66495065  0.08339284  0.83764413  1
  Ca2+  Ca9  1  0.67127950  0.57989250  0.16744960  1
  Ca2+  Ca10  1  0.67301356  0.57755398  0.50963630  1
  Ca2+  Ca11  1  0.67016009  0.57800537  0.83781701  1
  Ca2+  Ca12  1  0.08496817  0.33573092  0.16176424  1
  Ca2+  Ca13  1  0.08334469  0.33611754  0.50056982  1
  Ca2+  Ca14  1  0.08015556  0.33658891  0.82040801  1
  Ca2+  Ca15  1  0.08000785  0.83415266  0.15877076  1
  Ca2+  Ca16  1  0.08973444  0.82384512  0.49730623  1
  Ca2+  Ca17  1  0.08007270  0.82853079  0.83072036  1
  Ca2+  Ca18  1  0.58237613  0.33510438  0.15588859  1
  Ca2+  Ca19  1  0.57878072  0.34552553  0.50016403  1
  Ca2+  Ca20  1  0.57521440  0.34216445  0.82969568  1
  Ca2+  Ca21  1  0.57755937  0.82779093  0.15998938  1
  Ca2+  Ca22  1  0.57586274  0.82492238  0.49646436  1
  Ca2+  Ca23  1  0.58602695  0.81680066  0.82801504  1
  Ca2+  Ca24  1  0.32630264  0.41122549  0.16568290  1
  Ca2+  Ca25  1  0.32438246  0.41693536  0.51126850  1
  Ca2+  Ca26  1  0.32779058  0.41305681  0.83316568  1
  Ca2+  Ca27  1  0.32368566  0.91041566  0.17313186  1
  Ca2+  Ca28  1  0.33401990  0.91979376  0.50466737  1
  Ca2+  Ca29  1  0.32769388  0.92420639  0.83719329  1
  Ca2+  Ca30  1  0.82133254  0.42814743  0.17317120  1
  Ca2+  Ca31  1  0.82345099  0.42385925  0.50811206  1
  Ca2+  Ca32  1  0.82781776  0.42547457  0.83699229  1
  Ca2+  Ca33  1  0.83499739  0.92181657  0.16976463  1
  Ca2+  Ca34  1  0.83743202  0.92507683  0.50099709  1
  Ca2+  Ca35  1  0.83655834  0.91641581  0.83890449  1
  Ca2+  Ca36  1  0.42698469  0.17501628  0.15595065  1
  Ca2+  Ca37  1  0.41198272  0.17151723  0.50235373  1
  Ca2+  Ca38  1  0.41715070  0.17840926  0.82832217  1
  Ca2+  Ca39  1  0.42197235  0.67012686  0.16211673  1
  Ca2+  Ca40  1  0.42188593  0.66063436  0.49881619  1
  Ca2+  Ca41  1  0.42782335  0.65585289  0.82742949  1
  Ca2+  Ca42  1  0.91628204  0.16739778  0.16326158  1
  Ca2+  Ca43  1  0.91817257  0.17415055  0.50045834  1
  Ca2+  Ca44  1  0.92605052  0.17830283  0.82260037  1
  Ca2+  Ca45  1  0.91145977  0.66882486  0.16032362  1
  Ca2+  Ca46  1  0.92159213  0.65394113  0.50069452  1
  Ca2+  Ca47  1  0.91576399  0.66707758  0.82681034  1
  Al0+  Al48  1  0.00057988  -0.00076215  -0.00115233  1
  Al0+  Al49  1  0.00166519  -0.00069239  0.34170502  1
  Al0+  Al50  1  -0.00060170  0.00045158  0.66389523  1
  Al0+  Al51  1  0.00097770  0.50142552  0.00804178  1
  Al0+  Al52  1  -0.00031147  0.49783261  0.33652397  1
  Al0+  Al53  1  -0.00208459  0.50209384  0.66422197  1
  Al0+  Al54  1  0.50027751  0.00090892  -0.00259336  1
  Al0+  Al55  1  0.49943276  0.00010253  0.32708969  1
  Al0+  Al56  1  0.49937494  0.00066639  0.67152670  1
  Al0+  Al57  1  0.49847117  0.50042571  -0.00283464  1
  Al0+  Al58  1  0.49930739  0.49979629  0.33061155  1
  Al0+  Al59  1  0.49960165  0.49962948  0.66188672  1
  Al0+  Al60  1  0.25176655  0.24836114  0.00298504  1
  Al0+  Al61  1  0.24977095  0.24699318  0.33316801  1
  Al0+  Al62  1  0.25112154  0.24670190  0.66564467  1
  Al0+  Al63  1  0.24891815  0.74994445  0.00326660  1
  Al0+  Al64  1  0.24896844  0.74833894  0.33134497  1
  Al0+  Al65  1  0.24898523  0.75114219  0.66804082  1
  Al0+  Al66  1  0.75205585  0.25011492  -0.00105823  1
  Al0+  Al67  1  0.75117680  0.25028837  0.34097775  1
  Al0+  Al68  1  0.74989862  0.24835543  0.66682930  1
  Al0+  Al69  1  0.75038123  0.75339990  -0.00373552  1
  Al0+  Al70  1  0.75135319  0.75107103  0.33556259  1
  Al0+  Al71  1  0.74816350  0.75174962  0.66220054  1
  Al0+  Al72  1  0.17955397  0.42797705  0.01318304  1
  Al0+  Al73  1  0.07235144  0.17901035  0.65070188  1
  Al0+  Al74  1  0.67691813  0.42942960  0.34879081  1
  Al0+  Al75  1  0.82135192  0.07053101  0.34762377  1
  Al0+  Al76  1  0.93075521  0.82113206  0.98767396  1
  Al0+  Al77  1  0.67813162  0.42764593  0.68312473  1
  Al0+  Al78  1  0.67809198  0.42885185  0.01418836  1
  Al0+  Al79  1  0.82068220  0.57365316  0.34965131  1
  Al0+  Al80  1  0.42847563  0.82073336  0.31948594  1
  Al0+  Al81  1  0.18071511  0.42595248  0.34769957  1
  Al0+  Al82  1  0.92744462  0.32283717  0.65080079  1
  Al0+  Al83  1  0.42825813  0.32071939  0.98372520  1
  Al0+  Al84  1  0.07095989  0.68041444  0.65344086  1
  Al0+  Al85  1  0.18020001  0.92702472  0.34871856  1
  Al0+  Al86  1  0.32157738  0.57301678  0.68074333  1
  Al0+  Al87  1  0.57501656  0.17875771  0.98466589  1
  Al0+  Al88  1  0.17971207  0.92973374  0.01286879  1
  Al0+  Al89  1  0.43088199  0.31966881  0.65127282  1
  Al0+  Al90  1  0.56994632  0.67844393  0.65118358  1
  Al0+  Al91  1  0.56957381  0.68141494  0.98674809  1
  Al0+  Al92  1  0.32115175  0.07000841  0.68129371  1
  Al0+  Al93  1  0.82025673  0.57347469  0.68265029  1
  Al0+  Al94  1  0.17906192  0.42891329  0.68011765  1
  Al0+  Al95  1  0.82073281  0.57438043  0.01501767  1
  Si0+  Si96  1  0.57306495  0.67819174  0.31532329  1
  Si0+  Si97  1  0.32059064  0.57106436  0.34763799  1
  Si0+  Si98  1  0.93132246  0.32293358  0.98822849  1
  Si0+  Si99  1  0.93049523  0.82330363  0.31902094  1
  Si0+  Si100  1  0.06985424  0.17852131  0.98812765  1
  Si0+  Si101  1  0.92673879  0.82286262  0.64733172  1
  Si0+  Si102  1  0.32263671  0.57255158  0.01739990  1
  Si0+  Si103  1  0.42857788  0.82408513  0.65272400  1
  Si0+  Si104  1  0.82146726  0.07042837  0.01290361  1
  Si0+  Si105  1  0.82216021  0.07011853  0.68356191  1
  Si0+  Si106  1  0.32317287  0.06983668  0.34885138  1
  Si0+  Si107  1  0.07082945  0.17719375  0.31691001  1
  Si0+  Si108  1  0.07283387  0.67614863  0.98479325  1
  Si0+  Si109  1  0.67832134  0.92963196  0.01388262  1
  Si0+  Si110  1  0.67583281  0.92876770  0.34862678  1
  Si0+  Si111  1  0.42442219  0.82260066  0.98230752  1
  Si0+  Si112  1  0.42780348  0.32051010  0.31778587  1
  Si0+  Si113  1  0.92918760  0.31947367  0.31677922  1
  Si0+  Si114  1  0.57175992  0.17469386  0.64840065  1
  Si0+  Si115  1  0.32329042  0.07108299  0.01931801  1
  Si0+  Si116  1  0.57262252  0.17976588  0.31987938  1
  Si0+  Si117  1  0.06954964  0.67735487  0.31697383  1
  Si0+  Si118  1  0.17580143  0.92774324  0.68467359  1
  Si0+  Si119  1  0.67901936  0.93074742  0.68154259  1
  O2-  O120  1  0.25748452  -0.00059425  0.06312202  1
  O2-  O121  1  0.25717247  -0.00063650  0.39393932  1
  O2-  O122  1  0.24371370  -0.00233181  0.72749093  1
  O2-  O123  1  0.25380840  0.50314807  0.06068989  1
  O2-  O124  1  0.25640165  0.49927933  0.39248350  1
  O2-  O125  1  0.25031469  0.50074998  0.73133486  1
  O2-  O126  1  0.74556325  0.00467243  0.05584424  1
  O2-  O127  1  0.74580378  -0.00417458  0.39354569  1
  O2-  O128  1  0.75136763  -0.00054103  0.72570366  1
  O2-  O129  1  0.74891061  0.50188970  0.06432410  1
  O2-  O130  1  0.74549843  0.50466094  0.39767876  1
  O2-  O131  1  0.75032392  0.49978678  0.73220845  1
  O2-  O132  1  0.00140091  0.24920246  0.27320866  1
  O2-  O133  1  0.00264438  0.25307320  0.60027696  1
  O2-  O134  1  0.00601073  0.25547458  0.94630677  1
  O2-  O135  1  -0.00261385  0.74863885  0.27619457  1
  O2-  O136  1  -0.00493905  0.75374999  0.60406306  1
  O2-  O137  1  0.00259978  0.74404705  0.94194709  1
  O2-  O138  1  0.50368463  0.25293293  0.27782577  1
  O2-  O139  1  0.50797441  0.24702442  0.60326307  1
  O2-  O140  1  0.50446285  0.25178988  0.93507010  1
  O2-  O141  1  0.50442042  0.74779710  0.27186074  1
  O2-  O142  1  0.49117261  0.75083777  0.60698191  1
  O2-  O143  1  0.49264280  0.75408044  0.93856105  1
  O2-  O144  1  0.06582251  0.17544771  0.09368193  1
  O2-  O145  1  0.07113070  0.17668519  0.42119746  1
  O2-  O146  1  0.06864946  0.17670616  0.76507082  1
  O2-  O147  1  0.07347758  0.67754225  0.09085165  1
  O2-  O148  1  0.07124964  0.67871126  0.42179749  1
  O2-  O149  1  0.07156765  0.68409091  0.76656683  1
  O2-  O150  1  0.57403947  0.17767691  0.09919949  1
  O2-  O151  1  0.57062291  0.17510770  0.42442526  1
  O2-  O152  1  0.56891610  0.17026180  0.75347426  1
  O2-  O153  1  0.56847471  0.68558203  0.10035001  1
  O2-  O154  1  0.57145504  0.67903002  0.42065100  1
  O2-  O155  1  0.57198028  0.68158213  0.76420259  1
  O2-  O156  1  0.18196653  0.42635563  0.23409519  1
  O2-  O157  1  0.18193191  0.43017630  0.56637907  1
  O2-  O158  1  0.17661099  0.42769200  0.90109098  1
  O2-  O159  1  0.17827532  0.92965641  0.23537114  1
  O2-  O160  1  0.17712405  0.92744536  0.57889285  1
  O2-  O161  1  0.17905485  0.93330733  0.90031266  1
  O2-  O162  1  0.67784132  0.42788244  0.23507889  1
  O2-  O163  1  0.67885560  0.43048388  0.56940844  1
  O2-  O164  1  0.68048592  0.42866785  0.90146913  1
  O2-  O165  1  0.67639231  0.93021244  0.24279965  1
  O2-  O166  1  0.67846071  0.93342338  0.57622511  1
  O2-  O167  1  0.68080657  0.92898453  0.90885986  1
  O2-  O168  1  0.42650420  0.31659007  0.09831728  1
  O2-  O169  1  0.42525567  0.31891299  0.42240273  1
  O2-  O170  1  0.42935375  0.31769442  0.76377574  1
  O2-  O171  1  0.42560822  0.82179604  0.08837561  1
  O2-  O172  1  0.43123417  0.82202571  0.43238701  1
  O2-  O173  1  0.43335471  0.82763661  0.75803123  1
  O2-  O174  1  0.93101400  0.31878958  0.09374149  1
  O2-  O175  1  0.92990040  0.31753433  0.42118950  1
  O2-  O176  1  0.92815964  0.31903468  0.76527634  1
  O2-  O177  1  0.93248781  0.82525555  0.10113665  1
  O2-  O178  1  0.93273697  0.82686286  0.42359104  1
  O2-  O179  1  0.92757136  0.82550175  0.75306318  1
  O2-  O180  1  0.32113600  0.07041972  0.24329062  1
  O2-  O181  1  0.32348489  0.06521226  0.56785291  1
  O2-  O182  1  0.32089521  0.07175958  0.91397277  1
  O2-  O183  1  0.31886415  0.57140391  0.24175679  1
  O2-  O184  1  0.31977359  0.57209150  0.56658307  1
  O2-  O185  1  0.32161707  0.57493701  0.91245460  1
  O2-  O186  1  0.82093934  0.06969915  0.23388276  1
  O2-  O187  1  0.82161390  0.06798579  0.57829827  1
  O2-  O188  1  0.82423765  0.06754223  0.90817245  1
  O2-  O189  1  0.81966471  0.57381447  0.23584720  1
  O2-  O190  1  0.81745253  0.57336318  0.56917030  1
  O2-  O191  1  0.82210486  0.57334469  0.90220706  1
  O2-  O192  1  0.03957971  0.08506968  0.27099416  1
  O2-  O193  1  0.04017827  0.08104856  0.59736542  1
  O2-  O194  1  0.03610899  0.09052049  0.93803706  1
  O2-  O195  1  0.04181040  0.58499512  0.26997795  1
  O2-  O196  1  0.04191312  0.58487916  0.59687196  1
  O2-  O197  1  0.04841412  0.58193298  0.94045178  1
  O2-  O198  1  0.54494414  0.08913313  0.26892475  1
  O2-  O199  1  0.54113950  0.08248942  0.60099779  1
  O2-  O200  1  0.54723010  0.07919600  0.93259584  1
  O2-  O201  1  0.54567181  0.58529382  0.26813384  1
  O2-  O202  1  0.54014046  0.58383364  0.59409740  1
  O2-  O203  1  0.54043762  0.58492490  0.93329408  1
  O2-  O204  1  0.16335811  0.20246549  0.26850211  1
  O2-  O205  1  0.17166800  0.20012058  0.59772059  1
  O2-  O206  1  0.16473200  0.19894155  0.94520691  1
  O2-  O207  1  0.16062694  0.70562102  0.26840319  1
  O2-  O208  1  0.16710629  0.71344054  0.59760879  1
  O2-  O209  1  0.16594324  0.70379085  0.93923822  1
  O2-  O210  1  0.66640126  0.20505424  0.27466338  1
  O2-  O211  1  0.66801063  0.19352955  0.60555788  1
  O2-  O212  1  0.67566599  0.19989489  0.93296805  1
  O2-  O213  1  0.66708604  0.70555750  0.27081829  1
  O2-  O214  1  0.66337540  0.71641383  0.59492047  1
  O2-  O215  1  0.66385288  0.71727249  0.93218788  1
  O2-  O216  1  0.08490549  0.45881295  0.07224223  1
  O2-  O217  1  0.08390340  0.45624602  0.39892176  1
  O2-  O218  1  0.07988377  0.45749529  0.73008008  1
  O2-  O219  1  0.08448635  0.96557970  0.06795412  1
  O2-  O220  1  0.08630394  0.95960324  0.40511132  1
  O2-  O221  1  0.08106925  0.95274993  0.72842990  1
  O2-  O222  1  0.57812497  0.45574522  0.06509238  1
  O2-  O223  1  0.57599647  0.45456581  0.39797506  1
  O2-  O224  1  0.57908489  0.45762577  0.73157021  1
  O2-  O225  1  0.58455536  0.95227853  0.06059979  1
  O2-  O226  1  0.58302846  0.95735692  0.39436511  1
  O2-  O227  1  0.58929824  0.95963151  0.73153203  1
  O2-  O228  1  0.20965745  0.33100132  0.06884724  1
  O2-  O229  1  0.20904750  0.32802310  0.39928266  1
  O2-  O230  1  0.20602990  0.32915824  0.72988890  1
  O2-  O231  1  0.20536483  0.83208461  0.06834014  1
  O2-  O232  1  0.20935260  0.82935300  0.40047180  1
  O2-  O233  1  0.20212000  0.83564129  0.73209051  1
  O2-  O234  1  0.70862401  0.32963802  0.06636537  1
  O2-  O235  1  0.70617613  0.33222140  0.40250811  1
  O2-  O236  1  0.70260078  0.32649857  0.73231107  1
  O2-  O237  1  0.71045938  0.84118737  0.06428753  1
  O2-  O238  1  0.69972472  0.83533026  0.39476841  1
  O2-  O239  1  0.70662487  0.83895112  0.72803197  1
  O2-  O240  1  0.45060307  0.41355959  0.26991940  1
  O2-  O241  1  0.45814458  0.41566765  0.59453452  1
  O2-  O242  1  0.44975750  0.42074919  0.93292685  1
  O2-  O243  1  0.45740332  0.91712737  0.26232694  1
  O2-  O244  1  0.46164055  0.91487359  0.60431471  1
  O2-  O245  1  0.44933391  0.91706205  0.93852598  1
  O2-  O246  1  0.95720045  0.41141614  0.26948008  1
  O2-  O247  1  0.95144372  0.42145339  0.59778497  1
  O2-  O248  1  0.95719298  0.41589566  0.94356070  1
  O2-  O249  1  0.96202822  0.91447110  0.27148069  1
  O2-  O250  1  0.95326685  0.91634839  0.60125122  1
  O2-  O251  1  0.96435184  0.91610708  0.93076672  1
  O2-  O252  1  0.33779121  0.28728742  0.26903635  1
  O2-  O253  1  0.33599762  0.28363581  0.59684381  1
  O2-  O254  1  0.33058651  0.28626545  0.93206709  1
  O2-  O255  1  0.33231509  0.78793437  0.26438974  1
  O2-  O256  1  0.33237270  0.80626220  0.60974645  1
  O2-  O257  1  0.32980453  0.79923136  0.93798998  1
  O2-  O258  1  0.83742286  0.28789283  0.27082514  1
  O2-  O259  1  0.83095413  0.28658745  0.59737575  1
  O2-  O260  1  0.84186533  0.29170411  0.93947998  1
  O2-  O261  1  0.83592367  0.80146486  0.27302297  1
  O2-  O262  1  0.83252858  0.80187991  0.60093371  1
  O2-  O263  1  0.83370756  0.79726544  0.93198864  1
  O2-  O264  1  0.41869513  0.04823712  0.06346102  1
  O2-  O265  1  0.41784166  0.04633008  0.39329534  1
  O2-  O266  1  0.41591640  0.03757426  0.73812944  1
  O2-  O267  1  0.41533171  0.54696347  0.06509296  1
  O2-  O268  1  0.41617763  0.54998407  0.39045370  1
  O2-  O269  1  0.41993463  0.54328837  0.73075632  1
  O2-  O270  1  0.91062600  0.03725494  0.06277211  1
  O2-  O271  1  0.91541546  0.03787101  0.40426406  1
  O2-  O272  1  0.91374985  0.04113617  0.73084754  1
  O2-  O273  1  0.91888270  0.54757400  0.06977453  1
  O2-  O274  1  0.91819475  0.54076836  0.40022427  1
  O2-  O275  1  0.92012684  0.54907927  0.73307144  1
  O2-  O276  1  0.29468537  0.16238687  0.06799906  1
  O2-  O277  1  0.29454382  0.16199648  0.39534494  1
  O2-  O278  1  0.29026145  0.16499855  0.73687326  1
  O2-  O279  1  0.29733430  0.66610038  0.06490891  1
  O2-  O280  1  0.29225508  0.66300623  0.39427691  1
  O2-  O281  1  0.29606892  0.67228284  0.73351590  1
  O2-  O282  1  0.79896695  0.16288414  0.06168685  1
  O2-  O283  1  0.79057947  0.16471110  0.40468618  1
  O2-  O284  1  0.79538816  0.16136796  0.73119990  1
  O2-  O285  1  0.79145754  0.67406421  0.06610552  1
  O2-  O286  1  0.80048596  0.67480752  0.40070658  1
  O2-  O287  1  0.79153723  0.67413051  0.73132698  1
