# generated using pymatgen
data_Ca2Al2SiO7
_symmetry_space_group_name_H-M   'P 1'
_cell_length_a   15.45074313
_cell_length_b   15.45112506
_cell_length_c   15.27878803
_cell_angle_alpha   89.99370760
_cell_angle_beta   89.99796269
_cell_angle_gamma   89.99598357
_symmetry_Int_Tables_number   1
_chemical_formula_structural   Ca2Al2SiO7
_chemical_formula_sum   'Ca48 Al48 Si24 O168'
_cell_volume   3647.52588094
_cell_formula_units_Z   24
loop_
 _symmetry_equiv_pos_site_id
 _symmetry_equiv_pos_as_xyz
  1  'x, y, z'
loop_
 _atom_type_symbol
 _atom_type_oxidation_number
  Ca2+  2.0
  Al0+  0.0
  Si0+  0.0
  O2-  -2.0
loop_
 _atom_site_type_symbol
 _atom_site_label
 _atom_site_symmetry_multiplicity
 _atom_site_fract_x
 _atom_site_fract_y
 _atom_site_fract_z
 _atom_site_occupancy
  Ca2+  Ca0  1  0.16745515  0.07962557  0.16742772  1
  Ca2+  Ca1  1  0.16941454  0.09022411  0.50936127  1
  Ca2+  Ca2  1  0.17792716  0.08074291  0.83857025  1
  Ca2+  Ca3  1  0.16802439  0.57928778  0.16741802  1
  Ca2+  Ca4  1  0.17469985  0.57424135  0.50537804  1
  Ca2+  Ca5  1  0.15903899  0.57144187  0.84073804  1
  Ca2+  Ca6  1  0.67471936  0.09354083  0.16985774  1
  Ca2+  Ca7  1  0.67338359  0.09078694  0.49925190  1
  Ca2+  Ca8  1  0.67105948  0.08370894  0.84326703  1
  Ca2+  Ca9  1  0.67090702  0.58449837  0.17129026  1
  Ca2+  Ca10  1  0.66683996  0.58054884  0.51225938  1
  Ca2+  Ca11  1  0.67295386  0.58405534  0.83198375  1
  Ca2+  Ca12  1  0.07437897  0.33190639  0.16179853  1
  Ca2+  Ca13  1  0.08404065  0.32350732  0.49725307  1
  Ca2+  Ca14  1  0.08195464  0.33358857  0.82793291  1
  Ca2+  Ca15  1  0.08804617  0.82622343  0.15744898  1
  Ca2+  Ca16  1  0.07598037  0.83479889  0.50056435  1
  Ca2+  Ca17  1  0.08133312  0.83029468  0.83241331  1
  Ca2+  Ca18  1  0.58304179  0.32153543  0.16280715  1
  Ca2+  Ca19  1  0.57964987  0.33483526  0.49796630  1
  Ca2+  Ca20  1  0.57870318  0.32915100  0.82891102  1
  Ca2+  Ca21  1  0.57720056  0.82820725  0.16111219  1
  Ca2+  Ca22  1  0.58021982  0.82093601  0.50019720  1
  Ca2+  Ca23  1  0.57132576  0.83181866  0.82627337  1
  Ca2+  Ca24  1  0.32588841  0.42092234  0.16992190  1
  Ca2+  Ca25  1  0.33259952  0.41784985  0.50922852  1
  Ca2+  Ca26  1  0.32112473  0.40939666  0.83530330  1
  Ca2+  Ca27  1  0.33191505  0.91514347  0.16141126  1
  Ca2+  Ca28  1  0.33470496  0.92522773  0.50783415  1
  Ca2+  Ca29  1  0.33610781  0.92326945  0.84126398  1
  Ca2+  Ca30  1  0.83963361  0.41732428  0.16688732  1
  Ca2+  Ca31  1  0.82690813  0.42030501  0.50827246  1
  Ca2+  Ca32  1  0.83245558  0.42551607  0.83862396  1
  Ca2+  Ca33  1  0.83647630  0.93440625  0.17099056  1
  Ca2+  Ca34  1  0.83428780  0.92063264  0.50451408  1
  Ca2+  Ca35  1  0.83433730  0.92137407  0.83835844  1
  Ca2+  Ca36  1  0.42883588  0.15742817  0.16011961  1
  Ca2+  Ca37  1  0.41780567  0.17312614  0.49998893  1
  Ca2+  Ca38  1  0.41684727  0.16464542  0.82770277  1
  Ca2+  Ca39  1  0.41778195  0.66857169  0.16185214  1
  Ca2+  Ca40  1  0.42707143  0.66138010  0.49524189  1
  Ca2+  Ca41  1  0.41806289  0.68107912  0.82439314  1
  Ca2+  Ca42  1  0.91180717  0.17728360  0.16224005  1
  Ca2+  Ca43  1  0.92892095  0.17131548  0.48849557  1
  Ca2+  Ca44  1  0.92241773  0.17054649  0.83083160  1
  Ca2+  Ca45  1  0.92376037  0.66548549  0.15541599  1
  Ca2+  Ca46  1  0.90904461  0.67155992  0.50295903  1
  Ca2+  Ca47  1  0.91697425  0.66588122  0.82981187  1
  Al0+  Al48  1  0.00037909  0.00059704  0.00917988  1
  Al0+  Al49  1  0.00030373  -0.00005714  0.33441072  1
  Al0+  Al50  1  0.00158688  -0.00074627  0.65904577  1
  Al0+  Al51  1  -0.00101749  0.49955523  0.00078466  1
  Al0+  Al52  1  0.00011117  0.50088807  0.33417631  1
  Al0+  Al53  1  0.00002861  0.50040058  0.67140560  1
  Al0+  Al54  1  0.50149180  -0.00201515  -0.00435206  1
  Al0+  Al55  1  0.49900415  -0.00173608  0.33145164  1
  Al0+  Al56  1  0.50194871  0.00020048  0.66450196  1
  Al0+  Al57  1  0.50078141  0.49775259  -0.00047575  1
  Al0+  Al58  1  0.50044772  0.50129308  0.33032762  1
  Al0+  Al59  1  0.49962123  0.49855876  0.66613880  1
  Al0+  Al60  1  0.25033651  0.24939443  0.01336134  1
  Al0+  Al61  1  0.24866413  0.24884620  0.32832338  1
  Al0+  Al62  1  0.25174511  0.24924736  0.66679638  1
  Al0+  Al63  1  0.25007619  0.74910102  -0.00733908  1
  Al0+  Al64  1  0.24959523  0.75008603  0.34127811  1
  Al0+  Al65  1  0.24780207  0.75140676  0.66039137  1
  Al0+  Al66  1  0.74956653  0.25142107  -0.00673687  1
  Al0+  Al67  1  0.74986067  0.25158104  0.33298227  1
  Al0+  Al68  1  0.75082757  0.25123248  0.67181112  1
  Al0+  Al69  1  0.75074361  0.74958741  0.00558426  1
  Al0+  Al70  1  0.74829965  0.75160975  0.32762528  1
  Al0+  Al71  1  0.75031897  0.75221168  0.66333726  1
  Al0+  Al72  1  0.06994066  0.67927665  0.98701916  1
  Al0+  Al73  1  0.81951837  0.07220387  0.34891690  1
  Al0+  Al74  1  0.81968067  0.57309288  0.68169546  1
  Al0+  Al75  1  0.56979141  0.17974807  0.98539575  1
  Al0+  Al76  1  0.32108356  0.06900488  0.67855179  1
  Al0+  Al77  1  0.81926429  0.57050832  0.01548314  1
  Al0+  Al78  1  0.92993722  0.82021627  0.65397894  1
  Al0+  Al79  1  0.57065202  0.67825788  0.31718603  1
  Al0+  Al80  1  0.43021920  0.81788896  0.98593619  1
  Al0+  Al81  1  0.07020839  0.18113669  0.65630482  1
  Al0+  Al82  1  0.81987000  0.07237077  0.01230944  1
  Al0+  Al83  1  0.56913556  0.67994664  0.65363736  1
  Al0+  Al84  1  0.42620340  0.82412651  0.64879919  1
  Al0+  Al85  1  0.32357103  0.07018702  0.01695388  1
  Al0+  Al86  1  0.18161222  0.42933545  0.67909490  1
  Al0+  Al87  1  0.93068160  0.32039732  0.98340187  1
  Al0+  Al88  1  0.17797636  0.42881715  0.01546259  1
  Al0+  Al89  1  0.32104130  0.57023394  0.34682793  1
  Al0+  Al90  1  0.07278886  0.17663156  0.31478995  1
  Al0+  Al91  1  0.42964127  0.31849918  0.65553531  1
  Al0+  Al92  1  0.17956271  0.92723991  0.01389096  1
  Al0+  Al93  1  0.56884907  0.17951327  0.32151809  1
  Al0+  Al94  1  0.92926430  0.32209784  0.31948650  1
  Al0+  Al95  1  0.67605267  0.42697745  0.68361942  1
  Si0+  Si96  1  0.17760716  0.42749598  0.35093040  1
  Si0+  Si97  1  0.57559072  0.17746370  0.64983420  1
  Si0+  Si98  1  0.92744376  0.82421429  0.98650073  1
  Si0+  Si99  1  0.42708996  0.32327940  0.31553445  1
  Si0+  Si100  1  0.07106302  0.68119811  0.32065892  1
  Si0+  Si101  1  0.42603608  0.82085931  0.31624904  1
  Si0+  Si102  1  0.68089248  0.93054808  0.68039557  1
  Si0+  Si103  1  0.67722470  0.92700450  0.35095122  1
  Si0+  Si104  1  0.67670386  0.42797535  0.01865709  1
  Si0+  Si105  1  0.42553936  0.32237335  0.98508331  1
  Si0+  Si106  1  0.07367470  0.17657862  0.98460743  1
  Si0+  Si107  1  0.82379572  0.07066458  0.68017594  1
  Si0+  Si108  1  0.92716453  0.32359338  0.65099082  1
  Si0+  Si109  1  0.32241981  0.57420823  0.68336891  1
  Si0+  Si110  1  0.17891416  0.92829198  0.35096048  1
  Si0+  Si111  1  0.32286346  0.57189780  0.01328334  1
  Si0+  Si112  1  0.17561092  0.92711689  0.68242140  1
  Si0+  Si113  1  0.57491880  0.67552612  0.98302910  1
  Si0+  Si114  1  0.82188859  0.57364108  0.34773761  1
  Si0+  Si115  1  0.67780505  0.92754959  0.01687987  1
  Si0+  Si116  1  0.07147575  0.67409395  0.64755356  1
  Si0+  Si117  1  0.32203020  0.07042077  0.34893050  1
  Si0+  Si118  1  0.67986830  0.43062961  0.34686561  1
  Si0+  Si119  1  0.92800691  0.82090442  0.31673380  1
  O2-  O120  1  0.24936517  -0.00011103  0.06673640  1
  O2-  O121  1  0.24713161  0.00320538  0.39149005  1
  O2-  O122  1  0.25036254  -0.00999714  0.72465251  1
  O2-  O123  1  0.25567500  0.50243263  0.05922374  1
  O2-  O124  1  0.25040985  0.49205697  0.39465216  1
  O2-  O125  1  0.25181237  0.50782719  0.72778925  1
  O2-  O126  1  0.74661859  -0.00349909  0.06052727  1
  O2-  O127  1  0.74449721  -0.00277943  0.39585278  1
  O2-  O128  1  0.74945069  0.00381389  0.72299590  1
  O2-  O129  1  0.74268231  0.49879060  0.06405856  1
  O2-  O130  1  0.75046531  0.50276774  0.38873650  1
  O2-  O131  1  0.74952153  0.49899506  0.73136259  1
  O2-  O132  1  0.00001007  0.24938875  0.26785299  1
  O2-  O133  1  -0.00547178  0.25385366  0.60718540  1
  O2-  O134  1  0.00656398  0.24570167  0.93850807  1
  O2-  O135  1  -0.00178791  0.74888968  0.27583853  1
  O2-  O136  1  0.00272844  0.74408790  0.60497911  1
  O2-  O137  1  -0.00445239  0.75543401  0.94207342  1
  O2-  O138  1  0.49204092  0.25064101  0.27232049  1
  O2-  O139  1  0.50797527  0.24804296  0.60731783  1
  O2-  O140  1  0.49154048  0.25128312  0.94078799  1
  O2-  O141  1  0.49455255  0.75201580  0.27182058  1
  O2-  O142  1  0.49300582  0.74639482  0.60059499  1
  O2-  O143  1  0.50457667  0.74245866  0.93985607  1
  O2-  O144  1  0.07063327  0.17749033  0.09010903  1
  O2-  O145  1  0.07365597  0.17856912  0.42897430  1
  O2-  O146  1  0.06892823  0.18001529  0.76929830  1
  O2-  O147  1  0.06959869  0.68053730  0.10112583  1
  O2-  O148  1  0.06981510  0.68254823  0.42563492  1
  O2-  O149  1  0.07189899  0.67369540  0.75292206  1
  O2-  O150  1  0.57067757  0.18226451  0.09892580  1
  O2-  O151  1  0.56854249  0.18223344  0.43461075  1
  O2-  O152  1  0.57545926  0.17523219  0.75522080  1
  O2-  O153  1  0.57358714  0.67704958  0.08909537  1
  O2-  O154  1  0.57227889  0.67794277  0.42990086  1
  O2-  O155  1  0.57004621  0.68507394  0.76721173  1
  O2-  O156  1  0.17646062  0.43158387  0.24543655  1
  O2-  O157  1  0.18369557  0.42974919  0.56563927  1
  O2-  O158  1  0.17893723  0.42877448  0.90217927  1
  O2-  O159  1  0.18071544  0.92306019  0.24624840  1
  O2-  O160  1  0.17274099  0.93093802  0.57639415  1
  O2-  O161  1  0.17872799  0.92827066  0.90047484  1
  O2-  O162  1  0.67951440  0.43110606  0.24178756  1
  O2-  O163  1  0.67837560  0.42614816  0.56905961  1
  O2-  O164  1  0.67583500  0.42888917  0.91348121  1
  O2-  O165  1  0.67918044  0.92524232  0.24548321  1
  O2-  O166  1  0.68244677  0.93036667  0.57515441  1
  O2-  O167  1  0.67947741  0.92746678  0.91088416  1
  O2-  O168  1  0.42955329  0.32603919  0.09080687  1
  O2-  O169  1  0.42813834  0.32371150  0.42134746  1
  O2-  O170  1  0.42698789  0.31384945  0.76836389  1
  O2-  O171  1  0.43120784  0.81560276  0.09962730  1
  O2-  O172  1  0.42737484  0.82165694  0.42149372  1
  O2-  O173  1  0.42991291  0.82522329  0.76235937  1
  O2-  O174  1  0.93044710  0.31982394  0.09659560  1
  O2-  O175  1  0.92996888  0.32248945  0.43335379  1
  O2-  O176  1  0.92807891  0.32191944  0.75653226  1
  O2-  O177  1  0.92788120  0.82233937  0.09239774  1
  O2-  O178  1  0.92770510  0.82016361  0.42206951  1
  O2-  O179  1  0.93144028  0.82321499  0.76691637  1
  O2-  O180  1  0.32493362  0.06628941  0.24435892  1
  O2-  O181  1  0.31874406  0.07062279  0.56474531  1
  O2-  O182  1  0.32269302  0.06956294  0.90319720  1
  O2-  O183  1  0.31753831  0.57172169  0.23346396  1
  O2-  O184  1  0.32144732  0.57079711  0.57725136  1
  O2-  O185  1  0.32268402  0.57104988  0.90799204  1
  O2-  O186  1  0.81732371  0.07183222  0.23583820  1
  O2-  O187  1  0.82290748  0.06951957  0.57491995  1
  O2-  O188  1  0.82023143  0.06876888  0.89862487  1
  O2-  O189  1  0.82247125  0.57377193  0.24274037  1
  O2-  O190  1  0.81796651  0.57220877  0.56713986  1
  O2-  O191  1  0.81809293  0.57176606  0.90287707  1
  O2-  O192  1  0.04605395  0.07625082  0.26576150  1
  O2-  O193  1  0.04156481  0.08576295  0.59827907  1
  O2-  O194  1  0.04669792  0.08215385  0.94109768  1
  O2-  O195  1  0.04609153  0.58836214  0.27395312  1
  O2-  O196  1  0.04471482  0.58116296  0.60033645  1
  O2-  O197  1  0.03566252  0.58455213  0.93313001  1
  O2-  O198  1  0.54139116  0.08154242  0.26764366  1
  O2-  O199  1  0.54994351  0.08497004  0.60218252  1
  O2-  O200  1  0.54429228  0.08193485  0.93165665  1
  O2-  O201  1  0.54119260  0.58216309  0.26145477  1
  O2-  O202  1  0.54545864  0.57999200  0.60124624  1
  O2-  O203  1  0.55264424  0.58029588  0.93960088  1
  O2-  O204  1  0.17153657  0.20266699  0.26138513  1
  O2-  O205  1  0.16482139  0.21494887  0.60021742  1
  O2-  O206  1  0.16994254  0.20142023  0.94446629  1
  O2-  O207  1  0.16244452  0.71226451  0.27436519  1
  O2-  O208  1  0.16451188  0.69962028  0.59962465  1
  O2-  O209  1  0.16508796  0.70670279  0.92952353  1
  O2-  O210  1  0.66412966  0.21371631  0.26749973  1
  O2-  O211  1  0.67019439  0.20317281  0.60499262  1
  O2-  O212  1  0.66397399  0.21251968  0.92858571  1
  O2-  O213  1  0.66617663  0.71122213  0.26126227  1
  O2-  O214  1  0.66516570  0.71395054  0.59859239  1
  O2-  O215  1  0.66884906  0.70350084  0.93952029  1
  O2-  O216  1  0.08395751  0.46499018  0.07023331  1
  O2-  O217  1  0.08581713  0.45802953  0.39836068  1
  O2-  O218  1  0.08407672  0.45639525  0.73324584  1
  O2-  O219  1  0.08164782  0.95169257  0.07108463  1
  O2-  O220  1  0.08556406  0.95264810  0.39741739  1
  O2-  O221  1  0.08376969  0.95799065  0.72893712  1
  O2-  O222  1  0.58201060  0.44983025  0.06563861  1
  O2-  O223  1  0.58745034  0.45785540  0.39348790  1
  O2-  O224  1  0.57729734  0.45406528  0.73630934  1
  O2-  O225  1  0.58480722  0.95320690  0.06296407  1
  O2-  O226  1  0.58224938  0.95020484  0.39532869  1
  O2-  O227  1  0.58896313  0.95685957  0.72825949  1
  O2-  O228  1  0.20623716  0.33438071  0.07469873  1
  O2-  O229  1  0.19998500  0.33121176  0.39292248  1
  O2-  O230  1  0.21646901  0.33504236  0.73421753  1
  O2-  O231  1  0.21154906  0.82836187  0.06576477  1
  O2-  O232  1  0.20802438  0.83884245  0.40272415  1
  O2-  O233  1  0.19331358  0.83001145  0.72406471  1
  O2-  O234  1  0.70688133  0.33498627  0.06292789  1
  O2-  O235  1  0.70769758  0.34011986  0.39632697  1
  O2-  O236  1  0.70356350  0.32850279  0.73804102  1
  O2-  O237  1  0.70149920  0.83431850  0.06496069  1
  O2-  O238  1  0.70734699  0.83408445  0.39713082  1
  O2-  O239  1  0.71155046  0.84081572  0.72914707  1
  O2-  O240  1  0.45657948  0.41476512  0.26781532  1
  O2-  O241  1  0.45552750  0.41596436  0.60011423  1
  O2-  O242  1  0.45231413  0.41496085  0.93688277  1
  O2-  O243  1  0.45215414  0.91375633  0.26900743  1
  O2-  O244  1  0.46209939  0.92009698  0.59476111  1
  O2-  O245  1  0.46335070  0.91289382  0.93061191  1
  O2-  O246  1  0.95771268  0.42163394  0.26681365  1
  O2-  O247  1  0.95247677  0.41771073  0.60630939  1
  O2-  O248  1  0.96209300  0.41678102  0.93069876  1
  O2-  O249  1  0.95762053  0.91253677  0.27098933  1
  O2-  O250  1  0.96291378  0.91391521  0.59392400  1
  O2-  O251  1  0.95336949  0.91825126  0.94159290  1
  O2-  O252  1  0.33216625  0.30220544  0.27098603  1
  O2-  O253  1  0.33671762  0.28348828  0.59669646  1
  O2-  O254  1  0.32955790  0.29825243  0.94412816  1
  O2-  O255  1  0.33166755  0.79330921  0.27285365  1
  O2-  O256  1  0.32486720  0.80443867  0.59787457  1
  O2-  O257  1  0.33522225  0.78898945  0.92867396  1
  O2-  O258  1  0.83087218  0.29435002  0.26618476  1
  O2-  O259  1  0.83246639  0.29882913  0.60665503  1
  O2-  O260  1  0.83481818  0.29005370  0.92844186  1
  O2-  O261  1  0.83638321  0.79615192  0.26828452  1
  O2-  O262  1  0.83460812  0.79137046  0.59578392  1
  O2-  O263  1  0.83288155  0.79912210  0.94196841  1
  O2-  O264  1  0.42165074  0.03569909  0.06777625  1
  O2-  O265  1  0.41282618  0.04005574  0.39772334  1
  O2-  O266  1  0.42011010  0.04290401  0.73033870  1
  O2-  O267  1  0.41708791  0.54735980  0.06041067  1
  O2-  O268  1  0.41913350  0.54086074  0.39910256  1
  O2-  O269  1  0.41570949  0.54938830  0.72851470  1
  O2-  O270  1  0.91481564  0.04339826  0.07057829  1
  O2-  O271  1  0.91668435  0.03923222  0.40125832  1
  O2-  O272  1  0.91438551  0.03753046  0.72617349  1
  O2-  O273  1  0.91477140  0.53710021  0.06985340  1
  O2-  O274  1  0.91383597  0.54768859  0.39609357  1
  O2-  O275  1  0.91896154  0.54737560  0.73405714  1
  O2-  O276  1  0.30083328  0.16803955  0.07354132  1
  O2-  O277  1  0.29726582  0.16516984  0.39269247  1
  O2-  O278  1  0.28642268  0.16300906  0.73378133  1
  O2-  O279  1  0.29500441  0.66461358  0.05932704  1
  O2-  O280  1  0.28811103  0.66462080  0.40454186  1
  O2-  O281  1  0.29795415  0.67037576  0.72456551  1
  O2-  O282  1  0.78501437  0.16874674  0.06433809  1
  O2-  O283  1  0.78745214  0.16848195  0.40316871  1
  O2-  O284  1  0.80072384  0.16342608  0.72754203  1
  O2-  O285  1  0.79341767  0.66814126  0.07182549  1
  O2-  O286  1  0.79352218  0.66682071  0.39227303  1
  O2-  O287  1  0.79059677  0.67212060  0.73313721  1
