# generated using pymatgen
data_Ca2Al2SiO7
_symmetry_space_group_name_H-M   'P 1'
_cell_length_a   15.45541831
_cell_length_b   15.45589174
_cell_length_c   15.28183997
_cell_angle_alpha   89.99979760
_cell_angle_beta   89.99389196
_cell_angle_gamma   89.99534848
_symmetry_Int_Tables_number   1
_chemical_formula_structural   Ca2Al2SiO7
_chemical_formula_sum   'Ca48 Al48 Si24 O168'
_cell_volume   3650.48421343
_cell_formula_units_Z   24
loop_
 _symmetry_equiv_pos_site_id
 _symmetry_equiv_pos_as_xyz
  1  'x, y, z'
loop_
 _atom_type_symbol
 _atom_type_oxidation_number
  Ca2+  2.0
  Al0+  0.0
  Si0+  0.0
  O2-  -2.0
loop_
 _atom_site_type_symbol
 _atom_site_label
 _atom_site_symmetry_multiplicity
 _atom_site_fract_x
 _atom_site_fract_y
 _atom_site_fract_z
 _atom_site_occupancy
  Ca2+  Ca0  1  0.16766841  0.07425314  0.17614591  1
  Ca2+  Ca1  1  0.15843820  0.07886205  0.50137152  1
  Ca2+  Ca2  1  0.16634854  0.08369721  0.83550531  1
  Ca2+  Ca3  1  0.16669965  0.58983828  0.16923057  1
  Ca2+  Ca4  1  0.17132333  0.58532560  0.50475082  1
  Ca2+  Ca5  1  0.17730245  0.58433326  0.84145674  1
  Ca2+  Ca6  1  0.66927912  0.07795253  0.16819694  1
  Ca2+  Ca7  1  0.67027683  0.07938837  0.50773810  1
  Ca2+  Ca8  1  0.67780597  0.07288455  0.83954857  1
  Ca2+  Ca9  1  0.67071414  0.58143790  0.17339585  1
  Ca2+  Ca10  1  0.67752279  0.59136278  0.50177975  1
  Ca2+  Ca11  1  0.67124892  0.57960745  0.83606762  1
  Ca2+  Ca12  1  0.07875302  0.33343405  0.16534698  1
  Ca2+  Ca13  1  0.07801434  0.32049435  0.49269679  1
  Ca2+  Ca14  1  0.08821089  0.32743047  0.82915548  1
  Ca2+  Ca15  1  0.08279426  0.82310233  0.16061312  1
  Ca2+  Ca16  1  0.07583490  0.82916159  0.49402751  1
  Ca2+  Ca17  1  0.06995352  0.83003257  0.83292018  1
  Ca2+  Ca18  1  0.59157718  0.32751084  0.16305494  1
  Ca2+  Ca19  1  0.57949928  0.32910693  0.49585499  1
  Ca2+  Ca20  1  0.58048437  0.33690665  0.82928012  1
  Ca2+  Ca21  1  0.57628355  0.83011909  0.16169423  1
  Ca2+  Ca22  1  0.57445595  0.83297339  0.49451931  1
  Ca2+  Ca23  1  0.57682343  0.84175352  0.82950797  1
  Ca2+  Ca24  1  0.32588981  0.42426460  0.16604715  1
  Ca2+  Ca25  1  0.33457386  0.42304398  0.51013952  1
  Ca2+  Ca26  1  0.33250856  0.42793362  0.84112579  1
  Ca2+  Ca27  1  0.32951749  0.90811828  0.17365653  1
  Ca2+  Ca28  1  0.32815464  0.90754722  0.50105015  1
  Ca2+  Ca29  1  0.33596892  0.91357600  0.83747376  1
  Ca2+  Ca30  1  0.83215206  0.42038226  0.17345790  1
  Ca2+  Ca31  1  0.84110143  0.42762095  0.50033596  1
  Ca2+  Ca32  1  0.82930957  0.42263532  0.83803442  1
  Ca2+  Ca33  1  0.83448622  0.91613368  0.16572368  1
  Ca2+  Ca34  1  0.82461792  0.91953222  0.51461211  1
  Ca2+  Ca35  1  0.82967920  0.91931385  0.83806389  1
  Ca2+  Ca36  1  0.42488058  0.16459183  0.16572611  1
  Ca2+  Ca37  1  0.42288191  0.17326981  0.49561228  1
  Ca2+  Ca38  1  0.41869614  0.17698958  0.82501185  1
  Ca2+  Ca39  1  0.41578101  0.67655241  0.16173879  1
  Ca2+  Ca40  1  0.42189136  0.67327867  0.49509323  1
  Ca2+  Ca41  1  0.41263885  0.67317188  0.82853693  1
  Ca2+  Ca42  1  0.91736678  0.16838604  0.16459157  1
  Ca2+  Ca43  1  0.92292682  0.16713132  0.49512546  1
  Ca2+  Ca44  1  0.91844090  0.16138878  0.82741221  1
  Ca2+  Ca45  1  0.92686708  0.66619200  0.16087304  1
  Ca2+  Ca46  1  0.91484867  0.66889326  0.49314908  1
  Ca2+  Ca47  1  0.91423993  0.67485120  0.82872284  1
  Al0+  Al48  1  0.00149668  0.00018258  0.00078060  1
  Al0+  Al49  1  0.00048578  0.00034732  0.33510421  1
  Al0+  Al50  1  0.00009029  -0.00205936  0.66256349  1
  Al0+  Al51  1  0.00171063  0.49672755  -0.00337731  1
  Al0+  Al52  1  -0.00000177  0.49981723  0.33158482  1
  Al0+  Al53  1  0.00128209  0.49851202  0.67291483  1
  Al0+  Al54  1  0.50284688  0.00113394  -0.00160637  1
  Al0+  Al55  1  0.49837765  0.00277441  0.32732048  1
  Al0+  Al56  1  0.49741211  0.00043345  0.66530605  1
  Al0+  Al57  1  0.49946970  0.50021669  0.01007329  1
  Al0+  Al58  1  0.50005920  0.49987703  0.33149250  1
  Al0+  Al59  1  0.49922596  0.50152087  0.66553184  1
  Al0+  Al60  1  0.25091760  0.25153013  0.00489798  1
  Al0+  Al61  1  0.25030462  0.24941671  0.33036866  1
  Al0+  Al62  1  0.24972829  0.24829134  0.65642502  1
  Al0+  Al63  1  0.25132278  0.75067637  -0.00520253  1
  Al0+  Al64  1  0.24795499  0.75060206  0.33356809  1
  Al0+  Al65  1  0.24930044  0.74989041  0.66805940  1
  Al0+  Al66  1  0.75233055  0.24912747  0.00463997  1
  Al0+  Al67  1  0.74853184  0.25030635  0.32805385  1
  Al0+  Al68  1  0.75126962  0.25039413  0.66914268  1
  Al0+  Al69  1  0.74845669  0.75041658  0.00087058  1
  Al0+  Al70  1  0.74773794  0.75053604  0.33398321  1
  Al0+  Al71  1  0.74861604  0.74980474  0.67247172  1
  Al0+  Al72  1  0.82309972  0.07126044  0.68041321  1
  Al0+  Al73  1  0.57339479  0.67827998  0.31794472  1
  Al0+  Al74  1  0.42985120  0.32303749  0.65455009  1
  Al0+  Al75  1  0.67556573  0.92923288  0.68119800  1
  Al0+  Al76  1  0.06911384  0.67994092  0.32223693  1
  Al0+  Al77  1  0.67964913  0.42966374  0.01382887  1
  Al0+  Al78  1  0.57012038  0.18063792  0.31911361  1
  Al0+  Al79  1  0.07144235  0.17656037  0.31547822  1
  Al0+  Al80  1  0.43146812  0.82113455  0.98435857  1
  Al0+  Al81  1  0.42906016  0.81950122  0.31853639  1
  Al0+  Al82  1  0.67759620  0.92785162  0.01812793  1
  Al0+  Al83  1  0.82346969  0.06917663  0.01773468  1
  Al0+  Al84  1  0.92812179  0.82131169  0.98543607  1
  Al0+  Al85  1  0.32063640  0.57137283  0.67931882  1
  Al0+  Al86  1  0.06984878  0.17830490  0.65301957  1
  Al0+  Al87  1  0.17822612  0.42736924  0.01618422  1
  Al0+  Al88  1  0.82069923  0.57058634  0.34553312  1
  Al0+  Al89  1  0.42779983  0.82168986  0.65194209  1
  Al0+  Al90  1  0.17934723  0.92863221  0.34789895  1
  Al0+  Al91  1  0.92732252  0.81827899  0.65256704  1
  Al0+  Al92  1  0.82273594  0.57103980  0.68100371  1
  Al0+  Al93  1  0.07156616  0.67611687  0.98247553  1
  Al0+  Al94  1  0.93002605  0.32060598  0.31804380  1
  Al0+  Al95  1  0.31924131  0.57390393  0.01786197  1
  Si0+  Si96  1  0.57163077  0.67482655  0.98309597  1
  Si0+  Si97  1  0.57183295  0.67730091  0.65108034  1
  Si0+  Si98  1  0.07091289  0.67708207  0.65105471  1
  Si0+  Si99  1  0.18148152  0.93098892  0.01257374  1
  Si0+  Si100  1  0.31982715  0.07252615  0.68020642  1
  Si0+  Si101  1  0.42958082  0.32022872  0.98701151  1
  Si0+  Si102  1  0.92795032  0.31952166  0.98311432  1
  Si0+  Si103  1  0.32036928  0.57064034  0.34960926  1
  Si0+  Si104  1  0.92665691  0.32411525  0.65154883  1
  Si0+  Si105  1  0.17899623  0.42769507  0.35006890  1
  Si0+  Si106  1  0.67758346  0.42794739  0.68084379  1
  Si0+  Si107  1  0.67709012  0.93055881  0.34830979  1
  Si0+  Si108  1  0.92557914  0.82305340  0.31899203  1
  Si0+  Si109  1  0.57225526  0.17917320  0.65256686  1
  Si0+  Si110  1  0.42668813  0.32420904  0.31407247  1
  Si0+  Si111  1  0.17923008  0.92892238  0.68266187  1
  Si0+  Si112  1  0.32294754  0.07320376  0.35117218  1
  Si0+  Si113  1  0.82274717  0.57212371  0.01588502  1
  Si0+  Si114  1  0.81993031  0.07195396  0.34886375  1
  Si0+  Si115  1  0.67724749  0.42636115  0.35128367  1
  Si0+  Si116  1  0.57320410  0.18030099  0.98290675  1
  Si0+  Si117  1  0.07268975  0.17976129  0.98578244  1
  Si0+  Si118  1  0.18015672  0.42508529  0.68114577  1
  Si0+  Si119  1  0.32252441  0.07327256  0.01343554  1
  O2-  O120  1  0.25501498  -0.00069753  0.05505111  1
  O2-  O121  1  0.25313727  0.00535997  0.39502963  1
  O2-  O122  1  0.25099960  0.00033957  0.72409245  1
  O2-  O123  1  0.24315481  0.50525735  0.06735850  1
  O2-  O124  1  0.25226550  0.49656998  0.39251723  1
  O2-  O125  1  0.24716089  0.49499299  0.72535064  1
  O2-  O126  1  0.75298817  -0.00375580  0.06865350  1
  O2-  O127  1  0.75059484  -0.00087086  0.39103655  1
  O2-  O128  1  0.75045531  -0.00038614  0.72943676  1
  O2-  O129  1  0.75292365  0.50508484  0.06072162  1
  O2-  O130  1  0.74425241  0.49713925  0.39434611  1
  O2-  O131  1  0.74847274  0.49426191  0.72503386  1
  O2-  O132  1  0.00007665  0.24816920  0.26492541  1
  O2-  O133  1  -0.00703407  0.25228323  0.60899965  1
  O2-  O134  1  0.00115024  0.24955134  0.94237921  1
  O2-  O135  1  -0.00634033  0.75366426  0.27561977  1
  O2-  O136  1  -0.00183502  0.74013756  0.60521049  1
  O2-  O137  1  -0.00471511  0.74481065  0.93438694  1
  O2-  O138  1  0.49703156  0.25670568  0.27084851  1
  O2-  O139  1  0.50625434  0.25025607  0.60786067  1
  O2-  O140  1  0.50220208  0.25220128  0.94179175  1
  O2-  O141  1  0.50079788  0.74867528  0.26706393  1
  O2-  O142  1  0.50452563  0.74827388  0.60779727  1
  O2-  O143  1  0.50586065  0.74585177  0.93765372  1
  O2-  O144  1  0.07360228  0.17988946  0.09025649  1
  O2-  O145  1  0.06889961  0.17764967  0.42919760  1
  O2-  O146  1  0.07389700  0.18098326  0.76665394  1
  O2-  O147  1  0.07097950  0.67977663  0.09644404  1
  O2-  O148  1  0.06976482  0.68038805  0.43561642  1
  O2-  O149  1  0.07186977  0.68042880  0.75622218  1
  O2-  O150  1  0.57098675  0.18033008  0.08802774  1
  O2-  O151  1  0.56892402  0.18159577  0.43268675  1
  O2-  O152  1  0.56970043  0.18057815  0.75822958  1
  O2-  O153  1  0.56943706  0.67476890  0.08853755  1
  O2-  O154  1  0.57339007  0.68093910  0.43189497  1
  O2-  O155  1  0.56963470  0.67264020  0.75651471  1
  O2-  O156  1  0.17998767  0.42819932  0.24528769  1
  O2-  O157  1  0.18073887  0.42588523  0.57529896  1
  O2-  O158  1  0.18623823  0.41951816  0.90273785  1
  O2-  O159  1  0.18165044  0.92830967  0.23440422  1
  O2-  O160  1  0.17974373  0.92873042  0.57753833  1
  O2-  O161  1  0.18082633  0.93462935  0.90705246  1
  O2-  O162  1  0.67925852  0.42565920  0.24570217  1
  O2-  O163  1  0.67643976  0.42675893  0.57559365  1
  O2-  O164  1  0.68042796  0.42968715  0.90009901  1
  O2-  O165  1  0.67740029  0.93164918  0.24358790  1
  O2-  O166  1  0.67494581  0.93227922  0.56673737  1
  O2-  O167  1  0.67385675  0.93370491  0.90495365  1
  O2-  O168  1  0.42899080  0.31566127  0.09177918  1
  O2-  O169  1  0.42695299  0.32394821  0.42008972  1
  O2-  O170  1  0.43017953  0.32132727  0.76809580  1
  O2-  O171  1  0.42988210  0.82146995  0.09708727  1
  O2-  O172  1  0.42960328  0.81779417  0.43236147  1
  O2-  O173  1  0.42754908  0.82123333  0.76488695  1
  O2-  O174  1  0.92674816  0.31912429  0.08783883  1
  O2-  O175  1  0.93229161  0.32015085  0.43212728  1
  O2-  O176  1  0.92709885  0.32529901  0.75722198  1
  O2-  O177  1  0.93359966  0.82252607  0.09927190  1
  O2-  O178  1  0.92584764  0.82191570  0.42487945  1
  O2-  O179  1  0.93002516  0.81982589  0.76528586  1
  O2-  O180  1  0.32318783  0.07304494  0.24523231  1
  O2-  O181  1  0.32025991  0.07409981  0.57546380  1
  O2-  O182  1  0.31965306  0.07723126  0.90791575  1
  O2-  O183  1  0.31840356  0.57063304  0.24490082  1
  O2-  O184  1  0.31924111  0.57038362  0.56569223  1
  O2-  O185  1  0.32131056  0.57076113  0.90395762  1
  O2-  O186  1  0.81930758  0.07113530  0.24401319  1
  O2-  O187  1  0.82037722  0.07158575  0.56625818  1
  O2-  O188  1  0.82266997  0.07102875  0.90421059  1
  O2-  O189  1  0.82113046  0.56837781  0.23267314  1
  O2-  O190  1  0.82318135  0.57007606  0.56773999  1
  O2-  O191  1  0.82099252  0.56919019  0.90991539  1
  O2-  O192  1  0.04344907  0.07749911  0.26415001  1
  O2-  O193  1  0.04088344  0.08219832  0.59767463  1
  O2-  O194  1  0.04675487  0.08784796  0.93770905  1
  O2-  O195  1  0.04118676  0.58380124  0.26707856  1
  O2-  O196  1  0.05211205  0.57987824  0.60942339  1
  O2-  O197  1  0.05081852  0.57486449  0.93146568  1
  O2-  O198  1  0.53698957  0.08687625  0.26098594  1
  O2-  O199  1  0.54214755  0.08802334  0.60465077  1
  O2-  O200  1  0.54357759  0.09004010  0.93454200  1
  O2-  O201  1  0.54887432  0.57779525  0.26784203  1
  O2-  O202  1  0.54486435  0.58551318  0.60172276  1
  O2-  O203  1  0.54375929  0.58055894  0.93878324  1
  O2-  O204  1  0.17156241  0.20258752  0.26533824  1
  O2-  O205  1  0.16430625  0.20846849  0.59406646  1
  O2-  O206  1  0.16509506  0.20913972  0.93882582  1
  O2-  O207  1  0.16409597  0.71262156  0.26709716  1
  O2-  O208  1  0.16276260  0.70792072  0.60432480  1
  O2-  O209  1  0.16807761  0.70998824  0.92937934  1
  O2-  O210  1  0.66523300  0.20981137  0.26204324  1
  O2-  O211  1  0.66669287  0.20255219  0.60683310  1
  O2-  O212  1  0.66523844  0.20937364  0.93727274  1
  O2-  O213  1  0.67076108  0.70735928  0.26368872  1
  O2-  O214  1  0.66602757  0.70199540  0.60674806  1
  O2-  O215  1  0.66696306  0.69610225  0.93887641  1
  O2-  O216  1  0.07624643  0.44649140  0.06509512  1
  O2-  O217  1  0.08806978  0.45712335  0.39751006  1
  O2-  O218  1  0.08643116  0.44606253  0.72887663  1
  O2-  O219  1  0.09193316  0.96103947  0.06199190  1
  O2-  O220  1  0.08230160  0.95889916  0.40307818  1
  O2-  O221  1  0.08839062  0.95918715  0.72981001  1
  O2-  O222  1  0.58347186  0.45457676  0.07112046  1
  O2-  O223  1  0.58148403  0.44841600  0.39532929  1
  O2-  O224  1  0.58513043  0.45627490  0.72828228  1
  O2-  O225  1  0.58071161  0.96357531  0.07127109  1
  O2-  O226  1  0.58521657  0.96237946  0.39362409  1
  O2-  O227  1  0.57746614  0.96096626  0.73371441  1
  O2-  O228  1  0.21359268  0.33228269  0.07341276  1
  O2-  O229  1  0.20575899  0.33430571  0.39586254  1
  O2-  O230  1  0.20806074  0.33101958  0.72500782  1
  O2-  O231  1  0.20832425  0.83870234  0.05818487  1
  O2-  O232  1  0.21142433  0.83318389  0.40447379  1
  O2-  O233  1  0.20746795  0.83818676  0.73106309  1
  O2-  O234  1  0.71211459  0.33391660  0.06818555  1
  O2-  O235  1  0.70352574  0.33254694  0.39705084  1
  O2-  O236  1  0.69983465  0.33415974  0.72885200  1
  O2-  O237  1  0.70014717  0.82712167  0.06896473  1
  O2-  O238  1  0.70169783  0.83807749  0.39580203  1
  O2-  O239  1  0.69966789  0.83063708  0.73440494  1
  O2-  O240  1  0.44976415  0.41806084  0.26846667  1
  O2-  O241  1  0.45936788  0.41865207  0.59805441  1
  O2-  O242  1  0.45611346  0.41387238  0.94305771  1
  O2-  O243  1  0.45276226  0.91939435  0.26734671  1
  O2-  O244  1  0.45373446  0.91997100  0.59812326  1
  O2-  O245  1  0.46041871  0.91974109  0.93148080  1
  O2-  O246  1  0.96065428  0.41745124  0.26391080  1
  O2-  O247  1  0.95662814  0.41657923  0.60494779  1
  O2-  O248  1  0.95354228  0.41095003  0.93389664  1
  O2-  O249  1  0.95181896  0.91647896  0.27428373  1
  O2-  O250  1  0.96136306  0.91297627  0.59717247  1
  O2-  O251  1  0.96370188  0.91838714  0.93235298  1
  O2-  O252  1  0.33412426  0.29654981  0.26771169  1
  O2-  O253  1  0.33648852  0.28965750  0.59615212  1
  O2-  O254  1  0.33896994  0.28881935  0.93884688  1
  O2-  O255  1  0.33113967  0.78865288  0.26676752  1
  O2-  O256  1  0.33093671  0.78879023  0.59931065  1
  O2-  O257  1  0.33474394  0.79264844  0.92947286  1
  O2-  O258  1  0.83115187  0.29463012  0.26564863  1
  O2-  O259  1  0.83177784  0.30304768  0.60590852  1
  O2-  O260  1  0.83684654  0.28960469  0.93507550  1
  O2-  O261  1  0.83185558  0.79977654  0.27346310  1
  O2-  O262  1  0.82839146  0.79133079  0.60127932  1
  O2-  O263  1  0.82709533  0.79840772  0.93493444  1
  O2-  O264  1  0.41575910  0.04894690  0.05864548  1
  O2-  O265  1  0.41698510  0.04812381  0.39694615  1
  O2-  O266  1  0.41164663  0.04783177  0.72907673  1
  O2-  O267  1  0.41508179  0.54124120  0.07316257  1
  O2-  O268  1  0.41388889  0.54472955  0.39543942  1
  O2-  O269  1  0.41736437  0.54126675  0.73327151  1
  O2-  O270  1  0.92317997  0.04337714  0.07010826  1
  O2-  O271  1  0.91296594  0.04733204  0.39518556  1
  O2-  O272  1  0.92192919  0.04193347  0.73195784  1
  O2-  O273  1  0.91661059  0.54349318  0.05882968  1
  O2-  O274  1  0.91679344  0.53795162  0.40089852  1
  O2-  O275  1  0.91861595  0.54103608  0.73741629  1
  O2-  O276  1  0.29280999  0.16220515  0.06481313  1
  O2-  O277  1  0.29934326  0.16833270  0.39613744  1
  O2-  O278  1  0.28952639  0.16411274  0.72775872  1
  O2-  O279  1  0.29198770  0.67378868  0.06827773  1
  O2-  O280  1  0.28892315  0.66100813  0.39719377  1
  O2-  O281  1  0.28785892  0.66667393  0.73474304  1
  O2-  O282  1  0.79255590  0.16689605  0.07044592  1
  O2-  O283  1  0.78936342  0.16383314  0.39457534  1
  O2-  O284  1  0.79780178  0.17095235  0.73350612  1
  O2-  O285  1  0.80065015  0.66635004  0.06099230  1
  O2-  O286  1  0.79007854  0.66786034  0.40040201  1
  O2-  O287  1  0.78953152  0.66507898  0.73748881  1
