# generated using pymatgen
data_Ca2Al2SiO7
_symmetry_space_group_name_H-M   'P 1'
_cell_length_a   15.45461172
_cell_length_b   15.45488699
_cell_length_c   15.28142183
_cell_angle_alpha   90.00877694
_cell_angle_beta   90.00076943
_cell_angle_gamma   90.01359050
_symmetry_Int_Tables_number   1
_chemical_formula_structural   Ca2Al2SiO7
_chemical_formula_sum   'Ca48 Al48 Si24 O168'
_cell_volume   3649.95641962
_cell_formula_units_Z   24
loop_
 _symmetry_equiv_pos_site_id
 _symmetry_equiv_pos_as_xyz
  1  'x, y, z'
loop_
 _atom_type_symbol
 _atom_type_oxidation_number
  Ca2+  2.0
  Al0+  0.0
  Si0+  0.0
  O2-  -2.0
loop_
 _atom_site_type_symbol
 _atom_site_label
 _atom_site_symmetry_multiplicity
 _atom_site_fract_x
 _atom_site_fract_y
 _atom_site_fract_z
 _atom_site_occupancy
  Ca2+  Ca0  1  0.17224541  0.08336634  0.17804653  1
  Ca2+  Ca1  1  0.17194533  0.07707402  0.50026363  1
  Ca2+  Ca2  1  0.17072581  0.08608952  0.83414173  1
  Ca2+  Ca3  1  0.16714953  0.57036795  0.17495051  1
  Ca2+  Ca4  1  0.17817165  0.58227264  0.50007965  1
  Ca2+  Ca5  1  0.17159288  0.57577367  0.83719804  1
  Ca2+  Ca6  1  0.66898039  0.08529731  0.16653454  1
  Ca2+  Ca7  1  0.66340007  0.07839810  0.50329839  1
  Ca2+  Ca8  1  0.67042750  0.07608122  0.84259423  1
  Ca2+  Ca9  1  0.67172459  0.57721625  0.17607927  1
  Ca2+  Ca10  1  0.66962755  0.57271491  0.50080793  1
  Ca2+  Ca11  1  0.66446488  0.57448633  0.83331256  1
  Ca2+  Ca12  1  0.09361848  0.32490145  0.16274341  1
  Ca2+  Ca13  1  0.08129184  0.33009011  0.49332940  1
  Ca2+  Ca14  1  0.08078799  0.32955264  0.82979655  1
  Ca2+  Ca15  1  0.07116153  0.84100051  0.16513811  1
  Ca2+  Ca16  1  0.08276759  0.83807841  0.49120141  1
  Ca2+  Ca17  1  0.07744811  0.83918842  0.82982843  1
  Ca2+  Ca18  1  0.58740874  0.32298733  0.16573096  1
  Ca2+  Ca19  1  0.57997609  0.33314844  0.49438452  1
  Ca2+  Ca20  1  0.58212415  0.32638762  0.82366731  1
  Ca2+  Ca21  1  0.56877294  0.83795429  0.15999271  1
  Ca2+  Ca22  1  0.57739139  0.83328245  0.49223556  1
  Ca2+  Ca23  1  0.58051451  0.84037016  0.83225604  1
  Ca2+  Ca24  1  0.32284120  0.42013603  0.17537753  1
  Ca2+  Ca25  1  0.33394091  0.42282305  0.50440007  1
  Ca2+  Ca26  1  0.33549555  0.42007922  0.83609390  1
  Ca2+  Ca27  1  0.32945886  0.91871292  0.17743588  1
  Ca2+  Ca28  1  0.32865190  0.92647180  0.50329013  1
  Ca2+  Ca29  1  0.33010957  0.92136913  0.83462323  1
  Ca2+  Ca30  1  0.82797469  0.42397479  0.17747854  1
  Ca2+  Ca31  1  0.82403143  0.41254668  0.50282745  1
  Ca2+  Ca32  1  0.83059394  0.40955018  0.83365399  1
  Ca2+  Ca33  1  0.83277823  0.91680172  0.16721534  1
  Ca2+  Ca34  1  0.82866830  0.91702602  0.50488260  1
  Ca2+  Ca35  1  0.82246500  0.91959670  0.84381652  1
  Ca2+  Ca36  1  0.42934903  0.15838187  0.16460577  1
  Ca2+  Ca37  1  0.41768787  0.16529212  0.49467060  1
  Ca2+  Ca38  1  0.42057972  0.17095744  0.82745320  1
  Ca2+  Ca39  1  0.40606637  0.67811317  0.16728899  1
  Ca2+  Ca40  1  0.41151943  0.66952629  0.49303564  1
  Ca2+  Ca41  1  0.41358673  0.67167272  0.82957320  1
  Ca2+  Ca42  1  0.93155095  0.16173291  0.16014712  1
  Ca2+  Ca43  1  0.92296224  0.17177096  0.49418367  1
  Ca2+  Ca44  1  0.92095770  0.16597821  0.83205754  1
  Ca2+  Ca45  1  0.91037491  0.67700908  0.16525373  1
  Ca2+  Ca46  1  0.91664213  0.67391582  0.49038436  1
  Ca2+  Ca47  1  0.91741838  0.67236488  0.83133231  1
  Al0+  Al48  1  -0.00034338  0.00064176  -0.00813252  1
  Al0+  Al49  1  -0.00134225  0.00146776  0.32946647  1
  Al0+  Al50  1  -0.00001769  -0.00018153  0.66795812  1
  Al0+  Al51  1  0.00049938  0.49965466  0.00406231  1
  Al0+  Al52  1  -0.00089357  0.50187177  0.34097084  1
  Al0+  Al53  1  0.00008922  0.50173207  0.66065971  1
  Al0+  Al54  1  0.49987492  -0.00017458  -0.00677750  1
  Al0+  Al55  1  0.50043750  0.00009883  0.32854849  1
  Al0+  Al56  1  0.49892899  -0.00055132  0.67350220  1
  Al0+  Al57  1  0.49956550  0.50261637  0.00319176  1
  Al0+  Al58  1  0.50083700  0.49962987  0.33731075  1
  Al0+  Al59  1  0.50142077  0.49994873  0.67160322  1
  Al0+  Al60  1  0.25091511  0.25008276  -0.00120889  1
  Al0+  Al61  1  0.25129558  0.25022499  0.33742503  1
  Al0+  Al62  1  0.25090023  0.25025863  0.66489722  1
  Al0+  Al63  1  0.24966009  0.75062446  -0.00544782  1
  Al0+  Al64  1  0.24676998  0.74884865  0.33412563  1
  Al0+  Al65  1  0.24910039  0.74960748  0.67483661  1
  Al0+  Al66  1  0.75142043  0.24822086  0.00036413  1
  Al0+  Al67  1  0.75029820  0.24909778  0.33263758  1
  Al0+  Al68  1  0.75117000  0.24918894  0.66585351  1
  Al0+  Al69  1  0.74734287  0.74939969  -0.00165921  1
  Al0+  Al70  1  0.74896977  0.74981848  0.33224253  1
  Al0+  Al71  1  0.74938192  0.74899716  0.66996535  1
  Al0+  Al72  1  0.32163210  0.56991798  0.68265690  1
  Al0+  Al73  1  0.17788550  0.92922030  0.68343211  1
  Al0+  Al74  1  0.67720442  0.92859651  0.01796852  1
  Al0+  Al75  1  0.68017111  0.42603071  0.34842052  1
  Al0+  Al76  1  0.67954450  0.92777545  0.67929604  1
  Al0+  Al77  1  0.42779365  0.81939971  0.32256967  1
  Al0+  Al78  1  0.07148202  0.18177755  0.32078744  1
  Al0+  Al79  1  0.42992295  0.32212733  0.65304543  1
  Al0+  Al80  1  0.68117505  0.42855677  0.68142793  1
  Al0+  Al81  1  0.32086969  0.07324636  0.68377394  1
  Al0+  Al82  1  0.07334901  0.17944970  0.98494331  1
  Al0+  Al83  1  0.82041716  0.57422937  0.34911983  1
  Al0+  Al84  1  0.32495479  0.07004022  0.34660980  1
  Al0+  Al85  1  0.92762625  0.82126134  0.32010987  1
  Al0+  Al86  1  0.18010338  0.42870656  0.01243903  1
  Al0+  Al87  1  0.32051362  0.57145870  0.34729343  1
  Al0+  Al88  1  0.42788083  0.82065425  0.98332790  1
  Al0+  Al89  1  0.92888411  0.32108942  0.65207008  1
  Al0+  Al90  1  0.57248694  0.18079649  0.98420694  1
  Al0+  Al91  1  0.82245807  0.07072736  0.01635046  1
  Al0+  Al92  1  0.92824570  0.81996079  0.98405645  1
  Al0+  Al93  1  0.57146520  0.17894644  0.31988257  1
  Al0+  Al94  1  0.17825910  0.42612496  0.35093894  1
  Al0+  Al95  1  0.17607634  0.93017440  0.34485171  1
  Si0+  Si96  1  0.42964685  0.32338228  0.98530261  1
  Si0+  Si97  1  0.82217725  0.07185727  0.68230935  1
  Si0+  Si98  1  0.17876589  0.92836563  0.01415646  1
  Si0+  Si99  1  0.82184358  0.07023158  0.34791340  1
  Si0+  Si100  1  0.42865191  0.32415842  0.31677903  1
  Si0+  Si101  1  0.82334351  0.57204440  0.68448819  1
  Si0+  Si102  1  0.57167185  0.67604652  0.98171717  1
  Si0+  Si103  1  0.57166422  0.67896364  0.65148168  1
  Si0+  Si104  1  0.82094071  0.57077260  0.01363958  1
  Si0+  Si105  1  0.92835873  0.32333598  0.31675584  1
  Si0+  Si106  1  0.57158376  0.67693315  0.31741592  1
  Si0+  Si107  1  0.67831353  0.42802698  0.01424881  1
  Si0+  Si108  1  0.32192989  0.57400101  0.01752668  1
  Si0+  Si109  1  0.42872436  0.82029120  0.65206065  1
  Si0+  Si110  1  0.67855935  0.92984621  0.34602551  1
  Si0+  Si111  1  0.07141406  0.67707787  0.31642879  1
  Si0+  Si112  1  0.07061707  0.67594602  0.98297169  1
  Si0+  Si113  1  0.92827708  0.82005801  0.65213997  1
  Si0+  Si114  1  0.17621785  0.42869251  0.68267595  1
  Si0+  Si115  1  0.32018270  0.07057813  0.01449210  1
  Si0+  Si116  1  0.07240490  0.17710785  0.64814618  1
  Si0+  Si117  1  0.57102631  0.17664236  0.65037913  1
  Si0+  Si118  1  0.92898887  0.32388151  0.98559761  1
  Si0+  Si119  1  0.07214255  0.68011132  0.65096436  1
  O2-  O120  1  0.24926310  -0.00067561  0.05671554  1
  O2-  O121  1  0.25067782  -0.00075154  0.39478166  1
  O2-  O122  1  0.24781226  0.00245935  0.73459845  1
  O2-  O123  1  0.25421642  0.50388548  0.05949726  1
  O2-  O124  1  0.25204793  0.49729033  0.39914600  1
  O2-  O125  1  0.24841771  0.49297505  0.72840102  1
  O2-  O126  1  0.75059367  -0.00085077  0.06815458  1
  O2-  O127  1  0.74996931  -0.00030683  0.38967030  1
  O2-  O128  1  0.75388982  0.00257802  0.72548249  1
  O2-  O129  1  0.75004400  0.49904648  0.05500135  1
  O2-  O130  1  0.75245805  0.49821351  0.39818353  1
  O2-  O131  1  0.75849009  0.50029599  0.72987564  1
  O2-  O132  1  0.00099507  0.25996757  0.27150633  1
  O2-  O133  1  0.00457109  0.24760198  0.60537962  1
  O2-  O134  1  -0.00251145  0.25497292  0.94136109  1
  O2-  O135  1  0.00191904  0.74582643  0.27301545  1
  O2-  O136  1  0.00155193  0.75226925  0.60923500  1
  O2-  O137  1  0.00377491  0.74582278  0.93707455  1
  O2-  O138  1  0.49648168  0.25404843  0.27298868  1
  O2-  O139  1  0.50293987  0.24556347  0.60611865  1
  O2-  O140  1  0.50106625  0.25902574  0.93895695  1
  O2-  O141  1  0.49988959  0.74255786  0.27368677  1
  O2-  O142  1  0.50081181  0.75030695  0.60945216  1
  O2-  O143  1  0.50337193  0.74535702  0.93782533  1
  O2-  O144  1  0.07517412  0.17992650  0.09793987  1
  O2-  O145  1  0.06612232  0.17957570  0.43375849  1
  O2-  O146  1  0.07074647  0.17758494  0.75403262  1
  O2-  O147  1  0.06900270  0.67458513  0.08811214  1
  O2-  O148  1  0.07181516  0.67932381  0.42228807  1
  O2-  O149  1  0.06905403  0.67791779  0.75631765  1
  O2-  O150  1  0.57155604  0.18179587  0.09743966  1
  O2-  O151  1  0.57162406  0.17687898  0.43295248  1
  O2-  O152  1  0.57147052  0.17885843  0.75610166  1
  O2-  O153  1  0.57199270  0.67230318  0.08693526  1
  O2-  O154  1  0.57406928  0.68018249  0.42326585  1
  O2-  O155  1  0.57241643  0.67928227  0.75672183  1
  O2-  O156  1  0.17973717  0.42717389  0.23676558  1
  O2-  O157  1  0.17546522  0.43227450  0.57763773  1
  O2-  O158  1  0.17996503  0.43107397  0.89909446  1
  O2-  O159  1  0.17551690  0.93263848  0.23071436  1
  O2-  O160  1  0.17745816  0.92871270  0.57014193  1
  O2-  O161  1  0.18087826  0.92857983  0.90908214  1
  O2-  O162  1  0.68216993  0.42712690  0.23397638  1
  O2-  O163  1  0.68102342  0.43028654  0.56909866  1
  O2-  O164  1  0.67828505  0.42916301  0.90899646  1
  O2-  O165  1  0.67822538  0.93024156  0.24144564  1
  O2-  O166  1  0.68069646  0.92721029  0.56546695  1
  O2-  O167  1  0.67954508  0.93032722  0.90404483  1
  O2-  O168  1  0.43022759  0.32291012  0.09069414  1
  O2-  O169  1  0.43127480  0.32558913  0.42236881  1
  O2-  O170  1  0.43344093  0.32251354  0.76672067  1
  O2-  O171  1  0.42562292  0.81895472  0.09654647  1
  O2-  O172  1  0.43167609  0.82021952  0.43597416  1
  O2-  O173  1  0.43049936  0.81851120  0.75729355  1
  O2-  O174  1  0.92898759  0.32687820  0.09079599  1
  O2-  O175  1  0.92646732  0.31804871  0.42244380  1
  O2-  O176  1  0.93063059  0.32014117  0.76565047  1
  O2-  O177  1  0.92889762  0.81835076  0.09710838  1
  O2-  O178  1  0.92669166  0.82125367  0.43370503  1
  O2-  O179  1  0.92761487  0.81714453  0.75719576  1
  O2-  O180  1  0.32600338  0.06710699  0.23235878  1
  O2-  O181  1  0.32308219  0.06964593  0.57057404  1
  O2-  O182  1  0.31824283  0.07150782  0.90946406  1
  O2-  O183  1  0.31719035  0.57117720  0.23337298  1
  O2-  O184  1  0.32012007  0.57235721  0.57013747  1
  O2-  O185  1  0.32263787  0.57243262  0.91170730  1
  O2-  O186  1  0.82321937  0.06988321  0.24324648  1
  O2-  O187  1  0.82293563  0.07007334  0.57625070  1
  O2-  O188  1  0.82096268  0.07010103  0.90232521  1
  O2-  O189  1  0.81687823  0.57417786  0.23467621  1
  O2-  O190  1  0.82006176  0.57573487  0.57964747  1
  O2-  O191  1  0.82196329  0.56941713  0.90835309  1
  O2-  O192  1  0.03631295  0.08742702  0.26479605  1
  O2-  O193  1  0.04362425  0.08376150  0.60277831  1
  O2-  O194  1  0.04220980  0.08485224  0.92748925  1
  O2-  O195  1  0.04524271  0.58259087  0.27158298  1
  O2-  O196  1  0.04481722  0.58977643  0.60075899  1
  O2-  O197  1  0.04200506  0.58320689  0.93537928  1
  O2-  O198  1  0.54073038  0.08386651  0.26239589  1
  O2-  O199  1  0.54431886  0.08212589  0.60618458  1
  O2-  O200  1  0.53955746  0.08574702  0.92954361  1
  O2-  O201  1  0.55050436  0.58174494  0.27239255  1
  O2-  O202  1  0.54364396  0.58716742  0.60535958  1
  O2-  O203  1  0.54396894  0.58270583  0.93390700  1
  O2-  O204  1  0.17040434  0.20786945  0.26816384  1
  O2-  O205  1  0.16650364  0.20069286  0.60334870  1
  O2-  O206  1  0.16866026  0.21272956  0.92922786  1
  O2-  O207  1  0.16404929  0.70072988  0.26801300  1
  O2-  O208  1  0.16463897  0.70868583  0.60580465  1
  O2-  O209  1  0.16449181  0.69974826  0.93637393  1
  O2-  O210  1  0.66809720  0.20998514  0.26462501  1
  O2-  O211  1  0.66582645  0.19989349  0.60590957  1
  O2-  O212  1  0.67014677  0.20939615  0.93070850  1
  O2-  O213  1  0.66336805  0.70533764  0.26913855  1
  O2-  O214  1  0.66389423  0.70694347  0.60429740  1
  O2-  O215  1  0.66512111  0.69920518  0.93403898  1
  O2-  O216  1  0.08380413  0.45845992  0.06805780  1
  O2-  O217  1  0.07994415  0.45432026  0.40324312  1
  O2-  O218  1  0.08362879  0.45975863  0.72869233  1
  O2-  O219  1  0.08523404  0.95498643  0.05696844  1
  O2-  O220  1  0.07871445  0.96139802  0.39902210  1
  O2-  O221  1  0.07808053  0.95602937  0.73564666  1
  O2-  O222  1  0.58697768  0.45680928  0.06222827  1
  O2-  O223  1  0.58234938  0.45456172  0.40134356  1
  O2-  O224  1  0.58745686  0.46311733  0.73836485  1
  O2-  O225  1  0.57740152  0.95915836  0.06646972  1
  O2-  O226  1  0.58822410  0.95955005  0.39456094  1
  O2-  O227  1  0.58386410  0.95671109  0.73469536  1
  O2-  O228  1  0.21323359  0.33296575  0.06667333  1
  O2-  O229  1  0.20491757  0.32859144  0.40505975  1
  O2-  O230  1  0.19690307  0.33299922  0.72550751  1
  O2-  O231  1  0.20548414  0.83516379  0.05932746  1
  O2-  O232  1  0.19880707  0.83033321  0.39587844  1
  O2-  O233  1  0.20575020  0.83187521  0.73886166  1
  O2-  O234  1  0.70598828  0.33660339  0.06114816  1
  O2-  O235  1  0.70956840  0.32827347  0.40245254  1
  O2-  O236  1  0.71112063  0.33102848  0.73472031  1
  O2-  O237  1  0.70246505  0.82751087  0.06688630  1
  O2-  O238  1  0.70475883  0.83784978  0.39347768  1
  O2-  O239  1  0.71030559  0.83191590  0.73519036  1
  O2-  O240  1  0.45503099  0.41746637  0.26944991  1
  O2-  O241  1  0.46372174  0.41880404  0.60079485  1
  O2-  O242  1  0.45139642  0.41952136  0.94157296  1
  O2-  O243  1  0.46217749  0.91316017  0.26540021  1
  O2-  O244  1  0.45660827  0.91315254  0.60717298  1
  O2-  O245  1  0.45925969  0.91578085  0.92728818  1
  O2-  O246  1  0.94742098  0.42070893  0.27609926  1
  O2-  O247  1  0.95548976  0.41897124  0.59808833  1
  O2-  O248  1  0.95446828  0.41724583  0.93773946  1
  O2-  O249  1  0.95835193  0.91673292  0.26404039  1
  O2-  O250  1  0.95201975  0.91379614  0.60651070  1
  O2-  O251  1  0.95880487  0.91507307  0.92758280  1
  O2-  O252  1  0.33410191  0.30027954  0.27267530  1
  O2-  O253  1  0.33174666  0.29620608  0.59983079  1
  O2-  O254  1  0.33792689  0.29459682  0.93741886  1
  O2-  O255  1  0.33057841  0.79016949  0.26781106  1
  O2-  O256  1  0.33595911  0.79056197  0.60858605  1
  O2-  O257  1  0.33206285  0.78908209  0.92696723  1
  O2-  O258  1  0.83614164  0.29446644  0.26982287  1
  O2-  O259  1  0.83291303  0.28826942  0.59713656  1
  O2-  O260  1  0.83573280  0.29747391  0.93880961  1
  O2-  O261  1  0.83135684  0.78967055  0.26486709  1
  O2-  O262  1  0.83666542  0.78958910  0.60519895  1
  O2-  O263  1  0.83151926  0.78697239  0.93081520  1
  O2-  O264  1  0.41267457  0.04148820  0.05850952  1
  O2-  O265  1  0.42203499  0.03857956  0.40070160  1
  O2-  O266  1  0.41789501  0.04298715  0.73871091  1
  O2-  O267  1  0.41633881  0.55212118  0.06379539  1
  O2-  O268  1  0.42059599  0.54904178  0.39913286  1
  O2-  O269  1  0.41801410  0.54138391  0.73824982  1
  O2-  O270  1  0.92244912  0.04073879  0.06550636  1
  O2-  O271  1  0.91154262  0.04064499  0.39760799  1
  O2-  O272  1  0.91560492  0.04716774  0.72854524  1
  O2-  O273  1  0.91206338  0.54476789  0.06294122  1
  O2-  O274  1  0.91969681  0.55342194  0.40210047  1
  O2-  O275  1  0.91895211  0.55006112  0.72807955  1
  O2-  O276  1  0.29374396  0.16257801  0.06152163  1
  O2-  O277  1  0.30027151  0.16884501  0.39853724  1
  O2-  O278  1  0.29382909  0.17283742  0.73618830  1
  O2-  O279  1  0.29349236  0.66780605  0.06110629  1
  O2-  O280  1  0.28889192  0.66814243  0.40222364  1
  O2-  O281  1  0.28796353  0.66423873  0.73932547  1
  O2-  O282  1  0.79577658  0.17004084  0.06905976  1
  O2-  O283  1  0.79405422  0.16166599  0.39558282  1
  O2-  O284  1  0.79718369  0.16484547  0.72908854  1
  O2-  O285  1  0.79133194  0.66179721  0.06074557  1
  O2-  O286  1  0.78800741  0.67114855  0.40366925  1
  O2-  O287  1  0.79338220  0.66347491  0.73336248  1
