# generated using pymatgen
data_Ca2Al2SiO7
_symmetry_space_group_name_H-M   'P 1'
_cell_length_a   15.46435128
_cell_length_b   15.46461780
_cell_length_c   15.28644471
_cell_angle_alpha   90.00372660
_cell_angle_beta   89.99350959
_cell_angle_gamma   89.99266888
_symmetry_Int_Tables_number   1
_chemical_formula_structural   Ca2Al2SiO7
_chemical_formula_sum   'Ca48 Al48 Si24 O168'
_cell_volume   3655.75750273
_cell_formula_units_Z   24
loop_
 _symmetry_equiv_pos_site_id
 _symmetry_equiv_pos_as_xyz
  1  'x, y, z'
loop_
 _atom_type_symbol
 _atom_type_oxidation_number
  Ca2+  2.0
  Al0+  0.0
  Si0+  0.0
  O2-  -2.0
loop_
 _atom_site_type_symbol
 _atom_site_label
 _atom_site_symmetry_multiplicity
 _atom_site_fract_x
 _atom_site_fract_y
 _atom_site_fract_z
 _atom_site_occupancy
  Ca2+  Ca0  1  0.18007863  0.08031111  0.17808574  1
  Ca2+  Ca1  1  0.16763231  0.08533203  0.49920907  1
  Ca2+  Ca2  1  0.17381699  0.08447139  0.83691901  1
  Ca2+  Ca3  1  0.16885023  0.57456028  0.17227951  1
  Ca2+  Ca4  1  0.16344479  0.57868991  0.49766327  1
  Ca2+  Ca5  1  0.17511540  0.57518071  0.84431361  1
  Ca2+  Ca6  1  0.66385313  0.08267552  0.17255930  1
  Ca2+  Ca7  1  0.67704569  0.09164225  0.50129651  1
  Ca2+  Ca8  1  0.67050292  0.08067335  0.84111475  1
  Ca2+  Ca9  1  0.67053005  0.57682675  0.17124363  1
  Ca2+  Ca10  1  0.66749297  0.58634189  0.50381527  1
  Ca2+  Ca11  1  0.66309997  0.57866471  0.83742832  1
  Ca2+  Ca12  1  0.08892833  0.33253038  0.16777736  1
  Ca2+  Ca13  1  0.08195995  0.32133861  0.49430793  1
  Ca2+  Ca14  1  0.08093036  0.32903290  0.82597921  1
  Ca2+  Ca15  1  0.08912321  0.83017544  0.16979285  1
  Ca2+  Ca16  1  0.08015981  0.83164015  0.49091224  1
  Ca2+  Ca17  1  0.07646881  0.83231911  0.82574866  1
  Ca2+  Ca18  1  0.58352882  0.32162991  0.16367883  1
  Ca2+  Ca19  1  0.56951629  0.32954625  0.49229211  1
  Ca2+  Ca20  1  0.58010195  0.33126622  0.83014422  1
  Ca2+  Ca21  1  0.57208330  0.83936142  0.16060362  1
  Ca2+  Ca22  1  0.57412156  0.83176413  0.49744208  1
  Ca2+  Ca23  1  0.57530421  0.83176034  0.83049567  1
  Ca2+  Ca24  1  0.32442457  0.41616881  0.17334097  1
  Ca2+  Ca25  1  0.32923410  0.40515628  0.50205401  1
  Ca2+  Ca26  1  0.33139082  0.42142136  0.84220629  1
  Ca2+  Ca27  1  0.33682930  0.92459159  0.17429368  1
  Ca2+  Ca28  1  0.33316227  0.91588587  0.49751537  1
  Ca2+  Ca29  1  0.34061300  0.92055885  0.84083878  1
  Ca2+  Ca30  1  0.82609877  0.41888741  0.17237782  1
  Ca2+  Ca31  1  0.83698813  0.42103500  0.50261065  1
  Ca2+  Ca32  1  0.82806555  0.41455730  0.83859451  1
  Ca2+  Ca33  1  0.82203896  0.92168357  0.17325609  1
  Ca2+  Ca34  1  0.83837930  0.92848360  0.50579913  1
  Ca2+  Ca35  1  0.82848300  0.92013315  0.83447784  1
  Ca2+  Ca36  1  0.42201367  0.16245539  0.16431476  1
  Ca2+  Ca37  1  0.41801695  0.17425118  0.48884391  1
  Ca2+  Ca38  1  0.42199240  0.16854536  0.83263443  1
  Ca2+  Ca39  1  0.40529577  0.67985767  0.16271461  1
  Ca2+  Ca40  1  0.41906153  0.67660373  0.49710549  1
  Ca2+  Ca41  1  0.41847880  0.67525013  0.82702202  1
  Ca2+  Ca42  1  0.92456635  0.15683604  0.16790911  1
  Ca2+  Ca43  1  0.92415147  0.16243552  0.49546131  1
  Ca2+  Ca44  1  0.92395756  0.17244953  0.82021649  1
  Ca2+  Ca45  1  0.92190321  0.65839272  0.16913296  1
  Ca2+  Ca46  1  0.91835438  0.67295154  0.49106620  1
  Ca2+  Ca47  1  0.91707611  0.67458110  0.82631440  1
  Al0+  Al48  1  0.00059007  -0.00025054  -0.00325356  1
  Al0+  Al49  1  -0.00152887  -0.00101180  0.33323649  1
  Al0+  Al50  1  0.00104832  -0.00082012  0.66604743  1
  Al0+  Al51  1  0.00065157  0.49986657  0.00037929  1
  Al0+  Al52  1  0.00005816  0.50070833  0.33781381  1
  Al0+  Al53  1  -0.00013882  0.49907867  0.66768286  1
  Al0+  Al54  1  0.50196505  0.00035675  -0.00256302  1
  Al0+  Al55  1  0.49974114  -0.00038950  0.33273509  1
  Al0+  Al56  1  0.50057974  -0.00047089  0.66386773  1
  Al0+  Al57  1  0.50110732  0.50132520  0.01080750  1
  Al0+  Al58  1  0.49869191  0.50125186  0.32962000  1
  Al0+  Al59  1  0.49989784  0.50036053  0.65997406  1
  Al0+  Al60  1  0.25068508  0.24896226  0.00585810  1
  Al0+  Al61  1  0.24772144  0.25015681  0.33356759  1
  Al0+  Al62  1  0.24972033  0.24831247  0.66381987  1
  Al0+  Al63  1  0.24782665  0.75019145  -0.00425583  1
  Al0+  Al64  1  0.24807044  0.74861001  0.32949447  1
  Al0+  Al65  1  0.25014321  0.74953230  0.66576779  1
  Al0+  Al66  1  0.75214950  0.25051588  0.00012218  1
  Al0+  Al67  1  0.74848784  0.25154743  0.33548789  1
  Al0+  Al68  1  0.75159956  0.25234139  0.66910171  1
  Al0+  Al69  1  0.74985847  0.75171991  0.00378909  1
  Al0+  Al70  1  0.74929037  0.74990856  0.33648950  1
  Al0+  Al71  1  0.75068911  0.75059014  0.66097857  1
  Al0+  Al72  1  0.42712652  0.82327900  0.65050739  1
  Al0+  Al73  1  0.57234699  0.17997050  0.98489124  1
  Al0+  Al74  1  0.17956964  0.92731028  0.34793432  1
  Al0+  Al75  1  0.81954653  0.07108047  0.34642073  1
  Al0+  Al76  1  0.82179705  0.07184402  0.68174366  1
  Al0+  Al77  1  0.57064180  0.67832223  0.65266408  1
  Al0+  Al78  1  0.67912077  0.42704199  0.01375335  1
  Al0+  Al79  1  0.42588842  0.32216316  0.31563757  1
  Al0+  Al80  1  0.42987136  0.81878548  0.31831947  1
  Al0+  Al81  1  0.32198474  0.07065509  0.35009734  1
  Al0+  Al82  1  0.06857905  0.17725781  0.31735706  1
  Al0+  Al83  1  0.57156349  0.18007202  0.31905513  1
  Al0+  Al84  1  0.06867120  0.67838415  0.31891074  1
  Al0+  Al85  1  0.17877767  0.42875748  0.01502351  1
  Al0+  Al86  1  0.92709574  0.32288396  0.65171042  1
  Al0+  Al87  1  0.68022718  0.93006698  0.01250075  1
  Al0+  Al88  1  0.42912086  0.81998413  0.98610099  1
  Al0+  Al89  1  0.32131419  0.06862902  0.01189553  1
  Al0+  Al90  1  0.07087526  0.17870518  0.65158991  1
  Al0+  Al91  1  0.92981275  0.82027854  0.65291168  1
  Al0+  Al92  1  0.17996736  0.42920383  0.35015825  1
  Al0+  Al93  1  0.81969065  0.57011315  0.34802195  1
  Al0+  Al94  1  0.42998239  0.31998550  0.65628318  1
  Al0+  Al95  1  0.32185156  0.57398282  0.01473756  1
  Si0+  Si96  1  0.82380432  0.07224606  0.01548374  1
  Si0+  Si97  1  0.67626653  0.42902391  0.35263042  1
  Si0+  Si98  1  0.57366218  0.17779734  0.65208392  1
  Si0+  Si99  1  0.18006552  0.92727227  0.68204508  1
  Si0+  Si100  1  0.92856340  0.32257295  0.31650700  1
  Si0+  Si101  1  0.82171702  0.57233985  0.68229792  1
  Si0+  Si102  1  0.57427738  0.67819047  0.31411683  1
  Si0+  Si103  1  0.67661098  0.92751626  0.35200319  1
  Si0+  Si104  1  0.17986796  0.42799084  0.68195547  1
  Si0+  Si105  1  0.42788693  0.32286627  0.98542498  1
  Si0+  Si106  1  0.93044287  0.32184774  0.98598906  1
  Si0+  Si107  1  0.17470068  0.92799408  0.01439308  1
  Si0+  Si108  1  0.07219213  0.67721573  0.65127283  1
  Si0+  Si109  1  0.92612322  0.82215668  0.31427435  1
  Si0+  Si110  1  0.67751868  0.43131794  0.68098184  1
  Si0+  Si111  1  0.67808377  0.92776813  0.68336427  1
  Si0+  Si112  1  0.82172584  0.57273060  0.01512521  1
  Si0+  Si113  1  0.57477918  0.67713298  0.98564599  1
  Si0+  Si114  1  0.92751585  0.82167047  0.98491021  1
  Si0+  Si115  1  0.07230357  0.17831217  0.98514882  1
  Si0+  Si116  1  0.32203424  0.57257503  0.35170146  1
  Si0+  Si117  1  0.06884849  0.67817299  0.98332236  1
  Si0+  Si118  1  0.32146453  0.57085901  0.68050562  1
  Si0+  Si119  1  0.32178338  0.07141197  0.68210916  1
  O2-  O120  1  0.24603509  -0.00622908  0.05680608  1
  O2-  O121  1  0.24940265  -0.00067410  0.40087256  1
  O2-  O122  1  0.25334403  -0.00332875  0.72379562  1
  O2-  O123  1  0.25275604  0.49897447  0.06425763  1
  O2-  O124  1  0.25927927  0.49916620  0.39760530  1
  O2-  O125  1  0.25054681  0.49965932  0.72359361  1
  O2-  O126  1  0.75352064  0.00583401  0.05950933  1
  O2-  O127  1  0.74487199  -0.00281563  0.39492792  1
  O2-  O128  1  0.74462749  -0.00097155  0.72797466  1
  O2-  O129  1  0.75254374  0.50443437  0.05827799  1
  O2-  O130  1  0.74339511  0.49894447  0.39749869  1
  O2-  O131  1  0.75064292  0.50108972  0.72390112  1
  O2-  O132  1  -0.00694998  0.25133613  0.26974389  1
  O2-  O133  1  -0.00388125  0.24845186  0.60246564  1
  O2-  O134  1  0.00162358  0.25049597  0.94428071  1
  O2-  O135  1  -0.00583044  0.75279109  0.26995451  1
  O2-  O136  1  0.00351127  0.74498848  0.60669612  1
  O2-  O137  1  -0.00152081  0.75039710  0.94216581  1
  O2-  O138  1  0.49794334  0.24946201  0.26717602  1
  O2-  O139  1  0.50280826  0.24418675  0.60922563  1
  O2-  O140  1  0.49828707  0.25657937  0.93932437  1
  O2-  O141  1  0.50491791  0.74522189  0.26960893  1
  O2-  O142  1  0.50023537  0.75149119  0.60285184  1
  O2-  O143  1  0.50180707  0.74150344  0.94169888  1
  O2-  O144  1  0.06971142  0.17468309  0.08973583  1
  O2-  O145  1  0.06701138  0.17804453  0.43015273  1
  O2-  O146  1  0.07320853  0.18224784  0.76627156  1
  O2-  O147  1  0.06715927  0.67637848  0.08798759  1
  O2-  O148  1  0.06606535  0.67941541  0.43222063  1
  O2-  O149  1  0.07059512  0.67831037  0.75751291  1
  O2-  O150  1  0.57311629  0.17978302  0.09718215  1
  O2-  O151  1  0.57367061  0.18397444  0.43303872  1
  O2-  O152  1  0.57291798  0.17889154  0.75809360  1
  O2-  O153  1  0.58094183  0.68079481  0.09053626  1
  O2-  O154  1  0.57473510  0.67974287  0.41981527  1
  O2-  O155  1  0.56864132  0.67579211  0.76668660  1
  O2-  O156  1  0.17789548  0.43277824  0.23716437  1
  O2-  O157  1  0.17968048  0.42861518  0.57733391  1
  O2-  O158  1  0.17756809  0.43037588  0.90045522  1
  O2-  O159  1  0.18137332  0.92842761  0.23380733  1
  O2-  O160  1  0.17928804  0.92503420  0.57762008  1
  O2-  O161  1  0.17048024  0.93038283  0.90832684  1
  O2-  O162  1  0.67975996  0.42896229  0.24685761  1
  O2-  O163  1  0.67673922  0.43329386  0.57637357  1
  O2-  O164  1  0.68156500  0.42832026  0.89993780  1
  O2-  O165  1  0.67870231  0.92612892  0.24602596  1
  O2-  O166  1  0.67842671  0.92775058  0.57810572  1
  O2-  O167  1  0.68333486  0.92904931  0.89923428  1
  O2-  O168  1  0.42695462  0.31994107  0.09018566  1
  O2-  O169  1  0.42946764  0.32085369  0.42994500  1
  O2-  O170  1  0.43119782  0.32171380  0.76985243  1
  O2-  O171  1  0.42984107  0.82030597  0.09875230  1
  O2-  O172  1  0.43110431  0.81646222  0.43137667  1
  O2-  O173  1  0.42759402  0.82183987  0.76446606  1
  O2-  O174  1  0.92967264  0.32372595  0.09070406  1
  O2-  O175  1  0.93084533  0.32257516  0.42195450  1
  O2-  O176  1  0.93021150  0.32414087  0.76623245  1
  O2-  O177  1  0.92751053  0.82293941  0.08944350  1
  O2-  O178  1  0.92689152  0.82114330  0.41996200  1
  O2-  O179  1  0.93072609  0.81805531  0.76698896  1
  O2-  O180  1  0.32230618  0.06790946  0.23626252  1
  O2-  O181  1  0.32101543  0.07384817  0.57778212  1
  O2-  O182  1  0.31902097  0.06941531  0.89780136  1
  O2-  O183  1  0.31769295  0.57415649  0.24625727  1
  O2-  O184  1  0.31954198  0.57208609  0.57586352  1
  O2-  O185  1  0.31928973  0.57268958  0.90000430  1
  O2-  O186  1  0.81989848  0.06748053  0.23291951  1
  O2-  O187  1  0.82083740  0.07020476  0.56891767  1
  O2-  O188  1  0.82523430  0.07023580  0.90980867  1
  O2-  O189  1  0.81878915  0.56691074  0.23432742  1
  O2-  O190  1  0.82291636  0.57199404  0.57767411  1
  O2-  O191  1  0.82296292  0.57332846  0.90918071  1
  O2-  O192  1  0.03677363  0.08094491  0.26263124  1
  O2-  O193  1  0.04589263  0.07952639  0.60097719  1
  O2-  O194  1  0.04408017  0.08705118  0.93535142  1
  O2-  O195  1  0.03414253  0.58277567  0.26477407  1
  O2-  O196  1  0.04748930  0.58318815  0.60714686  1
  O2-  O197  1  0.03974905  0.58708952  0.93406120  1
  O2-  O198  1  0.54705743  0.08003568  0.26822841  1
  O2-  O199  1  0.55254293  0.08352746  0.60689048  1
  O2-  O200  1  0.54023333  0.08488216  0.92878939  1
  O2-  O201  1  0.55186730  0.58347889  0.26968652  1
  O2-  O202  1  0.54173191  0.58250130  0.59533260  1
  O2-  O203  1  0.55334879  0.58071093  0.94320429  1
  O2-  O204  1  0.16469950  0.20926186  0.26471620  1
  O2-  O205  1  0.16752822  0.20943358  0.59799660  1
  O2-  O206  1  0.16456632  0.20613621  0.93855632  1
  O2-  O207  1  0.16379989  0.70846813  0.26249638  1
  O2-  O208  1  0.16547490  0.70176999  0.60573924  1
  O2-  O209  1  0.15950942  0.70531676  0.93330616  1
  O2-  O210  1  0.66967131  0.21088240  0.26514152  1
  O2-  O211  1  0.66666612  0.20612537  0.60769434  1
  O2-  O212  1  0.67050697  0.20982471  0.93189830  1
  O2-  O213  1  0.66849946  0.70373827  0.26909108  1
  O2-  O214  1  0.66912787  0.70421460  0.59928113  1
  O2-  O215  1  0.66717711  0.70643216  0.93711319  1
  O2-  O216  1  0.08071106  0.45969370  0.06735794  1
  O2-  O217  1  0.08539709  0.46496179  0.40476201  1
  O2-  O218  1  0.08769862  0.45579663  0.73002341  1
  O2-  O219  1  0.08198034  0.95453794  0.06176754  1
  O2-  O220  1  0.07926538  0.95287077  0.39802032  1
  O2-  O221  1  0.08916565  0.95639229  0.73122173  1
  O2-  O222  1  0.58422837  0.45368598  0.07162425  1
  O2-  O223  1  0.58150504  0.45500283  0.39612065  1
  O2-  O224  1  0.58639047  0.46157512  0.72928039  1
  O2-  O225  1  0.58467552  0.96125662  0.06632103  1
  O2-  O226  1  0.58333329  0.95182260  0.39765086  1
  O2-  O227  1  0.58328249  0.95158206  0.72900277  1
  O2-  O228  1  0.20327069  0.33007750  0.06772437  1
  O2-  O229  1  0.20637326  0.33174731  0.40391247  1
  O2-  O230  1  0.20843158  0.33625219  0.72938149  1
  O2-  O231  1  0.19576562  0.83233436  0.05641515  1
  O2-  O232  1  0.20705740  0.82808175  0.40004476  1
  O2-  O233  1  0.20435622  0.83433438  0.73088305  1
  O2-  O234  1  0.71530811  0.33291953  0.06911589  1
  O2-  O235  1  0.70289574  0.33670928  0.39982615  1
  O2-  O236  1  0.70381838  0.33971648  0.72999465  1
  O2-  O237  1  0.71185796  0.83513216  0.06957564  1
  O2-  O238  1  0.70261170  0.83415884  0.39812681  1
  O2-  O239  1  0.70767180  0.83446143  0.72877811  1
  O2-  O240  1  0.45197375  0.42234868  0.26509893  1
  O2-  O241  1  0.45967554  0.41447023  0.59893490  1
  O2-  O242  1  0.45267416  0.41896919  0.94332030  1
  O2-  O243  1  0.46068704  0.91562827  0.26576056  1
  O2-  O244  1  0.45450937  0.92156909  0.59755651  1
  O2-  O245  1  0.46476915  0.91427286  0.93054365  1
  O2-  O246  1  0.95778378  0.41503940  0.27074971  1
  O2-  O247  1  0.95624969  0.42144778  0.59999403  1
  O2-  O248  1  0.95706478  0.41384958  0.93696315  1
  O2-  O249  1  0.95196560  0.91451570  0.26702282  1
  O2-  O250  1  0.96172643  0.91564966  0.59950830  1
  O2-  O251  1  0.95620014  0.91271927  0.93517730  1
  O2-  O252  1  0.32649433  0.29626995  0.26576013  1
  O2-  O253  1  0.33425179  0.28953256  0.60207476  1
  O2-  O254  1  0.33422428  0.29512544  0.93913382  1
  O2-  O255  1  0.33354495  0.78747825  0.26465752  1
  O2-  O256  1  0.32907134  0.79250748  0.59892047  1
  O2-  O257  1  0.33071071  0.79396603  0.93153673  1
  O2-  O258  1  0.83271140  0.30148235  0.27362383  1
  O2-  O259  1  0.82682330  0.30111072  0.60084007  1
  O2-  O260  1  0.83947762  0.29420080  0.93679473  1
  O2-  O261  1  0.83183091  0.79548525  0.26993894  1
  O2-  O262  1  0.83454309  0.79161741  0.59714845  1
  O2-  O263  1  0.83631503  0.79234346  0.93676665  1
  O2-  O264  1  0.41757681  0.03775044  0.06418268  1
  O2-  O265  1  0.42072582  0.04256862  0.40252007  1
  O2-  O266  1  0.41543585  0.04623538  0.72833480  1
  O2-  O267  1  0.42135750  0.55600117  0.06819233  1
  O2-  O268  1  0.41898630  0.55434579  0.39391759  1
  O2-  O269  1  0.41359158  0.54213021  0.72665401  1
  O2-  O270  1  0.91684814  0.04256314  0.06088851  1
  O2-  O271  1  0.91502547  0.03802194  0.40058550  1
  O2-  O272  1  0.91837962  0.03843753  0.73562737  1
  O2-  O273  1  0.91457601  0.54482089  0.06104531  1
  O2-  O274  1  0.91460426  0.53869344  0.40379576  1
  O2-  O275  1  0.91361883  0.54524671  0.73157233  1
  O2-  O276  1  0.29168621  0.16401422  0.06721177  1
  O2-  O277  1  0.29208062  0.16918581  0.40086124  1
  O2-  O278  1  0.28994839  0.16168018  0.73144673  1
  O2-  O279  1  0.28625562  0.67108829  0.06598261  1
  O2-  O280  1  0.28909093  0.66345482  0.39837012  1
  O2-  O281  1  0.29321870  0.66245536  0.72929265  1
  O2-  O282  1  0.80321703  0.16677297  0.06011915  1
  O2-  O283  1  0.79108752  0.16860150  0.40044576  1
  O2-  O284  1  0.79484505  0.17022798  0.73564961  1
  O2-  O285  1  0.79826958  0.66577447  0.06258720  1
  O2-  O286  1  0.79240007  0.66813139  0.40167378  1
  O2-  O287  1  0.79384707  0.66461641  0.72953827  1
