# generated using pymatgen
data_Ca2Al2SiO7
_symmetry_space_group_name_H-M   'P 1'
_cell_length_a   15.45977401
_cell_length_b   15.45856779
_cell_length_c   15.28481842
_cell_angle_alpha   90.00658755
_cell_angle_beta   90.00182796
_cell_angle_gamma   89.98890832
_symmetry_Int_Tables_number   1
_chemical_formula_structural   Ca2Al2SiO7
_chemical_formula_sum   'Ca48 Al48 Si24 O168'
_cell_volume   3652.85697911
_cell_formula_units_Z   24
loop_
 _symmetry_equiv_pos_site_id
 _symmetry_equiv_pos_as_xyz
  1  'x, y, z'
loop_
 _atom_type_symbol
 _atom_type_oxidation_number
  Ca2+  2.0
  Al0+  0.0
  Si0+  0.0
  O2-  -2.0
loop_
 _atom_site_type_symbol
 _atom_site_label
 _atom_site_symmetry_multiplicity
 _atom_site_fract_x
 _atom_site_fract_y
 _atom_site_fract_z
 _atom_site_occupancy
  Ca2+  Ca0  1  0.16389094  0.07498255  0.16987067  1
  Ca2+  Ca1  1  0.17034172  0.08825547  0.50513312  1
  Ca2+  Ca2  1  0.17102267  0.08254643  0.83446315  1
  Ca2+  Ca3  1  0.16896380  0.57503703  0.18009858  1
  Ca2+  Ca4  1  0.17726639  0.57998146  0.50390460  1
  Ca2+  Ca5  1  0.16965979  0.57347416  0.83736277  1
  Ca2+  Ca6  1  0.67320452  0.08624116  0.17356895  1
  Ca2+  Ca7  1  0.66361375  0.07677089  0.50525031  1
  Ca2+  Ca8  1  0.67349925  0.07369105  0.83845628  1
  Ca2+  Ca9  1  0.66187123  0.58532222  0.17329781  1
  Ca2+  Ca10  1  0.65634963  0.57252490  0.50081218  1
  Ca2+  Ca11  1  0.66187233  0.57912284  0.83398098  1
  Ca2+  Ca12  1  0.09471876  0.32968877  0.16603809  1
  Ca2+  Ca13  1  0.09701382  0.32556068  0.49672601  1
  Ca2+  Ca14  1  0.08973569  0.33018846  0.82450020  1
  Ca2+  Ca15  1  0.07966790  0.82802921  0.16286027  1
  Ca2+  Ca16  1  0.07176984  0.82871961  0.49063339  1
  Ca2+  Ca17  1  0.07356008  0.84442175  0.83078238  1
  Ca2+  Ca18  1  0.57855894  0.33672988  0.16990620  1
  Ca2+  Ca19  1  0.57436357  0.33485440  0.49161521  1
  Ca2+  Ca20  1  0.57627410  0.33195327  0.82302850  1
  Ca2+  Ca21  1  0.57003495  0.82203952  0.16221809  1
  Ca2+  Ca22  1  0.57792878  0.82799388  0.49031801  1
  Ca2+  Ca23  1  0.58328939  0.82909590  0.83075377  1
  Ca2+  Ca24  1  0.32660836  0.42284193  0.17767274  1
  Ca2+  Ca25  1  0.33374606  0.42522927  0.50497295  1
  Ca2+  Ca26  1  0.32626402  0.41815271  0.83122824  1
  Ca2+  Ca27  1  0.33268020  0.90776322  0.16969966  1
  Ca2+  Ca28  1  0.33769193  0.92485409  0.50605369  1
  Ca2+  Ca29  1  0.33030336  0.92349379  0.84130235  1
  Ca2+  Ca30  1  0.82390758  0.42094879  0.17635104  1
  Ca2+  Ca31  1  0.81915161  0.41467822  0.50280364  1
  Ca2+  Ca32  1  0.82620201  0.41579748  0.83621505  1
  Ca2+  Ca33  1  0.84120642  0.91863170  0.16843306  1
  Ca2+  Ca34  1  0.82884526  0.91062674  0.50569828  1
  Ca2+  Ca35  1  0.83326516  0.91608192  0.83780925  1
  Ca2+  Ca36  1  0.42107489  0.17264322  0.17076367  1
  Ca2+  Ca37  1  0.41545198  0.17994616  0.49463760  1
  Ca2+  Ca38  1  0.41160952  0.17346081  0.82320989  1
  Ca2+  Ca39  1  0.42234898  0.66590979  0.16516101  1
  Ca2+  Ca40  1  0.41669100  0.66735778  0.49022168  1
  Ca2+  Ca41  1  0.41626680  0.66822956  0.83362513  1
  Ca2+  Ca42  1  0.92091835  0.16635302  0.16486126  1
  Ca2+  Ca43  1  0.93144194  0.16742620  0.49536460  1
  Ca2+  Ca44  1  0.92343308  0.16357291  0.82927560  1
  Ca2+  Ca45  1  0.91960520  0.67615015  0.16496739  1
  Ca2+  Ca46  1  0.92199635  0.67502324  0.49325770  1
  Ca2+  Ca47  1  0.91891424  0.67818464  0.82768808  1
  Al0+  Al48  1  0.00167395  0.00148915  0.00384163  1
  Al0+  Al49  1  0.00007719  0.00335407  0.32840965  1
  Al0+  Al50  1  -0.00087598  0.00117611  0.65628310  1
  Al0+  Al51  1  -0.00273211  0.49878273  0.00405879  1
  Al0+  Al52  1  -0.00221924  0.49876524  0.33650194  1
  Al0+  Al53  1  -0.00174583  0.50024191  0.66880298  1
  Al0+  Al54  1  0.50177228  0.00067571  -0.00184607  1
  Al0+  Al55  1  0.50118053  0.00098867  0.32581716  1
  Al0+  Al56  1  0.50141289  -0.00048999  0.67784569  1
  Al0+  Al57  1  0.49881417  0.49811411  -0.00473114  1
  Al0+  Al58  1  0.49876276  0.49971060  0.33258615  1
  Al0+  Al59  1  0.49939625  0.50037010  0.67258898  1
  Al0+  Al60  1  0.25126493  0.24909296  0.00363668  1
  Al0+  Al61  1  0.25078664  0.24697616  0.32520921  1
  Al0+  Al62  1  0.25177461  0.24979628  0.66581675  1
  Al0+  Al63  1  0.25086787  0.74905457  -0.00117552  1
  Al0+  Al64  1  0.24583399  0.75018055  0.33265251  1
  Al0+  Al65  1  0.24949065  0.75028775  0.67139364  1
  Al0+  Al66  1  0.75100442  0.24913234  0.00324545  1
  Al0+  Al67  1  0.75231566  0.24890856  0.33683026  1
  Al0+  Al68  1  0.75148520  0.24849569  0.67150502  1
  Al0+  Al69  1  0.74982484  0.74894869  -0.00765591  1
  Al0+  Al70  1  0.74958819  0.75220312  0.32628948  1
  Al0+  Al71  1  0.74888776  0.74949628  0.66644615  1
  Al0+  Al72  1  0.42621950  0.82327257  0.32171628  1
  Al0+  Al73  1  0.17818753  0.42892718  0.01498566  1
  Al0+  Al74  1  0.67967392  0.92745476  0.68014118  1
  Al0+  Al75  1  0.07180714  0.18167321  0.31667691  1
  Al0+  Al76  1  0.93286380  0.82166922  0.98456178  1
  Al0+  Al77  1  0.92896149  0.81990524  0.65219208  1
  Al0+  Al78  1  0.56980928  0.67788340  0.32090649  1
  Al0+  Al79  1  0.43131854  0.32081879  0.65320057  1
  Al0+  Al80  1  0.67941478  0.42815681  0.68114826  1
  Al0+  Al81  1  0.42707189  0.82230035  0.98164158  1
  Al0+  Al82  1  0.07019912  0.18204976  0.65411795  1
  Al0+  Al83  1  0.82021146  0.06967808  0.01488446  1
  Al0+  Al84  1  0.32245218  0.57457692  0.68474205  1
  Al0+  Al85  1  0.92861795  0.82211202  0.31670480  1
  Al0+  Al86  1  0.32037092  0.07033901  0.67837710  1
  Al0+  Al87  1  0.42920696  0.32161370  0.31778408  1
  Al0+  Al88  1  0.57010310  0.67751711  0.98124648  1
  Al0+  Al89  1  0.31981507  0.57272317  0.34745223  1
  Al0+  Al90  1  0.17920933  0.42908650  0.68046159  1
  Al0+  Al91  1  0.17772774  0.42544382  0.34945022  1
  Al0+  Al92  1  0.57413387  0.17881495  0.32015060  1
  Al0+  Al93  1  0.67935677  0.42954809  0.34628448  1
  Al0+  Al94  1  0.07023255  0.67629424  0.31958476  1
  Al0+  Al95  1  0.18095367  0.92952487  0.01333081  1
  Si0+  Si96  1  0.67812244  0.92587666  0.01901782  1
  Si0+  Si97  1  0.57495713  0.17982437  0.98363090  1
  Si0+  Si98  1  0.56911199  0.67994730  0.65137341  1
  Si0+  Si99  1  0.92627745  0.32148786  0.31755730  1
  Si0+  Si100  1  0.07300213  0.67569945  0.65136127  1
  Si0+  Si101  1  0.17582714  0.92892513  0.67972784  1
  Si0+  Si102  1  0.32256788  0.06837796  0.34663530  1
  Si0+  Si103  1  0.92498838  0.32438268  0.65053804  1
  Si0+  Si104  1  0.32463202  0.07260411  0.01912461  1
  Si0+  Si105  1  0.82130533  0.57224938  0.68390380  1
  Si0+  Si106  1  0.82293202  0.07091129  0.35134734  1
  Si0+  Si107  1  0.07080765  0.18156088  0.98449155  1
  Si0+  Si108  1  0.57408238  0.17621282  0.65357560  1
  Si0+  Si109  1  0.82429259  0.07020301  0.68206107  1
  Si0+  Si110  1  0.17662420  0.93010784  0.34849834  1
  Si0+  Si111  1  0.81978604  0.57197124  0.01494099  1
  Si0+  Si112  1  0.42952269  0.31753600  0.98310332  1
  Si0+  Si113  1  0.32214400  0.57008572  0.01743403  1
  Si0+  Si114  1  0.67848690  0.42921266  0.01496952  1
  Si0+  Si115  1  0.07143684  0.67462720  0.98294075  1
  Si0+  Si116  1  0.82108202  0.57559728  0.34998926  1
  Si0+  Si117  1  0.67938881  0.93043265  0.34581632  1
  Si0+  Si118  1  0.92681005  0.32162321  0.98542760  1
  Si0+  Si119  1  0.42838760  0.82339931  0.65427794  1
  O2-  O120  1  0.26118241  -0.00160003  0.06159977  1
  O2-  O121  1  0.25288610  -0.00380609  0.38982803  1
  O2-  O122  1  0.24730901  -0.00610008  0.72486907  1
  O2-  O123  1  0.24919303  0.50646982  0.06148284  1
  O2-  O124  1  0.24851434  0.49950957  0.39751817  1
  O2-  O125  1  0.24770984  0.50339236  0.73208699  1
  O2-  O126  1  0.74665228  -0.00530184  0.06356043  1
  O2-  O127  1  0.75130070  -0.00046432  0.39106869  1
  O2-  O128  1  0.75539762  0.00204610  0.72611376  1
  O2-  O129  1  0.74656251  0.50276585  0.05696072  1
  O2-  O130  1  0.75146951  0.50718688  0.39345963  1
  O2-  O131  1  0.75579246  0.50064901  0.72922516  1
  O2-  O132  1  0.00075477  0.26051922  0.27109419  1
  O2-  O133  1  -0.00223949  0.25963018  0.60763555  1
  O2-  O134  1  0.00221053  0.25537154  0.94278083  1
  O2-  O135  1  -0.00039429  0.74887774  0.26796743  1
  O2-  O136  1  0.00547988  0.74625844  0.60804826  1
  O2-  O137  1  0.00818355  0.74776523  0.93672018  1
  O2-  O138  1  0.50519213  0.25256790  0.26838459  1
  O2-  O139  1  0.50878408  0.24704164  0.60897026  1
  O2-  O140  1  0.50018260  0.24601292  0.94035767  1
  O2-  O141  1  0.49441115  0.74715620  0.27263851  1
  O2-  O142  1  0.49623488  0.75009534  0.61084184  1
  O2-  O143  1  0.49986560  0.75133070  0.93082504  1
  O2-  O144  1  0.06962553  0.18182926  0.08941330  1
  O2-  O145  1  0.07075251  0.17847131  0.42967981  1
  O2-  O146  1  0.06776475  0.17981439  0.76782641  1
  O2-  O147  1  0.06687802  0.67319752  0.08811180  1
  O2-  O148  1  0.06931236  0.68064198  0.43355971  1
  O2-  O149  1  0.07032830  0.67459223  0.75720823  1
  O2-  O150  1  0.57702661  0.18324717  0.08838601  1
  O2-  O151  1  0.57133047  0.17619199  0.43380727  1
  O2-  O152  1  0.57352054  0.17785221  0.75959675  1
  O2-  O153  1  0.56875045  0.67575951  0.09445986  1
  O2-  O154  1  0.57176530  0.68100056  0.43495562  1
  O2-  O155  1  0.57073057  0.68135046  0.75639744  1
  O2-  O156  1  0.18119119  0.42756338  0.23534367  1
  O2-  O157  1  0.18228166  0.42877390  0.56774597  1
  O2-  O158  1  0.17969957  0.42705258  0.90194273  1
  O2-  O159  1  0.17487329  0.93311926  0.24331461  1
  O2-  O160  1  0.17657050  0.92988977  0.57411851  1
  O2-  O161  1  0.17769775  0.93756005  0.89994589  1
  O2-  O162  1  0.68261888  0.42889085  0.23258654  1
  O2-  O163  1  0.67887033  0.42917671  0.56840548  1
  O2-  O164  1  0.68120451  0.42737657  0.90973745  1
  O2-  O165  1  0.68029134  0.93278942  0.24101054  1
  O2-  O166  1  0.67835995  0.92836780  0.56663747  1
  O2-  O167  1  0.68004745  0.92863409  0.91294840  1
  O2-  O168  1  0.43113022  0.31814222  0.08783015  1
  O2-  O169  1  0.42914757  0.32017197  0.43136312  1
  O2-  O170  1  0.43147344  0.31763152  0.76714908  1
  O2-  O171  1  0.42866248  0.82018910  0.09488816  1
  O2-  O172  1  0.43167373  0.82814655  0.43585375  1
  O2-  O173  1  0.43063215  0.82446480  0.75902219  1
  O2-  O174  1  0.92257218  0.31975584  0.09008554  1
  O2-  O175  1  0.92114511  0.31540176  0.42275259  1
  O2-  O176  1  0.92242939  0.32174414  0.75657025  1
  O2-  O177  1  0.93396029  0.82012891  0.09699406  1
  O2-  O178  1  0.92818474  0.82144967  0.43059867  1
  O2-  O179  1  0.93102886  0.82145760  0.76557162  1
  O2-  O180  1  0.32178969  0.06794323  0.24143804  1
  O2-  O181  1  0.32143075  0.06975227  0.56511200  1
  O2-  O182  1  0.32068531  0.07703746  0.91332615  1
  O2-  O183  1  0.31987946  0.57126425  0.23358112  1
  O2-  O184  1  0.32386213  0.57684032  0.57169726  1
  O2-  O185  1  0.32271900  0.56627717  0.91182234  1
  O2-  O186  1  0.82322984  0.07177555  0.24605249  1
  O2-  O187  1  0.82412074  0.07084296  0.57666815  1
  O2-  O188  1  0.81912496  0.07047921  0.90155587  1
  O2-  O189  1  0.82068975  0.57391350  0.24398256  1
  O2-  O190  1  0.81950733  0.57290405  0.57866819  1
  O2-  O191  1  0.82197020  0.56840908  0.90983646  1
  O2-  O192  1  0.03496733  0.08796856  0.26098830  1
  O2-  O193  1  0.03831481  0.08809005  0.59526492  1
  O2-  O194  1  0.03935457  0.09107417  0.93760608  1
  O2-  O195  1  0.04163956  0.57724379  0.26771822  1
  O2-  O196  1  0.04537407  0.58301149  0.60467764  1
  O2-  O197  1  0.03884533  0.58256723  0.93645258  1
  O2-  O198  1  0.54385306  0.08383556  0.26158955  1
  O2-  O199  1  0.54662179  0.08184989  0.61048316  1
  O2-  O200  1  0.55321389  0.08561276  0.93854858  1
  O2-  O201  1  0.54575308  0.57965089  0.26659778  1
  O2-  O202  1  0.54198590  0.58710915  0.60692121  1
  O2-  O203  1  0.54065933  0.57849017  0.92815692  1
  O2-  O204  1  0.16774440  0.20497503  0.25861589  1
  O2-  O205  1  0.16681947  0.21037320  0.59967729  1
  O2-  O206  1  0.16441682  0.20707211  0.93894537  1
  O2-  O207  1  0.16705849  0.70485150  0.26451224  1
  O2-  O208  1  0.16763849  0.70071853  0.60766492  1
  O2-  O209  1  0.16753740  0.69358979  0.94041000  1
  O2-  O210  1  0.67380016  0.20487526  0.26843563  1
  O2-  O211  1  0.66993750  0.19679768  0.60991005  1
  O2-  O212  1  0.66528987  0.21159795  0.93513808  1
  O2-  O213  1  0.66619653  0.70816738  0.26498116  1
  O2-  O214  1  0.66061813  0.70786090  0.60421808  1
  O2-  O215  1  0.66912265  0.70326541  0.92726085  1
  O2-  O216  1  0.07856931  0.45270460  0.06682032  1
  O2-  O217  1  0.07563918  0.44542887  0.39859832  1
  O2-  O218  1  0.07773983  0.45152012  0.73229321  1
  O2-  O219  1  0.08780691  0.96663675  0.06976522  1
  O2-  O220  1  0.08678065  0.96519139  0.39586211  1
  O2-  O221  1  0.08310758  0.96076989  0.72455900  1
  O2-  O222  1  0.58497552  0.45446094  0.05948778  1
  O2-  O223  1  0.58258914  0.45804564  0.40001508  1
  O2-  O224  1  0.58544150  0.46134855  0.73802936  1
  O2-  O225  1  0.58380513  0.95221149  0.06274712  1
  O2-  O226  1  0.58774253  0.96009074  0.39319960  1
  O2-  O227  1  0.58661158  0.95870501  0.74075268  1
  O2-  O228  1  0.21218645  0.33254161  0.06767842  1
  O2-  O229  1  0.20842383  0.32461469  0.39584569  1
  O2-  O230  1  0.21174205  0.33196677  0.73428094  1
  O2-  O231  1  0.20434658  0.82966156  0.06488286  1
  O2-  O232  1  0.19616024  0.83671736  0.39504522  1
  O2-  O233  1  0.19478704  0.83479756  0.72695573  1
  O2-  O234  1  0.70972785  0.33893025  0.06269258  1
  O2-  O235  1  0.71320305  0.33392880  0.40135911  1
  O2-  O236  1  0.70866072  0.33097715  0.73674426  1
  O2-  O237  1  0.70371899  0.83072395  0.06030378  1
  O2-  O238  1  0.70643722  0.83796975  0.39277027  1
  O2-  O239  1  0.71105285  0.83171011  0.73531624  1
  O2-  O240  1  0.45697345  0.41882950  0.26322708  1
  O2-  O241  1  0.46202196  0.41859229  0.60258243  1
  O2-  O242  1  0.45759941  0.40854747  0.93501084  1
  O2-  O243  1  0.45844143  0.91779718  0.26343743  1
  O2-  O244  1  0.45991383  0.91526433  0.60887382  1
  O2-  O245  1  0.45420024  0.92338904  0.93160122  1
  O2-  O246  1  0.94142569  0.41833005  0.27499316  1
  O2-  O247  1  0.94295677  0.42026577  0.60678124  1
  O2-  O248  1  0.94902402  0.41520471  0.93888120  1
  O2-  O249  1  0.95877084  0.92017360  0.26535153  1
  O2-  O250  1  0.95674514  0.91575199  0.59565438  1
  O2-  O251  1  0.96450430  0.91964002  0.93259578  1
  O2-  O252  1  0.33528645  0.28653938  0.26054224  1
  O2-  O253  1  0.33697066  0.28619031  0.59922430  1
  O2-  O254  1  0.33760649  0.28721738  0.93676636  1
  O2-  O255  1  0.32570019  0.80194063  0.27184350  1
  O2-  O256  1  0.33370790  0.80167314  0.60976749  1
  O2-  O257  1  0.32749466  0.79583167  0.92886215  1
  O2-  O258  1  0.83651318  0.28840229  0.26772593  1
  O2-  O259  1  0.83275684  0.29360465  0.60370089  1
  O2-  O260  1  0.83679959  0.28911354  0.93601537  1
  O2-  O261  1  0.83091813  0.79646909  0.26167229  1
  O2-  O262  1  0.83232960  0.78714179  0.59918812  1
  O2-  O263  1  0.83596494  0.79112836  0.93104311  1
  O2-  O264  1  0.42158310  0.05433879  0.06108148  1
  O2-  O265  1  0.41527315  0.04262004  0.39344299  1
  O2-  O266  1  0.41541860  0.04293927  0.73756239  1
  O2-  O267  1  0.41482527  0.53791767  0.06209549  1
  O2-  O268  1  0.41877338  0.54504415  0.39967285  1
  O2-  O269  1  0.41868066  0.54287007  0.73981439  1
  O2-  O270  1  0.91682002  0.04100018  0.06934282  1
  O2-  O271  1  0.91488945  0.04208885  0.39799832  1
  O2-  O272  1  0.91771621  0.04243841  0.72775413  1
  O2-  O273  1  0.90940823  0.54227752  0.06544974  1
  O2-  O274  1  0.91348922  0.54978225  0.39815610  1
  O2-  O275  1  0.91529366  0.55065469  0.73147592  1
  O2-  O276  1  0.29287783  0.16327780  0.06745749  1
  O2-  O277  1  0.29175475  0.15990005  0.39210753  1
  O2-  O278  1  0.28663089  0.16444894  0.73506106  1
  O2-  O279  1  0.30396978  0.66650932  0.05924989  1
  O2-  O280  1  0.29143924  0.67164868  0.40110761  1
  O2-  O281  1  0.29542748  0.67326237  0.73948612  1
  O2-  O282  1  0.78875320  0.16619337  0.07011827  1
  O2-  O283  1  0.79615571  0.16175957  0.40047917  1
  O2-  O284  1  0.80148087  0.16358871  0.73062714  1
  O2-  O285  1  0.79284276  0.66463121  0.06045816  1
  O2-  O286  1  0.79623167  0.67037773  0.39396243  1
  O2-  O287  1  0.79121237  0.66387592  0.73162834  1
