# generated using pymatgen
data_Ca2Al2SiO7
_symmetry_space_group_name_H-M   'P 1'
_cell_length_a   15.45819953
_cell_length_b   15.45848823
_cell_length_c   15.28394886
_cell_angle_alpha   89.99754119
_cell_angle_beta   89.99841588
_cell_angle_gamma   89.98195140
_symmetry_Int_Tables_number   1
_chemical_formula_structural   Ca2Al2SiO7
_chemical_formula_sum   'Ca48 Al48 Si24 O168'
_cell_volume   3652.25827621
_cell_formula_units_Z   24
loop_
 _symmetry_equiv_pos_site_id
 _symmetry_equiv_pos_as_xyz
  1  'x, y, z'
loop_
 _atom_type_symbol
 _atom_type_oxidation_number
  Ca2+  2.0
  Al0+  0.0
  Si0+  0.0
  O2-  -2.0
loop_
 _atom_site_type_symbol
 _atom_site_label
 _atom_site_symmetry_multiplicity
 _atom_site_fract_x
 _atom_site_fract_y
 _atom_site_fract_z
 _atom_site_occupancy
  Ca2+  Ca0  1  0.16322178  0.08452468  0.17220523  1
  Ca2+  Ca1  1  0.16595781  0.07744771  0.50391875  1
  Ca2+  Ca2  1  0.16493578  0.07882321  0.83750443  1
  Ca2+  Ca3  1  0.17440308  0.58040628  0.17680021  1
  Ca2+  Ca4  1  0.17483855  0.58240727  0.50870244  1
  Ca2+  Ca5  1  0.16962394  0.57749512  0.82754674  1
  Ca2+  Ca6  1  0.67037751  0.09091947  0.17184557  1
  Ca2+  Ca7  1  0.66694657  0.08326072  0.50217812  1
  Ca2+  Ca8  1  0.66716057  0.07576423  0.84282926  1
  Ca2+  Ca9  1  0.66424128  0.58251976  0.17395852  1
  Ca2+  Ca10  1  0.67228175  0.58619695  0.50473635  1
  Ca2+  Ca11  1  0.67350340  0.58377134  0.83433563  1
  Ca2+  Ca12  1  0.07929274  0.32025092  0.16571349  1
  Ca2+  Ca13  1  0.07459026  0.33685677  0.49630566  1
  Ca2+  Ca14  1  0.08173723  0.32763674  0.82490992  1
  Ca2+  Ca15  1  0.08417718  0.82670317  0.16671712  1
  Ca2+  Ca16  1  0.09242414  0.82107485  0.49855239  1
  Ca2+  Ca17  1  0.08311705  0.82752371  0.82327479  1
  Ca2+  Ca18  1  0.57512930  0.32528243  0.16533387  1
  Ca2+  Ca19  1  0.57237393  0.33282830  0.49254347  1
  Ca2+  Ca20  1  0.57582450  0.32840547  0.83074390  1
  Ca2+  Ca21  1  0.57562734  0.83359334  0.16365960  1
  Ca2+  Ca22  1  0.57573052  0.82900464  0.49584330  1
  Ca2+  Ca23  1  0.57572514  0.84303520  0.82866692  1
  Ca2+  Ca24  1  0.33906405  0.41939978  0.17618098  1
  Ca2+  Ca25  1  0.33336766  0.42565859  0.50888453  1
  Ca2+  Ca26  1  0.33611028  0.41610029  0.83371493  1
  Ca2+  Ca27  1  0.33790432  0.91419911  0.17002520  1
  Ca2+  Ca28  1  0.33342527  0.91440472  0.50726415  1
  Ca2+  Ca29  1  0.33074064  0.91065427  0.83352213  1
  Ca2+  Ca30  1  0.83105841  0.41188070  0.17272045  1
  Ca2+  Ca31  1  0.83683391  0.41719480  0.50690113  1
  Ca2+  Ca32  1  0.84041096  0.42059637  0.82992673  1
  Ca2+  Ca33  1  0.82548711  0.92971764  0.17114278  1
  Ca2+  Ca34  1  0.82560491  0.92414155  0.50637354  1
  Ca2+  Ca35  1  0.81816975  0.91991870  0.84280123  1
  Ca2+  Ca36  1  0.42617445  0.17467257  0.15969601  1
  Ca2+  Ca37  1  0.42005108  0.17885039  0.49383160  1
  Ca2+  Ca38  1  0.42055971  0.17513474  0.83031813  1
  Ca2+  Ca39  1  0.41753812  0.67429291  0.16900127  1
  Ca2+  Ca40  1  0.41116613  0.67399229  0.49354173  1
  Ca2+  Ca41  1  0.41425693  0.67668234  0.82614274  1
  Ca2+  Ca42  1  0.92124362  0.15957844  0.16598587  1
  Ca2+  Ca43  1  0.91976495  0.17620691  0.49023725  1
  Ca2+  Ca44  1  0.91887811  0.16596676  0.83122045  1
  Ca2+  Ca45  1  0.92444421  0.66574399  0.16621278  1
  Ca2+  Ca46  1  0.92978621  0.66000491  0.49824803  1
  Ca2+  Ca47  1  0.92218511  0.66518172  0.82170934  1
  Al0+  Al48  1  -0.00121410  -0.00250247  -0.00020772  1
  Al0+  Al49  1  -0.00204473  -0.00073846  0.33774926  1
  Al0+  Al50  1  0.00000468  -0.00096085  0.67082829  1
  Al0+  Al51  1  0.00291727  0.49883368  0.00245016  1
  Al0+  Al52  1  0.00019123  0.49976188  0.32348790  1
  Al0+  Al53  1  0.00160905  0.49927441  0.66743774  1
  Al0+  Al54  1  0.49702710  -0.00092649  -0.00377477  1
  Al0+  Al55  1  0.49897967  0.00005416  0.32920498  1
  Al0+  Al56  1  0.49996842  0.00034620  0.66587574  1
  Al0+  Al57  1  0.50106959  0.50281980  -0.00226656  1
  Al0+  Al58  1  0.50061254  0.50311349  0.33286173  1
  Al0+  Al59  1  0.50218983  0.50101200  0.66914432  1
  Al0+  Al60  1  0.24658861  0.24938877  -0.00680928  1
  Al0+  Al61  1  0.24669125  0.24968849  0.32959248  1
  Al0+  Al62  1  0.25119394  0.24934012  0.66549934  1
  Al0+  Al63  1  0.25056301  0.74746238  -0.00234301  1
  Al0+  Al64  1  0.24929255  0.74863636  0.32804811  1
  Al0+  Al65  1  0.25036402  0.75016353  0.66798993  1
  Al0+  Al66  1  0.75100112  0.25252406  -0.00081600  1
  Al0+  Al67  1  0.74948077  0.25146491  0.33394425  1
  Al0+  Al68  1  0.75157026  0.25020292  0.66453177  1
  Al0+  Al69  1  0.75084623  0.75032159  0.00701678  1
  Al0+  Al70  1  0.75009738  0.75049525  0.33166668  1
  Al0+  Al71  1  0.75006378  0.75174137  0.67565222  1
  Al0+  Al72  1  0.82034982  0.07216601  0.01578635  1
  Al0+  Al73  1  0.67453135  0.92936304  0.01882542  1
  Al0+  Al74  1  0.93101521  0.31922456  0.65370251  1
  Al0+  Al75  1  0.67864062  0.93085673  0.68006703  1
  Al0+  Al76  1  0.06844991  0.17668434  0.98417497  1
  Al0+  Al77  1  0.57401107  0.67965149  0.31968708  1
  Al0+  Al78  1  0.42790077  0.82079599  0.31862774  1
  Al0+  Al79  1  0.06961821  0.17564244  0.32003071  1
  Al0+  Al80  1  0.42925199  0.81914534  0.98389692  1
  Al0+  Al81  1  0.57037061  0.17929119  0.32013065  1
  Al0+  Al82  1  0.81982305  0.07207812  0.35023316  1
  Al0+  Al83  1  0.06950103  0.68052955  0.65386610  1
  Al0+  Al84  1  0.92836602  0.32153172  0.31731154  1
  Al0+  Al85  1  0.82124996  0.56950156  0.67826708  1
  Al0+  Al86  1  0.42811033  0.32339660  0.98419621  1
  Al0+  Al87  1  0.42695983  0.32295433  0.32067257  1
  Al0+  Al88  1  0.32070102  0.57017938  0.34667950  1
  Al0+  Al89  1  0.07062353  0.67947400  0.31884575  1
  Al0+  Al90  1  0.17961977  0.92911169  0.67968024  1
  Al0+  Al91  1  0.42903374  0.32286876  0.65183732  1
  Al0+  Al92  1  0.43018095  0.81988120  0.65268790  1
  Al0+  Al93  1  0.32352673  0.57160322  0.68289483  1
  Al0+  Al94  1  0.57270649  0.17941911  0.98416356  1
  Al0+  Al95  1  0.17978912  0.42762875  0.68090625  1
  Si0+  Si96  1  0.17925713  0.92644395  0.01565595  1
  Si0+  Si97  1  0.32152186  0.07204883  0.34638857  1
  Si0+  Si98  1  0.07278647  0.17456465  0.64996317  1
  Si0+  Si99  1  0.67872216  0.43134226  0.01543986  1
  Si0+  Si100  1  0.57169994  0.17863611  0.65003885  1
  Si0+  Si101  1  0.92562470  0.82310139  0.65159753  1
  Si0+  Si102  1  0.17901397  0.42733941  0.01682848  1
  Si0+  Si103  1  0.32031463  0.57043972  0.01603976  1
  Si0+  Si104  1  0.07058067  0.67782375  0.98320143  1
  Si0+  Si105  1  0.67815066  0.42604494  0.68388398  1
  Si0+  Si106  1  0.17668838  0.42730199  0.34818011  1
  Si0+  Si107  1  0.92935843  0.81846992  0.98578749  1
  Si0+  Si108  1  0.92898903  0.32439134  0.98172148  1
  Si0+  Si109  1  0.57528167  0.67890299  0.98192246  1
  Si0+  Si110  1  0.67971713  0.43078250  0.34850940  1
  Si0+  Si111  1  0.31758166  0.07179486  0.01409548  1
  Si0+  Si112  1  0.67606481  0.92768457  0.35115411  1
  Si0+  Si113  1  0.92692971  0.82248631  0.31745280  1
  Si0+  Si114  1  0.82383209  0.57048348  0.01697245  1
  Si0+  Si115  1  0.82196117  0.07380915  0.68380327  1
  Si0+  Si116  1  0.82332371  0.57192058  0.34696141  1
  Si0+  Si117  1  0.57542253  0.67843812  0.65262030  1
  Si0+  Si118  1  0.32213564  0.07216926  0.68351048  1
  Si0+  Si119  1  0.17927790  0.92849557  0.34692971  1
  O2-  O120  1  0.24831731  -0.00107210  0.05803238  1
  O2-  O121  1  0.25035260  0.00012845  0.38791284  1
  O2-  O122  1  0.25157861  0.00521328  0.72824929  1
  O2-  O123  1  0.25435341  0.49439760  0.05813614  1
  O2-  O124  1  0.24862576  0.49239200  0.39215478  1
  O2-  O125  1  0.25575872  0.49499011  0.73291703  1
  O2-  O126  1  0.74312171  0.00588291  0.06710595  1
  O2-  O127  1  0.74319429  -0.00179208  0.39546138  1
  O2-  O128  1  0.75373500  0.00488379  0.72734013  1
  O2-  O129  1  0.75128741  0.50122882  0.05855934  1
  O2-  O130  1  0.75211246  0.50170943  0.38934526  1
  O2-  O131  1  0.74673026  0.49577401  0.72759928  1
  O2-  O132  1  -0.00266402  0.24642641  0.26846946  1
  O2-  O133  1  0.00462576  0.24390385  0.60680761  1
  O2-  O134  1  -0.00673606  0.25128571  0.93855330  1
  O2-  O135  1  -0.00496276  0.75333807  0.27192423  1
  O2-  O136  1  -0.00475935  0.75601679  0.60644934  1
  O2-  O137  1  -0.00230950  0.74626269  0.94120602  1
  O2-  O138  1  0.49544745  0.24820915  0.27042847  1
  O2-  O139  1  0.50554575  0.24977633  0.60622349  1
  O2-  O140  1  0.49983684  0.25091664  0.93448590  1
  O2-  O141  1  0.50284412  0.75167186  0.26916386  1
  O2-  O142  1  0.50327774  0.74283395  0.60801369  1
  O2-  O143  1  0.50910392  0.74949051  0.93770261  1
  O2-  O144  1  0.06937288  0.17715640  0.09692473  1
  O2-  O145  1  0.06947002  0.17433283  0.43335399  1
  O2-  O146  1  0.07014525  0.17342613  0.75583737  1
  O2-  O147  1  0.07042454  0.67892909  0.08845785  1
  O2-  O148  1  0.07082788  0.67962341  0.43166971  1
  O2-  O149  1  0.06687542  0.68147043  0.76751891  1
  O2-  O150  1  0.57106118  0.18299922  0.09754783  1
  O2-  O151  1  0.56889603  0.18123481  0.43406315  1
  O2-  O152  1  0.57098125  0.17868549  0.75559313  1
  O2-  O153  1  0.57375283  0.67624826  0.08731296  1
  O2-  O154  1  0.57858259  0.68142164  0.43305621  1
  O2-  O155  1  0.57735159  0.68036544  0.75836875  1
  O2-  O156  1  0.17655395  0.42964924  0.24205560  1
  O2-  O157  1  0.17781525  0.43100460  0.56743165  1
  O2-  O158  1  0.17438536  0.43063961  0.91217117  1
  O2-  O159  1  0.17854299  0.92823283  0.24134692  1
  O2-  O160  1  0.18086223  0.92957526  0.56631269  1
  O2-  O161  1  0.17971091  0.92513112  0.91072692  1
  O2-  O162  1  0.68025473  0.43188424  0.24300125  1
  O2-  O163  1  0.67826732  0.42566208  0.57835428  1
  O2-  O164  1  0.67900543  0.43381416  0.91035661  1
  O2-  O165  1  0.67800930  0.92646089  0.24592661  1
  O2-  O166  1  0.67996783  0.93116640  0.56687639  1
  O2-  O167  1  0.67881552  0.92816483  0.90498217  1
  O2-  O168  1  0.42957802  0.32336280  0.09767086  1
  O2-  O169  1  0.42916075  0.32256404  0.43430102  1
  O2-  O170  1  0.43120190  0.31965341  0.76486001  1
  O2-  O171  1  0.42462304  0.81465962  0.09651273  1
  O2-  O172  1  0.42652574  0.81984411  0.43211736  1
  O2-  O173  1  0.43099358  0.81974835  0.76581101  1
  O2-  O174  1  0.93204778  0.32940730  0.08675662  1
  O2-  O175  1  0.93087991  0.32417461  0.43092546  1
  O2-  O176  1  0.93156940  0.31789399  0.76702475  1
  O2-  O177  1  0.93285990  0.81653341  0.09093462  1
  O2-  O178  1  0.92660564  0.82103816  0.42294591  1
  O2-  O179  1  0.92705598  0.82062281  0.75766489  1
  O2-  O180  1  0.32081234  0.07172220  0.24116891  1
  O2-  O181  1  0.32218858  0.07136351  0.57756013  1
  O2-  O182  1  0.31478006  0.07143521  0.90903237  1
  O2-  O183  1  0.31794230  0.57046750  0.23275457  1
  O2-  O184  1  0.32046782  0.57323709  0.56934020  1
  O2-  O185  1  0.31724917  0.57307142  0.91134351  1
  O2-  O186  1  0.82104327  0.06912618  0.23741603  1
  O2-  O187  1  0.82124745  0.07362919  0.57823420  1
  O2-  O188  1  0.82235994  0.06699012  0.90204090  1
  O2-  O189  1  0.82297035  0.57101270  0.24142054  1
  O2-  O190  1  0.82078290  0.56872586  0.56509901  1
  O2-  O191  1  0.82566797  0.57026495  0.91189535  1
  O2-  O192  1  0.04165215  0.07656872  0.26749176  1
  O2-  O193  1  0.04691264  0.08036278  0.60496585  1
  O2-  O194  1  0.03992624  0.07848792  0.93131154  1
  O2-  O195  1  0.03941598  0.58570531  0.25996698  1
  O2-  O196  1  0.03698383  0.58513117  0.60007957  1
  O2-  O197  1  0.04333099  0.58498028  0.93813273  1
  O2-  O198  1  0.54644348  0.08062295  0.26703848  1
  O2-  O199  1  0.54311412  0.08668956  0.60290832  1
  O2-  O200  1  0.54297184  0.08109218  0.93249124  1
  O2-  O201  1  0.54495508  0.58256759  0.26490547  1
  O2-  O202  1  0.55738285  0.58244810  0.60923438  1
  O2-  O203  1  0.54875861  0.58627464  0.93459086  1
  O2-  O204  1  0.16689949  0.20338403  0.26419645  1
  O2-  O205  1  0.16756695  0.19662970  0.60588598  1
  O2-  O206  1  0.16336068  0.20779229  0.92775637  1
  O2-  O207  1  0.16367379  0.71344150  0.26053257  1
  O2-  O208  1  0.16520232  0.71325355  0.60047330  1
  O2-  O209  1  0.16124249  0.70788749  0.93629212  1
  O2-  O210  1  0.66696233  0.21181811  0.26758777  1
  O2-  O211  1  0.66652430  0.20155535  0.60557258  1
  O2-  O212  1  0.67120577  0.20898418  0.93137524  1
  O2-  O213  1  0.67279748  0.70433438  0.26431153  1
  O2-  O214  1  0.66819276  0.70834511  0.60685177  1
  O2-  O215  1  0.67179245  0.70065433  0.93973080  1
  O2-  O216  1  0.08955584  0.46027905  0.06697443  1
  O2-  O217  1  0.08317030  0.45832711  0.39149124  1
  O2-  O218  1  0.08414448  0.46150447  0.73689100  1
  O2-  O219  1  0.08667707  0.95187282  0.06257425  1
  O2-  O220  1  0.08780955  0.95356767  0.39612004  1
  O2-  O221  1  0.08189426  0.95544028  0.73590934  1
  O2-  O222  1  0.58775495  0.46155998  0.06374083  1
  O2-  O223  1  0.58917662  0.46067494  0.39705666  1
  O2-  O224  1  0.58613421  0.45190495  0.73264769  1
  O2-  O225  1  0.57248512  0.95091293  0.06644675  1
  O2-  O226  1  0.58121115  0.95188762  0.39568147  1
  O2-  O227  1  0.58253082  0.96313912  0.73424381  1
  O2-  O228  1  0.20169703  0.33302035  0.06125950  1
  O2-  O229  1  0.19483702  0.33155477  0.39272085  1
  O2-  O230  1  0.20333878  0.32703427  0.73259796  1
  O2-  O231  1  0.20886792  0.83435349  0.06278089  1
  O2-  O232  1  0.20884712  0.83673479  0.39296096  1
  O2-  O233  1  0.21117306  0.83429190  0.73621295  1
  O2-  O234  1  0.70616020  0.33985097  0.06319314  1
  O2-  O235  1  0.70642087  0.33999334  0.39778053  1
  O2-  O236  1  0.70624937  0.33320616  0.73062293  1
  O2-  O237  1  0.70812827  0.83161831  0.07176475  1
  O2-  O238  1  0.70532332  0.83448542  0.39687748  1
  O2-  O239  1  0.70832588  0.83601143  0.73852630  1
  O2-  O240  1  0.45955641  0.41974432  0.26796138  1
  O2-  O241  1  0.45967396  0.42092025  0.60080567  1
  O2-  O242  1  0.45796442  0.42225352  0.93244228  1
  O2-  O243  1  0.45276389  0.91949733  0.26512029  1
  O2-  O244  1  0.46032474  0.91711223  0.59943873  1
  O2-  O245  1  0.45140495  0.91763988  0.93028324  1
  O2-  O246  1  0.95669026  0.41777350  0.25986645  1
  O2-  O247  1  0.96215631  0.41555581  0.60014083  1
  O2-  O248  1  0.96091552  0.41677147  0.93522147  1
  O2-  O249  1  0.95552369  0.91465912  0.27115345  1
  O2-  O250  1  0.94946755  0.91778734  0.60735334  1
  O2-  O251  1  0.95829870  0.90865444  0.93704316  1
  O2-  O252  1  0.32746990  0.29917809  0.26888564  1
  O2-  O253  1  0.33261399  0.29119258  0.59819863  1
  O2-  O254  1  0.32945556  0.29525503  0.93218478  1
  O2-  O255  1  0.33179513  0.78969303  0.26255328  1
  O2-  O256  1  0.33298080  0.79071116  0.60001779  1
  O2-  O257  1  0.33330231  0.78314598  0.93008914  1
  O2-  O258  1  0.82884220  0.29664865  0.26663188  1
  O2-  O259  1  0.83328676  0.29267859  0.59915775  1
  O2-  O260  1  0.83339413  0.30629792  0.93768068  1
  O2-  O261  1  0.83460884  0.79711300  0.26925555  1
  O2-  O262  1  0.83197169  0.79678400  0.60708167  1
  O2-  O263  1  0.83624870  0.79161643  0.94060853  1
  O2-  O264  1  0.40986679  0.04486239  0.06027399  1
  O2-  O265  1  0.41297121  0.04474165  0.39506930  1
  O2-  O266  1  0.41462524  0.04444189  0.73011386  1
  O2-  O267  1  0.41503890  0.54882488  0.06065722  1
  O2-  O268  1  0.41914860  0.54595386  0.40004419  1
  O2-  O269  1  0.42395045  0.54928424  0.73536453  1
  O2-  O270  1  0.91736467  0.03520937  0.06851759  1
  O2-  O271  1  0.91534211  0.03846056  0.40570452  1
  O2-  O272  1  0.91584971  0.04909581  0.72961448  1
  O2-  O273  1  0.91565150  0.54134949  0.06478917  1
  O2-  O274  1  0.91590563  0.54259591  0.39194175  1
  O2-  O275  1  0.91585681  0.53695061  0.73530263  1
  O2-  O276  1  0.28762064  0.16342860  0.06084970  1
  O2-  O277  1  0.29219296  0.16343195  0.39459948  1
  O2-  O278  1  0.29807932  0.16561690  0.73020097  1
  O2-  O279  1  0.28532035  0.65988810  0.06446815  1
  O2-  O280  1  0.28477578  0.66654880  0.39827744  1
  O2-  O281  1  0.28822990  0.66737896  0.73701938  1
  O2-  O282  1  0.80073192  0.17462200  0.06466084  1
  O2-  O283  1  0.79033642  0.16975679  0.40314965  1
  O2-  O284  1  0.79727956  0.16762268  0.72997723  1
  O2-  O285  1  0.79905544  0.66233819  0.06569971  1
  O2-  O286  1  0.79816383  0.66455625  0.39392770  1
  O2-  O287  1  0.79268875  0.66510542  0.73649904  1
