# generated using pymatgen
data_Ca2Al2SiO7
_symmetry_space_group_name_H-M   'P 1'
_cell_length_a   15.45892257
_cell_length_b   15.45945231
_cell_length_c   15.28493872
_cell_angle_alpha   89.99595632
_cell_angle_beta   90.00538236
_cell_angle_gamma   89.97865369
_symmetry_Int_Tables_number   1
_chemical_formula_structural   Ca2Al2SiO7
_chemical_formula_sum   'Ca48 Al48 Si24 O168'
_cell_volume   3652.89336422
_cell_formula_units_Z   24
loop_
 _symmetry_equiv_pos_site_id
 _symmetry_equiv_pos_as_xyz
  1  'x, y, z'
loop_
 _atom_type_symbol
 _atom_type_oxidation_number
  Ca2+  2.0
  Al0+  0.0
  Si0+  0.0
  O2-  -2.0
loop_
 _atom_site_type_symbol
 _atom_site_label
 _atom_site_symmetry_multiplicity
 _atom_site_fract_x
 _atom_site_fract_y
 _atom_site_fract_z
 _atom_site_occupancy
  Ca2+  Ca0  1  0.16947113  0.08742098  0.16795030  1
  Ca2+  Ca1  1  0.16883001  0.08143205  0.50926783  1
  Ca2+  Ca2  1  0.17136757  0.08076782  0.83860162  1
  Ca2+  Ca3  1  0.16359988  0.57646851  0.17164144  1
  Ca2+  Ca4  1  0.17521548  0.57346307  0.50556484  1
  Ca2+  Ca5  1  0.17203850  0.58566784  0.83879183  1
  Ca2+  Ca6  1  0.67023494  0.08670784  0.17177276  1
  Ca2+  Ca7  1  0.65979249  0.07771064  0.49914220  1
  Ca2+  Ca8  1  0.67280785  0.08983077  0.84401030  1
  Ca2+  Ca9  1  0.66706614  0.58433875  0.17349929  1
  Ca2+  Ca10  1  0.66000754  0.58058546  0.50921454  1
  Ca2+  Ca11  1  0.66237652  0.57669361  0.83103420  1
  Ca2+  Ca12  1  0.08361473  0.32293772  0.16098870  1
  Ca2+  Ca13  1  0.08979970  0.32132931  0.49586510  1
  Ca2+  Ca14  1  0.07376976  0.32060060  0.82687806  1
  Ca2+  Ca15  1  0.08193799  0.83143337  0.15909901  1
  Ca2+  Ca16  1  0.07927738  0.83713183  0.49605235  1
  Ca2+  Ca17  1  0.09408671  0.83495060  0.83359168  1
  Ca2+  Ca18  1  0.57831116  0.32374659  0.16458183  1
  Ca2+  Ca19  1  0.57231219  0.33187653  0.49677295  1
  Ca2+  Ca20  1  0.58063220  0.32747727  0.82677568  1
  Ca2+  Ca21  1  0.57183184  0.84190725  0.16854013  1
  Ca2+  Ca22  1  0.57909661  0.82333850  0.48722703  1
  Ca2+  Ca23  1  0.57309507  0.83070103  0.83011827  1
  Ca2+  Ca24  1  0.32723881  0.41408793  0.17576507  1
  Ca2+  Ca25  1  0.33564828  0.41556743  0.50565295  1
  Ca2+  Ca26  1  0.34071573  0.42304052  0.83207200  1
  Ca2+  Ca27  1  0.33437413  0.91803919  0.16551813  1
  Ca2+  Ca28  1  0.33031512  0.92443932  0.50876880  1
  Ca2+  Ca29  1  0.32647050  0.92722822  0.84099518  1
  Ca2+  Ca30  1  0.83733924  0.41655454  0.16892197  1
  Ca2+  Ca31  1  0.82480114  0.41485202  0.50836833  1
  Ca2+  Ca32  1  0.83035372  0.40398114  0.83585185  1
  Ca2+  Ca33  1  0.83066835  0.92304317  0.17438521  1
  Ca2+  Ca34  1  0.82810205  0.91328184  0.49964685  1
  Ca2+  Ca35  1  0.82843630  0.92595338  0.84071891  1
  Ca2+  Ca36  1  0.42547619  0.16383688  0.16368960  1
  Ca2+  Ca37  1  0.41396469  0.17591580  0.49417787  1
  Ca2+  Ca38  1  0.41610401  0.16554355  0.82948436  1
  Ca2+  Ca39  1  0.41845816  0.67953647  0.16531180  1
  Ca2+  Ca40  1  0.42377945  0.66803930  0.49604345  1
  Ca2+  Ca41  1  0.41516814  0.67340458  0.82662403  1
  Ca2+  Ca42  1  0.92777462  0.16752626  0.15709953  1
  Ca2+  Ca43  1  0.92931394  0.16881115  0.49912858  1
  Ca2+  Ca44  1  0.92388777  0.16797427  0.83136214  1
  Ca2+  Ca45  1  0.92126346  0.67517799  0.16381908  1
  Ca2+  Ca46  1  0.91720417  0.67436696  0.49426590  1
  Ca2+  Ca47  1  0.92574140  0.66788557  0.83321617  1
  Al0+  Al48  1  -0.00166763  -0.00044581  0.00403272  1
  Al0+  Al49  1  0.00002960  0.00124911  0.32668038  1
  Al0+  Al50  1  -0.00220831  -0.00145948  0.66690000  1
  Al0+  Al51  1  -0.00138045  0.50231034  -0.00698621  1
  Al0+  Al52  1  0.00054754  0.49933374  0.34265327  1
  Al0+  Al53  1  -0.00179616  0.50175042  0.66277385  1
  Al0+  Al54  1  0.49895107  -0.00060752  -0.00660518  1
  Al0+  Al55  1  0.50130838  -0.00013516  0.33313994  1
  Al0+  Al56  1  0.49913116  -0.00165876  0.67094590  1
  Al0+  Al57  1  0.50107579  0.50052894  0.00420768  1
  Al0+  Al58  1  0.50014159  0.50062527  0.32506666  1
  Al0+  Al59  1  0.50137280  0.49876450  0.66938841  1
  Al0+  Al60  1  0.25071512  0.25150349  -0.00047937  1
  Al0+  Al61  1  0.24904229  0.24996022  0.33000235  1
  Al0+  Al62  1  0.25016859  0.25008682  0.66469288  1
  Al0+  Al63  1  0.25118670  0.75070436  -0.00279453  1
  Al0+  Al64  1  0.25049169  0.74890331  0.33251775  1
  Al0+  Al65  1  0.24960562  0.74882397  0.67037331  1
  Al0+  Al66  1  0.74750497  0.24996531  0.00140503  1
  Al0+  Al67  1  0.75231779  0.25174139  0.33461778  1
  Al0+  Al68  1  0.74990310  0.24929899  0.66549557  1
  Al0+  Al69  1  0.74982021  0.74727456  -0.00020259  1
  Al0+  Al70  1  0.75184750  0.75134209  0.32959324  1
  Al0+  Al71  1  0.75054680  0.74808392  0.66658797  1
  Al0+  Al72  1  0.57225471  0.67843152  0.31754684  1
  Al0+  Al73  1  0.32213190  0.07340593  0.01752776  1
  Al0+  Al74  1  0.17988501  0.42771168  0.34737660  1
  Al0+  Al75  1  0.56964404  0.68085016  0.65494548  1
  Al0+  Al76  1  0.17992402  0.92863058  0.01761202  1
  Al0+  Al77  1  0.68088404  0.42909127  0.68026978  1
  Al0+  Al78  1  0.07063682  0.17960907  0.31833504  1
  Al0+  Al79  1  0.32092625  0.56808954  0.67992068  1
  Al0+  Al80  1  0.56858049  0.18012715  0.98632709  1
  Al0+  Al81  1  0.68002644  0.93059704  0.34693969  1
  Al0+  Al82  1  0.07012440  0.17799211  0.65163243  1
  Al0+  Al83  1  0.07048605  0.68101733  0.98708238  1
  Al0+  Al84  1  0.92680819  0.32194602  0.64939852  1
  Al0+  Al85  1  0.43012681  0.82002874  0.98365473  1
  Al0+  Al86  1  0.07311764  0.17663450  0.98361774  1
  Al0+  Al87  1  0.32191297  0.07365538  0.68101418  1
  Al0+  Al88  1  0.92887388  0.32134999  0.98644835  1
  Al0+  Al89  1  0.42685190  0.82243871  0.31984213  1
  Al0+  Al90  1  0.17664802  0.92948353  0.68041507  1
  Al0+  Al91  1  0.42805904  0.32100488  0.31741032  1
  Al0+  Al92  1  0.43053436  0.31959488  0.65525293  1
  Al0+  Al93  1  0.57276831  0.17892302  0.32017540  1
  Al0+  Al94  1  0.81909579  0.07167484  0.01465216  1
  Al0+  Al95  1  0.93046465  0.82103044  0.31972953  1
  Si0+  Si96  1  0.17539328  0.42782181  0.68445369  1
  Si0+  Si97  1  0.82100242  0.57179464  0.34913693  1
  Si0+  Si98  1  0.57312233  0.17477809  0.65068182  1
  Si0+  Si99  1  0.67923974  0.42968116  0.01756521  1
  Si0+  Si100  1  0.32206252  0.57157528  0.01655330  1
  Si0+  Si101  1  0.07155355  0.67646438  0.31993525  1
  Si0+  Si102  1  0.42673767  0.82195702  0.64978971  1
  Si0+  Si103  1  0.17736391  0.92787764  0.34664156  1
  Si0+  Si104  1  0.67789234  0.92545053  0.01553963  1
  Si0+  Si105  1  0.57337120  0.67523910  0.98186797  1
  Si0+  Si106  1  0.32302732  0.57236698  0.34907153  1
  Si0+  Si107  1  0.82229095  0.57154530  0.01607716  1
  Si0+  Si108  1  0.07369431  0.67856133  0.64989778  1
  Si0+  Si109  1  0.81822024  0.06884073  0.68033166  1
  Si0+  Si110  1  0.92855565  0.32413457  0.31862604  1
  Si0+  Si111  1  0.92580117  0.82212429  0.98289573  1
  Si0+  Si112  1  0.92867052  0.81939720  0.65261447  1
  Si0+  Si113  1  0.82421759  0.07327311  0.35203174  1
  Si0+  Si114  1  0.17773681  0.43191003  0.01222902  1
  Si0+  Si115  1  0.32092615  0.06966595  0.34733124  1
  Si0+  Si116  1  0.42783012  0.32521716  0.98314116  1
  Si0+  Si117  1  0.67850008  0.42979462  0.34798372  1
  Si0+  Si118  1  0.82323266  0.57418969  0.68522413  1
  Si0+  Si119  1  0.67865707  0.92524681  0.68148414  1
  O2-  O120  1  0.24803792  0.00368211  0.06899165  1
  O2-  O121  1  0.25035426  -0.00305913  0.38838421  1
  O2-  O122  1  0.24846817  0.00197517  0.72904911  1
  O2-  O123  1  0.25160670  0.49941338  0.05707718  1
  O2-  O124  1  0.25652145  0.50139375  0.39295792  1
  O2-  O125  1  0.24436877  0.49610415  0.72932328  1
  O2-  O126  1  0.74637079  -0.00594131  0.05992188  1
  O2-  O127  1  0.75291422  0.00665670  0.39633437  1
  O2-  O128  1  0.74326333  0.00186982  0.72338500  1
  O2-  O129  1  0.75093140  0.50099945  0.05861870  1
  O2-  O130  1  0.74766660  0.50286258  0.39063296  1
  O2-  O131  1  0.75944649  0.50023387  0.72824815  1
  O2-  O132  1  -0.00439900  0.25508204  0.27402428  1
  O2-  O133  1  0.00298597  0.25449759  0.59998459  1
  O2-  O134  1  -0.00090219  0.24828766  0.93632856  1
  O2-  O135  1  0.00705849  0.74787332  0.27425286  1
  O2-  O136  1  0.00188993  0.75020935  0.61019524  1
  O2-  O137  1  -0.00095269  0.75846670  0.93849100  1
  O2-  O138  1  0.50060285  0.24951615  0.26841821  1
  O2-  O139  1  0.50040413  0.24006158  0.60843256  1
  O2-  O140  1  0.49214928  0.25256536  0.93944877  1
  O2-  O141  1  0.50034301  0.75123112  0.26960583  1
  O2-  O142  1  0.49805551  0.75634414  0.60555590  1
  O2-  O143  1  0.50558737  0.74463598  0.93854804  1
  O2-  O144  1  0.07247795  0.18094468  0.09747067  1
  O2-  O145  1  0.07080548  0.17768356  0.43130157  1
  O2-  O146  1  0.06661799  0.17600142  0.76459069  1
  O2-  O147  1  0.06623351  0.67772243  0.10037655  1
  O2-  O148  1  0.06967969  0.67726270  0.42574264  1
  O2-  O149  1  0.07327337  0.67733136  0.75488763  1
  O2-  O150  1  0.57101749  0.18332950  0.09915475  1
  O2-  O151  1  0.57045627  0.18013034  0.43400118  1
  O2-  O152  1  0.57645551  0.17720354  0.75624641  1
  O2-  O153  1  0.57332325  0.67308859  0.08708314  1
  O2-  O154  1  0.57083378  0.67758413  0.43145996  1
  O2-  O155  1  0.56916525  0.68364906  0.76804668  1
  O2-  O156  1  0.17739154  0.43174178  0.23372159  1
  O2-  O157  1  0.17694031  0.43037322  0.57860822  1
  O2-  O158  1  0.17817600  0.43565964  0.90733770  1
  O2-  O159  1  0.17656237  0.92719279  0.24218001  1
  O2-  O160  1  0.17693858  0.92915169  0.56584424  1
  O2-  O161  1  0.18378437  0.92734239  0.90428417  1
  O2-  O162  1  0.68184413  0.42973135  0.24272315  1
  O2-  O163  1  0.67991608  0.43242843  0.56691712  1
  O2-  O164  1  0.67746290  0.43098658  0.91255094  1
  O2-  O165  1  0.68239795  0.93093921  0.23408499  1
  O2-  O166  1  0.68099167  0.92308891  0.57638168  1
  O2-  O167  1  0.68151597  0.92412099  0.90924136  1
  O2-  O168  1  0.43098778  0.32951987  0.08844612  1
  O2-  O169  1  0.42967214  0.32152462  0.43120140  1
  O2-  O170  1  0.43500969  0.32188026  0.76826552  1
  O2-  O171  1  0.43097879  0.81863544  0.09672909  1
  O2-  O172  1  0.42645822  0.82114651  0.43357802  1
  O2-  O173  1  0.42815845  0.82027223  0.75528098  1
  O2-  O174  1  0.93248951  0.32428492  0.10040050  1
  O2-  O175  1  0.92776443  0.32363415  0.42394569  1
  O2-  O176  1  0.92620286  0.31712663  0.76268320  1
  O2-  O177  1  0.92274619  0.81710487  0.08833234  1
  O2-  O178  1  0.93120474  0.81909545  0.43354380  1
  O2-  O179  1  0.92506493  0.81776314  0.75734619  1
  O2-  O180  1  0.32101503  0.06994350  0.24257184  1
  O2-  O181  1  0.32340469  0.07122156  0.56658259  1
  O2-  O182  1  0.32251271  0.07193964  0.90426087  1
  O2-  O183  1  0.31952278  0.57415736  0.24330438  1
  O2-  O184  1  0.31984982  0.56781697  0.56678036  1
  O2-  O185  1  0.32364264  0.57031979  0.91127365  1
  O2-  O186  1  0.82403634  0.07216009  0.24664566  1
  O2-  O187  1  0.81946701  0.06561800  0.57520867  1
  O2-  O188  1  0.81652242  0.07044974  0.90074909  1
  O2-  O189  1  0.82416453  0.56921560  0.24384876  1
  O2-  O190  1  0.82064485  0.57932024  0.57960608  1
  O2-  O191  1  0.82208969  0.57478872  0.91140694  1
  O2-  O192  1  0.03995315  0.08472770  0.26240447  1
  O2-  O193  1  0.03549349  0.08063499  0.59847533  1
  O2-  O194  1  0.04326827  0.07717906  0.93461257  1
  O2-  O195  1  0.04080753  0.58377695  0.27515722  1
  O2-  O196  1  0.04550265  0.58768226  0.60085810  1
  O2-  O197  1  0.03558590  0.58829055  0.92817642  1
  O2-  O198  1  0.54663337  0.08055790  0.26762560  1
  O2-  O199  1  0.55157501  0.07857003  0.60794803  1
  O2-  O200  1  0.54516337  0.08290574  0.93080618  1
  O2-  O201  1  0.54563193  0.58155250  0.26126153  1
  O2-  O202  1  0.53794815  0.58441459  0.60247222  1
  O2-  O203  1  0.54589980  0.58150264  0.93688324  1
  O2-  O204  1  0.16542858  0.21186286  0.26329034  1
  O2-  O205  1  0.16945777  0.20377520  0.59921221  1
  O2-  O206  1  0.17120792  0.20796781  0.93201004  1
  O2-  O207  1  0.16615034  0.69645689  0.27462241  1
  O2-  O208  1  0.16496395  0.70613940  0.60151036  1
  O2-  O209  1  0.16744460  0.70748759  0.93235663  1
  O2-  O210  1  0.67222796  0.20817489  0.26925487  1
  O2-  O211  1  0.66496307  0.20237974  0.60309422  1
  O2-  O212  1  0.66360560  0.21529244  0.93193667  1
  O2-  O213  1  0.67128962  0.70458712  0.26581439  1
  O2-  O214  1  0.66771649  0.70830190  0.60154904  1
  O2-  O215  1  0.66813026  0.69804252  0.93665473  1
  O2-  O216  1  0.08691902  0.46474112  0.05908272  1
  O2-  O217  1  0.08534483  0.45951645  0.40590052  1
  O2-  O218  1  0.08095548  0.45525347  0.72765854  1
  O2-  O219  1  0.07765185  0.94785045  0.06636840  1
  O2-  O220  1  0.08553209  0.95802590  0.39339687  1
  O2-  O221  1  0.07675380  0.95326469  0.73321192  1
  O2-  O222  1  0.58840254  0.45894248  0.06691913  1
  O2-  O223  1  0.58500159  0.45675499  0.39238481  1
  O2-  O224  1  0.58762642  0.46401751  0.73778142  1
  O2-  O225  1  0.58352241  0.95151403  0.05766425  1
  O2-  O226  1  0.58314975  0.95868937  0.40330837  1
  O2-  O227  1  0.58500618  0.94609531  0.72789736  1
  O2-  O228  1  0.20263171  0.33953761  0.05971861  1
  O2-  O229  1  0.21087266  0.33107291  0.40120336  1
  O2-  O230  1  0.19968318  0.33368265  0.72827105  1
  O2-  O231  1  0.21094944  0.82924491  0.06899588  1
  O2-  O232  1  0.20061224  0.83408814  0.39345279  1
  O2-  O233  1  0.20393515  0.83037781  0.73227371  1
  O2-  O234  1  0.70701345  0.33904903  0.06637275  1
  O2-  O235  1  0.70751083  0.33903615  0.39716843  1
  O2-  O236  1  0.70907056  0.33105819  0.73403049  1
  O2-  O237  1  0.70241895  0.83098039  0.06077445  1
  O2-  O238  1  0.71474454  0.83384049  0.40031123  1
  O2-  O239  1  0.71302492  0.83657022  0.73094733  1
  O2-  O240  1  0.45414023  0.41892896  0.26290161  1
  O2-  O241  1  0.46678283  0.41401256  0.60050606  1
  O2-  O242  1  0.45950262  0.41782830  0.93740064  1
  O2-  O243  1  0.45746034  0.91931677  0.26604908  1
  O2-  O244  1  0.45071963  0.91691430  0.60606723  1
  O2-  O245  1  0.46137730  0.91445289  0.92646062  1
  O2-  O246  1  0.95460444  0.41884275  0.27506629  1
  O2-  O247  1  0.94582374  0.42454215  0.60050446  1
  O2-  O248  1  0.95442685  0.41942216  0.93134314  1
  O2-  O249  1  0.95813648  0.91664661  0.26414944  1
  O2-  O250  1  0.95363037  0.91078422  0.60352550  1
  O2-  O251  1  0.94510874  0.91755798  0.93959990  1
  O2-  O252  1  0.33061755  0.29253260  0.26411492  1
  O2-  O253  1  0.33245725  0.29656963  0.60073267  1
  O2-  O254  1  0.33248528  0.30691139  0.93908944  1
  O2-  O255  1  0.32923837  0.79253217  0.26525583  1
  O2-  O256  1  0.33359426  0.79357602  0.60497230  1
  O2-  O257  1  0.33552053  0.78589132  0.92911349  1
  O2-  O258  1  0.83449095  0.30186800  0.27245389  1
  O2-  O259  1  0.82946942  0.28966462  0.59589772  1
  O2-  O260  1  0.82920886  0.29357844  0.93676718  1
  O2-  O261  1  0.83681822  0.78786338  0.26305509  1
  O2-  O262  1  0.83865512  0.78785598  0.60300678  1
  O2-  O263  1  0.83421723  0.79049636  0.93498511  1
  O2-  O264  1  0.42151746  0.04006694  0.06685333  1
  O2-  O265  1  0.41266454  0.04384090  0.39553142  1
  O2-  O266  1  0.42054314  0.04498911  0.73528553  1
  O2-  O267  1  0.41419635  0.54543095  0.06456361  1
  O2-  O268  1  0.41847438  0.54814296  0.39184045  1
  O2-  O269  1  0.41561792  0.53603329  0.73673843  1
  O2-  O270  1  0.91523470  0.04257080  0.06982417  1
  O2-  O271  1  0.91680092  0.04187140  0.39745619  1
  O2-  O272  1  0.90734783  0.03586608  0.72945530  1
  O2-  O273  1  0.91384956  0.54291438  0.06396817  1
  O2-  O274  1  0.91093108  0.54403751  0.40091824  1
  O2-  O275  1  0.91947441  0.55472863  0.72841353  1
  O2-  O276  1  0.29854593  0.17473334  0.06838791  1
  O2-  O277  1  0.29050777  0.16129677  0.39340030  1
  O2-  O278  1  0.29673046  0.17294895  0.73326423  1
  O2-  O279  1  0.29195620  0.66234548  0.06324824  1
  O2-  O280  1  0.29575807  0.66483669  0.39749072  1
  O2-  O281  1  0.29034948  0.66446164  0.73476415  1
  O2-  O282  1  0.78589836  0.16706429  0.06991965  1
  O2-  O283  1  0.80238387  0.16834530  0.39717215  1
  O2-  O284  1  0.79322224  0.16121965  0.72725859  1
  O2-  O285  1  0.79416470  0.66291062  0.06552526  1
  O2-  O286  1  0.79616617  0.66480471  0.39535755  1
  O2-  O287  1  0.79245718  0.66511813  0.73471624  1
