# generated using pymatgen
data_Ca2Al2SiO7
_symmetry_space_group_name_H-M   'P 1'
_cell_length_a   15.47203800
_cell_length_b   15.47092726
_cell_length_c   15.29331792
_cell_angle_alpha   89.99708330
_cell_angle_beta   90.00524686
_cell_angle_gamma   89.97557994
_symmetry_Int_Tables_number   1
_chemical_formula_structural   Ca2Al2SiO7
_chemical_formula_sum   'Ca48 Al48 Si24 O168'
_cell_volume   3660.71182794
_cell_formula_units_Z   24
loop_
 _symmetry_equiv_pos_site_id
 _symmetry_equiv_pos_as_xyz
  1  'x, y, z'
loop_
 _atom_type_symbol
 _atom_type_oxidation_number
  Ca2+  2.0
  Al0+  0.0
  Si0+  0.0
  O2-  -2.0
loop_
 _atom_site_type_symbol
 _atom_site_label
 _atom_site_symmetry_multiplicity
 _atom_site_fract_x
 _atom_site_fract_y
 _atom_site_fract_z
 _atom_site_occupancy
  Ca2+  Ca0  1  0.16531334  0.08579402  0.16551586  1
  Ca2+  Ca1  1  0.17339247  0.07838702  0.51615254  1
  Ca2+  Ca2  1  0.17038875  0.09142392  0.83584279  1
  Ca2+  Ca3  1  0.16661832  0.57460326  0.16524768  1
  Ca2+  Ca4  1  0.16762086  0.58423121  0.50950574  1
  Ca2+  Ca5  1  0.16502820  0.57829188  0.84105735  1
  Ca2+  Ca6  1  0.66523060  0.08559849  0.16361064  1
  Ca2+  Ca7  1  0.67059369  0.08626076  0.50820480  1
  Ca2+  Ca8  1  0.67859164  0.08031189  0.84377057  1
  Ca2+  Ca9  1  0.66721787  0.58410402  0.16332589  1
  Ca2+  Ca10  1  0.66282101  0.57830125  0.50694135  1
  Ca2+  Ca11  1  0.66488869  0.57566014  0.84230222  1
  Ca2+  Ca12  1  0.07466926  0.33000047  0.15469218  1
  Ca2+  Ca13  1  0.06995000  0.32763401  0.49957706  1
  Ca2+  Ca14  1  0.07277512  0.32589229  0.83280650  1
  Ca2+  Ca15  1  0.07502014  0.83033551  0.15778385  1
  Ca2+  Ca16  1  0.08951188  0.83227661  0.50649420  1
  Ca2+  Ca17  1  0.08036254  0.82981909  0.82857925  1
  Ca2+  Ca18  1  0.58142453  0.32419374  0.15538017  1
  Ca2+  Ca19  1  0.58577830  0.32804077  0.49683211  1
  Ca2+  Ca20  1  0.59096618  0.33279660  0.83278437  1
  Ca2+  Ca21  1  0.58415874  0.82511019  0.15207338  1
  Ca2+  Ca22  1  0.58175073  0.82464249  0.49746554  1
  Ca2+  Ca23  1  0.58499737  0.82408428  0.83062530  1
  Ca2+  Ca24  1  0.32816343  0.40596881  0.16217259  1
  Ca2+  Ca25  1  0.33059245  0.41925858  0.50750259  1
  Ca2+  Ca26  1  0.32619451  0.41364739  0.84468472  1
  Ca2+  Ca27  1  0.33675048  0.91505554  0.16540221  1
  Ca2+  Ca28  1  0.33081157  0.92280436  0.51527683  1
  Ca2+  Ca29  1  0.33248294  0.91328652  0.83342584  1
  Ca2+  Ca30  1  0.83224802  0.41451780  0.16233695  1
  Ca2+  Ca31  1  0.82832154  0.41215773  0.50845153  1
  Ca2+  Ca32  1  0.82773113  0.41878346  0.84168414  1
  Ca2+  Ca33  1  0.82959043  0.91980930  0.15947160  1
  Ca2+  Ca34  1  0.82958738  0.92743061  0.50927629  1
  Ca2+  Ca35  1  0.83374209  0.92606384  0.84447400  1
  Ca2+  Ca36  1  0.42892100  0.16912378  0.15704230  1
  Ca2+  Ca37  1  0.42077640  0.16396930  0.49836526  1
  Ca2+  Ca38  1  0.42094896  0.16918981  0.83568999  1
  Ca2+  Ca39  1  0.42962915  0.67186163  0.15673059  1
  Ca2+  Ca40  1  0.42769763  0.67043570  0.50070659  1
  Ca2+  Ca41  1  0.42659303  0.67658852  0.83000727  1
  Ca2+  Ca42  1  0.91989880  0.17661098  0.15452051  1
  Ca2+  Ca43  1  0.90992463  0.17709958  0.50125668  1
  Ca2+  Ca44  1  0.91743068  0.17111764  0.82704616  1
  Ca2+  Ca45  1  0.91230331  0.67161940  0.15494263  1
  Ca2+  Ca46  1  0.92367769  0.66581759  0.50098329  1
  Ca2+  Ca47  1  0.91339032  0.67145819  0.83263192  1
  Al0+  Al48  1  0.00226914  -0.00182916  -0.00090770  1
  Al0+  Al49  1  -0.00046353  -0.00009078  0.33644298  1
  Al0+  Al50  1  0.00194667  -0.00051886  0.66919952  1
  Al0+  Al51  1  0.00166674  0.49818121  0.00656158  1
  Al0+  Al52  1  -0.00044104  0.50059771  0.33143653  1
  Al0+  Al53  1  -0.00136478  0.50049192  0.65850744  1
  Al0+  Al54  1  0.49830687  0.00079882  -0.00306807  1
  Al0+  Al55  1  0.49938172  -0.00104306  0.33218215  1
  Al0+  Al56  1  0.49922292  0.00100376  0.66755756  1
  Al0+  Al57  1  0.49830141  0.50089007  -0.00083803  1
  Al0+  Al58  1  0.49886806  0.50087821  0.33058817  1
  Al0+  Al59  1  0.49903164  0.49941165  0.66671545  1
  Al0+  Al60  1  0.25081821  0.24896415  0.00060104  1
  Al0+  Al61  1  0.24796151  0.24936251  0.33785797  1
  Al0+  Al62  1  0.24940581  0.25017170  0.66625446  1
  Al0+  Al63  1  0.25106072  0.74961596  0.00065679  1
  Al0+  Al64  1  0.24961509  0.74893753  0.33472586  1
  Al0+  Al65  1  0.25121243  0.75068384  0.66301330  1
  Al0+  Al66  1  0.75113342  0.25116636  0.00153009  1
  Al0+  Al67  1  0.74964340  0.25098941  0.32585637  1
  Al0+  Al68  1  0.74877435  0.25068916  0.67012260  1
  Al0+  Al69  1  0.75117061  0.75075758  -0.00221175  1
  Al0+  Al70  1  0.75099898  0.74983412  0.33287345  1
  Al0+  Al71  1  0.75107744  0.74860787  0.65961219  1
  Al0+  Al72  1  0.82402931  0.07195137  0.01598684  1
  Al0+  Al73  1  0.07152892  0.17735862  0.98603286  1
  Al0+  Al74  1  0.67835978  0.43084933  0.67869905  1
  Al0+  Al75  1  0.57251614  0.67673038  0.65035165  1
  Al0+  Al76  1  0.18057189  0.42776247  0.01353485  1
  Al0+  Al77  1  0.07034307  0.67971848  0.65492763  1
  Al0+  Al78  1  0.82030712  0.07057489  0.67913989  1
  Al0+  Al79  1  0.92938338  0.32168628  0.31717541  1
  Al0+  Al80  1  0.42680489  0.82239447  0.98475300  1
  Al0+  Al81  1  0.56938618  0.17848336  0.32102602  1
  Al0+  Al82  1  0.92692328  0.31956253  0.65162539  1
  Al0+  Al83  1  0.92949986  0.81998121  0.98717875  1
  Al0+  Al84  1  0.57300388  0.67931682  0.98392356  1
  Al0+  Al85  1  0.07215065  0.17764824  0.65081056  1
  Al0+  Al86  1  0.43081165  0.82216430  0.65036092  1
  Al0+  Al87  1  0.67777001  0.93050004  0.01299723  1
  Al0+  Al88  1  0.32264983  0.07357547  0.68520913  1
  Al0+  Al89  1  0.42933040  0.32088562  0.98584246  1
  Al0+  Al90  1  0.92882466  0.32236654  0.98433963  1
  Al0+  Al91  1  0.82094863  0.57082429  0.01366227  1
  Al0+  Al92  1  0.57302953  0.17964337  0.98279421  1
  Al0+  Al93  1  0.57197388  0.67902728  0.31726030  1
  Al0+  Al94  1  0.18029308  0.92728145  0.68426464  1
  Al0+  Al95  1  0.67633237  0.42868614  0.01684295  1
  Si0+  Si96  1  0.42507922  0.32207501  0.31895017  1
  Si0+  Si97  1  0.17748598  0.42903627  0.35129439  1
  Si0+  Si98  1  0.57031796  0.18099495  0.65308017  1
  Si0+  Si99  1  0.17736829  0.43038734  0.68030176  1
  Si0+  Si100  1  0.92760052  0.82371366  0.64867184  1
  Si0+  Si101  1  0.93011381  0.82183104  0.31930647  1
  Si0+  Si102  1  0.32111081  0.07000445  0.34803923  1
  Si0+  Si103  1  0.07238080  0.67736069  0.98678039  1
  Si0+  Si104  1  0.31986914  0.57083499  0.35009426  1
  Si0+  Si105  1  0.81941938  0.07175753  0.34803037  1
  Si0+  Si106  1  0.31994105  0.07080752  0.01729518  1
  Si0+  Si107  1  0.07220829  0.67954113  0.31761814  1
  Si0+  Si108  1  0.32115911  0.57373926  0.01789783  1
  Si0+  Si109  1  0.07193419  0.17738829  0.31815149  1
  Si0+  Si110  1  0.42725079  0.32189612  0.65176847  1
  Si0+  Si111  1  0.67885862  0.92779900  0.34825117  1
  Si0+  Si112  1  0.82178297  0.57316556  0.35011659  1
  Si0+  Si113  1  0.32048216  0.57025365  0.68141639  1
  Si0+  Si114  1  0.17980320  0.92597804  0.01694126  1
  Si0+  Si115  1  0.82369984  0.57262198  0.68058314  1
  Si0+  Si116  1  0.67971847  0.42971719  0.34744186  1
  Si0+  Si117  1  0.67852276  0.92605826  0.68063671  1
  Si0+  Si118  1  0.17788028  0.92856494  0.34886412  1
  Si0+  Si119  1  0.42775136  0.82074361  0.31699671  1
  O2-  O120  1  0.25021322  -0.00231392  0.05949206  1
  O2-  O121  1  0.24963930  -0.00070961  0.38976874  1
  O2-  O122  1  0.24908735  0.00231559  0.73417200  1
  O2-  O123  1  0.25581079  0.50159535  0.06265239  1
  O2-  O124  1  0.24977451  0.49897284  0.39399598  1
  O2-  O125  1  0.24797099  0.50108998  0.72314694  1
  O2-  O126  1  0.74727508  0.00399924  0.06610938  1
  O2-  O127  1  0.74680345  0.00194468  0.39089135  1
  O2-  O128  1  0.75049505  -0.00902496  0.72361049  1
  O2-  O129  1  0.74897209  0.50053337  0.06717298  1
  O2-  O130  1  0.75073071  0.50103100  0.39079559  1
  O2-  O131  1  0.75122540  0.50800234  0.72253973  1
  O2-  O132  1  0.00545700  0.24696348  0.27375720  1
  O2-  O133  1  -0.00282013  0.24610577  0.60004761  1
  O2-  O134  1  -0.00533752  0.24380569  0.93654593  1
  O2-  O135  1  0.00049117  0.74981678  0.27707177  1
  O2-  O136  1  -0.00311395  0.75457624  0.60496376  1
  O2-  O137  1  0.00197482  0.74278396  0.94217733  1
  O2-  O138  1  0.49264980  0.25210037  0.27697706  1
  O2-  O139  1  0.49750606  0.25011885  0.60955320  1
  O2-  O140  1  0.50611562  0.25671625  0.93289914  1
  O2-  O141  1  0.49840247  0.75539106  0.27242559  1
  O2-  O142  1  0.50433544  0.75220843  0.59954253  1
  O2-  O143  1  0.50247264  0.75405553  0.93655389  1
  O2-  O144  1  0.07252426  0.17998811  0.10077860  1
  O2-  O145  1  0.07285393  0.17739065  0.42327847  1
  O2-  O146  1  0.07388603  0.18315380  0.76331732  1
  O2-  O147  1  0.07417842  0.68125109  0.09316881  1
  O2-  O148  1  0.07338638  0.67940489  0.42268906  1
  O2-  O149  1  0.06863343  0.67705205  0.76739524  1
  O2-  O150  1  0.56738168  0.17814528  0.09703947  1
  O2-  O151  1  0.56910900  0.18017845  0.43487680  1
  O2-  O152  1  0.57188311  0.18268474  0.75704552  1
  O2-  O153  1  0.57079660  0.68120484  0.09820597  1
  O2-  O154  1  0.56972472  0.67874390  0.43023159  1
  O2-  O155  1  0.57073151  0.67553800  0.76268064  1
  O2-  O156  1  0.17914483  0.42857452  0.24664472  1
  O2-  O157  1  0.18009516  0.43248243  0.57429153  1
  O2-  O158  1  0.18083983  0.43117084  0.90039862  1
  O2-  O159  1  0.17644036  0.92771064  0.24389559  1
  O2-  O160  1  0.18417444  0.92789078  0.56921676  1
  O2-  O161  1  0.18076940  0.92099815  0.91304311  1
  O2-  O162  1  0.67939713  0.43005515  0.24334038  1
  O2-  O163  1  0.67853230  0.42942242  0.56423912  1
  O2-  O164  1  0.67720602  0.43164696  0.90333777  1
  O2-  O165  1  0.67991520  0.92612070  0.24400226  1
  O2-  O166  1  0.67958935  0.92871310  0.57376465  1
  O2-  O167  1  0.68143080  0.92982941  0.89954866  1
  O2-  O168  1  0.42651803  0.31372835  0.10009393  1
  O2-  O169  1  0.42417131  0.32304854  0.42497681  1
  O2-  O170  1  0.42589859  0.32439661  0.75587259  1
  O2-  O171  1  0.42485541  0.81795150  0.09931547  1
  O2-  O172  1  0.42736392  0.82021886  0.42225747  1
  O2-  O173  1  0.43056498  0.81874158  0.76291168  1
  O2-  O174  1  0.93424886  0.32279657  0.09848279  1
  O2-  O175  1  0.92818963  0.32047900  0.43036462  1
  O2-  O176  1  0.92812055  0.32208960  0.76385326  1
  O2-  O177  1  0.93320494  0.81950140  0.10132444  1
  O2-  O178  1  0.93108987  0.82227038  0.42433590  1
  O2-  O179  1  0.92529736  0.82146098  0.75352651  1
  O2-  O180  1  0.32094670  0.07022548  0.24324451  1
  O2-  O181  1  0.32292225  0.07280497  0.57011885  1
  O2-  O182  1  0.31841708  0.07409242  0.91309348  1
  O2-  O183  1  0.31709577  0.57321806  0.24573740  1
  O2-  O184  1  0.31983459  0.56664110  0.57531769  1
  O2-  O185  1  0.31624769  0.57660067  0.91251921  1
  O2-  O186  1  0.82245343  0.06937703  0.24391423  1
  O2-  O187  1  0.81484311  0.07158175  0.56461165  1
  O2-  O188  1  0.82529241  0.06796594  0.90257761  1
  O2-  O189  1  0.82308437  0.57644818  0.24591034  1
  O2-  O190  1  0.82512055  0.57104931  0.57414449  1
  O2-  O191  1  0.82310300  0.57033507  0.90017753  1
  O2-  O192  1  0.04643979  0.08283305  0.27373198  1
  O2-  O193  1  0.04997007  0.07647611  0.60043061  1
  O2-  O194  1  0.05417579  0.07611736  0.93686585  1
  O2-  O195  1  0.04626349  0.58727745  0.27117432  1
  O2-  O196  1  0.03948762  0.58578822  0.59389193  1
  O2-  O197  1  0.05128888  0.58238775  0.94429930  1
  O2-  O198  1  0.53998066  0.08137080  0.26757378  1
  O2-  O199  1  0.54477746  0.08884730  0.60475156  1
  O2-  O200  1  0.53947972  0.08325376  0.93071784  1
  O2-  O201  1  0.53865244  0.58284565  0.26465591  1
  O2-  O202  1  0.53641805  0.58021510  0.59605054  1
  O2-  O203  1  0.54173732  0.58178859  0.93311471  1
  O2-  O204  1  0.16709573  0.20134013  0.27373800  1
  O2-  O205  1  0.16964238  0.21039238  0.59612634  1
  O2-  O206  1  0.16785969  0.21125891  0.93451644  1
  O2-  O207  1  0.16369760  0.70789275  0.27006269  1
  O2-  O208  1  0.16598440  0.70966881  0.59720173  1
  O2-  O209  1  0.16448492  0.70527334  0.94048295  1
  O2-  O210  1  0.66408753  0.20927098  0.26569860  1
  O2-  O211  1  0.65999009  0.21207668  0.60291862  1
  O2-  O212  1  0.67338654  0.20232865  0.93375332  1
  O2-  O213  1  0.67006889  0.70853534  0.26678456  1
  O2-  O214  1  0.67184451  0.70059150  0.59526424  1
  O2-  O215  1  0.67074398  0.70615330  0.93115086  1
  O2-  O216  1  0.08767624  0.46075354  0.07352896  1
  O2-  O217  1  0.08619358  0.46021153  0.39785544  1
  O2-  O218  1  0.08523600  0.46013214  0.72413426  1
  O2-  O219  1  0.08896334  0.95342109  0.06681186  1
  O2-  O220  1  0.08646716  0.95559480  0.39803692  1
  O2-  O221  1  0.07893685  0.94655620  0.73278296  1
  O2-  O222  1  0.57622525  0.45519480  0.06889522  1
  O2-  O223  1  0.58608407  0.45615656  0.39367689  1
  O2-  O224  1  0.58067626  0.45763703  0.73167403  1
  O2-  O225  1  0.57759450  0.95549099  0.06580744  1
  O2-  O226  1  0.58521680  0.95228554  0.39456431  1
  O2-  O227  1  0.58594349  0.95320569  0.72505786  1
  O2-  O228  1  0.21417127  0.33276115  0.07063776  1
  O2-  O229  1  0.20360846  0.33659268  0.39951960  1
  O2-  O230  1  0.20626698  0.33929283  0.72596471  1
  O2-  O231  1  0.20879575  0.83530391  0.06807539  1
  O2-  O232  1  0.20460158  0.83557692  0.39533646  1
  O2-  O233  1  0.21065268  0.82840274  0.73485609  1
  O2-  O234  1  0.70396935  0.33009730  0.06999507  1
  O2-  O235  1  0.70852512  0.33716235  0.39411499  1
  O2-  O236  1  0.70959272  0.33574506  0.73303906  1
  O2-  O237  1  0.71076993  0.83348634  0.06686045  1
  O2-  O238  1  0.71074617  0.83765276  0.39759605  1
  O2-  O239  1  0.70125608  0.83005640  0.72192098  1
  O2-  O240  1  0.44926944  0.41533579  0.27294856  1
  O2-  O241  1  0.45553388  0.41247412  0.60138490  1
  O2-  O242  1  0.44332311  0.42329723  0.93778859  1
  O2-  O243  1  0.44923638  0.91563717  0.27235033  1
  O2-  O244  1  0.45700170  0.92198249  0.59741976  1
  O2-  O245  1  0.44549496  0.92277897  0.93520097  1
  O2-  O246  1  0.95997734  0.41925763  0.26571305  1
  O2-  O247  1  0.95708835  0.41641154  0.59518494  1
  O2-  O248  1  0.96482732  0.41936506  0.93409271  1
  O2-  O249  1  0.95981523  0.91323422  0.27232583  1
  O2-  O250  1  0.95391410  0.91641845  0.60116062  1
  O2-  O251  1  0.96396711  0.91390042  0.93284353  1
  O2-  O252  1  0.33026484  0.29664066  0.27498646  1
  O2-  O253  1  0.33618004  0.29525835  0.60160111  1
  O2-  O254  1  0.33351094  0.28613929  0.93245924  1
  O2-  O255  1  0.33364643  0.79335395  0.27231051  1
  O2-  O256  1  0.33378071  0.79070347  0.59557933  1
  O2-  O257  1  0.32994708  0.78881066  0.93207766  1
  O2-  O258  1  0.83383958  0.29123398  0.26314254  1
  O2-  O259  1  0.82865360  0.28824915  0.59738838  1
  O2-  O260  1  0.82809159  0.30251289  0.93592097  1
  O2-  O261  1  0.83856577  0.79421620  0.27260463  1
  O2-  O262  1  0.83544090  0.79826894  0.59829605  1
  O2-  O263  1  0.83478875  0.79173523  0.93085159  1
  O2-  O264  1  0.41128672  0.04335978  0.06600007  1
  O2-  O265  1  0.41292544  0.04234684  0.39645900  1
  O2-  O266  1  0.42174784  0.04626911  0.73606801  1
  O2-  O267  1  0.41508568  0.55164742  0.06370508  1
  O2-  O268  1  0.41209221  0.54267132  0.39719421  1
  O2-  O269  1  0.41073929  0.54059959  0.72871521  1
  O2-  O270  1  0.92121586  0.03718628  0.06983726  1
  O2-  O271  1  0.91071956  0.04183803  0.39681708  1
  O2-  O272  1  0.91862852  0.04561061  0.72995385  1
  O2-  O273  1  0.91948808  0.54476752  0.06975420  1
  O2-  O274  1  0.91518519  0.54622839  0.39627679  1
  O2-  O275  1  0.91679314  0.54518640  0.72554924  1
  O2-  O276  1  0.28913796  0.16016357  0.06817977  1
  O2-  O277  1  0.29539528  0.16250654  0.39656411  1
  O2-  O278  1  0.29468678  0.17327818  0.73540408  1
  O2-  O279  1  0.29032197  0.66455547  0.06824405  1
  O2-  O280  1  0.29009308  0.66200007  0.39901029  1
  O2-  O281  1  0.29357426  0.66238534  0.72585171  1
  O2-  O282  1  0.79936985  0.17120696  0.06796132  1
  O2-  O283  1  0.79018658  0.16430352  0.39358175  1
  O2-  O284  1  0.78543835  0.16453859  0.73328553  1
  O2-  O285  1  0.79371421  0.66984989  0.06723894  1
  O2-  O286  1  0.79477810  0.66487295  0.39919367  1
  O2-  O287  1  0.80328316  0.66893990  0.72265621  1
