# generated using pymatgen
data_Ca2Al2SiO7
_symmetry_space_group_name_H-M   'P 1'
_cell_length_a   15.46817317
_cell_length_b   15.46854113
_cell_length_c   15.29203088
_cell_angle_alpha   90.01213699
_cell_angle_beta   89.99376150
_cell_angle_gamma   89.96104299
_symmetry_Int_Tables_number   1
_chemical_formula_structural   Ca2Al2SiO7
_chemical_formula_sum   'Ca48 Al48 Si24 O168'
_cell_volume   3658.92439233
_cell_formula_units_Z   24
loop_
 _symmetry_equiv_pos_site_id
 _symmetry_equiv_pos_as_xyz
  1  'x, y, z'
loop_
 _atom_type_symbol
 _atom_type_oxidation_number
  Ca2+  2.0
  Al0+  0.0
  Si0+  0.0
  O2-  -2.0
loop_
 _atom_site_type_symbol
 _atom_site_label
 _atom_site_symmetry_multiplicity
 _atom_site_fract_x
 _atom_site_fract_y
 _atom_site_fract_z
 _atom_site_occupancy
  Ca2+  Ca0  1  0.17204885  0.07622257  0.18200354  1
  Ca2+  Ca1  1  0.17723241  0.08479990  0.49701285  1
  Ca2+  Ca2  1  0.17599695  0.08259485  0.83458664  1
  Ca2+  Ca3  1  0.16218985  0.58662542  0.17258378  1
  Ca2+  Ca4  1  0.16691661  0.58606064  0.50070849  1
  Ca2+  Ca5  1  0.16628640  0.58371094  0.84052831  1
  Ca2+  Ca6  1  0.66989749  0.07246068  0.17692952  1
  Ca2+  Ca7  1  0.66289563  0.08350587  0.49801685  1
  Ca2+  Ca8  1  0.66461925  0.07834286  0.83575154  1
  Ca2+  Ca9  1  0.67047059  0.58640919  0.17256201  1
  Ca2+  Ca10  1  0.65756296  0.57709217  0.50537968  1
  Ca2+  Ca11  1  0.66706214  0.57986394  0.83716739  1
  Ca2+  Ca12  1  0.07991643  0.32545734  0.17210414  1
  Ca2+  Ca13  1  0.07126145  0.32747950  0.49145139  1
  Ca2+  Ca14  1  0.07479462  0.33243197  0.82811546  1
  Ca2+  Ca15  1  0.07477586  0.83348232  0.16384599  1
  Ca2+  Ca16  1  0.07942296  0.83176663  0.48686091  1
  Ca2+  Ca17  1  0.07692646  0.82904147  0.83484012  1
  Ca2+  Ca18  1  0.57363332  0.32523522  0.16911941  1
  Ca2+  Ca19  1  0.58434830  0.32161364  0.49299677  1
  Ca2+  Ca20  1  0.58247444  0.32936153  0.82564522  1
  Ca2+  Ca21  1  0.57729153  0.84471032  0.16521422  1
  Ca2+  Ca22  1  0.57600534  0.82823933  0.49111190  1
  Ca2+  Ca23  1  0.57681986  0.83341339  0.82757140  1
  Ca2+  Ca24  1  0.33775890  0.41528982  0.17414850  1
  Ca2+  Ca25  1  0.33607686  0.41561428  0.50120423  1
  Ca2+  Ca26  1  0.33329924  0.41809715  0.84139393  1
  Ca2+  Ca27  1  0.32927961  0.91566453  0.17958744  1
  Ca2+  Ca28  1  0.33731885  0.92159830  0.49934155  1
  Ca2+  Ca29  1  0.34359795  0.92006853  0.83486884  1
  Ca2+  Ca30  1  0.83939643  0.42534658  0.17203460  1
  Ca2+  Ca31  1  0.83037406  0.41434883  0.50690873  1
  Ca2+  Ca32  1  0.82707411  0.41969514  0.83638150  1
  Ca2+  Ca33  1  0.82597563  0.91340029  0.17725497  1
  Ca2+  Ca34  1  0.83004469  0.91852500  0.49455730  1
  Ca2+  Ca35  1  0.82413702  0.91403547  0.84449682  1
  Ca2+  Ca36  1  0.41564741  0.16914244  0.16768012  1
  Ca2+  Ca37  1  0.42358192  0.16463109  0.49226139  1
  Ca2+  Ca38  1  0.42330383  0.16917578  0.82621125  1
  Ca2+  Ca39  1  0.42388671  0.68021411  0.16819403  1
  Ca2+  Ca40  1  0.42636484  0.67590832  0.49453470  1
  Ca2+  Ca41  1  0.42321302  0.68037199  0.82640931  1
  Ca2+  Ca42  1  0.91714506  0.16157336  0.17163255  1
  Ca2+  Ca43  1  0.91506271  0.17637806  0.48732208  1
  Ca2+  Ca44  1  0.91755036  0.17254969  0.82444954  1
  Ca2+  Ca45  1  0.92230822  0.67785490  0.16423179  1
  Ca2+  Ca46  1  0.92337022  0.67401065  0.48946846  1
  Ca2+  Ca47  1  0.91389884  0.66582385  0.83908279  1
  Al0+  Al48  1  0.00230599  -0.00007881  -0.00688770  1
  Al0+  Al49  1  -0.00106620  0.00102990  0.33535394  1
  Al0+  Al50  1  0.00213660  -0.00033689  0.66835540  1
  Al0+  Al51  1  0.00034965  0.49773884  0.00115877  1
  Al0+  Al52  1  0.00029523  0.49957325  0.32941089  1
  Al0+  Al53  1  -0.00037711  0.50034690  0.66528459  1
  Al0+  Al54  1  0.50123699  0.00263622  -0.00026885  1
  Al0+  Al55  1  0.50070109  0.00003005  0.33390502  1
  Al0+  Al56  1  0.49955122  0.00194659  0.66464335  1
  Al0+  Al57  1  0.49769091  0.49913894  -0.00189787  1
  Al0+  Al58  1  0.50003786  0.50103725  0.32755920  1
  Al0+  Al59  1  0.49864292  0.50044344  0.67207649  1
  Al0+  Al60  1  0.24963378  0.25104536  -0.00427935  1
  Al0+  Al61  1  0.24671012  0.25199166  0.33273293  1
  Al0+  Al62  1  0.24896400  0.24913189  0.67384054  1
  Al0+  Al63  1  0.25099531  0.74968283  -0.00818245  1
  Al0+  Al64  1  0.25300254  0.74703361  0.33357079  1
  Al0+  Al65  1  0.24808913  0.75077845  0.66604324  1
  Al0+  Al66  1  0.74984648  0.24959061  0.00124095  1
  Al0+  Al67  1  0.74759772  0.25272882  0.32527432  1
  Al0+  Al68  1  0.74941076  0.25156196  0.66555163  1
  Al0+  Al69  1  0.74996225  0.74828782  0.00518792  1
  Al0+  Al70  1  0.75271590  0.74752879  0.33414271  1
  Al0+  Al71  1  0.75155333  0.74887094  0.66493757  1
  Al0+  Al72  1  0.17897293  0.92585291  0.34703562  1
  Al0+  Al73  1  0.92999494  0.32015339  0.65454764  1
  Al0+  Al74  1  0.92709568  0.82135414  0.98420675  1
  Al0+  Al75  1  0.43077708  0.82265664  0.98591409  1
  Al0+  Al76  1  0.67947866  0.93047086  0.01191971  1
  Al0+  Al77  1  0.32127837  0.06954710  0.68219088  1
  Al0+  Al78  1  0.42861772  0.82236448  0.65025001  1
  Al0+  Al79  1  0.92624427  0.32156139  0.31668881  1
  Al0+  Al80  1  0.07039295  0.67764019  0.98393834  1
  Al0+  Al81  1  0.81963412  0.07356104  0.34798829  1
  Al0+  Al82  1  0.32099243  0.07333331  0.34716347  1
  Al0+  Al83  1  0.57052918  0.18092074  0.65339682  1
  Al0+  Al84  1  0.57111095  0.17697399  0.31662089  1
  Al0+  Al85  1  0.42862464  0.32044078  0.98453273  1
  Al0+  Al86  1  0.43127527  0.82183284  0.31911607  1
  Al0+  Al87  1  0.07001368  0.17833673  0.31996620  1
  Al0+  Al88  1  0.92964741  0.82276395  0.32020069  1
  Al0+  Al89  1  0.57302279  0.67812333  0.31806904  1
  Al0+  Al90  1  0.42764634  0.32065501  0.32175333  1
  Al0+  Al91  1  0.67877636  0.42888733  0.67971493  1
  Al0+  Al92  1  0.57245939  0.67755925  0.65337793  1
  Al0+  Al93  1  0.67887277  0.92667532  0.35055437  1
  Al0+  Al94  1  0.07314228  0.67870728  0.32050723  1
  Al0+  Al95  1  0.82032451  0.56802291  0.01575369  1
  Si0+  Si96  1  0.92851695  0.82298678  0.65199237  1
  Si0+  Si97  1  0.06976215  0.67933243  0.65247595  1
  Si0+  Si98  1  0.57225211  0.17979524  0.98176641  1
  Si0+  Si99  1  0.17727061  0.43018716  0.34975241  1
  Si0+  Si100  1  0.31938976  0.57223807  0.68350361  1
  Si0+  Si101  1  0.17633499  0.92592346  0.68689015  1
  Si0+  Si102  1  0.17968571  0.42811008  0.01670248  1
  Si0+  Si103  1  0.82204097  0.07152666  0.68050198  1
  Si0+  Si104  1  0.42530768  0.32259131  0.65276428  1
  Si0+  Si105  1  0.07195738  0.17850457  0.98267838  1
  Si0+  Si106  1  0.32017518  0.57181862  0.01558990  1
  Si0+  Si107  1  0.32293472  0.56908854  0.34913844  1
  Si0+  Si108  1  0.07314034  0.17737224  0.65039957  1
  Si0+  Si109  1  0.82577217  0.07282631  0.01392848  1
  Si0+  Si110  1  0.68105566  0.92867792  0.68062657  1
  Si0+  Si111  1  0.82340748  0.56895588  0.34992559  1
  Si0+  Si112  1  0.67525945  0.42626544  0.01902382  1
  Si0+  Si113  1  0.82429361  0.57219593  0.68377448  1
  Si0+  Si114  1  0.17801508  0.43034135  0.68269299  1
  Si0+  Si115  1  0.57242413  0.67677685  0.98384950  1
  Si0+  Si116  1  0.18008606  0.92853718  0.01279072  1
  Si0+  Si117  1  0.92914827  0.31986038  0.98443535  1
  Si0+  Si118  1  0.67763400  0.43209489  0.34696577  1
  Si0+  Si119  1  0.31959465  0.07169828  0.01401730  1
  O2-  O120  1  0.25200198  -0.00214618  0.05542513  1
  O2-  O121  1  0.25137039  -0.00191752  0.39665189  1
  O2-  O122  1  0.24796282  -0.00716599  0.72983409  1
  O2-  O123  1  0.24975825  0.50001871  0.05853634  1
  O2-  O124  1  0.24991277  0.49958410  0.39183686  1
  O2-  O125  1  0.24995585  0.49938350  0.72657361  1
  O2-  O126  1  0.75962587  0.00118971  0.05537909  1
  O2-  O127  1  0.74833143  0.00209430  0.40046628  1
  O2-  O128  1  0.75385981  -0.00169325  0.72375359  1
  O2-  O129  1  0.74344433  0.49526448  0.06299471  1
  O2-  O130  1  0.75010712  0.50042782  0.39168859  1
  O2-  O131  1  0.75180516  0.50610071  0.72611076  1
  O2-  O132  1  -0.00557631  0.24548174  0.26773072  1
  O2-  O133  1  0.00169285  0.24334447  0.60803082  1
  O2-  O134  1  -0.00403441  0.24510802  0.94142279  1
  O2-  O135  1  0.00681428  0.75552206  0.27159603  1
  O2-  O136  1  0.00039006  0.75177562  0.61178201  1
  O2-  O137  1  -0.00245042  0.74808061  0.93265637  1
  O2-  O138  1  0.49314220  0.24448127  0.26951084  1
  O2-  O139  1  0.49478974  0.25588099  0.60902150  1
  O2-  O140  1  0.50624529  0.25056209  0.93654993  1
  O2-  O141  1  0.50914116  0.75688182  0.26790046  1
  O2-  O142  1  0.50241348  0.75076275  0.60346438  1
  O2-  O143  1  0.50685287  0.74863211  0.93999017  1
  O2-  O144  1  0.07504837  0.17886290  0.08691613  1
  O2-  O145  1  0.07215563  0.18483859  0.43354732  1
  O2-  O146  1  0.07211031  0.17948040  0.75693977  1
  O2-  O147  1  0.07110481  0.67910568  0.09643235  1
  O2-  O148  1  0.06879128  0.67585838  0.43486818  1
  O2-  O149  1  0.06947636  0.67729113  0.75737538  1
  O2-  O150  1  0.57094241  0.17930690  0.08649238  1
  O2-  O151  1  0.57258312  0.18210152  0.43033019  1
  O2-  O152  1  0.57039990  0.18150925  0.76707947  1
  O2-  O153  1  0.56934401  0.67365579  0.08878722  1
  O2-  O154  1  0.56672786  0.67313864  0.43140811  1
  O2-  O155  1  0.57192813  0.67919287  0.76741664  1
  O2-  O156  1  0.17636936  0.43072502  0.24453505  1
  O2-  O157  1  0.17711336  0.43124542  0.57799776  1
  O2-  O158  1  0.18003477  0.42781071  0.91093798  1
  O2-  O159  1  0.18079685  0.92624928  0.23255176  1
  O2-  O160  1  0.17156408  0.92527217  0.58229372  1
  O2-  O161  1  0.17889802  0.93164319  0.90745873  1
  O2-  O162  1  0.67672165  0.43532416  0.24190331  1
  O2-  O163  1  0.68028867  0.42826023  0.56680107  1
  O2-  O164  1  0.67727690  0.42533064  0.91299368  1
  O2-  O165  1  0.68113322  0.92761284  0.23678726  1
  O2-  O166  1  0.68276046  0.92761166  0.57634289  1
  O2-  O167  1  0.67889137  0.93376530  0.89765643  1
  O2-  O168  1  0.42563927  0.31801377  0.09680488  1
  O2-  O169  1  0.43139575  0.32398038  0.43548600  1
  O2-  O170  1  0.42558611  0.32097825  0.75868301  1
  O2-  O171  1  0.42822517  0.82212021  0.09805698  1
  O2-  O172  1  0.42911418  0.81723045  0.43236353  1
  O2-  O173  1  0.43182352  0.82084801  0.76460581  1
  O2-  O174  1  0.93147634  0.32079927  0.08873591  1
  O2-  O175  1  0.92944984  0.32428720  0.43052390  1
  O2-  O176  1  0.93219765  0.31907173  0.76844038  1
  O2-  O177  1  0.93055162  0.82409957  0.09657540  1
  O2-  O178  1  0.92941109  0.81798581  0.43466015  1
  O2-  O179  1  0.92757508  0.82314720  0.75703724  1
  O2-  O180  1  0.31690953  0.07440111  0.23291655  1
  O2-  O181  1  0.31829086  0.07382830  0.57029963  1
  O2-  O182  1  0.31790765  0.07174316  0.90855006  1
  O2-  O183  1  0.32370345  0.56735483  0.24403182  1
  O2-  O184  1  0.31759020  0.57122601  0.57858362  1
  O2-  O185  1  0.31838487  0.56920113  0.91002140  1
  O2-  O186  1  0.81775482  0.07192770  0.23402444  1
  O2-  O187  1  0.82317681  0.07200427  0.57632922  1
  O2-  O188  1  0.82457555  0.07571901  0.90762010  1
  O2-  O189  1  0.82509609  0.56618802  0.24488328  1
  O2-  O190  1  0.83019677  0.57069606  0.57881851  1
  O2-  O191  1  0.81967236  0.56385989  0.90199517  1
  O2-  O192  1  0.04633669  0.07970492  0.26668130  1
  O2-  O193  1  0.05212459  0.08202937  0.60787305  1
  O2-  O194  1  0.04938191  0.08696433  0.93195152  1
  O2-  O195  1  0.04042505  0.58292670  0.26595676  1
  O2-  O196  1  0.04234879  0.58783043  0.60461620  1
  O2-  O197  1  0.04261610  0.57744897  0.93216314  1
  O2-  O198  1  0.54788204  0.07783841  0.26509151  1
  O2-  O199  1  0.54081999  0.08515247  0.59980734  1
  O2-  O200  1  0.54284596  0.08819002  0.93368387  1
  O2-  O201  1  0.53658282  0.58450630  0.26113597  1
  O2-  O202  1  0.54037248  0.57883205  0.60313774  1
  O2-  O203  1  0.54325600  0.58429216  0.93651789  1
  O2-  O204  1  0.16459486  0.21383238  0.26363040  1
  O2-  O205  1  0.16574350  0.20812174  0.60700363  1
  O2-  O206  1  0.16040216  0.21308014  0.93217019  1
  O2-  O207  1  0.17421301  0.69608381  0.27067881  1
  O2-  O208  1  0.16206904  0.70409144  0.60544678  1
  O2-  O209  1  0.16756147  0.70666008  0.92782624  1
  O2-  O210  1  0.66455018  0.21248479  0.25928665  1
  O2-  O211  1  0.66619710  0.21227836  0.59976234  1
  O2-  O212  1  0.66762635  0.20271881  0.93652420  1
  O2-  O213  1  0.67501531  0.69545489  0.27087398  1
  O2-  O214  1  0.67302262  0.69947574  0.60236833  1
  O2-  O215  1  0.66759036  0.69788016  0.94026573  1
  O2-  O216  1  0.08775445  0.45367763  0.06377337  1
  O2-  O217  1  0.08672685  0.46130916  0.39848421  1
  O2-  O218  1  0.08700055  0.46100203  0.73159473  1
  O2-  O219  1  0.08784322  0.95820524  0.05815177  1
  O2-  O220  1  0.08064419  0.95370324  0.40008525  1
  O2-  O221  1  0.08404183  0.95538447  0.73612898  1
  O2-  O222  1  0.58031001  0.45115985  0.06207208  1
  O2-  O223  1  0.58673292  0.46241893  0.39500913  1
  O2-  O224  1  0.58166305  0.45627457  0.73645750  1
  O2-  O225  1  0.58487748  0.96679103  0.06657525  1
  O2-  O226  1  0.57957041  0.95271455  0.40213586  1
  O2-  O227  1  0.58979325  0.95950140  0.72740032  1
  O2-  O228  1  0.20915112  0.33613371  0.06259908  1
  O2-  O229  1  0.20284116  0.33913699  0.39897966  1
  O2-  O230  1  0.20239637  0.33850951  0.73264874  1
  O2-  O231  1  0.20644403  0.83511093  0.05621499  1
  O2-  O232  1  0.20704079  0.82679949  0.40029683  1
  O2-  O233  1  0.19925978  0.83115130  0.73280984  1
  O2-  O234  1  0.70140553  0.33220007  0.06351629  1
  O2-  O235  1  0.70367179  0.33902786  0.39170092  1
  O2-  O236  1  0.71330784  0.33411410  0.73690774  1
  O2-  O237  1  0.70268485  0.83224345  0.06474341  1
  O2-  O238  1  0.71098884  0.82832959  0.40313952  1
  O2-  O239  1  0.70844763  0.83640163  0.72860015  1
  O2-  O240  1  0.46127216  0.41554276  0.26480353  1
  O2-  O241  1  0.44662521  0.41824276  0.61080537  1
  O2-  O242  1  0.45461828  0.41884862  0.93079972  1
  O2-  O243  1  0.45158690  0.92167227  0.26721504  1
  O2-  O244  1  0.45548263  0.92088976  0.60001139  1
  O2-  O245  1  0.46194446  0.91986079  0.93229426  1
  O2-  O246  1  0.96400239  0.41609869  0.26257379  1
  O2-  O247  1  0.96252304  0.41604519  0.60094334  1
  O2-  O248  1  0.96237801  0.40887562  0.93530150  1
  O2-  O249  1  0.95028961  0.92241014  0.26888638  1
  O2-  O250  1  0.95674669  0.91508536  0.60613482  1
  O2-  O251  1  0.95733624  0.91904832  0.92816065  1
  O2-  O252  1  0.32721282  0.30092164  0.27007215  1
  O2-  O253  1  0.33036949  0.29762457  0.60972597  1
  O2-  O254  1  0.33227019  0.28940890  0.92887983  1
  O2-  O255  1  0.33552941  0.78552114  0.26597374  1
  O2-  O256  1  0.32881829  0.79328990  0.60173758  1
  O2-  O257  1  0.33604765  0.79063630  0.92869938  1
  O2-  O258  1  0.82817232  0.30138599  0.26151269  1
  O2-  O259  1  0.83374733  0.29188691  0.60124045  1
  O2-  O260  1  0.83524514  0.29605600  0.93835066  1
  O2-  O261  1  0.83452403  0.78739384  0.26651807  1
  O2-  O262  1  0.83772989  0.79504645  0.60412040  1
  O2-  O263  1  0.82822743  0.79070204  0.93248677  1
  O2-  O264  1  0.41330822  0.04935626  0.05840374  1
  O2-  O265  1  0.42025434  0.04853272  0.39868345  1
  O2-  O266  1  0.41858593  0.04041957  0.73749488  1
  O2-  O267  1  0.41210104  0.54360595  0.06201255  1
  O2-  O268  1  0.41306124  0.53681893  0.39749554  1
  O2-  O269  1  0.41041223  0.54649624  0.73357754  1
  O2-  O270  1  0.92178096  0.05109637  0.05626688  1
  O2-  O271  1  0.91871835  0.04907263  0.40181558  1
  O2-  O272  1  0.91548825  0.04727569  0.72831858  1
  O2-  O273  1  0.91637330  0.53285948  0.06823861  1
  O2-  O274  1  0.91423697  0.53743232  0.39788915  1
  O2-  O275  1  0.91613882  0.54200050  0.73254513  1
  O2-  O276  1  0.28721874  0.16305622  0.05889951  1
  O2-  O277  1  0.28836980  0.17111595  0.40065801  1
  O2-  O278  1  0.28794595  0.16535503  0.73986858  1
  O2-  O279  1  0.29131313  0.66415004  0.06044279  1
  O2-  O280  1  0.29635613  0.65942002  0.39952711  1
  O2-  O281  1  0.28836716  0.66319442  0.73145252  1
  O2-  O282  1  0.79961692  0.16612640  0.06037245  1
  O2-  O283  1  0.79095623  0.17480073  0.39650341  1
  O2-  O284  1  0.79190489  0.16222090  0.72944687  1
  O2-  O285  1  0.79413935  0.66526406  0.06982967  1
  O2-  O286  1  0.80051580  0.66115376  0.39785563  1
  O2-  O287  1  0.80135198  0.66686588  0.72975658  1
