# generated using pymatgen
data_Ca2Al2SiO7
_symmetry_space_group_name_H-M   'P 1'
_cell_length_a   15.45846783
_cell_length_b   15.45932319
_cell_length_c   15.28337960
_cell_angle_alpha   89.98202238
_cell_angle_beta   89.97651575
_cell_angle_gamma   89.99866129
_symmetry_Int_Tables_number   1
_chemical_formula_structural   Ca2Al2SiO7
_chemical_formula_sum   'Ca48 Al48 Si24 O168'
_cell_volume   3652.38259878
_cell_formula_units_Z   24
loop_
 _symmetry_equiv_pos_site_id
 _symmetry_equiv_pos_as_xyz
  1  'x, y, z'
loop_
 _atom_type_symbol
 _atom_type_oxidation_number
  Ca2+  2.0
  Al0+  0.0
  Si0+  0.0
  O2-  -2.0
loop_
 _atom_site_type_symbol
 _atom_site_label
 _atom_site_symmetry_multiplicity
 _atom_site_fract_x
 _atom_site_fract_y
 _atom_site_fract_z
 _atom_site_occupancy
  Ca2+  Ca0  1  0.17691647  0.09041056  0.16911983  1
  Ca2+  Ca1  1  0.18154416  0.07633905  0.50962836  1
  Ca2+  Ca2  1  0.17432053  0.08067048  0.83802454  1
  Ca2+  Ca3  1  0.17119960  0.58474683  0.16733443  1
  Ca2+  Ca4  1  0.17314574  0.58247592  0.50752355  1
  Ca2+  Ca5  1  0.17866517  0.58628734  0.83500116  1
  Ca2+  Ca6  1  0.67391280  0.09068637  0.17089560  1
  Ca2+  Ca7  1  0.67233560  0.09088604  0.50384451  1
  Ca2+  Ca8  1  0.67565229  0.08942769  0.83730821  1
  Ca2+  Ca9  1  0.67505324  0.58034670  0.17089319  1
  Ca2+  Ca10  1  0.66442718  0.58726094  0.50138769  1
  Ca2+  Ca11  1  0.66697411  0.57577876  0.84345114  1
  Ca2+  Ca12  1  0.07576647  0.32672390  0.16152061  1
  Ca2+  Ca13  1  0.07043771  0.33454213  0.49575036  1
  Ca2+  Ca14  1  0.07706953  0.32586382  0.82968556  1
  Ca2+  Ca15  1  0.07495524  0.83326296  0.15988979  1
  Ca2+  Ca16  1  0.08169176  0.83984375  0.50472423  1
  Ca2+  Ca17  1  0.07341945  0.83957217  0.82888018  1
  Ca2+  Ca18  1  0.58781673  0.32364829  0.16252827  1
  Ca2+  Ca19  1  0.58186364  0.32118603  0.49815732  1
  Ca2+  Ca20  1  0.58991302  0.32384326  0.83185572  1
  Ca2+  Ca21  1  0.58081823  0.83085638  0.16864318  1
  Ca2+  Ca22  1  0.57240901  0.82610110  0.49599420  1
  Ca2+  Ca23  1  0.57670371  0.82381288  0.82216446  1
  Ca2+  Ca24  1  0.33389097  0.42117413  0.16671315  1
  Ca2+  Ca25  1  0.33361304  0.42264057  0.50658816  1
  Ca2+  Ca26  1  0.33985007  0.42946425  0.83764966  1
  Ca2+  Ca27  1  0.33724953  0.92683734  0.17213298  1
  Ca2+  Ca28  1  0.33480577  0.91811253  0.50776332  1
  Ca2+  Ca29  1  0.33263226  0.92178009  0.83294854  1
  Ca2+  Ca30  1  0.82930832  0.42110594  0.17212864  1
  Ca2+  Ca31  1  0.83719515  0.41906570  0.50285172  1
  Ca2+  Ca32  1  0.82827083  0.42075388  0.84020746  1
  Ca2+  Ca33  1  0.83573569  0.92771325  0.16925590  1
  Ca2+  Ca34  1  0.83316261  0.92945117  0.50822287  1
  Ca2+  Ca35  1  0.83689594  0.92308550  0.83799671  1
  Ca2+  Ca36  1  0.42656057  0.15902892  0.16043386  1
  Ca2+  Ca37  1  0.42736996  0.15191336  0.49606902  1
  Ca2+  Ca38  1  0.42728933  0.15706171  0.82941281  1
  Ca2+  Ca39  1  0.41861940  0.67100818  0.16289851  1
  Ca2+  Ca40  1  0.42210929  0.67383559  0.49583191  1
  Ca2+  Ca41  1  0.41899936  0.66769864  0.82070050  1
  Ca2+  Ca42  1  0.91592187  0.16748763  0.15928402  1
  Ca2+  Ca43  1  0.90836708  0.17617770  0.49581732  1
  Ca2+  Ca44  1  0.91934108  0.16422949  0.82702794  1
  Ca2+  Ca45  1  0.91020171  0.66998110  0.15977164  1
  Ca2+  Ca46  1  0.91261163  0.67518150  0.49502030  1
  Ca2+  Ca47  1  0.90867415  0.67995449  0.83020262  1
  Al0+  Al48  1  -0.00010734  -0.00006624  -0.00343635  1
  Al0+  Al49  1  0.00135915  0.00126279  0.33797314  1
  Al0+  Al50  1  0.00187268  0.00108428  0.66769678  1
  Al0+  Al51  1  0.00229442  0.50145234  0.00074253  1
  Al0+  Al52  1  -0.00138535  0.50042678  0.33212479  1
  Al0+  Al53  1  -0.00013468  0.49964834  0.66539328  1
  Al0+  Al54  1  0.49996972  -0.00135938  -0.00184297  1
  Al0+  Al55  1  0.50136815  -0.00160167  0.32801912  1
  Al0+  Al56  1  0.50271672  -0.00293486  0.66256074  1
  Al0+  Al57  1  0.49968524  0.49893296  0.01066522  1
  Al0+  Al58  1  0.50095065  0.49929181  0.33045611  1
  Al0+  Al59  1  0.50189727  0.49639678  0.66646464  1
  Al0+  Al60  1  0.25006368  0.25107660  -0.00164346  1
  Al0+  Al61  1  0.24972269  0.25069431  0.34010296  1
  Al0+  Al62  1  0.25024305  0.25035171  0.67103228  1
  Al0+  Al63  1  0.24831489  0.75070416  0.00431509  1
  Al0+  Al64  1  0.24850756  0.75074544  0.32908543  1
  Al0+  Al65  1  0.24820238  0.75005413  0.67169126  1
  Al0+  Al66  1  0.74935718  0.25050197  0.00325708  1
  Al0+  Al67  1  0.74916493  0.25305199  0.32927128  1
  Al0+  Al68  1  0.75046662  0.25151533  0.66342892  1
  Al0+  Al69  1  0.74784313  0.75062968  -0.00126347  1
  Al0+  Al70  1  0.74952456  0.75022779  0.33344585  1
  Al0+  Al71  1  0.75132998  0.75110323  0.65755259  1
  Al0+  Al72  1  0.32124699  0.56805380  0.67766645  1
  Al0+  Al73  1  0.57206970  0.67735691  0.31483162  1
  Al0+  Al74  1  0.82065472  0.57122208  0.34917696  1
  Al0+  Al75  1  0.17901743  0.92875541  0.68397455  1
  Al0+  Al76  1  0.92981287  0.32120522  0.31729199  1
  Al0+  Al77  1  0.67951583  0.42780485  0.01710212  1
  Al0+  Al78  1  0.42728545  0.82002694  0.31547892  1
  Al0+  Al79  1  0.57185291  0.67435333  0.65272545  1
  Al0+  Al80  1  0.82142297  0.57324357  0.01271467  1
  Al0+  Al81  1  0.32149105  0.07061637  0.01385802  1
  Al0+  Al82  1  0.82116398  0.06910081  0.01261284  1
  Al0+  Al83  1  0.81864613  0.07255984  0.67997788  1
  Al0+  Al84  1  0.56990167  0.17898907  0.65379933  1
  Al0+  Al85  1  0.42699133  0.81921967  0.65302228  1
  Al0+  Al86  1  0.92791723  0.81940754  0.98723292  1
  Al0+  Al87  1  0.82048957  0.07270744  0.34727290  1
  Al0+  Al88  1  0.92968137  0.82331696  0.65082828  1
  Al0+  Al89  1  0.07204321  0.17940955  0.98602792  1
  Al0+  Al90  1  0.56909055  0.18017515  0.31848423  1
  Al0+  Al91  1  0.93048074  0.32029032  0.65388955  1
  Al0+  Al92  1  0.32548585  0.07113027  0.68310323  1
  Al0+  Al93  1  0.57109231  0.17896931  0.98518191  1
  Al0+  Al94  1  0.32020167  0.57239073  0.01545691  1
  Al0+  Al95  1  0.32217259  0.06984367  0.34673005  1
  Si0+  Si96  1  0.17725144  0.92956833  0.01834208  1
  Si0+  Si97  1  0.56828753  0.67811722  0.98620793  1
  Si0+  Si98  1  0.07461005  0.17778561  0.64861741  1
  Si0+  Si99  1  0.42707756  0.82011279  0.98399084  1
  Si0+  Si100  1  0.32033106  0.57149822  0.34784078  1
  Si0+  Si101  1  0.07064632  0.67793219  0.65074631  1
  Si0+  Si102  1  0.42457008  0.32293026  0.31696517  1
  Si0+  Si103  1  0.67758821  0.42877492  0.35332292  1
  Si0+  Si104  1  0.92819714  0.32297706  0.98380330  1
  Si0+  Si105  1  0.42794100  0.32325291  0.98388963  1
  Si0+  Si106  1  0.07001317  0.67855525  0.31814604  1
  Si0+  Si107  1  0.07297794  0.17842179  0.31879012  1
  Si0+  Si108  1  0.67891437  0.92779442  0.35067280  1
  Si0+  Si109  1  0.67643327  0.92704859  0.01595780  1
  Si0+  Si110  1  0.17729655  0.92618528  0.35003691  1
  Si0+  Si111  1  0.17813111  0.42987512  0.34866363  1
  Si0+  Si112  1  0.92999220  0.82321744  0.31910118  1
  Si0+  Si113  1  0.82233421  0.57290185  0.67991989  1
  Si0+  Si114  1  0.17777251  0.42748058  0.01731993  1
  Si0+  Si115  1  0.07381731  0.67737091  0.98239899  1
  Si0+  Si116  1  0.17484659  0.42779713  0.68439956  1
  Si0+  Si117  1  0.68021333  0.92561597  0.68216300  1
  Si0+  Si118  1  0.42666900  0.32186977  0.65175509  1
  Si0+  Si119  1  0.68108754  0.42954673  0.68045586  1
  O2-  O120  1  0.24592290  -0.00228627  0.06287770  1
  O2-  O121  1  0.24839462  -0.00649149  0.39182939  1
  O2-  O122  1  0.25162545  0.00083511  0.73301741  1
  O2-  O123  1  0.24516915  0.49755710  0.06200252  1
  O2-  O124  1  0.25116316  0.49906233  0.39089208  1
  O2-  O125  1  0.24790228  0.49281032  0.72695808  1
  O2-  O126  1  0.74480225  -0.00355723  0.06000882  1
  O2-  O127  1  0.74643946  -0.00207394  0.39481203  1
  O2-  O128  1  0.74702358  -0.00459692  0.72768158  1
  O2-  O129  1  0.75358664  0.49902622  0.06516494  1
  O2-  O130  1  0.74442884  0.49913832  0.39803428  1
  O2-  O131  1  0.74807039  0.50523713  0.72139891  1
  O2-  O132  1  0.00120568  0.24262401  0.27237368  1
  O2-  O133  1  0.00544158  0.24657238  0.60516434  1
  O2-  O134  1  -0.00493851  0.25259757  0.93977900  1
  O2-  O135  1  -0.00062749  0.75037205  0.27689024  1
  O2-  O136  1  0.00280469  0.74632519  0.60467410  1
  O2-  O137  1  0.00063344  0.74204962  0.94009867  1
  O2-  O138  1  0.49041546  0.25181814  0.27291030  1
  O2-  O139  1  0.48745422  0.24621341  0.60769050  1
  O2-  O140  1  0.49528011  0.25359008  0.93935221  1
  O2-  O141  1  0.49795581  0.74693510  0.26438044  1
  O2-  O142  1  0.49795389  0.74523489  0.60447797  1
  O2-  O143  1  0.49539793  0.74610097  0.94242990  1
  O2-  O144  1  0.07211267  0.18201616  0.09961182  1
  O2-  O145  1  0.07429930  0.18216603  0.42408829  1
  O2-  O146  1  0.07366304  0.17970941  0.75446609  1
  O2-  O147  1  0.07629832  0.67973637  0.08842481  1
  O2-  O148  1  0.07185611  0.67700914  0.42311433  1
  O2-  O149  1  0.06850724  0.67542475  0.75609554  1
  O2-  O150  1  0.57003008  0.17936953  0.09827260  1
  O2-  O151  1  0.56922214  0.18237303  0.43179562  1
  O2-  O152  1  0.57339198  0.18315670  0.76674565  1
  O2-  O153  1  0.56826860  0.68105751  0.09095241  1
  O2-  O154  1  0.56857224  0.67793622  0.42826098  1
  O2-  O155  1  0.57114057  0.67382795  0.76711185  1
  O2-  O156  1  0.17864842  0.43078282  0.24363349  1
  O2-  O157  1  0.17312394  0.43068414  0.57841449  1
  O2-  O158  1  0.17751983  0.42834813  0.91191517  1
  O2-  O159  1  0.17358681  0.92580496  0.24452224  1
  O2-  O160  1  0.17947347  0.93024502  0.56991638  1
  O2-  O161  1  0.17824756  0.92859012  0.91318904  1
  O2-  O162  1  0.67967883  0.42834830  0.24800037  1
  O2-  O163  1  0.68163634  0.42769737  0.57557102  1
  O2-  O164  1  0.67940609  0.42953673  0.90263957  1
  O2-  O165  1  0.68183258  0.92702264  0.24471161  1
  O2-  O166  1  0.68252072  0.92549523  0.57663125  1
  O2-  O167  1  0.67670417  0.92522872  0.91042270  1
  O2-  O168  1  0.42692703  0.32261450  0.08966490  1
  O2-  O169  1  0.42520831  0.32655729  0.42256021  1
  O2-  O170  1  0.43134724  0.32844799  0.75687100  1
  O2-  O171  1  0.42802209  0.81983613  0.08897764  1
  O2-  O172  1  0.42508585  0.81684733  0.42870828  1
  O2-  O173  1  0.42949872  0.81682356  0.76728402  1
  O2-  O174  1  0.93094949  0.32316456  0.08952345  1
  O2-  O175  1  0.93216837  0.32268431  0.43057115  1
  O2-  O176  1  0.93130778  0.32158825  0.76694274  1
  O2-  O177  1  0.93054400  0.81969339  0.10093246  1
  O2-  O178  1  0.93262677  0.82327030  0.42406284  1
  O2-  O179  1  0.92814529  0.82080132  0.76388609  1
  O2-  O180  1  0.31911618  0.07112231  0.23338934  1
  O2-  O181  1  0.32376986  0.06906301  0.56922523  1
  O2-  O182  1  0.32262372  0.06706517  0.90136794  1
  O2-  O183  1  0.31693538  0.57072443  0.24269018  1
  O2-  O184  1  0.31855556  0.56602598  0.56415031  1
  O2-  O185  1  0.32083260  0.57177279  0.90225975  1
  O2-  O186  1  0.82222388  0.06987382  0.23402156  1
  O2-  O187  1  0.81559709  0.07410253  0.56668163  1
  O2-  O188  1  0.82128410  0.06873775  0.89951172  1
  O2-  O189  1  0.82228322  0.56959933  0.23636960  1
  O2-  O190  1  0.82449355  0.57043775  0.57486890  1
  O2-  O191  1  0.81728805  0.57355287  0.89855597  1
  O2-  O192  1  0.05232612  0.08276329  0.27484193  1
  O2-  O193  1  0.05027660  0.08443310  0.60313221  1
  O2-  O194  1  0.04259024  0.08320381  0.93171908  1
  O2-  O195  1  0.04225434  0.58778842  0.26896237  1
  O2-  O196  1  0.04612920  0.58451851  0.60308280  1
  O2-  O197  1  0.05602940  0.58167649  0.93774890  1
  O2-  O198  1  0.54381561  0.08279549  0.26421000  1
  O2-  O199  1  0.54777417  0.08086734  0.59926393  1
  O2-  O200  1  0.54125165  0.08149946  0.93206467  1
  O2-  O201  1  0.54594884  0.57757569  0.26346925  1
  O2-  O202  1  0.54520860  0.57571439  0.59929806  1
  O2-  O203  1  0.54188344  0.58396922  0.94312373  1
  O2-  O204  1  0.16555959  0.20956624  0.27265520  1
  O2-  O205  1  0.16892535  0.20403857  0.60366513  1
  O2-  O206  1  0.16729131  0.21258281  0.93026972  1
  O2-  O207  1  0.16083551  0.70575660  0.26800251  1
  O2-  O208  1  0.16415441  0.70368954  0.60466711  1
  O2-  O209  1  0.16611180  0.70786317  0.93579047  1
  O2-  O210  1  0.66394685  0.21524125  0.26392145  1
  O2-  O211  1  0.66270919  0.21870353  0.59820510  1
  O2-  O212  1  0.66800074  0.21215864  0.93238014  1
  O2-  O213  1  0.67078410  0.70858195  0.26326548  1
  O2-  O214  1  0.66889667  0.70351738  0.59794747  1
  O2-  O215  1  0.65918610  0.70664668  0.93764011  1
  O2-  O216  1  0.08469875  0.45281815  0.06516814  1
  O2-  O217  1  0.08791757  0.46174848  0.39662770  1
  O2-  O218  1  0.08362626  0.45831198  0.73289418  1
  O2-  O219  1  0.08371893  0.95544709  0.06399846  1
  O2-  O220  1  0.08556963  0.95362569  0.39928449  1
  O2-  O221  1  0.08108603  0.95891992  0.73709466  1
  O2-  O222  1  0.58235656  0.45477445  0.07271572  1
  O2-  O223  1  0.58216003  0.45185327  0.39774306  1
  O2-  O224  1  0.58868233  0.45203787  0.72919811  1
  O2-  O225  1  0.58311385  0.95183246  0.06263186  1
  O2-  O226  1  0.58432590  0.95218887  0.39418254  1
  O2-  O227  1  0.58576521  0.94791612  0.72708594  1
  O2-  O228  1  0.20524909  0.33534940  0.06521679  1
  O2-  O229  1  0.20308211  0.33905649  0.39946896  1
  O2-  O230  1  0.19543348  0.33313433  0.72942753  1
  O2-  O231  1  0.20111310  0.83563622  0.06513718  1
  O2-  O232  1  0.20026623  0.83115734  0.39509992  1
  O2-  O233  1  0.20214452  0.82965544  0.73818595  1
  O2-  O234  1  0.70805337  0.33063109  0.07169358  1
  O2-  O235  1  0.70639120  0.33609069  0.39914150  1
  O2-  O236  1  0.71487068  0.34076625  0.72985987  1
  O2-  O237  1  0.70250406  0.83430765  0.06342898  1
  O2-  O238  1  0.70485413  0.83485099  0.39728897  1
  O2-  O239  1  0.70744801  0.83171388  0.72790977  1
  O2-  O240  1  0.45147239  0.41547550  0.26917987  1
  O2-  O241  1  0.45987664  0.41100935  0.60047974  1
  O2-  O242  1  0.45605678  0.41782369  0.94019878  1
  O2-  O243  1  0.45952417  0.91652371  0.26089584  1
  O2-  O244  1  0.45829304  0.91538395  0.59769223  1
  O2-  O245  1  0.45742977  0.91032788  0.93584189  1
  O2-  O246  1  0.96515400  0.41649389  0.26321951  1
  O2-  O247  1  0.96186455  0.41685481  0.59836879  1
  O2-  O248  1  0.95567001  0.41672424  0.93807695  1
  O2-  O249  1  0.96041203  0.91463492  0.27170610  1
  O2-  O250  1  0.96299180  0.91931027  0.59687099  1
  O2-  O251  1  0.96137179  0.91416793  0.93194512  1
  O2-  O252  1  0.32895449  0.30109612  0.27326578  1
  O2-  O253  1  0.32923537  0.30713516  0.60926832  1
  O2-  O254  1  0.33368061  0.30275466  0.93760465  1
  O2-  O255  1  0.32807825  0.79309489  0.26174821  1
  O2-  O256  1  0.32736591  0.79234687  0.60235778  1
  O2-  O257  1  0.33327473  0.79438268  0.94018326  1
  O2-  O258  1  0.83268957  0.29463858  0.26397021  1
  O2-  O259  1  0.83525458  0.28991579  0.59751234  1
  O2-  O260  1  0.83353401  0.29962720  0.94015436  1
  O2-  O261  1  0.83767759  0.79706187  0.27314247  1
  O2-  O262  1  0.83506405  0.79319852  0.59317181  1
  O2-  O263  1  0.83086816  0.79068423  0.93191185  1
  O2-  O264  1  0.41760095  0.03648194  0.06716591  1
  O2-  O265  1  0.41978181  0.03811913  0.39715267  1
  O2-  O266  1  0.42458425  0.04027756  0.73339821  1
  O2-  O267  1  0.41416322  0.54074761  0.07312466  1
  O2-  O268  1  0.41322509  0.54453556  0.39268403  1
  O2-  O269  1  0.41769356  0.53616485  0.73227197  1
  O2-  O270  1  0.91752801  0.03702401  0.06679490  1
  O2-  O271  1  0.91790813  0.04364458  0.40116870  1
  O2-  O272  1  0.91734929  0.04503468  0.72995854  1
  O2-  O273  1  0.92340643  0.55255916  0.06212369  1
  O2-  O274  1  0.91784808  0.53938987  0.40222567  1
  O2-  O275  1  0.91294095  0.54264573  0.72801872  1
  O2-  O276  1  0.29239493  0.16910410  0.06514966  1
  O2-  O277  1  0.29314683  0.16675408  0.40188775  1
  O2-  O278  1  0.30067084  0.17191329  0.73385916  1
  O2-  O279  1  0.28699009  0.66761995  0.07131550  1
  O2-  O280  1  0.28877054  0.66277085  0.39350907  1
  O2-  O281  1  0.28915495  0.66275767  0.73364377  1
  O2-  O282  1  0.79291580  0.16624660  0.06594606  1
  O2-  O283  1  0.78836436  0.17051293  0.39787489  1
  O2-  O284  1  0.78596227  0.16882231  0.73365572  1
  O2-  O285  1  0.78939848  0.67032058  0.06664993  1
  O2-  O286  1  0.79279147  0.66961636  0.40152433  1
  O2-  O287  1  0.79757195  0.66694109  0.72365902  1
