# generated using pymatgen
data_Ca2Al2SiO7
_symmetry_space_group_name_H-M   'P 1'
_cell_length_a   15.45728199
_cell_length_b   15.45605440
_cell_length_c   15.28264569
_cell_angle_alpha   90.01050195
_cell_angle_beta   90.00026143
_cell_angle_gamma   90.01712438
_symmetry_Int_Tables_number   1
_chemical_formula_structural   Ca2Al2SiO7
_chemical_formula_sum   'Ca48 Al48 Si24 O168'
_cell_volume   3651.15513042
_cell_formula_units_Z   24
loop_
 _symmetry_equiv_pos_site_id
 _symmetry_equiv_pos_as_xyz
  1  'x, y, z'
loop_
 _atom_type_symbol
 _atom_type_oxidation_number
  Ca2+  2.0
  Al0+  0.0
  Si0+  0.0
  O2-  -2.0
loop_
 _atom_site_type_symbol
 _atom_site_label
 _atom_site_symmetry_multiplicity
 _atom_site_fract_x
 _atom_site_fract_y
 _atom_site_fract_z
 _atom_site_occupancy
  Ca2+  Ca0  1  0.16993230  0.07818331  0.16383904  1
  Ca2+  Ca1  1  0.17346889  0.07518557  0.51045734  1
  Ca2+  Ca2  1  0.17513504  0.07540004  0.83646055  1
  Ca2+  Ca3  1  0.17303797  0.57965725  0.18012816  1
  Ca2+  Ca4  1  0.16943754  0.58448582  0.49894276  1
  Ca2+  Ca5  1  0.16732751  0.58521915  0.83411799  1
  Ca2+  Ca6  1  0.66895120  0.07064978  0.17478190  1
  Ca2+  Ca7  1  0.67344587  0.07495266  0.50500530  1
  Ca2+  Ca8  1  0.66912915  0.07168207  0.83561728  1
  Ca2+  Ca9  1  0.66834401  0.58478081  0.16160756  1
  Ca2+  Ca10  1  0.66404689  0.57793848  0.50721726  1
  Ca2+  Ca11  1  0.66178760  0.57906369  0.84145613  1
  Ca2+  Ca12  1  0.07881036  0.33741713  0.16795669  1
  Ca2+  Ca13  1  0.07625963  0.33137998  0.48853640  1
  Ca2+  Ca14  1  0.07997743  0.32979637  0.82849404  1
  Ca2+  Ca15  1  0.07806887  0.83028533  0.15933724  1
  Ca2+  Ca16  1  0.09212030  0.82298891  0.49642319  1
  Ca2+  Ca17  1  0.08050027  0.83690150  0.82840694  1
  Ca2+  Ca18  1  0.57275779  0.33560146  0.15873892  1
  Ca2+  Ca19  1  0.57464496  0.33388122  0.49760798  1
  Ca2+  Ca20  1  0.57447607  0.33960949  0.82700000  1
  Ca2+  Ca21  1  0.58231909  0.83361981  0.16071900  1
  Ca2+  Ca22  1  0.58456857  0.83397986  0.49644461  1
  Ca2+  Ca23  1  0.59486440  0.82415689  0.82985683  1
  Ca2+  Ca24  1  0.33244686  0.42077391  0.17532411  1
  Ca2+  Ca25  1  0.33533581  0.41800617  0.49943303  1
  Ca2+  Ca26  1  0.33733723  0.41446358  0.83743797  1
  Ca2+  Ca27  1  0.33398472  0.91819414  0.17067080  1
  Ca2+  Ca28  1  0.33247535  0.91988303  0.50812716  1
  Ca2+  Ca29  1  0.32439913  0.92479373  0.83970984  1
  Ca2+  Ca30  1  0.83001121  0.41968926  0.16993675  1
  Ca2+  Ca31  1  0.82733647  0.41476094  0.50581417  1
  Ca2+  Ca32  1  0.81720138  0.42538424  0.84041626  1
  Ca2+  Ca33  1  0.82307518  0.91321382  0.17075988  1
  Ca2+  Ca34  1  0.82569115  0.92542509  0.50517378  1
  Ca2+  Ca35  1  0.82657324  0.91288905  0.83787133  1
  Ca2+  Ca36  1  0.41123387  0.17733981  0.16001414  1
  Ca2+  Ca37  1  0.41184647  0.17538926  0.49614145  1
  Ca2+  Ca38  1  0.40907267  0.17421411  0.82941717  1
  Ca2+  Ca39  1  0.41956061  0.67136725  0.16517776  1
  Ca2+  Ca40  1  0.42200692  0.67321936  0.49291885  1
  Ca2+  Ca41  1  0.43151253  0.66683460  0.82822582  1
  Ca2+  Ca42  1  0.91219270  0.16848602  0.16787592  1
  Ca2+  Ca43  1  0.90986336  0.16811485  0.49320237  1
  Ca2+  Ca44  1  0.91380443  0.16501819  0.82808485  1
  Ca2+  Ca45  1  0.92043093  0.66896475  0.15908317  1
  Ca2+  Ca46  1  0.93022405  0.66603316  0.49579362  1
  Ca2+  Ca47  1  0.91762771  0.67172449  0.83154859  1
  Al0+  Al48  1  0.00116814  0.00001831  -0.00089489  1
  Al0+  Al49  1  0.00022372  -0.00041073  0.33637821  1
  Al0+  Al50  1  0.00013854  0.00098783  0.67063994  1
  Al0+  Al51  1  -0.00076991  0.49969277  0.00032938  1
  Al0+  Al52  1  0.00055160  0.49797597  0.32866095  1
  Al0+  Al53  1  0.00049985  0.50036341  0.66329150  1
  Al0+  Al54  1  0.49958482  0.00315151  0.00719993  1
  Al0+  Al55  1  0.49958605  -0.00116984  0.33409512  1
  Al0+  Al56  1  0.50161023  0.00203998  0.67570064  1
  Al0+  Al57  1  0.49862865  0.50005145  -0.00325169  1
  Al0+  Al58  1  0.50018549  0.50106519  0.33256873  1
  Al0+  Al59  1  0.49858461  0.50089808  0.66037253  1
  Al0+  Al60  1  0.24845783  0.25028425  -0.00103255  1
  Al0+  Al61  1  0.24760387  0.24997946  0.33176303  1
  Al0+  Al62  1  0.24764953  0.25175463  0.66415166  1
  Al0+  Al63  1  0.25007483  0.74971276  0.00239960  1
  Al0+  Al64  1  0.25336332  0.74839940  0.32812140  1
  Al0+  Al65  1  0.25079732  0.74820164  0.66803912  1
  Al0+  Al66  1  0.74748203  0.25059999  0.00200510  1
  Al0+  Al67  1  0.74997937  0.24958004  0.33069167  1
  Al0+  Al68  1  0.74661966  0.25151399  0.67484907  1
  Al0+  Al69  1  0.75236852  0.74938417  0.00019979  1
  Al0+  Al70  1  0.75126447  0.74770677  0.33899544  1
  Al0+  Al71  1  0.75367854  0.74905668  0.66105254  1
  Al0+  Al72  1  0.67592419  0.42922501  0.01653748  1
  Al0+  Al73  1  0.93087758  0.82063912  0.98675847  1
  Al0+  Al74  1  0.82069337  0.07259696  0.68309798  1
  Al0+  Al75  1  0.17844208  0.92768059  0.01717306  1
  Al0+  Al76  1  0.32149289  0.07461053  0.68091734  1
  Al0+  Al77  1  0.07131029  0.67946708  0.31803845  1
  Al0+  Al78  1  0.68060553  0.92844484  0.01418081  1
  Al0+  Al79  1  0.18053931  0.92567679  0.68082476  1
  Al0+  Al80  1  0.56875643  0.68283753  0.98770755  1
  Al0+  Al81  1  0.17846139  0.42855875  0.34900022  1
  Al0+  Al82  1  0.42943028  0.31934001  0.98527748  1
  Al0+  Al83  1  0.82150002  0.57051955  0.01518248  1
  Al0+  Al84  1  0.43127351  0.82162299  0.32045928  1
  Al0+  Al85  1  0.07220746  0.67918735  0.65233612  1
  Al0+  Al86  1  0.42781372  0.31986471  0.65046782  1
  Al0+  Al87  1  0.82111937  0.07119967  0.34743424  1
  Al0+  Al88  1  0.57298139  0.68007827  0.65185563  1
  Al0+  Al89  1  0.92745308  0.31950780  0.31917146  1
  Al0+  Al90  1  0.67718654  0.92634870  0.34985597  1
  Al0+  Al91  1  0.32012907  0.07253131  0.01721869  1
  Al0+  Al92  1  0.68002241  0.92598725  0.68322883  1
  Al0+  Al93  1  0.42884702  0.32051967  0.31861645  1
  Al0+  Al94  1  0.67668607  0.43256742  0.67927754  1
  Al0+  Al95  1  0.32267683  0.57167344  0.34967336  1
  Si0+  Si96  1  0.67895658  0.42917380  0.34771433  1
  Si0+  Si97  1  0.17695539  0.42962826  0.68139099  1
  Si0+  Si98  1  0.32014712  0.07169732  0.34777163  1
  Si0+  Si99  1  0.57128412  0.17816576  0.31681365  1
  Si0+  Si100  1  0.17794044  0.42898532  0.01340473  1
  Si0+  Si101  1  0.82283939  0.56977483  0.34947274  1
  Si0+  Si102  1  0.32056364  0.56958477  0.68199649  1
  Si0+  Si103  1  0.57512114  0.67729240  0.31612021  1
  Si0+  Si104  1  0.82519466  0.57031203  0.68124214  1
  Si0+  Si105  1  0.92662075  0.32263581  0.98324772  1
  Si0+  Si106  1  0.92865162  0.82159326  0.31810430  1
  Si0+  Si107  1  0.92968559  0.82430708  0.64723819  1
  Si0+  Si108  1  0.42944750  0.82292558  0.65439962  1
  Si0+  Si109  1  0.82326613  0.07319029  0.01704129  1
  Si0+  Si110  1  0.42623005  0.82550840  0.98316957  1
  Si0+  Si111  1  0.57286277  0.17753900  0.65082803  1
  Si0+  Si112  1  0.07197977  0.17522939  0.31578888  1
  Si0+  Si113  1  0.06983495  0.17925324  0.65172732  1
  Si0+  Si114  1  0.06903937  0.18083684  0.98375422  1
  Si0+  Si115  1  0.57338656  0.17649424  0.98257904  1
  Si0+  Si116  1  0.92772671  0.31960889  0.65406785  1
  Si0+  Si117  1  0.07386011  0.67629483  0.98320580  1
  Si0+  Si118  1  0.17992996  0.92794146  0.34706219  1
  Si0+  Si119  1  0.32088983  0.57019203  0.01304176  1
  O2-  O120  1  0.25403495  -0.00466339  0.06822549  1
  O2-  O121  1  0.25017616  -0.00046888  0.38963113  1
  O2-  O122  1  0.25272364  -0.00155881  0.72918247  1
  O2-  O123  1  0.24543634  0.50329139  0.05399398  1
  O2-  O124  1  0.25129543  0.49879555  0.40033686  1
  O2-  O125  1  0.24906624  0.49862479  0.72463289  1
  O2-  O126  1  0.75381089  0.00551289  0.06040454  1
  O2-  O127  1  0.75007194  -0.00111173  0.39721155  1
  O2-  O128  1  0.75325916  -0.00299690  0.73321757  1
  O2-  O129  1  0.75126875  0.49747006  0.06687487  1
  O2-  O130  1  0.75008018  0.49995828  0.39079871  1
  O2-  O131  1  0.74997645  0.50917190  0.72515455  1
  O2-  O132  1  0.00183168  0.24367575  0.27279783  1
  O2-  O133  1  -0.00537438  0.24582774  0.61003995  1
  O2-  O134  1  -0.00517178  0.24897605  0.94081212  1
  O2-  O135  1  -0.00310595  0.75394055  0.27171420  1
  O2-  O136  1  0.00126341  0.75711478  0.60472405  1
  O2-  O137  1  0.00793335  0.74747507  0.93980728  1
  O2-  O138  1  0.50223988  0.24565518  0.27085674  1
  O2-  O139  1  0.50044026  0.24215943  0.60529220  1
  O2-  O140  1  0.50458206  0.24543370  0.93826600  1
  O2-  O141  1  0.50908082  0.74953029  0.27433108  1
  O2-  O142  1  0.50256725  0.76010140  0.60795900  1
  O2-  O143  1  0.49730562  0.75993558  0.93841324  1
  O2-  O144  1  0.06969855  0.18288829  0.08882096  1
  O2-  O145  1  0.07339953  0.17524093  0.42148055  1
  O2-  O146  1  0.07177762  0.18364617  0.75701662  1
  O2-  O147  1  0.07289546  0.67432398  0.08860069  1
  O2-  O148  1  0.07060880  0.68102253  0.43143147  1
  O2-  O149  1  0.06904919  0.67555927  0.76527169  1
  O2-  O150  1  0.57349636  0.17822264  0.08829144  1
  O2-  O151  1  0.57072423  0.18043693  0.42254075  1
  O2-  O152  1  0.57472580  0.18074347  0.75611760  1
  O2-  O153  1  0.56582828  0.68236465  0.10077784  1
  O2-  O154  1  0.57404328  0.67546464  0.42185610  1
  O2-  O155  1  0.57014735  0.67726961  0.76503329  1
  O2-  O156  1  0.17916281  0.43012554  0.23478780  1
  O2-  O157  1  0.17411627  0.42930353  0.57699850  1
  O2-  O158  1  0.17676579  0.42836846  0.90771705  1
  O2-  O159  1  0.17883058  0.93015120  0.24224688  1
  O2-  O160  1  0.18337567  0.92638842  0.56635928  1
  O2-  O161  1  0.17810348  0.93028772  0.90377694  1
  O2-  O162  1  0.67918321  0.42998648  0.24290959  1
  O2-  O163  1  0.67984491  0.43146149  0.56552345  1
  O2-  O164  1  0.67563049  0.43248558  0.90281686  1
  O2-  O165  1  0.67883612  0.92619087  0.23610962  1
  O2-  O166  1  0.68071948  0.92795965  0.56978961  1
  O2-  O167  1  0.68364224  0.92747535  0.90145198  1
  O2-  O168  1  0.42808704  0.32002822  0.09835051  1
  O2-  O169  1  0.43043758  0.31886327  0.43174672  1
  O2-  O170  1  0.42772123  0.32133065  0.76356990  1
  O2-  O171  1  0.42574957  0.82128735  0.08887708  1
  O2-  O172  1  0.42966156  0.82173673  0.43387352  1
  O2-  O173  1  0.42663240  0.81735397  0.75970842  1
  O2-  O174  1  0.92921126  0.32352389  0.08823947  1
  O2-  O175  1  0.92725696  0.31908769  0.43287855  1
  O2-  O176  1  0.93225798  0.32078280  0.75929890  1
  O2-  O177  1  0.93167196  0.81892171  0.10011921  1
  O2-  O178  1  0.93072127  0.82038780  0.42359169  1
  O2-  O179  1  0.92864561  0.82233464  0.75296562  1
  O2-  O180  1  0.31842713  0.07224379  0.24294480  1
  O2-  O181  1  0.31757640  0.07516283  0.56659344  1
  O2-  O182  1  0.31500030  0.07508229  0.90395692  1
  O2-  O183  1  0.32179929  0.57024591  0.23547805  1
  O2-  O184  1  0.32001148  0.56994263  0.57733598  1
  O2-  O185  1  0.32064546  0.56893275  0.90743270  1
  O2-  O186  1  0.81966278  0.07024537  0.23378716  1
  O2-  O187  1  0.81890562  0.07411318  0.56965397  1
  O2-  O188  1  0.82306666  0.07327864  0.91157360  1
  O2-  O189  1  0.82250336  0.57076057  0.24463715  1
  O2-  O190  1  0.82887894  0.56440202  0.57545319  1
  O2-  O191  1  0.82338954  0.56803123  0.90143625  1
  O2-  O192  1  0.04627402  0.08164500  0.26897172  1
  O2-  O193  1  0.04779688  0.08548554  0.60549766  1
  O2-  O194  1  0.04450640  0.08860093  0.93597048  1
  O2-  O195  1  0.04057428  0.58302417  0.26454797  1
  O2-  O196  1  0.03859374  0.58332997  0.59665207  1
  O2-  O197  1  0.04656479  0.58275510  0.93632966  1
  O2-  O198  1  0.54630377  0.08396817  0.27221029  1
  O2-  O199  1  0.55194858  0.08168293  0.60694782  1
  O2-  O200  1  0.54764049  0.08229121  0.93767554  1
  O2-  O201  1  0.54659880  0.58522148  0.26886129  1
  O2-  O202  1  0.53577331  0.58686345  0.59534844  1
  O2-  O203  1  0.53367663  0.58765879  0.93255242  1
  O2-  O204  1  0.16375527  0.20293141  0.26719439  1
  O2-  O205  1  0.15859497  0.21153654  0.60125143  1
  O2-  O206  1  0.15811734  0.21433447  0.93445031  1
  O2-  O207  1  0.16784407  0.70854050  0.26408038  1
  O2-  O208  1  0.17036637  0.70662587  0.59874129  1
  O2-  O209  1  0.16911155  0.69851005  0.93826872  1
  O2-  O210  1  0.66421153  0.20366095  0.26968884  1
  O2-  O211  1  0.66483339  0.20955844  0.60396543  1
  O2-  O212  1  0.66775325  0.20058255  0.93650693  1
  O2-  O213  1  0.67088157  0.69911453  0.27256294  1
  O2-  O214  1  0.67180295  0.70224223  0.59748683  1
  O2-  O215  1  0.66689346  0.70898714  0.93479566  1
  O2-  O216  1  0.08524002  0.45300566  0.06067370  1
  O2-  O217  1  0.07910135  0.45694624  0.40021927  1
  O2-  O218  1  0.08586314  0.45886339  0.73054572  1
  O2-  O219  1  0.08148939  0.96192523  0.07009482  1
  O2-  O220  1  0.08824419  0.95383676  0.39576681  1
  O2-  O221  1  0.08226497  0.95512899  0.73237386  1
  O2-  O222  1  0.57845556  0.46209304  0.06856056  1
  O2-  O223  1  0.58782182  0.45770346  0.39561585  1
  O2-  O224  1  0.57955617  0.46382290  0.73128999  1
  O2-  O225  1  0.58317268  0.95650996  0.06802021  1
  O2-  O226  1  0.57889209  0.95627102  0.40251818  1
  O2-  O227  1  0.58201005  0.95222841  0.73774872  1
  O2-  O228  1  0.20732244  0.33873725  0.06140762  1
  O2-  O229  1  0.20325761  0.32829272  0.40038004  1
  O2-  O230  1  0.20328641  0.33783007  0.72933108  1
  O2-  O231  1  0.20172044  0.82703491  0.06830781  1
  O2-  O232  1  0.21028863  0.83640263  0.39215173  1
  O2-  O233  1  0.20674542  0.82747749  0.73518325  1
  O2-  O234  1  0.70163998  0.32950517  0.06799342  1
  O2-  O235  1  0.70702258  0.33720134  0.39413702  1
  O2-  O236  1  0.70729250  0.33811606  0.73629754  1
  O2-  O237  1  0.71416371  0.83342257  0.06851913  1
  O2-  O238  1  0.70528502  0.82770808  0.40270232  1
  O2-  O239  1  0.71108878  0.82594150  0.73213354  1
  O2-  O240  1  0.46008258  0.41781598  0.26633513  1
  O2-  O241  1  0.46102897  0.41508921  0.59543435  1
  O2-  O242  1  0.45913098  0.41590279  0.93031339  1
  O2-  O243  1  0.45754863  0.91905342  0.26494401  1
  O2-  O244  1  0.44868562  0.91998708  0.61241579  1
  O2-  O245  1  0.44693951  0.92218239  0.94267518  1
  O2-  O246  1  0.96037771  0.41391673  0.26232080  1
  O2-  O247  1  0.95869047  0.40970078  0.60506248  1
  O2-  O248  1  0.95852518  0.41272078  0.93440402  1
  O2-  O249  1  0.95360141  0.91579660  0.27285607  1
  O2-  O250  1  0.95307163  0.91956380  0.60350998  1
  O2-  O251  1  0.95984572  0.91791151  0.93212571  1
  O2-  O252  1  0.33091973  0.29085285  0.26629285  1
  O2-  O253  1  0.32947222  0.29245316  0.59704529  1
  O2-  O254  1  0.33141912  0.28950237  0.93190785  1
  O2-  O255  1  0.33734747  0.78847669  0.26241822  1
  O2-  O256  1  0.33799197  0.79188367  0.60643044  1
  O2-  O257  1  0.33278084  0.79668527  0.93773477  1
  O2-  O258  1  0.83175222  0.29006522  0.26215777  1
  O2-  O259  1  0.83383370  0.29515211  0.60943406  1
  O2-  O260  1  0.83314818  0.29762251  0.93768055  1
  O2-  O261  1  0.83453213  0.79354124  0.27412644  1
  O2-  O262  1  0.83856626  0.79570537  0.59792234  1
  O2-  O263  1  0.83676649  0.78597995  0.93060834  1
  O2-  O264  1  0.41984647  0.05287128  0.07047272  1
  O2-  O265  1  0.41219381  0.04585686  0.39480747  1
  O2-  O266  1  0.42082516  0.05485547  0.73421496  1
  O2-  O267  1  0.40976466  0.53793884  0.06164118  1
  O2-  O268  1  0.42172438  0.54412215  0.40204795  1
  O2-  O269  1  0.41156567  0.53942172  0.72888037  1
  O2-  O270  1  0.91754393  0.04913543  0.06161048  1
  O2-  O271  1  0.92066139  0.04578817  0.40101577  1
  O2-  O272  1  0.92154498  0.05081362  0.73397469  1
  O2-  O273  1  0.92040261  0.54158544  0.06823490  1
  O2-  O274  1  0.91378511  0.53878126  0.39589705  1
  O2-  O275  1  0.91558859  0.53819898  0.73026231  1
  O2-  O276  1  0.28252648  0.16896777  0.06998711  1
  O2-  O277  1  0.29023146  0.16268424  0.39520408  1
  O2-  O278  1  0.28538938  0.17136019  0.73332029  1
  O2-  O279  1  0.29811528  0.66300363  0.06080497  1
  O2-  O280  1  0.29254802  0.67023696  0.40157611  1
  O2-  O281  1  0.29276614  0.66002373  0.73170446  1
  O2-  O282  1  0.79970276  0.16806459  0.06189425  1
  O2-  O283  1  0.79232815  0.17045706  0.39927474  1
  O2-  O284  1  0.79108105  0.16963284  0.73856941  1
  O2-  O285  1  0.79228362  0.66729118  0.06958423  1
  O2-  O286  1  0.79815274  0.66100359  0.39968220  1
  O2-  O287  1  0.80757698  0.66720213  0.72163174  1
