# generated using pymatgen
data_Ca2Al2SiO7
_symmetry_space_group_name_H-M   'P 1'
_cell_length_a   15.45643855
_cell_length_b   15.45653674
_cell_length_c   15.28191706
_cell_angle_alpha   89.99249611
_cell_angle_beta   90.01970617
_cell_angle_gamma   90.01789321
_symmetry_Int_Tables_number   1
_chemical_formula_structural   Ca2Al2SiO7
_chemical_formula_sum   'Ca48 Al48 Si24 O168'
_cell_volume   3650.89556222
_cell_formula_units_Z   24
loop_
 _symmetry_equiv_pos_site_id
 _symmetry_equiv_pos_as_xyz
  1  'x, y, z'
loop_
 _atom_type_symbol
 _atom_type_oxidation_number
  Ca2+  2.0
  Al0+  0.0
  Si0+  0.0
  O2-  -2.0
loop_
 _atom_site_type_symbol
 _atom_site_label
 _atom_site_symmetry_multiplicity
 _atom_site_fract_x
 _atom_site_fract_y
 _atom_site_fract_z
 _atom_site_occupancy
  Ca2+  Ca0  1  0.16754011  0.06947256  0.17240371  1
  Ca2+  Ca1  1  0.17100020  0.07082669  0.51189226  1
  Ca2+  Ca2  1  0.16609725  0.07611560  0.83270453  1
  Ca2+  Ca3  1  0.17014985  0.57534434  0.17980266  1
  Ca2+  Ca4  1  0.16625414  0.58028352  0.50382609  1
  Ca2+  Ca5  1  0.15953220  0.57238628  0.83555620  1
  Ca2+  Ca6  1  0.66922879  0.07909171  0.17466283  1
  Ca2+  Ca7  1  0.67219142  0.08359543  0.50929231  1
  Ca2+  Ca8  1  0.66213121  0.07264213  0.83294227  1
  Ca2+  Ca9  1  0.66381401  0.58582588  0.16668723  1
  Ca2+  Ca10  1  0.66966323  0.59086354  0.50830518  1
  Ca2+  Ca11  1  0.67572843  0.58958902  0.84112913  1
  Ca2+  Ca12  1  0.08697417  0.33600054  0.16268099  1
  Ca2+  Ca13  1  0.08854967  0.33076865  0.50014432  1
  Ca2+  Ca14  1  0.08535604  0.33094103  0.82336389  1
  Ca2+  Ca15  1  0.08915608  0.82922421  0.16523286  1
  Ca2+  Ca16  1  0.09159488  0.82521096  0.49437127  1
  Ca2+  Ca17  1  0.08364131  0.83037003  0.82503161  1
  Ca2+  Ca18  1  0.58661461  0.32977314  0.16256884  1
  Ca2+  Ca19  1  0.58557567  0.31988474  0.49559112  1
  Ca2+  Ca20  1  0.58373376  0.32995889  0.82711265  1
  Ca2+  Ca21  1  0.57934738  0.82550557  0.16142674  1
  Ca2+  Ca22  1  0.57928994  0.82797288  0.49429325  1
  Ca2+  Ca23  1  0.59177967  0.82841914  0.82741590  1
  Ca2+  Ca24  1  0.32489584  0.42395549  0.17392108  1
  Ca2+  Ca25  1  0.32558833  0.42230844  0.50167957  1
  Ca2+  Ca26  1  0.32230391  0.41500043  0.83510047  1
  Ca2+  Ca27  1  0.32512863  0.90750870  0.17163982  1
  Ca2+  Ca28  1  0.32726675  0.91343227  0.50335548  1
  Ca2+  Ca29  1  0.32479553  0.91966996  0.83114738  1
  Ca2+  Ca30  1  0.82839463  0.42307735  0.16436804  1
  Ca2+  Ca31  1  0.83168129  0.42492527  0.50569968  1
  Ca2+  Ca32  1  0.82782470  0.42943818  0.83716699  1
  Ca2+  Ca33  1  0.82577322  0.92023541  0.16985212  1
  Ca2+  Ca34  1  0.82643532  0.92668827  0.50702566  1
  Ca2+  Ca35  1  0.82250270  0.91878133  0.83143847  1
  Ca2+  Ca36  1  0.42199902  0.16647759  0.16598325  1
  Ca2+  Ca37  1  0.42655357  0.15739866  0.49921693  1
  Ca2+  Ca38  1  0.41850301  0.16714105  0.82294711  1
  Ca2+  Ca39  1  0.42087934  0.66694152  0.16780968  1
  Ca2+  Ca40  1  0.42410323  0.67108253  0.48961393  1
  Ca2+  Ca41  1  0.43105968  0.66679287  0.82759058  1
  Ca2+  Ca42  1  0.91577850  0.16636450  0.16541520  1
  Ca2+  Ca43  1  0.91896777  0.15977932  0.49728737  1
  Ca2+  Ca44  1  0.92140127  0.16914266  0.82286496  1
  Ca2+  Ca45  1  0.92164487  0.66381646  0.16435017  1
  Ca2+  Ca46  1  0.92633686  0.66536655  0.50038331  1
  Ca2+  Ca47  1  0.91698456  0.66488909  0.82541212  1
  Al0+  Al48  1  0.00159203  -0.00067831  0.00269055  1
  Al0+  Al49  1  -0.00080891  -0.00026247  0.33903865  1
  Al0+  Al50  1  -0.00176566  0.00058125  0.66949173  1
  Al0+  Al51  1  -0.00131577  0.49864362  0.00679716  1
  Al0+  Al52  1  -0.00263300  0.49822674  0.33237054  1
  Al0+  Al53  1  -0.00149553  0.50069218  0.66989703  1
  Al0+  Al54  1  0.49950829  -0.00022082  0.00312256  1
  Al0+  Al55  1  0.49930604  -0.00163304  0.32231247  1
  Al0+  Al56  1  0.49848378  -0.00010978  0.66981552  1
  Al0+  Al57  1  0.50009753  0.49870046  -0.00299998  1
  Al0+  Al58  1  0.49956545  0.49749494  0.33388427  1
  Al0+  Al59  1  0.49850330  0.49961128  0.66125474  1
  Al0+  Al60  1  0.25114418  0.24919515  0.00404190  1
  Al0+  Al61  1  0.25005057  0.24882921  0.33491033  1
  Al0+  Al62  1  0.24855863  0.25094690  0.66802624  1
  Al0+  Al63  1  0.25113645  0.75018432  -0.00081222  1
  Al0+  Al64  1  0.25102374  0.74711574  0.33226597  1
  Al0+  Al65  1  0.25172415  0.74797362  0.66843002  1
  Al0+  Al66  1  0.75212113  0.25219884  -0.00080729  1
  Al0+  Al67  1  0.75197451  0.25073127  0.33170941  1
  Al0+  Al68  1  0.75024132  0.25281182  0.66611727  1
  Al0+  Al69  1  0.75294293  0.75313194  0.00571897  1
  Al0+  Al70  1  0.75140498  0.75056803  0.33024273  1
  Al0+  Al71  1  0.75244506  0.75110524  0.66799095  1
  Al0+  Al72  1  0.81873267  0.07187735  0.34687226  1
  Al0+  Al73  1  0.57232217  0.17980714  0.31828409  1
  Al0+  Al74  1  0.32059517  0.07144184  0.68038844  1
  Al0+  Al75  1  0.17963785  0.42891076  0.01420218  1
  Al0+  Al76  1  0.57007146  0.17956291  0.65484791  1
  Al0+  Al77  1  0.57104252  0.68111986  0.98530906  1
  Al0+  Al78  1  0.32205494  0.57024077  0.34946730  1
  Al0+  Al79  1  0.17598700  0.42770184  0.35069683  1
  Al0+  Al80  1  0.67836745  0.93028515  0.01594682  1
  Al0+  Al81  1  0.57382933  0.67690254  0.31733889  1
  Al0+  Al82  1  0.17936895  0.92883147  0.01443943  1
  Al0+  Al83  1  0.82123855  0.07507431  0.68251079  1
  Al0+  Al84  1  0.07037342  0.17828601  0.65311842  1
  Al0+  Al85  1  0.42819989  0.81995188  0.31697774  1
  Al0+  Al86  1  0.57319658  0.67999392  0.65399022  1
  Al0+  Al87  1  0.17791427  0.92530950  0.68144645  1
  Al0+  Al88  1  0.67829643  0.92989981  0.67907892  1
  Al0+  Al89  1  0.07094765  0.67883413  0.65527714  1
  Al0+  Al90  1  0.82054553  0.57297171  0.01747651  1
  Al0+  Al91  1  0.17982524  0.43186302  0.68038479  1
  Al0+  Al92  1  0.67746753  0.42851454  0.01408196  1
  Al0+  Al93  1  0.18034056  0.92854221  0.34725346  1
  Al0+  Al94  1  0.81895475  0.57074978  0.67854687  1
  Al0+  Al95  1  0.06899943  0.67854696  0.31974362  1
  Si0+  Si96  1  0.67935835  0.42834380  0.34832197  1
  Si0+  Si97  1  0.07068004  0.67782397  0.98624054  1
  Si0+  Si98  1  0.92833925  0.82284383  0.64989861  1
  Si0+  Si99  1  0.57214733  0.17878018  0.98462722  1
  Si0+  Si100  1  0.81964039  0.57190087  0.34909505  1
  Si0+  Si101  1  0.07114750  0.17904813  0.98641560  1
  Si0+  Si102  1  0.42546481  0.32250799  0.64821171  1
  Si0+  Si103  1  0.67521637  0.42867117  0.68071508  1
  Si0+  Si104  1  0.42712520  0.32075986  0.31560089  1
  Si0+  Si105  1  0.93096005  0.82274041  0.98485332  1
  Si0+  Si106  1  0.42816354  0.82150537  0.65116941  1
  Si0+  Si107  1  0.42798333  0.31943008  0.98457160  1
  Si0+  Si108  1  0.32507759  0.57230091  0.68502884  1
  Si0+  Si109  1  0.92924165  0.32063499  0.31616935  1
  Si0+  Si110  1  0.82233287  0.07270516  0.01562020  1
  Si0+  Si111  1  0.42665368  0.82374721  0.97951805  1
  Si0+  Si112  1  0.32270034  0.57150409  0.01476941  1
  Si0+  Si113  1  0.32372807  0.07210866  0.34843965  1
  Si0+  Si114  1  0.92879721  0.32269545  0.64964816  1
  Si0+  Si115  1  0.07122339  0.17754232  0.31853582  1
  Si0+  Si116  1  0.67677599  0.92799869  0.34842651  1
  Si0+  Si117  1  0.92913948  0.82415726  0.31586959  1
  Si0+  Si118  1  0.92985098  0.32189280  0.98352661  1
  Si0+  Si119  1  0.32205282  0.07240052  0.01872912  1
  O2-  O120  1  0.25576635  0.00121886  0.06193075  1
  O2-  O121  1  0.25549147  0.00335854  0.39217009  1
  O2-  O122  1  0.24675756  0.00118421  0.73060141  1
  O2-  O123  1  0.25071882  0.50659699  0.05989373  1
  O2-  O124  1  0.24697270  0.50091916  0.39932486  1
  O2-  O125  1  0.25373538  0.50620007  0.72931384  1
  O2-  O126  1  0.75019194  0.00885275  0.06103666  1
  O2-  O127  1  0.74194786  -0.00043107  0.39283862  1
  O2-  O128  1  0.74714360  0.00484745  0.73086780  1
  O2-  O129  1  0.74448934  0.50401812  0.06625665  1
  O2-  O130  1  0.74298306  0.50619231  0.39020378  1
  O2-  O131  1  0.73858905  0.50192571  0.72458590  1
  O2-  O132  1  0.00302514  0.25110413  0.27498661  1
  O2-  O133  1  -0.00691141  0.25010638  0.60478222  1
  O2-  O134  1  0.00182484  0.25114930  0.94290033  1
  O2-  O135  1  -0.00274796  0.75517696  0.27065380  1
  O2-  O136  1  0.00247191  0.75891135  0.60723108  1
  O2-  O137  1  0.00098426  0.74984929  0.94353263  1
  O2-  O138  1  0.49641362  0.25287902  0.27021449  1
  O2-  O139  1  0.49547488  0.25369848  0.60601231  1
  O2-  O140  1  0.50065152  0.24953543  0.94274965  1
  O2-  O141  1  0.50213413  0.74908950  0.26743782  1
  O2-  O142  1  0.49749830  0.75306182  0.60767326  1
  O2-  O143  1  0.49788696  0.75695463  0.93646494  1
  O2-  O144  1  0.06878236  0.17905140  0.09189005  1
  O2-  O145  1  0.06965129  0.17698984  0.42321387  1
  O2-  O146  1  0.07015118  0.18171298  0.76701051  1
  O2-  O147  1  0.06989024  0.67854262  0.09137397  1
  O2-  O148  1  0.06621252  0.67789600  0.43276552  1
  O2-  O149  1  0.06653566  0.67690577  0.76899008  1
  O2-  O150  1  0.57162924  0.18033126  0.08986280  1
  O2-  O151  1  0.57304239  0.18074822  0.43128298  1
  O2-  O152  1  0.56874467  0.18237545  0.76845232  1
  O2-  O153  1  0.56703435  0.68118042  0.09800218  1
  O2-  O154  1  0.57538577  0.68043202  0.43104968  1
  O2-  O155  1  0.57312165  0.68037860  0.76740773  1
  O2-  O156  1  0.17798762  0.42838960  0.23658699  1
  O2-  O157  1  0.18003359  0.43254736  0.56792330  1
  O2-  O158  1  0.17975075  0.42749281  0.90113239  1
  O2-  O159  1  0.17942340  0.93130822  0.23367772  1
  O2-  O160  1  0.18155125  0.92445709  0.56799896  1
  O2-  O161  1  0.17738749  0.93101170  0.90193125  1
  O2-  O162  1  0.68305045  0.42536335  0.24330633  1
  O2-  O163  1  0.67831418  0.42654445  0.57484854  1
  O2-  O164  1  0.68093762  0.42507733  0.90072457  1
  O2-  O165  1  0.68055963  0.92926338  0.24256506  1
  O2-  O166  1  0.67940640  0.92980769  0.56543293  1
  O2-  O167  1  0.67984400  0.93075231  0.90308705  1
  O2-  O168  1  0.42620764  0.31719045  0.08951463  1
  O2-  O169  1  0.42814329  0.32008059  0.42089800  1
  O2-  O170  1  0.42642721  0.32317531  0.75440598  1
  O2-  O171  1  0.42480102  0.82220243  0.08478950  1
  O2-  O172  1  0.43058597  0.82154064  0.43071021  1
  O2-  O173  1  0.42735429  0.82008757  0.75695493  1
  O2-  O174  1  0.92865883  0.32043119  0.08887578  1
  O2-  O175  1  0.92620222  0.32161357  0.42090807  1
  O2-  O176  1  0.93116167  0.32367418  0.75551839  1
  O2-  O177  1  0.93286057  0.82529005  0.08996979  1
  O2-  O178  1  0.92780131  0.82340640  0.42115440  1
  O2-  O179  1  0.92598821  0.81988468  0.75595042  1
  O2-  O180  1  0.32011480  0.07474844  0.24254673  1
  O2-  O181  1  0.32185009  0.06889078  0.56680837  1
  O2-  O182  1  0.32093722  0.07592660  0.91351740  1
  O2-  O183  1  0.32080544  0.56701355  0.23518505  1
  O2-  O184  1  0.32673277  0.57073170  0.57989915  1
  O2-  O185  1  0.32222371  0.56894618  0.90908947  1
  O2-  O186  1  0.81855074  0.07149447  0.23317598  1
  O2-  O187  1  0.81927798  0.07323780  0.56882895  1
  O2-  O188  1  0.82349052  0.07209103  0.91057838  1
  O2-  O189  1  0.82213037  0.56905073  0.24420323  1
  O2-  O190  1  0.81997317  0.56833465  0.56505388  1
  O2-  O191  1  0.82266182  0.57055522  0.90384568  1
  O2-  O192  1  0.03892075  0.08691971  0.27042555  1
  O2-  O193  1  0.04191637  0.08050636  0.59992694  1
  O2-  O194  1  0.04211748  0.08740471  0.93944247  1
  O2-  O195  1  0.03438217  0.58253102  0.26542640  1
  O2-  O196  1  0.03338092  0.58456349  0.60087846  1
  O2-  O197  1  0.04059437  0.58515326  0.94143101  1
  O2-  O198  1  0.54353445  0.08420510  0.26130773  1
  O2-  O199  1  0.53961339  0.08257253  0.60128123  1
  O2-  O200  1  0.54356722  0.08624634  0.93923788  1
  O2-  O201  1  0.54646154  0.57639917  0.26762813  1
  O2-  O202  1  0.54529758  0.58212876  0.60042156  1
  O2-  O203  1  0.54164519  0.58292656  0.93213908  1
  O2-  O204  1  0.16409952  0.20219439  0.27089742  1
  O2-  O205  1  0.16610835  0.21142955  0.59913060  1
  O2-  O206  1  0.16433428  0.20572894  0.94147123  1
  O2-  O207  1  0.16609362  0.70565385  0.26585048  1
  O2-  O208  1  0.17037251  0.70248274  0.60349648  1
  O2-  O209  1  0.16357707  0.70280501  0.93955145  1
  O2-  O210  1  0.66793392  0.21443399  0.26375833  1
  O2-  O211  1  0.66649530  0.21226702  0.60048415  1
  O2-  O212  1  0.66468993  0.20625224  0.93865649  1
  O2-  O213  1  0.67292117  0.70452351  0.26428449  1
  O2-  O214  1  0.66983798  0.71102454  0.60053527  1
  O2-  O215  1  0.67069042  0.71258920  0.93719561  1
  O2-  O216  1  0.08272568  0.45537844  0.06856203  1
  O2-  O217  1  0.07565132  0.45345022  0.40016398  1
  O2-  O218  1  0.08370772  0.46251890  0.73576010  1
  O2-  O219  1  0.08425955  0.96226298  0.07048485  1
  O2-  O220  1  0.08420106  0.95919722  0.40113608  1
  O2-  O221  1  0.07855885  0.95142330  0.73270480  1
  O2-  O222  1  0.57691179  0.45043074  0.06530949  1
  O2-  O223  1  0.58495670  0.44542757  0.39373420  1
  O2-  O224  1  0.57907855  0.44711694  0.72391634  1
  O2-  O225  1  0.58076862  0.95801631  0.06940371  1
  O2-  O226  1  0.58071746  0.95049718  0.38891978  1
  O2-  O227  1  0.58050808  0.95497404  0.73441446  1
  O2-  O228  1  0.21206324  0.33290585  0.06874411  1
  O2-  O229  1  0.20530910  0.32816865  0.40078494  1
  O2-  O230  1  0.21056755  0.33566009  0.73521287  1
  O2-  O231  1  0.20848636  0.83065494  0.06660677  1
  O2-  O232  1  0.21018052  0.83133265  0.39837320  1
  O2-  O233  1  0.20901053  0.82822171  0.73642684  1
  O2-  O234  1  0.71174797  0.33157938  0.06855797  1
  O2-  O235  1  0.71593501  0.34006562  0.39707175  1
  O2-  O236  1  0.70523088  0.33783726  0.72953239  1
  O2-  O237  1  0.71435442  0.83740542  0.07234964  1
  O2-  O238  1  0.70600861  0.83508730  0.39366517  1
  O2-  O239  1  0.71367596  0.83455288  0.73435031  1
  O2-  O240  1  0.45304010  0.41358978  0.26834831  1
  O2-  O241  1  0.45019727  0.41542418  0.60025290  1
  O2-  O242  1  0.45297486  0.41081871  0.93508330  1
  O2-  O243  1  0.45202196  0.91779690  0.25924104  1
  O2-  O244  1  0.45247874  0.91526228  0.60552189  1
  O2-  O245  1  0.45001760  0.91965412  0.93695901  1
  O2-  O246  1  0.95489482  0.41192000  0.26638683  1
  O2-  O247  1  0.95935692  0.41423695  0.60233500  1
  O2-  O248  1  0.95803811  0.41416824  0.93736712  1
  O2-  O249  1  0.95524296  0.91786858  0.26948862  1
  O2-  O250  1  0.94703322  0.91845867  0.60592403  1
  O2-  O251  1  0.96083401  0.91386658  0.93657616  1
  O2-  O252  1  0.33350747  0.29386337  0.26852850  1
  O2-  O253  1  0.33246833  0.29686448  0.60231392  1
  O2-  O254  1  0.33669898  0.28849285  0.93635276  1
  O2-  O255  1  0.33147613  0.78789405  0.26204020  1
  O2-  O256  1  0.33534883  0.79441577  0.60438878  1
  O2-  O257  1  0.33344399  0.79625123  0.93253620  1
  O2-  O258  1  0.83985525  0.28926653  0.26548096  1
  O2-  O259  1  0.83355268  0.30339624  0.60391191  1
  O2-  O260  1  0.83861494  0.29446271  0.93423390  1
  O2-  O261  1  0.83610283  0.79783464  0.26825219  1
  O2-  O262  1  0.83807867  0.79122728  0.60056824  1
  O2-  O263  1  0.83879191  0.79613420  0.93809170  1
  O2-  O264  1  0.41645589  0.04990911  0.06432559  1
  O2-  O265  1  0.41915024  0.04655433  0.39019150  1
  O2-  O266  1  0.41704732  0.04260612  0.73715271  1
  O2-  O267  1  0.41434858  0.54120363  0.06116594  1
  O2-  O268  1  0.42006217  0.53913719  0.40272516  1
  O2-  O269  1  0.41764053  0.54195444  0.73185736  1
  O2-  O270  1  0.91438707  0.04341807  0.06337054  1
  O2-  O271  1  0.91424342  0.04036318  0.40164046  1
  O2-  O272  1  0.91849992  0.04600897  0.73662455  1
  O2-  O273  1  0.91574247  0.53709237  0.07295800  1
  O2-  O274  1  0.90857210  0.53669117  0.39706705  1
  O2-  O275  1  0.91183355  0.53453222  0.73581120  1
  O2-  O276  1  0.29405604  0.16411629  0.06780216  1
  O2-  O277  1  0.30013707  0.16552453  0.39498502  1
  O2-  O278  1  0.29401566  0.17019279  0.73378484  1
  O2-  O279  1  0.30114181  0.66656672  0.05881542  1
  O2-  O280  1  0.29595836  0.66862068  0.40155044  1
  O2-  O281  1  0.30373358  0.66614788  0.73130225  1
  O2-  O282  1  0.80117798  0.16811418  0.06005393  1
  O2-  O283  1  0.79128457  0.16963622  0.39982378  1
  O2-  O284  1  0.79711579  0.17544418  0.73357776  1
  O2-  O285  1  0.79939024  0.67219445  0.07048769  1
  O2-  O286  1  0.79838026  0.66608948  0.39457530  1
  O2-  O287  1  0.79383053  0.66766678  0.73366215  1
