# generated using pymatgen
data_Ca2Al2SiO7
_symmetry_space_group_name_H-M   'P 1'
_cell_length_a   15.45894785
_cell_length_b   15.45855823
_cell_length_c   15.28467323
_cell_angle_alpha   89.99682298
_cell_angle_beta   90.00848389
_cell_angle_gamma   89.98835039
_symmetry_Int_Tables_number   1
_chemical_formula_structural   Ca2Al2SiO7
_chemical_formula_sum   'Ca48 Al48 Si24 O168'
_cell_volume   3652.62478875
_cell_formula_units_Z   24
loop_
 _symmetry_equiv_pos_site_id
 _symmetry_equiv_pos_as_xyz
  1  'x, y, z'
loop_
 _atom_type_symbol
 _atom_type_oxidation_number
  Ca2+  2.0
  Al0+  0.0
  Si0+  0.0
  O2-  -2.0
loop_
 _atom_site_type_symbol
 _atom_site_label
 _atom_site_symmetry_multiplicity
 _atom_site_fract_x
 _atom_site_fract_y
 _atom_site_fract_z
 _atom_site_occupancy
  Ca2+  Ca0  1  0.16317371  0.07537407  0.17660822  1
  Ca2+  Ca1  1  0.15478944  0.07602676  0.50681060  1
  Ca2+  Ca2  1  0.15895811  0.07841127  0.83285165  1
  Ca2+  Ca3  1  0.16570568  0.58167974  0.16079319  1
  Ca2+  Ca4  1  0.16907908  0.57784084  0.51214500  1
  Ca2+  Ca5  1  0.16295558  0.57502178  0.84065192  1
  Ca2+  Ca6  1  0.67261628  0.08651280  0.16352781  1
  Ca2+  Ca7  1  0.66516007  0.08168412  0.50715389  1
  Ca2+  Ca8  1  0.66873666  0.08976968  0.84160006  1
  Ca2+  Ca9  1  0.67803621  0.58161909  0.17758518  1
  Ca2+  Ca10  1  0.67412013  0.58006791  0.50856921  1
  Ca2+  Ca11  1  0.67547655  0.58059609  0.83385833  1
  Ca2+  Ca12  1  0.07839999  0.33028771  0.15862587  1
  Ca2+  Ca13  1  0.08105107  0.32942717  0.50008140  1
  Ca2+  Ca14  1  0.07500278  0.33835694  0.82486645  1
  Ca2+  Ca15  1  0.07929221  0.82658712  0.15743441  1
  Ca2+  Ca16  1  0.08794150  0.83044725  0.50004636  1
  Ca2+  Ca17  1  0.08048760  0.82129211  0.83015274  1
  Ca2+  Ca18  1  0.58858807  0.33118065  0.16279022  1
  Ca2+  Ca19  1  0.58365804  0.34110496  0.50185252  1
  Ca2+  Ca20  1  0.58276025  0.32695219  0.82297511  1
  Ca2+  Ca21  1  0.57719718  0.82597897  0.15974451  1
  Ca2+  Ca22  1  0.58751296  0.81724020  0.49719647  1
  Ca2+  Ca23  1  0.57584049  0.82767829  0.82902205  1
  Ca2+  Ca24  1  0.32917817  0.42120211  0.16410218  1
  Ca2+  Ca25  1  0.32872884  0.41422614  0.50972485  1
  Ca2+  Ca26  1  0.32189846  0.41572162  0.83725081  1
  Ca2+  Ca27  1  0.32831281  0.91378699  0.17026268  1
  Ca2+  Ca28  1  0.32100382  0.91945258  0.50685419  1
  Ca2+  Ca29  1  0.32907312  0.91283464  0.83686754  1
  Ca2+  Ca30  1  0.83319702  0.42681997  0.16859796  1
  Ca2+  Ca31  1  0.82599701  0.42504298  0.50813306  1
  Ca2+  Ca32  1  0.83936243  0.42389347  0.83703470  1
  Ca2+  Ca33  1  0.84282659  0.92327754  0.16501877  1
  Ca2+  Ca34  1  0.83395240  0.92060893  0.50486067  1
  Ca2+  Ca35  1  0.83459940  0.92492401  0.84093662  1
  Ca2+  Ca36  1  0.42524197  0.16858056  0.15879619  1
  Ca2+  Ca37  1  0.41813873  0.17420610  0.50434722  1
  Ca2+  Ca38  1  0.42798256  0.17279007  0.82577969  1
  Ca2+  Ca39  1  0.42004398  0.66830319  0.15956454  1
  Ca2+  Ca40  1  0.43347258  0.65674716  0.49880614  1
  Ca2+  Ca41  1  0.41691988  0.66637290  0.83094767  1
  Ca2+  Ca42  1  0.91936301  0.17283233  0.15820586  1
  Ca2+  Ca43  1  0.92461112  0.17492510  0.50175160  1
  Ca2+  Ca44  1  0.91572999  0.18184985  0.82800377  1
  Ca2+  Ca45  1  0.91774674  0.66846988  0.15622009  1
  Ca2+  Ca46  1  0.91979342  0.65713374  0.50114143  1
  Ca2+  Ca47  1  0.92357367  0.66016197  0.83053228  1
  Al0+  Al48  1  -0.00070082  -0.00079384  0.00213477  1
  Al0+  Al49  1  0.00071667  -0.00017895  0.33477074  1
  Al0+  Al50  1  -0.00167735  -0.00111453  0.67020001  1
  Al0+  Al51  1  -0.00103102  0.49816300  0.00385924  1
  Al0+  Al52  1  0.00074497  0.49969370  0.33525090  1
  Al0+  Al53  1  0.00077048  0.50152125  0.66325457  1
  Al0+  Al54  1  0.49966132  -0.00152484  -0.00666778  1
  Al0+  Al55  1  0.49892723  0.00152344  0.33414272  1
  Al0+  Al56  1  0.49770101  -0.00000269  0.66232141  1
  Al0+  Al57  1  0.49796571  0.49857990  0.00384202  1
  Al0+  Al58  1  0.50001850  0.49946822  0.32862075  1
  Al0+  Al59  1  0.50142900  0.50076733  0.66404074  1
  Al0+  Al60  1  0.25121581  0.24754329  0.00543972  1
  Al0+  Al61  1  0.25178648  0.24883409  0.32754016  1
  Al0+  Al62  1  0.25180255  0.24727870  0.66464158  1
  Al0+  Al63  1  0.25090828  0.74910046  -0.00296764  1
  Al0+  Al64  1  0.24998198  0.75030458  0.33840506  1
  Al0+  Al65  1  0.24784312  0.75197304  0.66681307  1
  Al0+  Al66  1  0.75231195  0.24868037  -0.00171246  1
  Al0+  Al67  1  0.74985032  0.25080717  0.33697579  1
  Al0+  Al68  1  0.75036198  0.25000124  0.65949096  1
  Al0+  Al69  1  0.74845904  0.75168944  0.00025409  1
  Al0+  Al70  1  0.75172512  0.75149374  0.33146854  1
  Al0+  Al71  1  0.74978193  0.75253414  0.66852524  1
  Al0+  Al72  1  0.82120861  0.57213776  0.68386286  1
  Al0+  Al73  1  0.42941165  0.32196099  0.65281322  1
  Al0+  Al74  1  0.82263296  0.57388021  0.34951104  1
  Al0+  Al75  1  0.82053583  0.07074231  0.01318815  1
  Al0+  Al76  1  0.07059710  0.67984359  0.65209444  1
  Al0+  Al77  1  0.57030037  0.18152655  0.98813860  1
  Al0+  Al78  1  0.07030563  0.17754732  0.65426531  1
  Al0+  Al79  1  0.67832678  0.42801980  0.68318207  1
  Al0+  Al80  1  0.06889418  0.67894534  0.98607480  1
  Al0+  Al81  1  0.17731232  0.42669638  0.01612239  1
  Al0+  Al82  1  0.67799192  0.42907806  0.34868120  1
  Al0+  Al83  1  0.92651907  0.82348407  0.98475468  1
  Al0+  Al84  1  0.57255494  0.17837701  0.64971918  1
  Al0+  Al85  1  0.93136651  0.31958793  0.98806909  1
  Al0+  Al86  1  0.92888900  0.32465960  0.64949867  1
  Al0+  Al87  1  0.17956560  0.92993077  0.34765884  1
  Al0+  Al88  1  0.18051304  0.42738210  0.67769539  1
  Al0+  Al89  1  0.32135916  0.57221037  0.01493069  1
  Al0+  Al90  1  0.42930202  0.81946892  0.98665763  1
  Al0+  Al91  1  0.17758823  0.92924066  0.68425349  1
  Al0+  Al92  1  0.07003360  0.17891709  0.31869267  1
  Al0+  Al93  1  0.81956381  0.57241210  0.01407607  1
  Al0+  Al94  1  0.57130274  0.68087832  0.65488535  1
  Al0+  Al95  1  0.57207998  0.67904569  0.31780956  1
  Si0+  Si96  1  0.42582614  0.32257812  0.98389236  1
  Si0+  Si97  1  0.18015672  0.92982267  0.01524751  1
  Si0+  Si98  1  0.42876980  0.32111172  0.31503585  1
  Si0+  Si99  1  0.67633788  0.92951473  0.68103741  1
  Si0+  Si100  1  0.57177409  0.17729448  0.31687826  1
  Si0+  Si101  1  0.67505187  0.92902566  0.01655283  1
  Si0+  Si102  1  0.92823754  0.82247129  0.64977072  1
  Si0+  Si103  1  0.82083702  0.07064251  0.34916321  1
  Si0+  Si104  1  0.67822442  0.42711789  0.01502944  1
  Si0+  Si105  1  0.93012928  0.82182698  0.31885045  1
  Si0+  Si106  1  0.32320977  0.07047516  0.68581784  1
  Si0+  Si107  1  0.32375748  0.06929844  0.01491434  1
  Si0+  Si108  1  0.81899381  0.07010288  0.68058082  1
  Si0+  Si109  1  0.67720518  0.93034287  0.34705577  1
  Si0+  Si110  1  0.42812543  0.82163940  0.31858105  1
  Si0+  Si111  1  0.07299542  0.67832912  0.31925288  1
  Si0+  Si112  1  0.42612276  0.82225772  0.64750382  1
  Si0+  Si113  1  0.32345370  0.07362681  0.35113716  1
  Si0+  Si114  1  0.32287791  0.57263016  0.68119668  1
  Si0+  Si115  1  0.57246237  0.67508274  0.98400480  1
  Si0+  Si116  1  0.92804226  0.32163387  0.31548728  1
  Si0+  Si117  1  0.07489125  0.17633110  0.98527905  1
  Si0+  Si118  1  0.18069797  0.42738128  0.34794265  1
  Si0+  Si119  1  0.32020141  0.57080725  0.34858729  1
  O2-  O120  1  0.24928901  0.00251771  0.05846398  1
  O2-  O121  1  0.25263667  0.00672004  0.39420485  1
  O2-  O122  1  0.25275682  0.00373796  0.73051561  1
  O2-  O123  1  0.24970870  0.49963598  0.06556071  1
  O2-  O124  1  0.24941421  0.50005672  0.39098323  1
  O2-  O125  1  0.25495759  0.50283314  0.72388534  1
  O2-  O126  1  0.74786874  -0.00628452  0.06135232  1
  O2-  O127  1  0.74754733  0.00136956  0.39073233  1
  O2-  O128  1  0.74181428  0.00543612  0.72231107  1
  O2-  O129  1  0.74054925  0.50129094  0.05986938  1
  O2-  O130  1  0.74870125  0.50283963  0.39730254  1
  O2-  O131  1  0.75238618  0.49694750  0.73397116  1
  O2-  O132  1  -0.00265218  0.25382063  0.27027343  1
  O2-  O133  1  0.00400018  0.25339656  0.60216483  1
  O2-  O134  1  0.01015168  0.24832038  0.94239437  1
  O2-  O135  1  -0.00135530  0.74708746  0.27882355  1
  O2-  O136  1  -0.00568978  0.75248604  0.60384616  1
  O2-  O137  1  -0.00596288  0.74781961  0.93529327  1
  O2-  O138  1  0.50257911  0.25067692  0.27565240  1
  O2-  O139  1  0.50395148  0.25354954  0.59966177  1
  O2-  O140  1  0.49791893  0.25737897  0.94121280  1
  O2-  O141  1  0.49699810  0.75454412  0.27266308  1
  O2-  O142  1  0.49457279  0.75291821  0.60469492  1
  O2-  O143  1  0.50206211  0.74281951  0.94065244  1
  O2-  O144  1  0.07261647  0.17499559  0.09143444  1
  O2-  O145  1  0.06765831  0.17846338  0.43123939  1
  O2-  O146  1  0.06531767  0.17532883  0.76766623  1
  O2-  O147  1  0.06956179  0.68264929  0.10073956  1
  O2-  O148  1  0.07540604  0.67992731  0.42415228  1
  O2-  O149  1  0.07221194  0.68049831  0.76453566  1
  O2-  O150  1  0.56901523  0.18148895  0.10211642  1
  O2-  O151  1  0.56988006  0.17228321  0.42116687  1
  O2-  O152  1  0.56954296  0.17542641  0.76320842  1
  O2-  O153  1  0.57184715  0.67835433  0.08992576  1
  O2-  O154  1  0.57081645  0.68066444  0.43091399  1
  O2-  O155  1  0.57018857  0.68435685  0.76774366  1
  O2-  O156  1  0.18169754  0.42796688  0.24301634  1
  O2-  O157  1  0.18308019  0.42956455  0.56362114  1
  O2-  O158  1  0.17923802  0.42512311  0.90276826  1
  O2-  O159  1  0.18148844  0.92952798  0.23414704  1
  O2-  O160  1  0.17912818  0.93079464  0.57073706  1
  O2-  O161  1  0.18074337  0.93110198  0.91050795  1
  O2-  O162  1  0.68011462  0.42789520  0.23455251  1
  O2-  O163  1  0.67825047  0.43297438  0.56963308  1
  O2-  O164  1  0.67857077  0.42587308  0.91002357  1
  O2-  O165  1  0.67536255  0.93215627  0.24222839  1
  O2-  O166  1  0.67940943  0.92830307  0.57526224  1
  O2-  O167  1  0.67213367  0.93231175  0.91110673  1
  O2-  O168  1  0.42556504  0.31954002  0.09009580  1
  O2-  O169  1  0.42491956  0.32076766  0.41957280  1
  O2-  O170  1  0.42836475  0.31852714  0.76625987  1
  O2-  O171  1  0.43100788  0.82141105  0.10030348  1
  O2-  O172  1  0.42923347  0.82164951  0.42375456  1
  O2-  O173  1  0.42773052  0.82307065  0.75323310  1
  O2-  O174  1  0.93005883  0.31673755  0.10168598  1
  O2-  O175  1  0.92964235  0.32044492  0.42061354  1
  O2-  O176  1  0.92903612  0.32249214  0.76323455  1
  O2-  O177  1  0.93278890  0.82597688  0.09906341  1
  O2-  O178  1  0.92998510  0.82656599  0.42371896  1
  O2-  O179  1  0.92943930  0.82497258  0.75480509  1
  O2-  O180  1  0.32630542  0.07153072  0.24522242  1
  O2-  O181  1  0.32615980  0.06774914  0.58003826  1
  O2-  O182  1  0.32491659  0.06832074  0.91042350  1
  O2-  O183  1  0.31900621  0.57213878  0.24369664  1
  O2-  O184  1  0.32148880  0.57230988  0.57469037  1
  O2-  O185  1  0.32211021  0.57119638  0.90172094  1
  O2-  O186  1  0.82055913  0.06993288  0.24398461  1
  O2-  O187  1  0.82043297  0.06497207  0.57483690  1
  O2-  O188  1  0.81778719  0.07155021  0.90035306  1
  O2-  O189  1  0.82304262  0.57369883  0.23559896  1
  O2-  O190  1  0.81832364  0.57414072  0.57023795  1
  O2-  O191  1  0.82034440  0.57097490  0.90171911  1
  O2-  O192  1  0.03757793  0.08192123  0.26545976  1
  O2-  O193  1  0.03394732  0.08088468  0.60076067  1
  O2-  O194  1  0.04665859  0.08342011  0.94071502  1
  O2-  O195  1  0.04908556  0.58494799  0.27311051  1
  O2-  O196  1  0.04265117  0.58448048  0.59493369  1
  O2-  O197  1  0.04321970  0.57906138  0.93708665  1
  O2-  O198  1  0.54138451  0.08638389  0.26782857  1
  O2-  O199  1  0.54009687  0.08038221  0.59574643  1
  O2-  O200  1  0.53886289  0.08590343  0.93376538  1
  O2-  O201  1  0.54009678  0.58339060  0.26318852  1
  O2-  O202  1  0.54185056  0.58555951  0.59810017  1
  O2-  O203  1  0.54735693  0.58057889  0.94051702  1
  O2-  O204  1  0.16853501  0.20487170  0.26509328  1
  O2-  O205  1  0.17107981  0.19656571  0.60275751  1
  O2-  O206  1  0.17125722  0.19506694  0.94266250  1
  O2-  O207  1  0.16420097  0.70970211  0.27223621  1
  O2-  O208  1  0.16661746  0.71330696  0.59701144  1
  O2-  O209  1  0.16633867  0.70940988  0.93377184  1
  O2-  O210  1  0.66519453  0.20377500  0.27153791  1
  O2-  O211  1  0.67130668  0.19933110  0.59523847  1
  O2-  O212  1  0.66684821  0.20932472  0.93450771  1
  O2-  O213  1  0.66819847  0.71275805  0.26441549  1
  O2-  O214  1  0.66577989  0.71768512  0.59958386  1
  O2-  O215  1  0.66472899  0.70296471  0.93783695  1
  O2-  O216  1  0.08098742  0.45627023  0.07261568  1
  O2-  O217  1  0.08806065  0.45252799  0.39414689  1
  O2-  O218  1  0.08425442  0.45963323  0.72954752  1
  O2-  O219  1  0.08840161  0.95622741  0.06396424  1
  O2-  O220  1  0.08289280  0.96028182  0.40200561  1
  O2-  O221  1  0.08121488  0.96040639  0.73818637  1
  O2-  O222  1  0.58201580  0.44450103  0.06016570  1
  O2-  O223  1  0.57690148  0.45473782  0.39727412  1
  O2-  O224  1  0.57938285  0.45765033  0.73474583  1
  O2-  O225  1  0.58329039  0.95981891  0.06453904  1
  O2-  O226  1  0.58560516  0.95761366  0.39581626  1
  O2-  O227  1  0.58181172  0.95199014  0.72527570  1
  O2-  O228  1  0.20727152  0.32818032  0.07106579  1
  O2-  O229  1  0.21158033  0.33525625  0.39265340  1
  O2-  O230  1  0.20962966  0.33008639  0.73080720  1
  O2-  O231  1  0.21092150  0.83888770  0.06221462  1
  O2-  O232  1  0.21151047  0.83430224  0.40360815  1
  O2-  O233  1  0.21018812  0.83302115  0.73758576  1
  O2-  O234  1  0.71023238  0.33576148  0.06256834  1
  O2-  O235  1  0.70423905  0.32972992  0.40160632  1
  O2-  O236  1  0.70165978  0.32523388  0.72904209  1
  O2-  O237  1  0.69520669  0.83419776  0.06221941  1
  O2-  O238  1  0.70732094  0.83942117  0.39451335  1
  O2-  O239  1  0.70742125  0.84105154  0.73186359  1
  O2-  O240  1  0.45481705  0.41238691  0.26571345  1
  O2-  O241  1  0.45308136  0.42098464  0.59827538  1
  O2-  O242  1  0.44573782  0.41803417  0.94074089  1
  O2-  O243  1  0.45218772  0.91655626  0.27306237  1
  O2-  O244  1  0.45148215  0.91519542  0.60033278  1
  O2-  O245  1  0.46146545  0.91357651  0.92868778  1
  O2-  O246  1  0.95486130  0.41587597  0.27078251  1
  O2-  O247  1  0.95708448  0.42144305  0.59463213  1
  O2-  O248  1  0.95951977  0.41617539  0.93495741  1
  O2-  O249  1  0.96165593  0.91210971  0.27005747  1
  O2-  O250  1  0.95699643  0.91463890  0.60189599  1
  O2-  O251  1  0.95840855  0.92106270  0.93205624  1
  O2-  O252  1  0.33929161  0.29046460  0.26412258  1
  O2-  O253  1  0.33375019  0.28797199  0.59591286  1
  O2-  O254  1  0.33342870  0.29178248  0.93884039  1
  O2-  O255  1  0.33442963  0.79389029  0.27307184  1
  O2-  O256  1  0.33216555  0.79815734  0.60250329  1
  O2-  O257  1  0.33354309  0.79142533  0.93076814  1
  O2-  O258  1  0.83410254  0.29357058  0.27124341  1
  O2-  O259  1  0.83333887  0.29137525  0.59406796  1
  O2-  O260  1  0.83745877  0.28450839  0.93270326  1
  O2-  O261  1  0.83766007  0.79954883  0.27019224  1
  O2-  O262  1  0.83312506  0.80144378  0.60453270  1
  O2-  O263  1  0.82425810  0.80541894  0.93632050  1
  O2-  O264  1  0.41394312  0.03671565  0.06367228  1
  O2-  O265  1  0.41607959  0.04634506  0.39898220  1
  O2-  O266  1  0.41613787  0.04118462  0.73227402  1
  O2-  O267  1  0.41922484  0.54352755  0.07180712  1
  O2-  O268  1  0.41243337  0.54100304  0.39346812  1
  O2-  O269  1  0.41700424  0.55032214  0.72619393  1
  O2-  O270  1  0.91691609  0.04027066  0.07013608  1
  O2-  O271  1  0.91048106  0.03800982  0.39723859  1
  O2-  O272  1  0.90690897  0.03608333  0.73055915  1
  O2-  O273  1  0.91400625  0.53815579  0.07019197  1
  O2-  O274  1  0.92171510  0.54428136  0.40100454  1
  O2-  O275  1  0.92156430  0.54544927  0.73230125  1
  O2-  O276  1  0.30179283  0.16156208  0.06476161  1
  O2-  O277  1  0.29960071  0.16849718  0.39459836  1
  O2-  O278  1  0.30070941  0.16460381  0.73080034  1
  O2-  O279  1  0.29262915  0.67085923  0.06906324  1
  O2-  O280  1  0.29412021  0.66200413  0.39776127  1
  O2-  O281  1  0.29712915  0.66671197  0.72538356  1
  O2-  O282  1  0.78647745  0.16512242  0.07063507  1
  O2-  O283  1  0.79465538  0.16228127  0.39670006  1
  O2-  O284  1  0.79653770  0.16412768  0.72446888  1
  O2-  O285  1  0.79313439  0.67151936  0.06714992  1
  O2-  O286  1  0.79719629  0.67441131  0.39988044  1
  O2-  O287  1  0.79076573  0.67130726  0.73503895  1
