# generated using pymatgen
data_Ca2Al2SiO7
_symmetry_space_group_name_H-M   'P 1'
_cell_length_a   15.46316555
_cell_length_b   15.46244071
_cell_length_c   15.28631063
_cell_angle_alpha   90.00567415
_cell_angle_beta   89.97999391
_cell_angle_gamma   90.00365015
_symmetry_Int_Tables_number   1
_chemical_formula_structural   Ca2Al2SiO7
_chemical_formula_sum   'Ca48 Al48 Si24 O168'
_cell_volume   3654.93034080
_cell_formula_units_Z   24
loop_
 _symmetry_equiv_pos_site_id
 _symmetry_equiv_pos_as_xyz
  1  'x, y, z'
loop_
 _atom_type_symbol
 _atom_type_oxidation_number
  Ca2+  2.0
  Al0+  0.0
  Si0+  0.0
  O2-  -2.0
loop_
 _atom_site_type_symbol
 _atom_site_label
 _atom_site_symmetry_multiplicity
 _atom_site_fract_x
 _atom_site_fract_y
 _atom_site_fract_z
 _atom_site_occupancy
  Ca2+  Ca0  1  0.17216425  0.07546003  0.16914039  1
  Ca2+  Ca1  1  0.17319169  0.08556683  0.49786121  1
  Ca2+  Ca2  1  0.16869323  0.07609098  0.84183502  1
  Ca2+  Ca3  1  0.16798160  0.58375682  0.16756946  1
  Ca2+  Ca4  1  0.16441833  0.57758626  0.50297630  1
  Ca2+  Ca5  1  0.17301894  0.57171012  0.84316803  1
  Ca2+  Ca6  1  0.67364074  0.07857735  0.17736069  1
  Ca2+  Ca7  1  0.67292706  0.08394541  0.49390703  1
  Ca2+  Ca8  1  0.67772501  0.08369583  0.83742887  1
  Ca2+  Ca9  1  0.67480544  0.58239333  0.17242007  1
  Ca2+  Ca10  1  0.67810037  0.58087318  0.49899047  1
  Ca2+  Ca11  1  0.67343330  0.58520101  0.84049383  1
  Ca2+  Ca12  1  0.07194272  0.33308368  0.16219802  1
  Ca2+  Ca13  1  0.07766381  0.33356469  0.49350357  1
  Ca2+  Ca14  1  0.08164383  0.34184077  0.83496829  1
  Ca2+  Ca15  1  0.07471521  0.82981772  0.16354311  1
  Ca2+  Ca16  1  0.07386607  0.82188929  0.48720862  1
  Ca2+  Ca17  1  0.07910112  0.83624448  0.83662825  1
  Ca2+  Ca18  1  0.58810558  0.33011828  0.16842517  1
  Ca2+  Ca19  1  0.57501571  0.33108085  0.48688945  1
  Ca2+  Ca20  1  0.57526490  0.33441048  0.82785045  1
  Ca2+  Ca21  1  0.57594520  0.83533706  0.16118488  1
  Ca2+  Ca22  1  0.58090659  0.83587332  0.48982240  1
  Ca2+  Ca23  1  0.58201462  0.82625094  0.83785016  1
  Ca2+  Ca24  1  0.33022690  0.41895976  0.16970474  1
  Ca2+  Ca25  1  0.32840104  0.40875850  0.50570781  1
  Ca2+  Ca26  1  0.32392422  0.41631729  0.84123463  1
  Ca2+  Ca27  1  0.33209359  0.91227763  0.17387512  1
  Ca2+  Ca28  1  0.34015325  0.92274679  0.49583924  1
  Ca2+  Ca29  1  0.32617056  0.91408874  0.84494937  1
  Ca2+  Ca30  1  0.83502497  0.42479012  0.17517185  1
  Ca2+  Ca31  1  0.83351151  0.42341430  0.49754191  1
  Ca2+  Ca32  1  0.83690367  0.42975057  0.84245345  1
  Ca2+  Ca33  1  0.83400405  0.92333938  0.17587409  1
  Ca2+  Ca34  1  0.83315611  0.92307500  0.49906228  1
  Ca2+  Ca35  1  0.83913978  0.92867562  0.84300978  1
  Ca2+  Ca36  1  0.42132374  0.16565088  0.17080662  1
  Ca2+  Ca37  1  0.42110318  0.17562027  0.48637712  1
  Ca2+  Ca38  1  0.41803940  0.17335808  0.82640843  1
  Ca2+  Ca39  1  0.42365923  0.67361705  0.15709377  1
  Ca2+  Ca40  1  0.42056665  0.67386994  0.48938873  1
  Ca2+  Ca41  1  0.41776882  0.66337698  0.83825061  1
  Ca2+  Ca42  1  0.90163684  0.17801325  0.16267594  1
  Ca2+  Ca43  1  0.91262218  0.16942928  0.49177817  1
  Ca2+  Ca44  1  0.91271943  0.17086001  0.83328484  1
  Ca2+  Ca45  1  0.91119040  0.67479802  0.16267717  1
  Ca2+  Ca46  1  0.92045975  0.66371391  0.48867828  1
  Ca2+  Ca47  1  0.90802266  0.67107459  0.83298326  1
  Al0+  Al48  1  0.00264451  0.00181272  0.00518157  1
  Al0+  Al49  1  0.00298270  -0.00164801  0.33557796  1
  Al0+  Al50  1  0.00043926  0.00108979  0.66865066  1
  Al0+  Al51  1  -0.00059435  0.49985949  0.00359646  1
  Al0+  Al52  1  0.00321179  0.49748893  0.32961132  1
  Al0+  Al53  1  0.00060522  0.50068075  0.67470702  1
  Al0+  Al54  1  0.50099206  0.00125151  -0.00832317  1
  Al0+  Al55  1  0.49943933  0.00203040  0.33409473  1
  Al0+  Al56  1  0.50112888  -0.00007298  0.66835406  1
  Al0+  Al57  1  0.49965734  0.49875867  -0.00206353  1
  Al0+  Al58  1  0.49811967  0.50089335  0.33352803  1
  Al0+  Al59  1  0.49999437  0.50218331  0.66028504  1
  Al0+  Al60  1  0.24872650  0.24834339  0.00372762  1
  Al0+  Al61  1  0.24960770  0.24958968  0.33225581  1
  Al0+  Al62  1  0.24825356  0.24890481  0.66790336  1
  Al0+  Al63  1  0.24878950  0.74947348  0.00305873  1
  Al0+  Al64  1  0.24978520  0.74795431  0.32844384  1
  Al0+  Al65  1  0.24917790  0.74958873  0.66539569  1
  Al0+  Al66  1  0.75033687  0.25109400  -0.00555765  1
  Al0+  Al67  1  0.74795192  0.25046266  0.33409009  1
  Al0+  Al68  1  0.74933479  0.24991227  0.66972551  1
  Al0+  Al69  1  0.74871310  0.75172558  -0.00611297  1
  Al0+  Al70  1  0.75090507  0.75042935  0.33881099  1
  Al0+  Al71  1  0.74827171  0.75188443  0.66883680  1
  Al0+  Al72  1  0.67812977  0.92851074  0.34663396  1
  Al0+  Al73  1  0.82369668  0.57038241  0.34686180  1
  Al0+  Al74  1  0.82012280  0.57059357  0.68153209  1
  Al0+  Al75  1  0.82358796  0.07172864  0.34763597  1
  Al0+  Al76  1  0.92880598  0.31768072  0.32208628  1
  Al0+  Al77  1  0.92919996  0.32174135  0.98459949  1
  Al0+  Al78  1  0.42644360  0.32339625  0.31573891  1
  Al0+  Al79  1  0.43119923  0.82142528  0.32113615  1
  Al0+  Al80  1  0.92731857  0.82116190  0.31947678  1
  Al0+  Al81  1  0.18055020  0.42832636  0.68026051  1
  Al0+  Al82  1  0.82143729  0.07069357  0.68212557  1
  Al0+  Al83  1  0.57102663  0.67700719  0.98482101  1
  Al0+  Al84  1  0.57056303  0.18011296  0.31776095  1
  Al0+  Al85  1  0.42840983  0.32016668  0.65355385  1
  Al0+  Al86  1  0.42690946  0.82153925  0.98404189  1
  Al0+  Al87  1  0.17842134  0.42721245  0.01922631  1
  Al0+  Al88  1  0.17987587  0.92844163  0.01482339  1
  Al0+  Al89  1  0.92990679  0.82269589  0.98604311  1
  Al0+  Al90  1  0.31964806  0.07037006  0.34626213  1
  Al0+  Al91  1  0.07118883  0.67624283  0.31743346  1
  Al0+  Al92  1  0.81882190  0.57325767  0.01407614  1
  Al0+  Al93  1  0.32251924  0.56973130  0.01611030  1
  Al0+  Al94  1  0.82062690  0.07177405  0.01410104  1
  Al0+  Al95  1  0.67680810  0.42912109  0.34758388  1
  Si0+  Si96  1  0.32288426  0.57414570  0.68153706  1
  Si0+  Si97  1  0.42740360  0.82096214  0.65120526  1
  Si0+  Si98  1  0.18005035  0.92816758  0.68043477  1
  Si0+  Si99  1  0.67616706  0.42916428  0.68283066  1
  Si0+  Si100  1  0.07305658  0.17926578  0.98287276  1
  Si0+  Si101  1  0.17962016  0.92482024  0.35226125  1
  Si0+  Si102  1  0.32486815  0.07152805  0.01543238  1
  Si0+  Si103  1  0.07020751  0.17677230  0.65152474  1
  Si0+  Si104  1  0.92941017  0.82302925  0.65288353  1
  Si0+  Si105  1  0.57304539  0.67771256  0.31862159  1
  Si0+  Si106  1  0.06976780  0.67903199  0.65399432  1
  Si0+  Si107  1  0.67759781  0.92997453  0.01448154  1
  Si0+  Si108  1  0.57209598  0.17927817  0.98170971  1
  Si0+  Si109  1  0.07340334  0.17657164  0.31710726  1
  Si0+  Si110  1  0.42741039  0.31901345  0.98475976  1
  Si0+  Si111  1  0.93022476  0.32217507  0.65327428  1
  Si0+  Si112  1  0.18084846  0.42846671  0.34920047  1
  Si0+  Si113  1  0.57256796  0.17738657  0.64873226  1
  Si0+  Si114  1  0.67721767  0.42730553  0.01407794  1
  Si0+  Si115  1  0.57218096  0.68057314  0.64876233  1
  Si0+  Si116  1  0.32093959  0.06988334  0.68119013  1
  Si0+  Si117  1  0.07109785  0.67774537  0.98151581  1
  Si0+  Si118  1  0.32040534  0.57215281  0.34903596  1
  Si0+  Si119  1  0.67613380  0.92805305  0.68689783  1
  O2-  O120  1  0.26109525  -0.00213614  0.05802811  1
  O2-  O121  1  0.24692338  -0.00494740  0.39674028  1
  O2-  O122  1  0.25295987  -0.00325923  0.72396960  1
  O2-  O123  1  0.25033798  0.49939470  0.06831006  1
  O2-  O124  1  0.25227322  0.49878187  0.39228284  1
  O2-  O125  1  0.25898958  0.50049802  0.72451116  1
  O2-  O126  1  0.74836143  -0.00486775  0.05928549  1
  O2-  O127  1  0.75362386  -0.00277828  0.39742679  1
  O2-  O128  1  0.74696631  -0.00435838  0.72916406  1
  O2-  O129  1  0.74389113  0.49774372  0.05753939  1
  O2-  O130  1  0.75083941  0.49926286  0.39781366  1
  O2-  O131  1  0.74561245  0.49572188  0.72874077  1
  O2-  O132  1  -0.00286901  0.23700376  0.27461585  1
  O2-  O133  1  -0.00121914  0.24830533  0.61095441  1
  O2-  O134  1  0.00536690  0.24820614  0.93709791  1
  O2-  O135  1  -0.00357220  0.74635323  0.26956680  1
  O2-  O136  1  -0.00322800  0.74804912  0.61161001  1
  O2-  O137  1  0.00149286  0.74560251  0.93610613  1
  O2-  O138  1  0.50118059  0.25427729  0.26637780  1
  O2-  O139  1  0.50418640  0.24714818  0.60641076  1
  O2-  O140  1  0.49854555  0.24878895  0.94095348  1
  O2-  O141  1  0.50853846  0.75031216  0.27509174  1
  O2-  O142  1  0.49930237  0.75122502  0.60867296  1
  O2-  O143  1  0.49669077  0.74737071  0.93358709  1
  O2-  O144  1  0.07572526  0.17964607  0.08787486  1
  O2-  O145  1  0.07701082  0.18117167  0.42350444  1
  O2-  O146  1  0.07200248  0.17278692  0.75620593  1
  O2-  O147  1  0.07061618  0.67947240  0.08660005  1
  O2-  O148  1  0.07198040  0.67716981  0.43260322  1
  O2-  O149  1  0.07288764  0.68122825  0.75858565  1
  O2-  O150  1  0.57299314  0.17806771  0.08601685  1
  O2-  O151  1  0.56756350  0.18038763  0.43182498  1
  O2-  O152  1  0.57031247  0.17728611  0.75491832  1
  O2-  O153  1  0.57144716  0.67889695  0.09794118  1
  O2-  O154  1  0.56856565  0.67753225  0.42501035  1
  O2-  O155  1  0.57241676  0.67986992  0.75351915  1
  O2-  O156  1  0.18130306  0.42735886  0.24478974  1
  O2-  O157  1  0.17873160  0.42978278  0.56700140  1
  O2-  O158  1  0.18228118  0.42748089  0.90482009  1
  O2-  O159  1  0.18067657  0.92537985  0.24704093  1
  O2-  O160  1  0.18038132  0.92836083  0.57584530  1
  O2-  O161  1  0.17976102  0.93255720  0.90036080  1
  O2-  O162  1  0.67732072  0.43190032  0.23393157  1
  O2-  O163  1  0.67648597  0.43039385  0.57782288  1
  O2-  O164  1  0.67757498  0.42687091  0.90771859  1
  O2-  O165  1  0.67573073  0.93037236  0.23322594  1
  O2-  O166  1  0.67335882  0.92704045  0.58184680  1
  O2-  O167  1  0.67732442  0.93356633  0.90827078  1
  O2-  O168  1  0.42733079  0.31819010  0.08910719  1
  O2-  O169  1  0.42467726  0.31955434  0.42993341  1
  O2-  O170  1  0.42887142  0.31715357  0.76724210  1
  O2-  O171  1  0.43104919  0.82441369  0.09705979  1
  O2-  O172  1  0.43060445  0.81843840  0.43539683  1
  O2-  O173  1  0.42479133  0.82037294  0.75576497  1
  O2-  O174  1  0.92727807  0.31913612  0.09719677  1
  O2-  O175  1  0.93369645  0.31963115  0.43618028  1
  O2-  O176  1  0.93268634  0.32196695  0.75824071  1
  O2-  O177  1  0.93035345  0.82317137  0.09818832  1
  O2-  O178  1  0.93138756  0.82121256  0.43424038  1
  O2-  O179  1  0.93276517  0.82494807  0.75801746  1
  O2-  O180  1  0.31702632  0.06937392  0.23349132  1
  O2-  O181  1  0.31994702  0.06992460  0.57647448  1
  O2-  O182  1  0.32200879  0.07369407  0.90885868  1
  O2-  O183  1  0.31939510  0.57300138  0.24458502  1
  O2-  O184  1  0.31949220  0.57885081  0.57608339  1
  O2-  O185  1  0.32138990  0.56550251  0.90143544  1
  O2-  O186  1  0.82022084  0.07159054  0.23436172  1
  O2-  O187  1  0.82344800  0.06940742  0.56978879  1
  O2-  O188  1  0.81849362  0.07135818  0.90020715  1
  O2-  O189  1  0.82204262  0.57014365  0.23364680  1
  O2-  O190  1  0.82235629  0.56914332  0.56895461  1
  O2-  O191  1  0.81726382  0.57123598  0.90019032  1
  O2-  O192  1  0.05928256  0.07919814  0.27621399  1
  O2-  O193  1  0.04321775  0.08552371  0.60197317  1
  O2-  O194  1  0.04631217  0.08604431  0.93626783  1
  O2-  O195  1  0.04991889  0.57706791  0.26505896  1
  O2-  O196  1  0.04239932  0.58630382  0.60782393  1
  O2-  O197  1  0.04686704  0.58320477  0.93695191  1
  O2-  O198  1  0.53731223  0.08394831  0.26411359  1
  O2-  O199  1  0.54624230  0.08301537  0.60485817  1
  O2-  O200  1  0.54590143  0.08876446  0.93005963  1
  O2-  O201  1  0.54289815  0.58663887  0.27165180  1
  O2-  O202  1  0.54627403  0.58917960  0.59963284  1
  O2-  O203  1  0.54356559  0.57824934  0.92906720  1
  O2-  O204  1  0.16272006  0.20973040  0.26815767  1
  O2-  O205  1  0.16174158  0.20551167  0.60365556  1
  O2-  O206  1  0.16713213  0.20366072  0.93479054  1
  O2-  O207  1  0.16775293  0.70755759  0.26346147  1
  O2-  O208  1  0.16098260  0.70772895  0.60444776  1
  O2-  O209  1  0.16455208  0.70449303  0.93523726  1
  O2-  O210  1  0.66881839  0.20619414  0.26445220  1
  O2-  O211  1  0.66728535  0.20183072  0.60504307  1
  O2-  O212  1  0.66111679  0.21081406  0.93050595  1
  O2-  O213  1  0.66869804  0.69790904  0.27679879  1
  O2-  O214  1  0.66342135  0.71082982  0.60129271  1
  O2-  O215  1  0.66610610  0.71022269  0.92634895  1
  O2-  O216  1  0.07976579  0.45481640  0.06970941  1
  O2-  O217  1  0.09002464  0.45721693  0.39818621  1
  O2-  O218  1  0.08690727  0.46245961  0.73735665  1
  O2-  O219  1  0.08775730  0.96563736  0.07176838  1
  O2-  O220  1  0.08684056  0.95004869  0.40034258  1
  O2-  O221  1  0.08969129  0.95886338  0.72903941  1
  O2-  O222  1  0.58250483  0.44774299  0.05854362  1
  O2-  O223  1  0.57822447  0.45856174  0.40153835  1
  O2-  O224  1  0.58197605  0.45711000  0.72783545  1
  O2-  O225  1  0.58385052  0.95893019  0.05797262  1
  O2-  O226  1  0.58170388  0.96123148  0.40253716  1
  O2-  O227  1  0.58302718  0.95544289  0.73459072  1
  O2-  O228  1  0.20628803  0.32810693  0.07003044  1
  O2-  O229  1  0.20810190  0.33683023  0.39782359  1
  O2-  O230  1  0.20758032  0.33063124  0.73481756  1
  O2-  O231  1  0.20337417  0.83092629  0.06810321  1
  O2-  O232  1  0.20798844  0.83170985  0.39829335  1
  O2-  O233  1  0.20643055  0.83591881  0.72824831  1
  O2-  O234  1  0.70496978  0.33421160  0.05856261  1
  O2-  O235  1  0.70283417  0.33094420  0.40155621  1
  O2-  O236  1  0.69774218  0.33423070  0.72825816  1
  O2-  O237  1  0.69825964  0.83465014  0.05632629  1
  O2-  O238  1  0.70185872  0.83033732  0.40324005  1
  O2-  O239  1  0.70030787  0.83423337  0.73277871  1
  O2-  O240  1  0.45035666  0.42375149  0.26613833  1
  O2-  O241  1  0.45333967  0.41871429  0.60023062  1
  O2-  O242  1  0.45444262  0.41015997  0.93558887  1
  O2-  O243  1  0.45610930  0.91896801  0.26856656  1
  O2-  O244  1  0.45514610  0.91445984  0.60631539  1
  O2-  O245  1  0.45612437  0.91951261  0.92763107  1
  O2-  O246  1  0.96559727  0.41086611  0.26667678  1
  O2-  O247  1  0.96201066  0.41350407  0.60732850  1
  O2-  O248  1  0.96111866  0.41874767  0.93100458  1
  O2-  O249  1  0.95914624  0.91948720  0.26824189  1
  O2-  O250  1  0.96194526  0.91307655  0.60501738  1
  O2-  O251  1  0.96683916  0.91895528  0.93280508  1
  O2-  O252  1  0.32942674  0.29020501  0.26353229  1
  O2-  O253  1  0.33140253  0.28701672  0.60123657  1
  O2-  O254  1  0.33572526  0.28859585  0.93748164  1
  O2-  O255  1  0.33572075  0.78879245  0.26800892  1
  O2-  O256  1  0.33569049  0.79341664  0.60274544  1
  O2-  O257  1  0.32715151  0.79426133  0.93234732  1
  O2-  O258  1  0.83112734  0.29397245  0.26846185  1
  O2-  O259  1  0.83630059  0.29688997  0.60910735  1
  O2-  O260  1  0.83380938  0.29021201  0.92715050  1
  O2-  O261  1  0.82720960  0.79734172  0.26905638  1
  O2-  O262  1  0.83473480  0.80034431  0.60978131  1
  O2-  O263  1  0.83314800  0.79612999  0.92944454  1
  O2-  O264  1  0.42107394  0.05132372  0.05681552  1
  O2-  O265  1  0.41457946  0.04039352  0.40341815  1
  O2-  O266  1  0.41401486  0.04583327  0.72841261  1
  O2-  O267  1  0.42136664  0.54130854  0.06715866  1
  O2-  O268  1  0.41273305  0.54877658  0.39744576  1
  O2-  O269  1  0.41894937  0.55334634  0.72399748  1
  O2-  O270  1  0.91842894  0.04689643  0.06584269  1
  O2-  O271  1  0.92399019  0.04726329  0.40037960  1
  O2-  O272  1  0.91870375  0.04003576  0.73625647  1
  O2-  O273  1  0.91559437  0.54373261  0.06577893  1
  O2-  O274  1  0.92224935  0.53792027  0.39903905  1
  O2-  O275  1  0.91576895  0.54090814  0.73775655  1
  O2-  O276  1  0.29452444  0.16209717  0.06334201  1
  O2-  O277  1  0.28530559  0.16592018  0.40195553  1
  O2-  O278  1  0.28983838  0.15981076  0.73027598  1
  O2-  O279  1  0.29658325  0.66903882  0.06657832  1
  O2-  O280  1  0.28953712  0.66273495  0.39830264  1
  O2-  O281  1  0.29226399  0.66566848  0.72990760  1
  O2-  O282  1  0.78562472  0.16868819  0.06328871  1
  O2-  O283  1  0.79166155  0.16868718  0.40171025  1
  O2-  O284  1  0.79083676  0.16800781  0.73631186  1
  O2-  O285  1  0.78810882  0.67126865  0.06416052  1
  O2-  O286  1  0.79730698  0.66810749  0.40263575  1
  O2-  O287  1  0.78908220  0.66861394  0.73312582  1
