# generated using pymatgen
data_Ca2Al2SiO7
_symmetry_space_group_name_H-M   'P 1'
_cell_length_a   15.46461985
_cell_length_b   15.46387522
_cell_length_c   15.28851066
_cell_angle_alpha   89.98598467
_cell_angle_beta   90.00280544
_cell_angle_gamma   90.01563876
_symmetry_Int_Tables_number   1
_chemical_formula_structural   Ca2Al2SiO7
_chemical_formula_sum   'Ca48 Al48 Si24 O168'
_cell_volume   3656.13931608
_cell_formula_units_Z   24
loop_
 _symmetry_equiv_pos_site_id
 _symmetry_equiv_pos_as_xyz
  1  'x, y, z'
loop_
 _atom_type_symbol
 _atom_type_oxidation_number
  Ca2+  2.0
  Al0+  0.0
  Si0+  0.0
  O2-  -2.0
loop_
 _atom_site_type_symbol
 _atom_site_label
 _atom_site_symmetry_multiplicity
 _atom_site_fract_x
 _atom_site_fract_y
 _atom_site_fract_z
 _atom_site_occupancy
  Ca2+  Ca0  1  0.16437604  0.07978212  0.16934504  1
  Ca2+  Ca1  1  0.17205970  0.08112779  0.50795737  1
  Ca2+  Ca2  1  0.17653971  0.07320945  0.83560508  1
  Ca2+  Ca3  1  0.17934670  0.57514132  0.16487469  1
  Ca2+  Ca4  1  0.18008505  0.58386181  0.50532295  1
  Ca2+  Ca5  1  0.17919659  0.57871778  0.84049205  1
  Ca2+  Ca6  1  0.66933479  0.08788188  0.16943843  1
  Ca2+  Ca7  1  0.66978708  0.09280911  0.50260677  1
  Ca2+  Ca8  1  0.66575050  0.08199569  0.84386262  1
  Ca2+  Ca9  1  0.66198082  0.57683317  0.16930690  1
  Ca2+  Ca10  1  0.66581878  0.57801095  0.51181250  1
  Ca2+  Ca11  1  0.66707405  0.57708274  0.83856132  1
  Ca2+  Ca12  1  0.07873872  0.33386938  0.16178547  1
  Ca2+  Ca13  1  0.07384091  0.32820562  0.48863919  1
  Ca2+  Ca14  1  0.08325730  0.33841194  0.83224587  1
  Ca2+  Ca15  1  0.08282465  0.83329019  0.15898821  1
  Ca2+  Ca16  1  0.08490570  0.83557370  0.50003087  1
  Ca2+  Ca17  1  0.08344567  0.83864369  0.83031677  1
  Ca2+  Ca18  1  0.58308670  0.32466964  0.15852201  1
  Ca2+  Ca19  1  0.58822668  0.32507857  0.49888610  1
  Ca2+  Ca20  1  0.59163175  0.32713092  0.83391087  1
  Ca2+  Ca21  1  0.57955619  0.82750371  0.15785237  1
  Ca2+  Ca22  1  0.57830916  0.81976571  0.49883775  1
  Ca2+  Ca23  1  0.57241308  0.83103951  0.82720778  1
  Ca2+  Ca24  1  0.34484551  0.42495486  0.16627726  1
  Ca2+  Ca25  1  0.33860691  0.42726075  0.50400980  1
  Ca2+  Ca26  1  0.33713111  0.42670785  0.84302105  1
  Ca2+  Ca27  1  0.33114186  0.91171454  0.16429743  1
  Ca2+  Ca28  1  0.32968449  0.92213188  0.51202098  1
  Ca2+  Ca29  1  0.32987937  0.91113508  0.83745156  1
  Ca2+  Ca30  1  0.82896415  0.41581541  0.16512906  1
  Ca2+  Ca31  1  0.82821072  0.41895531  0.50727028  1
  Ca2+  Ca32  1  0.82048173  0.42620098  0.83650808  1
  Ca2+  Ca33  1  0.82452840  0.92803511  0.16484792  1
  Ca2+  Ca34  1  0.83099201  0.92464614  0.50081459  1
  Ca2+  Ca35  1  0.82026307  0.92272247  0.84362390  1
  Ca2+  Ca36  1  0.42820229  0.17193816  0.15479261  1
  Ca2+  Ca37  1  0.42735918  0.16187046  0.49775162  1
  Ca2+  Ca38  1  0.42761712  0.16939497  0.82749661  1
  Ca2+  Ca39  1  0.41623159  0.66736217  0.16179958  1
  Ca2+  Ca40  1  0.42296829  0.66249336  0.49830295  1
  Ca2+  Ca41  1  0.41371208  0.67318681  0.82740570  1
  Ca2+  Ca42  1  0.91596421  0.16506036  0.16639440  1
  Ca2+  Ca43  1  0.92141904  0.17290946  0.48616109  1
  Ca2+  Ca44  1  0.91573840  0.16485182  0.83203248  1
  Ca2+  Ca45  1  0.91828315  0.66499682  0.15822784  1
  Ca2+  Ca46  1  0.91630142  0.66657404  0.49698064  1
  Ca2+  Ca47  1  0.91565899  0.65888907  0.82893348  1
  Al0+  Al48  1  -0.00006716  -0.00076745  0.00513373  1
  Al0+  Al49  1  -0.00236004  -0.00018746  0.33442799  1
  Al0+  Al50  1  0.00048290  0.00005847  0.66803118  1
  Al0+  Al51  1  0.00265198  0.49987229  0.00450881  1
  Al0+  Al52  1  -0.00004057  0.50060532  0.32921033  1
  Al0+  Al53  1  -0.00089747  0.50100177  0.66586035  1
  Al0+  Al54  1  0.49857005  -0.00241194  -0.00369594  1
  Al0+  Al55  1  0.49880183  -0.00341500  0.33032426  1
  Al0+  Al56  1  0.50094468  0.00119702  0.65963523  1
  Al0+  Al57  1  0.50217917  0.49983591  0.00531997  1
  Al0+  Al58  1  0.50156929  0.50062550  0.33590355  1
  Al0+  Al59  1  0.50011990  0.49760332  0.67278404  1
  Al0+  Al60  1  0.24839605  0.24917085  -0.00211887  1
  Al0+  Al61  1  0.24887260  0.24948007  0.33076016  1
  Al0+  Al62  1  0.25010261  0.24854107  0.66874479  1
  Al0+  Al63  1  0.24878410  0.74839905  0.00421833  1
  Al0+  Al64  1  0.24903463  0.74927771  0.33867967  1
  Al0+  Al65  1  0.24661953  0.75006572  0.66882574  1
  Al0+  Al66  1  0.75432680  0.25254876  0.00173180  1
  Al0+  Al67  1  0.75061233  0.25051925  0.33015906  1
  Al0+  Al68  1  0.75155627  0.25250937  0.66645467  1
  Al0+  Al69  1  0.75175344  0.75336706  0.00627979  1
  Al0+  Al70  1  0.74897566  0.75017775  0.32915791  1
  Al0+  Al71  1  0.75200877  0.75280568  0.66422704  1
  Al0+  Al72  1  0.67883463  0.42808455  0.68175899  1
  Al0+  Al73  1  0.67955456  0.42979113  0.01801634  1
  Al0+  Al74  1  0.32253516  0.57009171  0.01543982  1
  Al0+  Al75  1  0.82162697  0.57391368  0.67864319  1
  Al0+  Al76  1  0.57076608  0.67823531  0.31901715  1
  Al0+  Al77  1  0.57285589  0.18009709  0.98478396  1
  Al0+  Al78  1  0.57216633  0.18020743  0.65246968  1
  Al0+  Al79  1  0.32068738  0.56926909  0.34964646  1
  Al0+  Al80  1  0.42742880  0.81796471  0.98670312  1
  Al0+  Al81  1  0.67402362  0.92986712  0.01444564  1
  Al0+  Al82  1  0.56953045  0.17792094  0.31936432  1
  Al0+  Al83  1  0.82155897  0.57236385  0.01572603  1
  Al0+  Al84  1  0.17879975  0.92975539  0.68178935  1
  Al0+  Al85  1  0.81725408  0.07019781  0.34860318  1
  Al0+  Al86  1  0.92894458  0.32241990  0.31566215  1
  Al0+  Al87  1  0.18030639  0.92946967  0.01503499  1
  Al0+  Al88  1  0.17942554  0.42561203  0.01479003  1
  Al0+  Al89  1  0.57150495  0.67752517  0.65451131  1
  Al0+  Al90  1  0.42803263  0.32270098  0.98486568  1
  Al0+  Al91  1  0.32105237  0.56981681  0.68061397  1
  Al0+  Al92  1  0.82053524  0.07208678  0.01425709  1
  Al0+  Al93  1  0.32488849  0.07214817  0.68166222  1
  Al0+  Al94  1  0.07196168  0.17734893  0.31731524  1
  Al0+  Al95  1  0.42582839  0.82030426  0.65052382  1
  Si0+  Si96  1  0.92843912  0.82108655  0.31688873  1
  Si0+  Si97  1  0.17665198  0.42759851  0.68001003  1
  Si0+  Si98  1  0.32185676  0.07175125  0.01653706  1
  Si0+  Si99  1  0.17846890  0.92986510  0.34882202  1
  Si0+  Si100  1  0.07053919  0.17758375  0.65287986  1
  Si0+  Si101  1  0.92874182  0.82440841  0.65066440  1
  Si0+  Si102  1  0.82251199  0.57322477  0.34804103  1
  Si0+  Si103  1  0.07046181  0.17548110  0.98237250  1
  Si0+  Si104  1  0.57503547  0.67883364  0.98483206  1
  Si0+  Si105  1  0.67575123  0.92587387  0.35215503  1
  Si0+  Si106  1  0.42518759  0.32166802  0.65016384  1
  Si0+  Si107  1  0.42836337  0.32237509  0.31933631  1
  Si0+  Si108  1  0.93224251  0.32288536  0.98172876  1
  Si0+  Si109  1  0.32237487  0.07158234  0.34633013  1
  Si0+  Si110  1  0.67966708  0.92951837  0.67840628  1
  Si0+  Si111  1  0.06921854  0.67931498  0.98455455  1
  Si0+  Si112  1  0.93149588  0.32101551  0.65237572  1
  Si0+  Si113  1  0.06874352  0.67862916  0.65125987  1
  Si0+  Si114  1  0.92977376  0.82217926  0.98479202  1
  Si0+  Si115  1  0.82074475  0.07187454  0.67952508  1
  Si0+  Si116  1  0.42562536  0.81979723  0.31674138  1
  Si0+  Si117  1  0.17614931  0.42742849  0.35042436  1
  Si0+  Si118  1  0.68094178  0.43011868  0.34963671  1
  Si0+  Si119  1  0.07176555  0.68060528  0.31799506  1
  O2-  O120  1  0.25381430  0.00352319  0.06359064  1
  O2-  O121  1  0.24870673  0.00240544  0.38858929  1
  O2-  O122  1  0.25633096  -0.00405086  0.73072318  1
  O2-  O123  1  0.25754228  0.49060044  0.06464848  1
  O2-  O124  1  0.24674983  0.49296742  0.39610147  1
  O2-  O125  1  0.24878863  0.49148368  0.72448502  1
  O2-  O126  1  0.74137762  0.00725145  0.06323475  1
  O2-  O127  1  0.74036264  -0.00146107  0.39749200  1
  O2-  O128  1  0.74696085  0.00429443  0.72071631  1
  O2-  O129  1  0.74817154  0.50485101  0.06911317  1
  O2-  O130  1  0.75205341  0.50239974  0.39060609  1
  O2-  O131  1  0.74469899  0.50799389  0.72799604  1
  O2-  O132  1  0.00237101  0.25098864  0.26649488  1
  O2-  O133  1  0.00312462  0.25112753  0.60975003  1
  O2-  O134  1  0.00213898  0.24960815  0.93998870  1
  O2-  O135  1  -0.00102432  0.74935708  0.27498754  1
  O2-  O136  1  -0.00223436  0.75053645  0.60920241  1
  O2-  O137  1  -0.00389837  0.74770433  0.94103106  1
  O2-  O138  1  0.49114908  0.24892842  0.27485368  1
  O2-  O139  1  0.49444020  0.25284857  0.60623251  1
  O2-  O140  1  0.50055020  0.25153247  0.93384938  1
  O2-  O141  1  0.49571540  0.75263333  0.27336574  1
  O2-  O142  1  0.49611206  0.74541849  0.60171556  1
  O2-  O143  1  0.50412533  0.74506060  0.94079074  1
  O2-  O144  1  0.06830752  0.17290758  0.08720948  1
  O2-  O145  1  0.06996241  0.17794241  0.43175864  1
  O2-  O146  1  0.06712757  0.17589726  0.75778680  1
  O2-  O147  1  0.06865796  0.68187518  0.09010667  1
  O2-  O148  1  0.07103121  0.68226071  0.42345861  1
  O2-  O149  1  0.06691209  0.67606331  0.75601849  1
  O2-  O150  1  0.57086628  0.18066993  0.09863093  1
  O2-  O151  1  0.57003401  0.18116648  0.43269539  1
  O2-  O152  1  0.57667139  0.18064798  0.76470176  1
  O2-  O153  1  0.57433129  0.68139334  0.09085033  1
  O2-  O154  1  0.57162153  0.67744509  0.43205395  1
  O2-  O155  1  0.57444669  0.68224543  0.76753369  1
  O2-  O156  1  0.17447367  0.43004552  0.24551316  1
  O2-  O157  1  0.17368569  0.43026605  0.57428361  1
  O2-  O158  1  0.17474063  0.43270658  0.90102093  1
  O2-  O159  1  0.17862961  0.92719191  0.24386906  1
  O2-  O160  1  0.17397539  0.93446810  0.56767105  1
  O2-  O161  1  0.17843160  0.93085285  0.90257849  1
  O2-  O162  1  0.68022733  0.43101880  0.24503030  1
  O2-  O163  1  0.68440005  0.42444767  0.56751414  1
  O2-  O164  1  0.68285778  0.42922669  0.90468075  1
  O2-  O165  1  0.67818577  0.92489035  0.24705179  1
  O2-  O166  1  0.68408775  0.92771124  0.57323292  1
  O2-  O167  1  0.67833721  0.92772312  0.90018108  1
  O2-  O168  1  0.42948190  0.31851595  0.09914841  1
  O2-  O169  1  0.43030443  0.32325808  0.42513799  1
  O2-  O170  1  0.42168383  0.32000686  0.75497970  1
  O2-  O171  1  0.42587175  0.81502275  0.10020991  1
  O2-  O172  1  0.42429166  0.81987728  0.42203492  1
  O2-  O173  1  0.42700860  0.81883571  0.76396683  1
  O2-  O174  1  0.93364175  0.32406190  0.08651830  1
  O2-  O175  1  0.93035094  0.32206573  0.43034781  1
  O2-  O176  1  0.93289477  0.32063725  0.75728367  1
  O2-  O177  1  0.93378464  0.82263257  0.09011799  1
  O2-  O178  1  0.92929861  0.82075998  0.42249012  1
  O2-  O179  1  0.92956280  0.82893628  0.75524081  1
  O2-  O180  1  0.32301225  0.06957018  0.24151670  1
  O2-  O181  1  0.31982625  0.07280256  0.56707837  1
  O2-  O182  1  0.31965721  0.07061476  0.91129712  1
  O2-  O183  1  0.31885094  0.57053231  0.23729042  1
  O2-  O184  1  0.31868555  0.56887970  0.56697379  1
  O2-  O185  1  0.31737387  0.57345707  0.90211119  1
  O2-  O186  1  0.81824922  0.06747508  0.23643424  1
  O2-  O187  1  0.82240516  0.07075796  0.57432096  1
  O2-  O188  1  0.82358288  0.06749975  0.89981757  1
  O2-  O189  1  0.82277129  0.57405148  0.24350782  1
  O2-  O190  1  0.82555437  0.56962830  0.56463613  1
  O2-  O191  1  0.82229220  0.57004150  0.90218448  1
  O2-  O192  1  0.04054807  0.07873243  0.26617368  1
  O2-  O193  1  0.03923608  0.08749095  0.60362664  1
  O2-  O194  1  0.03719124  0.08501246  0.93502978  1
  O2-  O195  1  0.04632853  0.58865460  0.27064715  1
  O2-  O196  1  0.04026750  0.58809848  0.60046462  1
  O2-  O197  1  0.04294078  0.58701929  0.93752560  1
  O2-  O198  1  0.54316287  0.07908032  0.26780390  1
  O2-  O199  1  0.54595830  0.08406043  0.59460485  1
  O2-  O200  1  0.54517375  0.08040753  0.93402439  1
  O2-  O201  1  0.53952430  0.58154393  0.26608564  1
  O2-  O202  1  0.54666338  0.57634327  0.60432558  1
  O2-  O203  1  0.55322601  0.58319273  0.94318917  1
  O2-  O204  1  0.17177643  0.20048686  0.26469826  1
  O2-  O205  1  0.16385202  0.20114094  0.60636383  1
  O2-  O206  1  0.16285873  0.19916977  0.93453683  1
  O2-  O207  1  0.16234108  0.71233398  0.27120246  1
  O2-  O208  1  0.15905881  0.70775486  0.60173315  1
  O2-  O209  1  0.15973718  0.71032173  0.93772099  1
  O2-  O210  1  0.66495498  0.21152776  0.26674410  1
  O2-  O211  1  0.66888275  0.21484235  0.59808811  1
  O2-  O212  1  0.67342280  0.20825844  0.93487083  1
  O2-  O213  1  0.66726257  0.70807584  0.26430208  1
  O2-  O214  1  0.66969330  0.70943824  0.59980411  1
  O2-  O215  1  0.66919526  0.70656766  0.94114408  1
  O2-  O216  1  0.08562165  0.46268487  0.07138119  1
  O2-  O217  1  0.08294405  0.45691549  0.39664552  1
  O2-  O218  1  0.08497923  0.45776660  0.72736331  1
  O2-  O219  1  0.08456924  0.96039023  0.07039577  1
  O2-  O220  1  0.08595931  0.95549323  0.39607662  1
  O2-  O221  1  0.08168463  0.96302265  0.73579389  1
  O2-  O222  1  0.58141924  0.45381249  0.07293740  1
  O2-  O223  1  0.58978241  0.45765318  0.39817383  1
  O2-  O224  1  0.57943098  0.44624579  0.73468327  1
  O2-  O225  1  0.57400788  0.94973063  0.06679131  1
  O2-  O226  1  0.57969369  0.94570250  0.39535215  1
  O2-  O227  1  0.58649174  0.95386359  0.72260494  1
  O2-  O228  1  0.19493409  0.32340150  0.06420113  1
  O2-  O229  1  0.19726187  0.33157339  0.39448394  1
  O2-  O230  1  0.19468181  0.33197304  0.72424133  1
  O2-  O231  1  0.20924667  0.83330170  0.07053974  1
  O2-  O232  1  0.20628703  0.83881775  0.39824613  1
  O2-  O233  1  0.19730559  0.82916584  0.73301560  1
  O2-  O234  1  0.71411651  0.33343617  0.07078236  1
  O2-  O235  1  0.71072301  0.33866725  0.39627199  1
  O2-  O236  1  0.71842699  0.33391109  0.73650589  1
  O2-  O237  1  0.71030869  0.83583678  0.07144213  1
  O2-  O238  1  0.70899645  0.83391648  0.39821834  1
  O2-  O239  1  0.71215521  0.84062219  0.72781243  1
  O2-  O240  1  0.46033634  0.41370664  0.27315960  1
  O2-  O241  1  0.45190475  0.41540536  0.60506251  1
  O2-  O242  1  0.45493397  0.42335390  0.93613572  1
  O2-  O243  1  0.44853823  0.91342560  0.26960123  1
  O2-  O244  1  0.45612437  0.91784740  0.59628380  1
  O2-  O245  1  0.45307128  0.91532710  0.93194213  1
  O2-  O246  1  0.95602334  0.42153112  0.26290754  1
  O2-  O247  1  0.95847276  0.41263849  0.60323623  1
  O2-  O248  1  0.96461168  0.41372230  0.93468521  1
  O2-  O249  1  0.95856459  0.91176404  0.26990146  1
  O2-  O250  1  0.96116846  0.91426222  0.60021050  1
  O2-  O251  1  0.96257063  0.91214623  0.93664788  1
  O2-  O252  1  0.33234353  0.30459813  0.27565339  1
  O2-  O253  1  0.33103795  0.29760272  0.60235334  1
  O2-  O254  1  0.32740189  0.29797648  0.93362787  1
  O2-  O255  1  0.33161446  0.79209614  0.27198573  1
  O2-  O256  1  0.32450396  0.79631818  0.60030812  1
  O2-  O257  1  0.33023652  0.78543869  0.93404475  1
  O2-  O258  1  0.83196125  0.29203045  0.26306462  1
  O2-  O259  1  0.84105893  0.29186785  0.60358855  1
  O2-  O260  1  0.84089763  0.29582668  0.93375809  1
  O2-  O261  1  0.83713174  0.79445489  0.26898719  1
  O2-  O262  1  0.83800959  0.80005944  0.59936570  1
  O2-  O263  1  0.83594009  0.79980815  0.93903933  1
  O2-  O264  1  0.41498152  0.04522414  0.06200748  1
  O2-  O265  1  0.41305233  0.04082772  0.39503101  1
  O2-  O266  1  0.42599930  0.04937233  0.72986274  1
  O2-  O267  1  0.42166949  0.54860506  0.06930545  1
  O2-  O268  1  0.41742528  0.53763954  0.40351379  1
  O2-  O269  1  0.41718116  0.54342751  0.73556102  1
  O2-  O270  1  0.91478944  0.03459354  0.06958564  1
  O2-  O271  1  0.91370098  0.03574478  0.40309749  1
  O2-  O272  1  0.91114929  0.04112112  0.72732428  1
  O2-  O273  1  0.91937953  0.54135439  0.06836175  1
  O2-  O274  1  0.91583338  0.54696931  0.39422273  1
  O2-  O275  1  0.91823700  0.54007673  0.73273428  1
  O2-  O276  1  0.29524655  0.16497641  0.06206844  1
  O2-  O277  1  0.29764034  0.16453857  0.39350608  1
  O2-  O278  1  0.29201008  0.16863795  0.73586283  1
  O2-  O279  1  0.28376137  0.66374059  0.07119608  1
  O2-  O280  1  0.28559855  0.66480260  0.40423962  1
  O2-  O281  1  0.28439016  0.66451139  0.73299936  1
  O2-  O282  1  0.80348358  0.17264414  0.06506748  1
  O2-  O283  1  0.78982859  0.16866797  0.40144652  1
  O2-  O284  1  0.79777748  0.16468790  0.72593486  1
  O2-  O285  1  0.80259272  0.67328646  0.06697006  1
  O2-  O286  1  0.79647623  0.66644615  0.39398889  1
  O2-  O287  1  0.80486222  0.67623260  0.72761558  1
