# generated using pymatgen
data_Ca2Al2SiO7
_symmetry_space_group_name_H-M   'P 1'
_cell_length_a   15.45616648
_cell_length_b   15.45687532
_cell_length_c   15.28178493
_cell_angle_alpha   90.02089684
_cell_angle_beta   90.00296427
_cell_angle_gamma   89.99910659
_symmetry_Int_Tables_number   1
_chemical_formula_structural   Ca2Al2SiO7
_chemical_formula_sum   'Ca48 Al48 Si24 O168'
_cell_volume   3650.87988449
_cell_formula_units_Z   24
loop_
 _symmetry_equiv_pos_site_id
 _symmetry_equiv_pos_as_xyz
  1  'x, y, z'
loop_
 _atom_type_symbol
 _atom_type_oxidation_number
  Ca2+  2.0
  Al0+  0.0
  Si0+  0.0
  O2-  -2.0
loop_
 _atom_site_type_symbol
 _atom_site_label
 _atom_site_symmetry_multiplicity
 _atom_site_fract_x
 _atom_site_fract_y
 _atom_site_fract_z
 _atom_site_occupancy
  Ca2+  Ca0  1  0.17281057  0.07817301  0.17167243  1
  Ca2+  Ca1  1  0.17527202  0.07656506  0.50515627  1
  Ca2+  Ca2  1  0.16645154  0.07229049  0.83601882  1
  Ca2+  Ca3  1  0.16369498  0.57768188  0.17430424  1
  Ca2+  Ca4  1  0.16223326  0.57656306  0.50294542  1
  Ca2+  Ca5  1  0.17079181  0.57834566  0.83235804  1
  Ca2+  Ca6  1  0.67631929  0.07707275  0.17901168  1
  Ca2+  Ca7  1  0.66724407  0.07442718  0.50245702  1
  Ca2+  Ca8  1  0.65966753  0.08022521  0.82934989  1
  Ca2+  Ca9  1  0.66886494  0.57565769  0.17120658  1
  Ca2+  Ca10  1  0.66859537  0.57871700  0.50369631  1
  Ca2+  Ca11  1  0.65697271  0.57554850  0.83661673  1
  Ca2+  Ca12  1  0.07653436  0.33373314  0.16242722  1
  Ca2+  Ca13  1  0.07927851  0.34146195  0.49600155  1
  Ca2+  Ca14  1  0.07098105  0.33886378  0.82564591  1
  Ca2+  Ca15  1  0.07269259  0.83288509  0.16273875  1
  Ca2+  Ca16  1  0.07983614  0.82758296  0.48961476  1
  Ca2+  Ca17  1  0.08051206  0.84079924  0.82997046  1
  Ca2+  Ca18  1  0.58232503  0.33677803  0.15877674  1
  Ca2+  Ca19  1  0.58585001  0.33331035  0.50104164  1
  Ca2+  Ca20  1  0.57640846  0.33428956  0.82238318  1
  Ca2+  Ca21  1  0.58317647  0.83015983  0.16486615  1
  Ca2+  Ca22  1  0.57891262  0.83834673  0.49557032  1
  Ca2+  Ca23  1  0.58222848  0.82136394  0.82104747  1
  Ca2+  Ca24  1  0.32956305  0.41768714  0.17336761  1
  Ca2+  Ca25  1  0.32142901  0.41354062  0.50722800  1
  Ca2+  Ca26  1  0.33466331  0.40985449  0.83571169  1
  Ca2+  Ca27  1  0.33172404  0.92072756  0.17497579  1
  Ca2+  Ca28  1  0.33667844  0.91688795  0.50680362  1
  Ca2+  Ca29  1  0.32344271  0.90742342  0.83428456  1
  Ca2+  Ca30  1  0.82306648  0.41943849  0.17537718  1
  Ca2+  Ca31  1  0.82587004  0.42225075  0.50505412  1
  Ca2+  Ca32  1  0.82227009  0.41049058  0.83662515  1
  Ca2+  Ca33  1  0.83168596  0.91676129  0.17640011  1
  Ca2+  Ca34  1  0.82464160  0.91413916  0.50202206  1
  Ca2+  Ca35  1  0.82846166  0.91533765  0.83705298  1
  Ca2+  Ca36  1  0.41660768  0.17173275  0.16466975  1
  Ca2+  Ca37  1  0.42132184  0.16563195  0.49892539  1
  Ca2+  Ca38  1  0.42292836  0.17764368  0.82557907  1
  Ca2+  Ca39  1  0.42350500  0.67162208  0.16362858  1
  Ca2+  Ca40  1  0.42175836  0.67809149  0.49859707  1
  Ca2+  Ca41  1  0.42935429  0.66814220  0.82613907  1
  Ca2+  Ca42  1  0.91462582  0.16996878  0.16223444  1
  Ca2+  Ca43  1  0.91253892  0.17135792  0.49845262  1
  Ca2+  Ca44  1  0.91486814  0.17898800  0.82897553  1
  Ca2+  Ca45  1  0.91367832  0.67302372  0.16996521  1
  Ca2+  Ca46  1  0.92062928  0.66898397  0.48867644  1
  Ca2+  Ca47  1  0.91690916  0.67289613  0.83232336  1
  Al0+  Al48  1  0.00023061  -0.00099863  0.00048555  1
  Al0+  Al49  1  0.00150056  0.00234463  0.33317845  1
  Al0+  Al50  1  0.00024917  0.00245212  0.67024041  1
  Al0+  Al51  1  -0.00066474  0.50190107  -0.00430919  1
  Al0+  Al52  1  -0.00123010  0.49952729  0.33404676  1
  Al0+  Al53  1  0.00004958  0.50152222  0.66861722  1
  Al0+  Al54  1  0.49827523  0.00006804  0.00031744  1
  Al0+  Al55  1  0.50009426  0.00235560  0.33357370  1
  Al0+  Al56  1  0.50102956  0.00188117  0.66744971  1
  Al0+  Al57  1  0.49883244  0.49991402  -0.00197318  1
  Al0+  Al58  1  0.49717247  0.50036881  0.33705501  1
  Al0+  Al59  1  0.49966872  0.50114336  0.65973519  1
  Al0+  Al60  1  0.24989777  0.24814509  -0.00357938  1
  Al0+  Al61  1  0.24974707  0.24897643  0.34031879  1
  Al0+  Al62  1  0.24783366  0.24845054  0.67029588  1
  Al0+  Al63  1  0.24854389  0.74840680  0.00660839  1
  Al0+  Al64  1  0.25111976  0.74845372  0.32299062  1
  Al0+  Al65  1  0.25013815  0.74882812  0.66851408  1
  Al0+  Al66  1  0.74943351  0.24838895  0.00022562  1
  Al0+  Al67  1  0.74888625  0.24828928  0.33901721  1
  Al0+  Al68  1  0.75126546  0.25178205  0.66217658  1
  Al0+  Al69  1  0.75129699  0.74832846  -0.00774657  1
  Al0+  Al70  1  0.74948853  0.74826836  0.33595010  1
  Al0+  Al71  1  0.75183196  0.75039042  0.66750584  1
  Al0+  Al72  1  0.17850944  0.92836555  0.01689099  1
  Al0+  Al73  1  0.93090606  0.82101099  0.98473292  1
  Al0+  Al74  1  0.56991660  0.68058283  0.98733797  1
  Al0+  Al75  1  0.18013616  0.43027436  0.34487415  1
  Al0+  Al76  1  0.42940698  0.32011360  0.98847787  1
  Al0+  Al77  1  0.92809616  0.82257745  0.32010601  1
  Al0+  Al78  1  0.67546060  0.42801876  0.34931640  1
  Al0+  Al79  1  0.92829691  0.32136850  0.98794652  1
  Al0+  Al80  1  0.93083848  0.32240924  0.65082428  1
  Al0+  Al81  1  0.82042858  0.57020494  0.34753944  1
  Al0+  Al82  1  0.82522421  0.07164732  0.34877899  1
  Al0+  Al83  1  0.57183455  0.17976450  0.64946437  1
  Al0+  Al84  1  0.67915344  0.92911182  0.68215553  1
  Al0+  Al85  1  0.43079031  0.82357222  0.31791469  1
  Al0+  Al86  1  0.32079285  0.07035664  0.34750630  1
  Al0+  Al87  1  0.57440251  0.67846394  0.64850767  1
  Al0+  Al88  1  0.17977886  0.92814190  0.67881467  1
  Al0+  Al89  1  0.42862716  0.82027990  0.65393879  1
  Al0+  Al90  1  0.67976403  0.43090346  0.68100645  1
  Al0+  Al91  1  0.42615144  0.32166071  0.64903945  1
  Al0+  Al92  1  0.07100147  0.67639697  0.31729891  1
  Al0+  Al93  1  0.67971664  0.92827862  0.34633406  1
  Al0+  Al94  1  0.17838488  0.42818557  0.68247132  1
  Al0+  Al95  1  0.67890326  0.42908351  0.01221147  1
  Si0+  Si96  1  0.57284761  0.17597627  0.98485952  1
  Si0+  Si97  1  0.07065494  0.17657597  0.64942920  1
  Si0+  Si98  1  0.32115197  0.56930633  0.01569928  1
  Si0+  Si99  1  0.92818859  0.31929602  0.31868171  1
  Si0+  Si100  1  0.67897265  0.92665061  0.01264202  1
  Si0+  Si101  1  0.82207079  0.07221268  0.68564213  1
  Si0+  Si102  1  0.82327529  0.57307652  0.01627171  1
  Si0+  Si103  1  0.93037536  0.82373568  0.65231175  1
  Si0+  Si104  1  0.17744981  0.42837650  0.01362535  1
  Si0+  Si105  1  0.17965865  0.92662496  0.34773191  1
  Si0+  Si106  1  0.32232479  0.57471470  0.35022564  1
  Si0+  Si107  1  0.81989669  0.06999436  0.01377628  1
  Si0+  Si108  1  0.07178930  0.17809950  0.98313125  1
  Si0+  Si109  1  0.42655490  0.82329127  0.98450683  1
  Si0+  Si110  1  0.32095657  0.57114839  0.68316759  1
  Si0+  Si111  1  0.32180447  0.07264722  0.01724412  1
  Si0+  Si112  1  0.07059913  0.68054360  0.65335736  1
  Si0+  Si113  1  0.82344758  0.57312333  0.68615039  1
  Si0+  Si114  1  0.32320883  0.07200287  0.68633098  1
  Si0+  Si115  1  0.07379358  0.18010692  0.31882166  1
  Si0+  Si116  1  0.07465756  0.67756021  0.98072824  1
  Si0+  Si117  1  0.57142378  0.67605210  0.31598327  1
  Si0+  Si118  1  0.42710672  0.32046706  0.31956296  1
  Si0+  Si119  1  0.57123041  0.18073903  0.31696618  1
  O2-  O120  1  0.25598179  0.00119026  0.06165872  1
  O2-  O121  1  0.25112622  -0.00918486  0.39365048  1
  O2-  O122  1  0.25613450  0.00011287  0.72837481  1
  O2-  O123  1  0.24875312  0.49827711  0.05673193  1
  O2-  O124  1  0.25169153  0.50718629  0.39268296  1
  O2-  O125  1  0.25828666  0.49713257  0.72958495  1
  O2-  O126  1  0.74822994  -0.00080512  0.05513443  1
  O2-  O127  1  0.75667822  -0.00456380  0.39615306  1
  O2-  O128  1  0.75346897  0.00385331  0.73083259  1
  O2-  O129  1  0.75654518  0.50116202  0.05844718  1
  O2-  O130  1  0.74709226  0.50058085  0.39815903  1
  O2-  O131  1  0.75201485  0.50714564  0.73020279  1
  O2-  O132  1  -0.00097545  0.24755347  0.27623531  1
  O2-  O133  1  0.00744812  0.24945030  0.60400128  1
  O2-  O134  1  0.00553896  0.24950319  0.93980955  1
  O2-  O135  1  0.00089630  0.75139688  0.26884376  1
  O2-  O136  1  0.00150603  0.75296537  0.61138594  1
  O2-  O137  1  0.00783438  0.74844185  0.93712427  1
  O2-  O138  1  0.50286674  0.25527542  0.27551859  1
  O2-  O139  1  0.49903932  0.25099627  0.59850930  1
  O2-  O140  1  0.50531993  0.24664236  0.94274660  1
  O2-  O141  1  0.50553332  0.74809894  0.27177665  1
  O2-  O142  1  0.50506691  0.75474430  0.60151432  1
  O2-  O143  1  0.49816523  0.75838275  0.94059321  1
  O2-  O144  1  0.07258975  0.17941182  0.08911614  1
  O2-  O145  1  0.07658496  0.18174636  0.42345266  1
  O2-  O146  1  0.06654413  0.17442305  0.75530447  1
  O2-  O147  1  0.07438299  0.67488314  0.08574142  1
  O2-  O148  1  0.07096426  0.67758920  0.43145338  1
  O2-  O149  1  0.07006216  0.68049203  0.75874571  1
  O2-  O150  1  0.57288687  0.17435419  0.09064429  1
  O2-  O151  1  0.57008997  0.17884799  0.42132640  1
  O2-  O152  1  0.56974398  0.18090576  0.76400641  1
  O2-  O153  1  0.56836051  0.68141796  0.10062301  1
  O2-  O154  1  0.56882834  0.67468832  0.42094012  1
  O2-  O155  1  0.57124546  0.67855919  0.76279901  1
  O2-  O156  1  0.18236901  0.42796613  0.23083961  1
  O2-  O157  1  0.17609938  0.43300692  0.56954245  1
  O2-  O158  1  0.17755614  0.43016248  0.90876375  1
  O2-  O159  1  0.17978228  0.93167860  0.24196763  1
  O2-  O160  1  0.17870725  0.92929060  0.56593581  1
  O2-  O161  1  0.17938014  0.93044699  0.90347995  1
  O2-  O162  1  0.67666510  0.42781715  0.23474245  1
  O2-  O163  1  0.68341956  0.43151595  0.56848382  1
  O2-  O164  1  0.67814796  0.42912670  0.89939229  1
  O2-  O165  1  0.67926723  0.93163870  0.23153596  1
  O2-  O166  1  0.68173116  0.92898294  0.56959106  1
  O2-  O167  1  0.67992733  0.92822284  0.90771287  1
  O2-  O168  1  0.42765558  0.31893007  0.10214016  1
  O2-  O169  1  0.42406865  0.31724925  0.42377450  1
  O2-  O170  1  0.42772072  0.31924256  0.76332297  1
  O2-  O171  1  0.42852309  0.82353928  0.09020580  1
  O2-  O172  1  0.42995695  0.82277093  0.43064572  1
  O2-  O173  1  0.42620551  0.81479199  0.76799455  1
  O2-  O174  1  0.92971896  0.31879673  0.10142345  1
  O2-  O175  1  0.93081327  0.31965011  0.42350004  1
  O2-  O176  1  0.93070279  0.32019952  0.76451217  1
  O2-  O177  1  0.92966030  0.82139810  0.09729516  1
  O2-  O178  1  0.93203141  0.82229703  0.43400699  1
  O2-  O179  1  0.93170773  0.82348230  0.75786949  1
  O2-  O180  1  0.31748740  0.07324866  0.23390885  1
  O2-  O181  1  0.32085550  0.07263297  0.58064318  1
  O2-  O182  1  0.32135408  0.07433805  0.91220161  1
  O2-  O183  1  0.32529897  0.57034348  0.24404591  1
  O2-  O184  1  0.31446375  0.57480319  0.57800860  1
  O2-  O185  1  0.32064286  0.57005543  0.91073995  1
  O2-  O186  1  0.82131642  0.07498807  0.23425441  1
  O2-  O187  1  0.82534869  0.06870824  0.58053140  1
  O2-  O188  1  0.82032380  0.07080370  0.90886278  1
  O2-  O189  1  0.82000713  0.56724054  0.23328837  1
  O2-  O190  1  0.82691627  0.57144707  0.58086768  1
  O2-  O191  1  0.82410207  0.57396270  0.91080257  1
  O2-  O192  1  0.04987454  0.08794641  0.26967007  1
  O2-  O193  1  0.04079725  0.08493908  0.60116556  1
  O2-  O194  1  0.04266420  0.08575674  0.93710778  1
  O2-  O195  1  0.03957367  0.57866574  0.26293721  1
  O2-  O196  1  0.04095440  0.58969253  0.60580478  1
  O2-  O197  1  0.04735098  0.58520479  0.93222301  1
  O2-  O198  1  0.54004250  0.09116363  0.26693400  1
  O2-  O199  1  0.54334416  0.08101147  0.59765448  1
  O2-  O200  1  0.54465860  0.08313053  0.93730019  1
  O2-  O201  1  0.54038119  0.58341781  0.26893211  1
  O2-  O202  1  0.54295929  0.58269112  0.59399717  1
  O2-  O203  1  0.53377659  0.58613552  0.93274591  1
  O2-  O204  1  0.16367585  0.21258234  0.26930787  1
  O2-  O205  1  0.16665385  0.19606744  0.60734789  1
  O2-  O206  1  0.16560110  0.19972184  0.93603481  1
  O2-  O207  1  0.16991918  0.69885733  0.26221432  1
  O2-  O208  1  0.16240125  0.70608129  0.60598596  1
  O2-  O209  1  0.16968471  0.70141604  0.93647729  1
  O2-  O210  1  0.66427744  0.20621058  0.26960820  1
  O2-  O211  1  0.67025081  0.20659195  0.59720501  1
  O2-  O212  1  0.66664260  0.19806596  0.93856819  1
  O2-  O213  1  0.66610935  0.69823974  0.27104255  1
  O2-  O214  1  0.67517986  0.70354189  0.59977684  1
  O2-  O215  1  0.66614095  0.70650885  0.93099030  1
  O2-  O216  1  0.08548074  0.45752098  0.06055157  1
  O2-  O217  1  0.08325387  0.45847763  0.39834693  1
  O2-  O218  1  0.08426501  0.46627508  0.73773399  1
  O2-  O219  1  0.08259218  0.96286665  0.07024789  1
  O2-  O220  1  0.08750922  0.95545455  0.39398105  1
  O2-  O221  1  0.08461734  0.96313764  0.73521432  1
  O2-  O222  1  0.58236456  0.46175271  0.06597304  1
  O2-  O223  1  0.57616074  0.45365443  0.40080226  1
  O2-  O224  1  0.57997093  0.45947610  0.73079883  1
  O2-  O225  1  0.58511818  0.95133786  0.05826081  1
  O2-  O226  1  0.58392370  0.96390691  0.39893274  1
  O2-  O227  1  0.58253640  0.95977524  0.73710341  1
  O2-  O228  1  0.20331947  0.33470949  0.05849733  1
  O2-  O229  1  0.21208029  0.33605933  0.40178297  1
  O2-  O230  1  0.20065345  0.32914244  0.73590807  1
  O2-  O231  1  0.20466819  0.83052991  0.07056610  1
  O2-  O232  1  0.20098926  0.82998204  0.38790348  1
  O2-  O233  1  0.20794687  0.83145948  0.73533573  1
  O2-  O234  1  0.70694244  0.33079303  0.06561696  1
  O2-  O235  1  0.70435333  0.33020134  0.40095189  1
  O2-  O236  1  0.71309790  0.33361273  0.73316113  1
  O2-  O237  1  0.70916070  0.83499961  0.05834861  1
  O2-  O238  1  0.70025022  0.82866311  0.39854630  1
  O2-  O239  1  0.71251903  0.83281422  0.73629025  1
  O2-  O240  1  0.44880369  0.41503510  0.27393856  1
  O2-  O241  1  0.44926220  0.42089838  0.59725555  1
  O2-  O242  1  0.45681591  0.41642207  0.93345591  1
  O2-  O243  1  0.46096618  0.92055076  0.26313523  1
  O2-  O244  1  0.45087483  0.92135114  0.60564099  1
  O2-  O245  1  0.44577925  0.91880660  0.93971788  1
  O2-  O246  1  0.95734092  0.40995198  0.27036520  1
  O2-  O247  1  0.96284924  0.41961012  0.59917729  1
  O2-  O248  1  0.95690479  0.41810368  0.93311893  1
  O2-  O249  1  0.95613016  0.92215641  0.26716512  1
  O2-  O250  1  0.95775704  0.91613402  0.60714555  1
  O2-  O251  1  0.96111746  0.91804912  0.93059708  1
  O2-  O252  1  0.33685784  0.28682667  0.27132389  1
  O2-  O253  1  0.32558397  0.29207073  0.60083734  1
  O2-  O254  1  0.33303426  0.28945096  0.93297421  1
  O2-  O255  1  0.33531029  0.79293547  0.26084965  1
  O2-  O256  1  0.33111770  0.78801373  0.60018109  1
  O2-  O257  1  0.33254653  0.79327661  0.94219462  1
  O2-  O258  1  0.83575633  0.29051062  0.27259656  1
  O2-  O259  1  0.83636811  0.28991405  0.59582244  1
  O2-  O260  1  0.83316681  0.28636240  0.93327897  1
  O2-  O261  1  0.82916068  0.79342635  0.26719003  1
  O2-  O262  1  0.83896855  0.79571638  0.60600882  1
  O2-  O263  1  0.83622108  0.78869857  0.92777184  1
  O2-  O264  1  0.41654052  0.04988607  0.06387745  1
  O2-  O265  1  0.41795702  0.04401957  0.40051556  1
  O2-  O266  1  0.41729269  0.05070183  0.73226500  1
  O2-  O267  1  0.41106891  0.53936328  0.06524550  1
  O2-  O268  1  0.41393490  0.54873387  0.39871514  1
  O2-  O269  1  0.41674805  0.55044055  0.72592589  1
  O2-  O270  1  0.91196704  0.04317353  0.06109204  1
  O2-  O271  1  0.92599549  0.05208335  0.40050638  1
  O2-  O272  1  0.91501921  0.04651633  0.73405173  1
  O2-  O273  1  0.91856100  0.55066241  0.06073257  1
  O2-  O274  1  0.91776057  0.54015847  0.40149073  1
  O2-  O275  1  0.91597999  0.54573983  0.73402400  1
  O2-  O276  1  0.29234978  0.16535568  0.06472161  1
  O2-  O277  1  0.28550216  0.16318657  0.40493075  1
  O2-  O278  1  0.29302084  0.16351374  0.73460611  1
  O2-  O279  1  0.29449068  0.66038088  0.06556276  1
  O2-  O280  1  0.29787010  0.66953210  0.39330385  1
  O2-  O281  1  0.28861922  0.66094706  0.73396673  1
  O2-  O282  1  0.79258679  0.16103984  0.06348279  1
  O2-  O283  1  0.79220681  0.16709227  0.40370317  1
  O2-  O284  1  0.79559240  0.16644480  0.72968186  1
  O2-  O285  1  0.79366928  0.66603127  0.06177503  1
  O2-  O286  1  0.79704577  0.66891188  0.40130531  1
  O2-  O287  1  0.80185005  0.66818937  0.73125160  1
