# generated using pymatgen
data_Ca2Al2SiO7
_symmetry_space_group_name_H-M   'P 1'
_cell_length_a   15.45879497
_cell_length_b   15.45930397
_cell_length_c   15.28456749
_cell_angle_alpha   89.99635292
_cell_angle_beta   89.99813202
_cell_angle_gamma   90.02037791
_symmetry_Int_Tables_number   1
_chemical_formula_structural   Ca2Al2SiO7
_chemical_formula_sum   'Ca48 Al48 Si24 O168'
_cell_volume   3652.73948326
_cell_formula_units_Z   24
loop_
 _symmetry_equiv_pos_site_id
 _symmetry_equiv_pos_as_xyz
  1  'x, y, z'
loop_
 _atom_type_symbol
 _atom_type_oxidation_number
  Ca2+  2.0
  Al0+  0.0
  Si0+  0.0
  O2-  -2.0
loop_
 _atom_site_type_symbol
 _atom_site_label
 _atom_site_symmetry_multiplicity
 _atom_site_fract_x
 _atom_site_fract_y
 _atom_site_fract_z
 _atom_site_occupancy
  Ca2+  Ca0  1  0.17660093  0.08838569  0.17186702  1
  Ca2+  Ca1  1  0.17189565  0.07801260  0.49709458  1
  Ca2+  Ca2  1  0.17153959  0.08431747  0.84121540  1
  Ca2+  Ca3  1  0.17690718  0.57961898  0.17704824  1
  Ca2+  Ca4  1  0.16917218  0.57664965  0.50353482  1
  Ca2+  Ca5  1  0.17820189  0.57696433  0.83462491  1
  Ca2+  Ca6  1  0.66915166  0.08271371  0.16927111  1
  Ca2+  Ca7  1  0.67075946  0.08587332  0.50364463  1
  Ca2+  Ca8  1  0.67584997  0.07976608  0.84165569  1
  Ca2+  Ca9  1  0.66304186  0.57032666  0.17362203  1
  Ca2+  Ca10  1  0.66503261  0.57603840  0.50303980  1
  Ca2+  Ca11  1  0.66753850  0.57286786  0.83413154  1
  Ca2+  Ca12  1  0.07948289  0.33141354  0.15578310  1
  Ca2+  Ca13  1  0.08437546  0.34024143  0.49587148  1
  Ca2+  Ca14  1  0.08264567  0.32889300  0.83155008  1
  Ca2+  Ca15  1  0.08619273  0.83329032  0.17102022  1
  Ca2+  Ca16  1  0.07754252  0.82662351  0.48637732  1
  Ca2+  Ca17  1  0.08357034  0.82983933  0.82876302  1
  Ca2+  Ca18  1  0.58133902  0.33098797  0.16201445  1
  Ca2+  Ca19  1  0.58085029  0.33611114  0.49494023  1
  Ca2+  Ca20  1  0.57564009  0.34184241  0.83084062  1
  Ca2+  Ca21  1  0.58594902  0.82593300  0.16333204  1
  Ca2+  Ca22  1  0.57603016  0.82450119  0.49278237  1
  Ca2+  Ca23  1  0.57804604  0.83475707  0.82798338  1
  Ca2+  Ca24  1  0.33200494  0.42260269  0.17260218  1
  Ca2+  Ca25  1  0.32638705  0.42656477  0.50567372  1
  Ca2+  Ca26  1  0.34004781  0.42329897  0.83762614  1
  Ca2+  Ca27  1  0.32842358  0.93156134  0.17413374  1
  Ca2+  Ca28  1  0.33341826  0.91694380  0.50001487  1
  Ca2+  Ca29  1  0.33615538  0.92280882  0.84018838  1
  Ca2+  Ca30  1  0.82278472  0.40581907  0.16844231  1
  Ca2+  Ca31  1  0.82015934  0.42217302  0.50760785  1
  Ca2+  Ca32  1  0.82208719  0.41427278  0.83766150  1
  Ca2+  Ca33  1  0.83355047  0.91961475  0.16709628  1
  Ca2+  Ca34  1  0.83527485  0.92027202  0.50455156  1
  Ca2+  Ca35  1  0.82763799  0.92740191  0.84120920  1
  Ca2+  Ca36  1  0.41584930  0.17065687  0.16010011  1
  Ca2+  Ca37  1  0.42264119  0.17394140  0.49254157  1
  Ca2+  Ca38  1  0.41202586  0.18100631  0.82992571  1
  Ca2+  Ca39  1  0.41906813  0.65714606  0.16518986  1
  Ca2+  Ca40  1  0.41470658  0.66501971  0.49591596  1
  Ca2+  Ca41  1  0.41250065  0.66969711  0.82622378  1
  Ca2+  Ca42  1  0.92515789  0.17100860  0.15490005  1
  Ca2+  Ca43  1  0.91642688  0.16699786  0.49635660  1
  Ca2+  Ca44  1  0.91480068  0.16617321  0.83492640  1
  Ca2+  Ca45  1  0.92389833  0.66986165  0.16659018  1
  Ca2+  Ca46  1  0.92010382  0.66878884  0.48817539  1
  Ca2+  Ca47  1  0.91539566  0.66481607  0.82693916  1
  Al0+  Al48  1  -0.00017496  -0.00263902  -0.00153282  1
  Al0+  Al49  1  0.00029068  0.00232659  0.33195771  1
  Al0+  Al50  1  0.00111567  -0.00015810  0.66983446  1
  Al0+  Al51  1  -0.00016395  0.50089189  -0.00725496  1
  Al0+  Al52  1  -0.00167263  0.50150552  0.32920193  1
  Al0+  Al53  1  0.00096271  0.49830983  0.67268510  1
  Al0+  Al54  1  0.49959335  -0.00183812  0.00754628  1
  Al0+  Al55  1  0.50334264  0.00102722  0.33353823  1
  Al0+  Al56  1  0.49908368  -0.00009234  0.66090312  1
  Al0+  Al57  1  0.50239069  0.50020914  0.00317305  1
  Al0+  Al58  1  0.49902015  0.49951783  0.33725599  1
  Al0+  Al59  1  0.49909316  0.50097704  0.66793938  1
  Al0+  Al60  1  0.25011615  0.25068320  -0.00525497  1
  Al0+  Al61  1  0.25053715  0.25066322  0.34184036  1
  Al0+  Al62  1  0.24936724  0.24840215  0.66203396  1
  Al0+  Al63  1  0.25164796  0.74923249  0.00322994  1
  Al0+  Al64  1  0.24932908  0.75264159  0.33445072  1
  Al0+  Al65  1  0.24835565  0.75019064  0.66473877  1
  Al0+  Al66  1  0.75074490  0.24868553  0.00354342  1
  Al0+  Al67  1  0.74858437  0.24921838  0.33428825  1
  Al0+  Al68  1  0.75158850  0.24886200  0.67415690  1
  Al0+  Al69  1  0.75057619  0.74820536  0.00070989  1
  Al0+  Al70  1  0.74839989  0.75160808  0.32396921  1
  Al0+  Al71  1  0.74897111  0.75109739  0.66862088  1
  Al0+  Al72  1  0.42746116  0.82206642  0.65262137  1
  Al0+  Al73  1  0.68091147  0.43013845  0.01547056  1
  Al0+  Al74  1  0.07169729  0.17769456  0.98445974  1
  Al0+  Al75  1  0.56783989  0.67786171  0.31897934  1
  Al0+  Al76  1  0.43141158  0.32126268  0.98780192  1
  Al0+  Al77  1  0.82252646  0.06936281  0.68048474  1
  Al0+  Al78  1  0.92686004  0.32155361  0.98274970  1
  Al0+  Al79  1  0.67812838  0.42893095  0.68243970  1
  Al0+  Al80  1  0.17545461  0.42918764  0.34602151  1
  Al0+  Al81  1  0.32111049  0.57075937  0.01461840  1
  Al0+  Al82  1  0.82182319  0.57336105  0.67938535  1
  Al0+  Al83  1  0.17862817  0.42521633  0.68443002  1
  Al0+  Al84  1  0.92829268  0.82413729  0.31674064  1
  Al0+  Al85  1  0.68018154  0.42790578  0.34724210  1
  Al0+  Al86  1  0.17817098  0.93154154  0.34822644  1
  Al0+  Al87  1  0.31928579  0.57174547  0.68223626  1
  Al0+  Al88  1  0.42877653  0.32260806  0.65097036  1
  Al0+  Al89  1  0.82183541  0.07001870  0.01802891  1
  Al0+  Al90  1  0.57221107  0.17915619  0.31930870  1
  Al0+  Al91  1  0.32154772  0.57184146  0.34883300  1
  Al0+  Al92  1  0.31920952  0.07325806  0.01133382  1
  Al0+  Al93  1  0.07246279  0.67788582  0.31740797  1
  Al0+  Al94  1  0.32514580  0.07220666  0.35081739  1
  Al0+  Al95  1  0.67796911  0.92695146  0.01633997  1
  Si0+  Si96  1  0.07070082  0.17645233  0.64854462  1
  Si0+  Si97  1  0.06920184  0.67855042  0.65268622  1
  Si0+  Si98  1  0.42946596  0.82047552  0.98709799  1
  Si0+  Si99  1  0.17825745  0.92612372  0.01542703  1
  Si0+  Si100  1  0.92828699  0.81885370  0.98186078  1
  Si0+  Si101  1  0.82016625  0.07022756  0.34807758  1
  Si0+  Si102  1  0.67614209  0.92877759  0.68079331  1
  Si0+  Si103  1  0.57130776  0.17497116  0.98421796  1
  Si0+  Si104  1  0.67994608  0.92643500  0.34952699  1
  Si0+  Si105  1  0.57240723  0.67933498  0.65061084  1
  Si0+  Si106  1  0.57148375  0.67843157  0.98378728  1
  Si0+  Si107  1  0.92874773  0.31971776  0.65122830  1
  Si0+  Si108  1  0.17958471  0.92960016  0.68169987  1
  Si0+  Si109  1  0.82015447  0.57406107  0.34564860  1
  Si0+  Si110  1  0.07368806  0.68015897  0.98260057  1
  Si0+  Si111  1  0.32215915  0.06966659  0.68083390  1
  Si0+  Si112  1  0.82500383  0.57248032  0.01793745  1
  Si0+  Si113  1  0.57326888  0.17877317  0.65202365  1
  Si0+  Si114  1  0.92939212  0.82172471  0.65413528  1
  Si0+  Si115  1  0.42762136  0.82381099  0.31476205  1
  Si0+  Si116  1  0.92778802  0.32092576  0.32127723  1
  Si0+  Si117  1  0.07131816  0.18111821  0.32073097  1
  Si0+  Si118  1  0.42768575  0.32031680  0.31762869  1
  Si0+  Si119  1  0.17768119  0.42901942  0.01421275  1
  O2-  O120  1  0.24125060  0.00107624  0.05679593  1
  O2-  O121  1  0.25438463  -0.00203071  0.40020506  1
  O2-  O122  1  0.25223735  -0.00186501  0.72437968  1
  O2-  O123  1  0.24582594  0.49656657  0.05987583  1
  O2-  O124  1  0.24532769  0.50292970  0.39636615  1
  O2-  O125  1  0.25378393  0.49441119  0.73377115  1
  O2-  O126  1  0.74854331  -0.00051106  0.06813999  1
  O2-  O127  1  0.75134576  -0.00252121  0.39133499  1
  O2-  O128  1  0.74521780  -0.00346950  0.72514306  1
  O2-  O129  1  0.75988715  0.50092160  0.06213642  1
  O2-  O130  1  0.75281815  0.50559418  0.39173788  1
  O2-  O131  1  0.75122692  0.50117513  0.73076704  1
  O2-  O132  1  0.00539459  0.25693511  0.27976075  1
  O2-  O133  1  0.00081424  0.24974467  0.60751436  1
  O2-  O134  1  -0.00134444  0.24830820  0.93316721  1
  O2-  O135  1  0.00125985  0.75197410  0.26786661  1
  O2-  O136  1  -0.00700215  0.74497000  0.61151975  1
  O2-  O137  1  0.00041119  0.74900571  0.93928777  1
  O2-  O138  1  0.49435538  0.25001478  0.27271557  1
  O2-  O139  1  0.50727741  0.24964453  0.60718485  1
  O2-  O140  1  0.50395848  0.24425600  0.93925038  1
  O2-  O141  1  0.49139606  0.75052979  0.27033636  1
  O2-  O142  1  0.50189776  0.74679008  0.60716433  1
  O2-  O143  1  0.50134383  0.75124042  0.94292068  1
  O2-  O144  1  0.07276859  0.18095086  0.09858284  1
  O2-  O145  1  0.06692480  0.17761113  0.42607079  1
  O2-  O146  1  0.07051667  0.17258509  0.75318601  1
  O2-  O147  1  0.07392273  0.68132156  0.08720981  1
  O2-  O148  1  0.06693332  0.67719334  0.43153977  1
  O2-  O149  1  0.07111499  0.68355051  0.75816787  1
  O2-  O150  1  0.56916885  0.17587804  0.08988649  1
  O2-  O151  1  0.57561187  0.18202534  0.43273275  1
  O2-  O152  1  0.57046016  0.17426721  0.75735061  1
  O2-  O153  1  0.57050446  0.67788970  0.08883972  1
  O2-  O154  1  0.57041711  0.68121117  0.43214636  1
  O2-  O155  1  0.57435619  0.68246905  0.75641582  1
  O2-  O156  1  0.17599844  0.42674626  0.23220492  1
  O2-  O157  1  0.17574665  0.43004395  0.57106208  1
  O2-  O158  1  0.17899473  0.43075174  0.90881745  1
  O2-  O159  1  0.17758699  0.93719641  0.23451921  1
  O2-  O160  1  0.17616564  0.93139084  0.57725046  1
  O2-  O161  1  0.18195429  0.92216193  0.90919704  1
  O2-  O162  1  0.68202559  0.42646298  0.23425392  1
  O2-  O163  1  0.68040387  0.42874347  0.56861275  1
  O2-  O164  1  0.67839480  0.43428587  0.90267119  1
  O2-  O165  1  0.67998656  0.92643197  0.24488249  1
  O2-  O166  1  0.67797848  0.92800844  0.57512402  1
  O2-  O167  1  0.67906142  0.92753562  0.90197650  1
  O2-  O168  1  0.43145896  0.32083751  0.10077984  1
  O2-  O169  1  0.42986170  0.31942017  0.42330308  1
  O2-  O170  1  0.42909520  0.32037244  0.76447291  1
  O2-  O171  1  0.42817832  0.81956714  0.09166085  1
  O2-  O172  1  0.43215099  0.82489837  0.42063820  1
  O2-  O173  1  0.42964227  0.82462283  0.76635672  1
  O2-  O174  1  0.93004304  0.32137786  0.09719898  1
  O2-  O175  1  0.92558766  0.31763912  0.42670932  1
  O2-  O176  1  0.92810419  0.31713409  0.75574244  1
  O2-  O177  1  0.92807867  0.81835426  0.08649428  1
  O2-  O178  1  0.92785299  0.82341379  0.43131976  1
  O2-  O179  1  0.93324071  0.82318374  0.75929643  1
  O2-  O180  1  0.32156491  0.07411291  0.23702959  1
  O2-  O181  1  0.32116552  0.06774299  0.57616933  1
  O2-  O182  1  0.32008617  0.06940813  0.89759417  1
  O2-  O183  1  0.32245478  0.56626380  0.23497577  1
  O2-  O184  1  0.31500434  0.57441375  0.56933388  1
  O2-  O185  1  0.31983086  0.57436854  0.90177062  1
  O2-  O186  1  0.81978821  0.07112232  0.24366424  1
  O2-  O187  1  0.82386282  0.06727352  0.56679193  1
  O2-  O188  1  0.82058625  0.06648681  0.90414983  1
  O2-  O189  1  0.81955709  0.57227183  0.24015459  1
  O2-  O190  1  0.82145802  0.57326808  0.56551868  1
  O2-  O191  1  0.82180489  0.57521118  0.91231512  1
  O2-  O192  1  0.03920014  0.09246785  0.27063551  1
  O2-  O193  1  0.03854210  0.08530223  0.60102172  1
  O2-  O194  1  0.04640769  0.07697194  0.93267668  1
  O2-  O195  1  0.04158675  0.58126465  0.26076599  1
  O2-  O196  1  0.04624649  0.58448350  0.60821550  1
  O2-  O197  1  0.04846569  0.58854108  0.93363993  1
  O2-  O198  1  0.54818549  0.08040890  0.26634995  1
  O2-  O199  1  0.54620057  0.08648538  0.60265958  1
  O2-  O200  1  0.54608552  0.08016232  0.93997304  1
  O2-  O201  1  0.53822044  0.58030848  0.26551079  1
  O2-  O202  1  0.54832565  0.58554227  0.60542507  1
  O2-  O203  1  0.54137070  0.58814358  0.93580080  1
  O2-  O204  1  0.16584866  0.20389261  0.27691530  1
  O2-  O205  1  0.16258046  0.20065649  0.59984460  1
  O2-  O206  1  0.16852399  0.20686509  0.92820163  1
  O2-  O207  1  0.17105031  0.70720502  0.26476033  1
  O2-  O208  1  0.15785528  0.71205399  0.60362505  1
  O2-  O209  1  0.16441367  0.71275495  0.93485420  1
  O2-  O210  1  0.66757151  0.21263809  0.26397639  1
  O2-  O211  1  0.66922478  0.20112126  0.60843778  1
  O2-  O212  1  0.66630922  0.19877568  0.94107650  1
  O2-  O213  1  0.66272050  0.70998173  0.26216242  1
  O2-  O214  1  0.66538078  0.70708129  0.60296182  1
  O2-  O215  1  0.66398801  0.70506969  0.93656210  1
  O2-  O216  1  0.08275871  0.45476872  0.05735050  1
  O2-  O217  1  0.07524677  0.45572590  0.39805305  1
  O2-  O218  1  0.08141284  0.45477933  0.73867756  1
  O2-  O219  1  0.08209086  0.94345091  0.05760749  1
  O2-  O220  1  0.08101401  0.96491465  0.40245220  1
  O2-  O221  1  0.08948069  0.95918582  0.73209864  1
  O2-  O222  1  0.58692476  0.46525583  0.07111412  1
  O2-  O223  1  0.58402310  0.45795467  0.40069999  1
  O2-  O224  1  0.58075504  0.45936658  0.73520794  1
  O2-  O225  1  0.57985915  0.95094277  0.07119510  1
  O2-  O226  1  0.58906968  0.95472629  0.39788216  1
  O2-  O227  1  0.58244813  0.95527543  0.72632917  1
  O2-  O228  1  0.20162806  0.33451926  0.05786075  1
  O2-  O229  1  0.20209857  0.33208352  0.40233488  1
  O2-  O230  1  0.20192647  0.32329414  0.73180753  1
  O2-  O231  1  0.21004147  0.83629637  0.06470798  1
  O2-  O232  1  0.20009202  0.83156947  0.40022572  1
  O2-  O233  1  0.20494880  0.83745818  0.72924284  1
  O2-  O234  1  0.70748970  0.33204114  0.06818096  1
  O2-  O235  1  0.71469484  0.33319463  0.40269116  1
  O2-  O236  1  0.70659074  0.33120839  0.73620810  1
  O2-  O237  1  0.70879172  0.82829574  0.06750865  1
  O2-  O238  1  0.70824547  0.83467774  0.39671034  1
  O2-  O239  1  0.69972427  0.83563974  0.72835062  1
  O2-  O240  1  0.45521015  0.41349660  0.27285066  1
  O2-  O241  1  0.45715976  0.42047595  0.59846909  1
  O2-  O242  1  0.46607165  0.41722667  0.93377301  1
  O2-  O243  1  0.45943533  0.91577181  0.26902723  1
  O2-  O244  1  0.45861363  0.91725399  0.59524556  1
  O2-  O245  1  0.45664476  0.91296703  0.93955716  1
  O2-  O246  1  0.94592346  0.41431259  0.27355625  1
  O2-  O247  1  0.95581556  0.41277627  0.60549561  1
  O2-  O248  1  0.95270392  0.42071292  0.92909479  1
  O2-  O249  1  0.95872202  0.92230797  0.26367610  1
  O2-  O250  1  0.96312038  0.91132846  0.60559626  1
  O2-  O251  1  0.95521251  0.91061843  0.93367528  1
  O2-  O252  1  0.33264790  0.29551642  0.27386225  1
  O2-  O253  1  0.33321858  0.28833342  0.59675906  1
  O2-  O254  1  0.33527772  0.29259854  0.93161363  1
  O2-  O255  1  0.33127382  0.80709261  0.27205236  1
  O2-  O256  1  0.33019738  0.79308618  0.59890892  1
  O2-  O257  1  0.33784122  0.79210014  0.93842450  1
  O2-  O258  1  0.83963060  0.28489436  0.27236718  1
  O2-  O259  1  0.83688639  0.28968057  0.60410092  1
  O2-  O260  1  0.82798738  0.29124510  0.93131625  1
  O2-  O261  1  0.83107143  0.79688637  0.26145195  1
  O2-  O262  1  0.83428094  0.80258384  0.60925338  1
  O2-  O263  1  0.83673295  0.78976857  0.93378500  1
  O2-  O264  1  0.41345133  0.04035977  0.06748314  1
  O2-  O265  1  0.42455050  0.04480405  0.40223144  1
  O2-  O266  1  0.41445177  0.04242536  0.72723807  1
  O2-  O267  1  0.41743131  0.53977529  0.06732123  1
  O2-  O268  1  0.41772729  0.54085661  0.40423008  1
  O2-  O269  1  0.41997343  0.55028086  0.73281312  1
  O2-  O270  1  0.92095399  0.03888709  0.06842565  1
  O2-  O271  1  0.91231810  0.04474484  0.39584827  1
  O2-  O272  1  0.91728667  0.03518677  0.73604651  1
  O2-  O273  1  0.92138867  0.55161318  0.06000024  1
  O2-  O274  1  0.91405924  0.55004400  0.39103640  1
  O2-  O275  1  0.91990993  0.54773296  0.73346490  1
  O2-  O276  1  0.28973435  0.16997425  0.06545496  1
  O2-  O277  1  0.29385898  0.16820960  0.40635557  1
  O2-  O278  1  0.29193012  0.16103978  0.72646798  1
  O2-  O279  1  0.29059240  0.66703044  0.06920690  1
  O2-  O280  1  0.30045537  0.67357816  0.39674489  1
  O2-  O281  1  0.28549094  0.66967849  0.73517119  1
  O2-  O282  1  0.79699164  0.16886748  0.07029941  1
  O2-  O283  1  0.78934934  0.16021022  0.39761310  1
  O2-  O284  1  0.79503270  0.16493814  0.73634229  1
  O2-  O285  1  0.79742345  0.66510140  0.06413247  1
  O2-  O286  1  0.79493941  0.66874754  0.38955789  1
  O2-  O287  1  0.79492917  0.67230404  0.73409513  1
