# generated using pymatgen
data_Ca2Al2SiO7
_symmetry_space_group_name_H-M   'P 1'
_cell_length_a   15.45850050
_cell_length_b   15.45810334
_cell_length_c   15.28409178
_cell_angle_alpha   89.99960663
_cell_angle_beta   89.98204872
_cell_angle_gamma   90.00883198
_symmetry_Int_Tables_number   1
_chemical_formula_structural   Ca2Al2SiO7
_chemical_formula_sum   'Ca48 Al48 Si24 O168'
_cell_volume   3652.27256529
_cell_formula_units_Z   24
loop_
 _symmetry_equiv_pos_site_id
 _symmetry_equiv_pos_as_xyz
  1  'x, y, z'
loop_
 _atom_type_symbol
 _atom_type_oxidation_number
  Ca2+  2.0
  Al0+  0.0
  Si0+  0.0
  O2-  -2.0
loop_
 _atom_site_type_symbol
 _atom_site_label
 _atom_site_symmetry_multiplicity
 _atom_site_fract_x
 _atom_site_fract_y
 _atom_site_fract_z
 _atom_site_occupancy
  Ca2+  Ca0  1  0.17365909  0.08800814  0.17136880  1
  Ca2+  Ca1  1  0.17036291  0.08299394  0.50553111  1
  Ca2+  Ca2  1  0.17637367  0.07353149  0.83677669  1
  Ca2+  Ca3  1  0.16577075  0.57872924  0.16621088  1
  Ca2+  Ca4  1  0.16936492  0.58414490  0.50491180  1
  Ca2+  Ca5  1  0.17986796  0.57849883  0.83857325  1
  Ca2+  Ca6  1  0.66819467  0.07516839  0.17436722  1
  Ca2+  Ca7  1  0.67252100  0.07816670  0.50316636  1
  Ca2+  Ca8  1  0.67379280  0.08917840  0.83119013  1
  Ca2+  Ca9  1  0.68134736  0.58311963  0.17317769  1
  Ca2+  Ca10  1  0.67800129  0.57912559  0.50886080  1
  Ca2+  Ca11  1  0.67198130  0.58021134  0.83040543  1
  Ca2+  Ca12  1  0.07746497  0.33252285  0.16510243  1
  Ca2+  Ca13  1  0.07097179  0.32944164  0.49161882  1
  Ca2+  Ca14  1  0.07463214  0.34249913  0.83151660  1
  Ca2+  Ca15  1  0.08219416  0.83045339  0.16600463  1
  Ca2+  Ca16  1  0.07927778  0.82824403  0.49326963  1
  Ca2+  Ca17  1  0.09036985  0.83472002  0.82824493  1
  Ca2+  Ca18  1  0.57619997  0.33396514  0.16691881  1
  Ca2+  Ca19  1  0.57380582  0.33916407  0.50160843  1
  Ca2+  Ca20  1  0.57781487  0.33516886  0.82213568  1
  Ca2+  Ca21  1  0.58394976  0.83477897  0.16364229  1
  Ca2+  Ca22  1  0.58203878  0.83115476  0.49908452  1
  Ca2+  Ca23  1  0.57215696  0.82260953  0.82141118  1
  Ca2+  Ca24  1  0.32857523  0.41659472  0.17023958  1
  Ca2+  Ca25  1  0.33516696  0.41800691  0.50801380  1
  Ca2+  Ca26  1  0.33458013  0.42510369  0.83780518  1
  Ca2+  Ca27  1  0.32716980  0.92812282  0.17101905  1
  Ca2+  Ca28  1  0.32744208  0.92752727  0.51113132  1
  Ca2+  Ca29  1  0.32541824  0.91804842  0.83654351  1
  Ca2+  Ca30  1  0.84539243  0.42402795  0.16983293  1
  Ca2+  Ca31  1  0.83460553  0.42185669  0.50895572  1
  Ca2+  Ca32  1  0.83445927  0.42282409  0.83535293  1
  Ca2+  Ca33  1  0.82672941  0.91158254  0.17725019  1
  Ca2+  Ca34  1  0.83148544  0.91666521  0.50310882  1
  Ca2+  Ca35  1  0.83500014  0.92603212  0.83279579  1
  Ca2+  Ca36  1  0.41076467  0.16612709  0.16702873  1
  Ca2+  Ca37  1  0.40642075  0.17554796  0.49562075  1
  Ca2+  Ca38  1  0.41286388  0.16850970  0.82689815  1
  Ca2+  Ca39  1  0.41772535  0.66692862  0.16000092  1
  Ca2+  Ca40  1  0.42063576  0.66830929  0.50275477  1
  Ca2+  Ca41  1  0.41697478  0.66627680  0.81876502  1
  Ca2+  Ca42  1  0.92204045  0.17673292  0.16086638  1
  Ca2+  Ca43  1  0.91918570  0.17376803  0.49415627  1
  Ca2+  Ca44  1  0.91653752  0.17858606  0.82280635  1
  Ca2+  Ca45  1  0.91828833  0.66474432  0.16754205  1
  Ca2+  Ca46  1  0.92056747  0.66565507  0.48965972  1
  Ca2+  Ca47  1  0.91577392  0.66300983  0.82938404  1
  Al0+  Al48  1  -0.00046235  0.00038466  0.00237279  1
  Al0+  Al49  1  0.00017650  -0.00073345  0.32445672  1
  Al0+  Al50  1  -0.00042459  -0.00025604  0.67420413  1
  Al0+  Al51  1  0.00080582  0.50202228  0.00161812  1
  Al0+  Al52  1  0.00281194  0.50087515  0.33067894  1
  Al0+  Al53  1  -0.00029365  0.50107965  0.66534054  1
  Al0+  Al54  1  0.50059353  -0.00075184  -0.00001702  1
  Al0+  Al55  1  0.49939928  0.00057945  0.34271102  1
  Al0+  Al56  1  0.50013927  0.00013773  0.66607367  1
  Al0+  Al57  1  0.50313617  0.49955095  0.00298492  1
  Al0+  Al58  1  0.50072640  0.50082231  0.32770657  1
  Al0+  Al59  1  0.50209189  0.49967116  0.66486216  1
  Al0+  Al60  1  0.24949495  0.24977782  0.00418232  1
  Al0+  Al61  1  0.24920373  0.25250755  0.32970669  1
  Al0+  Al62  1  0.24754860  0.24833270  0.66793042  1
  Al0+  Al63  1  0.24938920  0.75129143  0.00710398  1
  Al0+  Al64  1  0.25147110  0.75045138  0.32868839  1
  Al0+  Al65  1  0.24973341  0.74921708  0.66783322  1
  Al0+  Al66  1  0.74921535  0.25079273  -0.00328126  1
  Al0+  Al67  1  0.74624091  0.25047680  0.32879466  1
  Al0+  Al68  1  0.74823839  0.25074280  0.66818592  1
  Al0+  Al69  1  0.75029921  0.74928143  0.00045142  1
  Al0+  Al70  1  0.74925670  0.74831237  0.33902524  1
  Al0+  Al71  1  0.75014716  0.74972026  0.66744254  1
  Al0+  Al72  1  0.57238088  0.67815223  0.64991966  1
  Al0+  Al73  1  0.07416899  0.67883142  0.31638315  1
  Al0+  Al74  1  0.93073713  0.32158112  0.98321092  1
  Al0+  Al75  1  0.42643648  0.82165275  0.65087316  1
  Al0+  Al76  1  0.81920010  0.57046571  0.01496034  1
  Al0+  Al77  1  0.92591016  0.32127843  0.31839659  1
  Al0+  Al78  1  0.17903672  0.92816007  0.67983359  1
  Al0+  Al79  1  0.92705466  0.81927446  0.31937902  1
  Al0+  Al80  1  0.32063370  0.56820655  0.67609710  1
  Al0+  Al81  1  0.82212946  0.56681267  0.34791275  1
  Al0+  Al82  1  0.17912448  0.42987272  0.01559464  1
  Al0+  Al83  1  0.42747894  0.31903392  0.65545519  1
  Al0+  Al84  1  0.07105830  0.17858965  0.31823664  1
  Al0+  Al85  1  0.17644586  0.92853029  0.01898723  1
  Al0+  Al86  1  0.67943815  0.92831816  0.34838019  1
  Al0+  Al87  1  0.82001762  0.07077601  0.67843426  1
  Al0+  Al88  1  0.67928761  0.42906360  0.68079888  1
  Al0+  Al89  1  0.32446515  0.57091804  0.01561649  1
  Al0+  Al90  1  0.31773396  0.07213262  0.34961581  1
  Al0+  Al91  1  0.92869626  0.32199601  0.65287055  1
  Al0+  Al92  1  0.42971615  0.32178162  0.31877954  1
  Al0+  Al93  1  0.82364877  0.57231989  0.68186061  1
  Al0+  Al94  1  0.32242114  0.07365961  0.68173784  1
  Al0+  Al95  1  0.32267105  0.07000719  0.01635797  1
  Si0+  Si96  1  0.82300188  0.07339832  0.34637607  1
  Si0+  Si97  1  0.92655043  0.82177615  0.98338787  1
  Si0+  Si98  1  0.67735998  0.92687474  0.68490615  1
  Si0+  Si99  1  0.82017221  0.07364111  0.01495465  1
  Si0+  Si100  1  0.17649726  0.42706174  0.68051236  1
  Si0+  Si101  1  0.57286086  0.17691462  0.64894050  1
  Si0+  Si102  1  0.57059083  0.17719608  0.98459449  1
  Si0+  Si103  1  0.18117046  0.43105440  0.34943203  1
  Si0+  Si104  1  0.57021098  0.17530150  0.31691378  1
  Si0+  Si105  1  0.42947026  0.32096728  0.98563485  1
  Si0+  Si106  1  0.68181273  0.93012164  0.01256941  1
  Si0+  Si107  1  0.43060066  0.82317560  0.31778998  1
  Si0+  Si108  1  0.67829365  0.42517062  0.01889939  1
  Si0+  Si109  1  0.92908482  0.82318370  0.65453085  1
  Si0+  Si110  1  0.42972012  0.81982550  0.98677002  1
  Si0+  Si111  1  0.07283781  0.17644374  0.98028051  1
  Si0+  Si112  1  0.57265939  0.67903509  0.98558028  1
  Si0+  Si113  1  0.57015339  0.68023081  0.31672975  1
  Si0+  Si114  1  0.07031587  0.67966319  0.65395279  1
  Si0+  Si115  1  0.67499169  0.42744389  0.34937116  1
  Si0+  Si116  1  0.07094335  0.68153469  0.98327837  1
  Si0+  Si117  1  0.06923996  0.17610911  0.65210115  1
  Si0+  Si118  1  0.32386888  0.57260495  0.34847349  1
  Si0+  Si119  1  0.17716886  0.92634483  0.34967991  1
  O2-  O120  1  0.24688012  0.00267628  0.06744284  1
  O2-  O121  1  0.24168702  -0.00190775  0.39459280  1
  O2-  O122  1  0.25405928  -0.00268484  0.72960123  1
  O2-  O123  1  0.25445787  0.49830690  0.06709576  1
  O2-  O124  1  0.25207583  0.50285832  0.39079362  1
  O2-  O125  1  0.25014749  0.49068779  0.72399998  1
  O2-  O126  1  0.75246207  -0.00024264  0.05738430  1
  O2-  O127  1  0.75717187  0.00194732  0.39124256  1
  O2-  O128  1  0.74461339  -0.00264363  0.72846071  1
  O2-  O129  1  0.74791567  0.49288305  0.06258608  1
  O2-  O130  1  0.75094768  0.48795984  0.39255383  1
  O2-  O131  1  0.75274952  0.49917383  0.73145908  1
  O2-  O132  1  -0.00544636  0.24614468  0.26831815  1
  O2-  O133  1  0.00290660  0.24670165  0.60732576  1
  O2-  O134  1  0.00489386  0.24605945  0.93576950  1
  O2-  O135  1  0.00054512  0.75017183  0.26705177  1
  O2-  O136  1  -0.00257138  0.74959470  0.61317244  1
  O2-  O137  1  0.00146293  0.75484397  0.94102671  1
  O2-  O138  1  0.50293281  0.24517877  0.27212098  1
  O2-  O139  1  0.49862075  0.24097751  0.60710008  1
  O2-  O140  1  0.49916368  0.24836725  0.94375623  1
  O2-  O141  1  0.50033896  0.75182393  0.27305792  1
  O2-  O142  1  0.50133176  0.75214923  0.60066483  1
  O2-  O143  1  0.49452122  0.74278677  0.94454838  1
  O2-  O144  1  0.06962827  0.17607959  0.08578229  1
  O2-  O145  1  0.07073993  0.18131057  0.43224896  1
  O2-  O146  1  0.06692147  0.17516913  0.75765706  1
  O2-  O147  1  0.06924591  0.68132278  0.08804518  1
  O2-  O148  1  0.07552264  0.67993863  0.43054000  1
  O2-  O149  1  0.07100297  0.67932814  0.75916050  1
  O2-  O150  1  0.57235921  0.17507880  0.08958046  1
  O2-  O151  1  0.57194833  0.17412748  0.42190272  1
  O2-  O152  1  0.57494129  0.17884912  0.75508735  1
  O2-  O153  1  0.57512530  0.68363559  0.09096790  1
  O2-  O154  1  0.56820417  0.67909929  0.42116354  1
  O2-  O155  1  0.57094218  0.67980560  0.76439590  1
  O2-  O156  1  0.18232860  0.43128444  0.24444479  1
  O2-  O157  1  0.17508541  0.42974716  0.57475830  1
  O2-  O158  1  0.18013811  0.43372343  0.90156808  1
  O2-  O159  1  0.18174847  0.92494833  0.24439760  1
  O2-  O160  1  0.17530813  0.92929688  0.56634768  1
  O2-  O161  1  0.17955629  0.92719829  0.90546850  1
  O2-  O162  1  0.67041845  0.43235098  0.24362801  1
  O2-  O163  1  0.67982749  0.42987023  0.56712639  1
  O2-  O164  1  0.67552392  0.42506948  0.91382202  1
  O2-  O165  1  0.67818239  0.92980331  0.23417179  1
  O2-  O166  1  0.67997455  0.92661740  0.57933912  1
  O2-  O167  1  0.68278888  0.93087912  0.90792917  1
  O2-  O168  1  0.43272372  0.32164836  0.09076806  1
  O2-  O169  1  0.43048692  0.32367675  0.43170759  1
  O2-  O170  1  0.42980829  0.31972847  0.76895924  1
  O2-  O171  1  0.43535921  0.82206986  0.09213934  1
  O2-  O172  1  0.43070084  0.82127492  0.42232251  1
  O2-  O173  1  0.42715337  0.81792829  0.76537535  1
  O2-  O174  1  0.93048145  0.31874855  0.09609412  1
  O2-  O175  1  0.92743844  0.32057795  0.43211859  1
  O2-  O176  1  0.93162331  0.32268734  0.76621155  1
  O2-  O177  1  0.92164300  0.81919935  0.08791690  1
  O2-  O178  1  0.92782119  0.81844746  0.43341091  1
  O2-  O179  1  0.92994190  0.82418558  0.75997138  1
  O2-  O180  1  0.31975547  0.06889083  0.23652161  1
  O2-  O181  1  0.31683121  0.07551611  0.56823342  1
  O2-  O182  1  0.32590746  0.06652153  0.90329806  1
  O2-  O183  1  0.32552907  0.57086342  0.24348068  1
  O2-  O184  1  0.31751603  0.56885379  0.56272499  1
  O2-  O185  1  0.32523366  0.57035530  0.90186201  1
  O2-  O186  1  0.81789107  0.07321891  0.24033977  1
  O2-  O187  1  0.82031994  0.06787070  0.56535802  1
  O2-  O188  1  0.81766022  0.07360158  0.90985077  1
  O2-  O189  1  0.81907421  0.56822208  0.23445408  1
  O2-  O190  1  0.82555587  0.57143784  0.56846849  1
  O2-  O191  1  0.81625342  0.57296703  0.90239360  1
  O2-  O192  1  0.05047566  0.07934050  0.26322717  1
  O2-  O193  1  0.04011842  0.08336814  0.60598717  1
  O2-  O194  1  0.04561805  0.08215938  0.93573834  1
  O2-  O195  1  0.04579069  0.58119819  0.26288103  1
  O2-  O196  1  0.04404455  0.58865798  0.60401853  1
  O2-  O197  1  0.04134298  0.59074050  0.93547616  1
  O2-  O198  1  0.54202595  0.08190743  0.27069336  1
  O2-  O199  1  0.55534004  0.08087389  0.60507845  1
  O2-  O200  1  0.54424349  0.08541551  0.93562032  1
  O2-  O201  1  0.54191978  0.58997168  0.26613246  1
  O2-  O202  1  0.54289310  0.58129593  0.59574522  1
  O2-  O203  1  0.55290768  0.58383832  0.94175173  1
  O2-  O204  1  0.16616519  0.21401772  0.26292590  1
  O2-  O205  1  0.16343593  0.19916818  0.60681292  1
  O2-  O206  1  0.16825961  0.20044927  0.93739311  1
  O2-  O207  1  0.17244962  0.70657304  0.26151223  1
  O2-  O208  1  0.16075151  0.70794880  0.60460373  1
  O2-  O209  1  0.16464672  0.70847911  0.93808473  1
  O2-  O210  1  0.66307054  0.19881879  0.26713625  1
  O2-  O211  1  0.66403508  0.20698232  0.60057870  1
  O2-  O212  1  0.66176395  0.20554817  0.93565341  1
  O2-  O213  1  0.66196925  0.70931562  0.27031323  1
  O2-  O214  1  0.67136532  0.70780509  0.59798333  1
  O2-  O215  1  0.66104790  0.71421024  0.93614877  1
  O2-  O216  1  0.08317796  0.46361100  0.06970367  1
  O2-  O217  1  0.08977004  0.45924839  0.39705207  1
  O2-  O218  1  0.08645110  0.46011045  0.72883591  1
  O2-  O219  1  0.07545631  0.95210274  0.06916679  1
  O2-  O220  1  0.08007222  0.94666328  0.39038347  1
  O2-  O221  1  0.08265795  0.95692248  0.73717514  1
  O2-  O222  1  0.58576859  0.45220415  0.06667314  1
  O2-  O223  1  0.58412997  0.46166230  0.39615731  1
  O2-  O224  1  0.58252894  0.46029414  0.73588130  1
  O2-  O225  1  0.59049174  0.95827697  0.06089350  1
  O2-  O226  1  0.58547962  0.96101441  0.40536584  1
  O2-  O227  1  0.58318919  0.95037342  0.73032941  1
  O2-  O228  1  0.20306414  0.33052208  0.06795960  1
  O2-  O229  1  0.20979333  0.34003789  0.39683127  1
  O2-  O230  1  0.19453503  0.33220432  0.72603791  1
  O2-  O231  1  0.20594966  0.83146685  0.07310315  1
  O2-  O232  1  0.20675331  0.83315369  0.39492959  1
  O2-  O233  1  0.20653724  0.83004026  0.73433110  1
  O2-  O234  1  0.70134105  0.33046975  0.06419715  1
  O2-  O235  1  0.68977854  0.32971098  0.39017845  1
  O2-  O236  1  0.70295327  0.33032626  0.73503315  1
  O2-  O237  1  0.70916308  0.83870745  0.06134003  1
  O2-  O238  1  0.70811706  0.83253592  0.40395930  1
  O2-  O239  1  0.70486607  0.83464034  0.73233411  1
  O2-  O240  1  0.46279544  0.41686701  0.26161755  1
  O2-  O241  1  0.46146419  0.41385674  0.59991608  1
  O2-  O242  1  0.45981630  0.41304792  0.93925207  1
  O2-  O243  1  0.46155983  0.91487320  0.27189120  1
  O2-  O244  1  0.45357249  0.92128373  0.59962020  1
  O2-  O245  1  0.46404835  0.90885743  0.93778806  1
  O2-  O246  1  0.96211218  0.41717329  0.26588771  1
  O2-  O247  1  0.96126236  0.41798281  0.59860264  1
  O2-  O248  1  0.96257631  0.41946853  0.93181421  1
  O2-  O249  1  0.94889353  0.91829455  0.26415653  1
  O2-  O250  1  0.95844681  0.91413103  0.60657399  1
  O2-  O251  1  0.94950596  0.91652705  0.93865339  1
  O2-  O252  1  0.33392370  0.29228148  0.26379356  1
  O2-  O253  1  0.32893625  0.29279478  0.60162271  1
  O2-  O254  1  0.33617654  0.29647688  0.94039475  1
  O2-  O255  1  0.33946527  0.79622499  0.26876050  1
  O2-  O256  1  0.32930303  0.79003303  0.59727827  1
  O2-  O257  1  0.33494510  0.79807797  0.94348520  1
  O2-  O258  1  0.82530100  0.29978111  0.26555373  1
  O2-  O259  1  0.83129709  0.29125955  0.60175455  1
  O2-  O260  1  0.83236407  0.29068173  0.93165897  1
  O2-  O261  1  0.82809025  0.78841769  0.26718542  1
  O2-  O262  1  0.83593783  0.79984908  0.60839812  1
  O2-  O263  1  0.83610988  0.79055465  0.93421765  1
  O2-  O264  1  0.42097777  0.03787815  0.06951496  1
  O2-  O265  1  0.41396828  0.04193078  0.40373702  1
  O2-  O266  1  0.42395427  0.05185811  0.73090863  1
  O2-  O267  1  0.42420703  0.54550539  0.06836791  1
  O2-  O268  1  0.41595544  0.54318020  0.39402177  1
  O2-  O269  1  0.41748531  0.54105696  0.72994121  1
  O2-  O270  1  0.91292271  0.04958442  0.06069453  1
  O2-  O271  1  0.91845763  0.05123100  0.38907771  1
  O2-  O272  1  0.91319648  0.03847389  0.73802287  1
  O2-  O273  1  0.91680768  0.54295299  0.06705271  1
  O2-  O274  1  0.92142147  0.54196448  0.39895088  1
  O2-  O275  1  0.92194324  0.54384816  0.73542707  1
  O2-  O276  1  0.29845803  0.16994984  0.06755522  1
  O2-  O277  1  0.28769257  0.17081138  0.39930126  1
  O2-  O278  1  0.29042765  0.17008687  0.73751261  1
  O2-  O279  1  0.29641320  0.66898200  0.06845840  1
  O2-  O280  1  0.29753190  0.66591078  0.39334903  1
  O2-  O281  1  0.28736605  0.66273270  0.73203647  1
  O2-  O282  1  0.78820986  0.16377340  0.06267593  1
  O2-  O283  1  0.79349537  0.16619398  0.39226403  1
  O2-  O284  1  0.78757869  0.16566850  0.73469482  1
  O2-  O285  1  0.78473664  0.66651158  0.06909457  1
  O2-  O286  1  0.78733633  0.66182899  0.40170119  1
  O2-  O287  1  0.79548206  0.67110436  0.73473559  1
