# generated using pymatgen
data_Ca2Al2SiO7
_symmetry_space_group_name_H-M   'P 1'
_cell_length_a   15.46657706
_cell_length_b   15.46418338
_cell_length_c   15.28828203
_cell_angle_alpha   89.99459246
_cell_angle_beta   89.99210875
_cell_angle_gamma   89.97742327
_symmetry_Int_Tables_number   1
_chemical_formula_structural   Ca2Al2SiO7
_chemical_formula_sum   'Ca48 Al48 Si24 O168'
_cell_volume   3656.62013862
_cell_formula_units_Z   24
loop_
 _symmetry_equiv_pos_site_id
 _symmetry_equiv_pos_as_xyz
  1  'x, y, z'
loop_
 _atom_type_symbol
 _atom_type_oxidation_number
  Ca2+  2.0
  Al0+  0.0
  Si0+  0.0
  O2-  -2.0
loop_
 _atom_site_type_symbol
 _atom_site_label
 _atom_site_symmetry_multiplicity
 _atom_site_fract_x
 _atom_site_fract_y
 _atom_site_fract_z
 _atom_site_occupancy
  Ca2+  Ca0  1  0.17747161  0.08113384  0.17470492  1
  Ca2+  Ca1  1  0.17105809  0.08656948  0.50460974  1
  Ca2+  Ca2  1  0.16478938  0.08516180  0.83484764  1
  Ca2+  Ca3  1  0.17209080  0.58916166  0.17241776  1
  Ca2+  Ca4  1  0.16139393  0.58164552  0.50651442  1
  Ca2+  Ca5  1  0.17090770  0.58153776  0.83558316  1
  Ca2+  Ca6  1  0.67176592  0.08452090  0.17299441  1
  Ca2+  Ca7  1  0.67676214  0.08474270  0.50055684  1
  Ca2+  Ca8  1  0.67801767  0.07787667  0.84397709  1
  Ca2+  Ca9  1  0.66767298  0.57000508  0.17602804  1
  Ca2+  Ca10  1  0.66544152  0.58523049  0.49872189  1
  Ca2+  Ca11  1  0.66320740  0.57975032  0.83850086  1
  Ca2+  Ca12  1  0.07340410  0.33370635  0.16817424  1
  Ca2+  Ca13  1  0.07904612  0.33112864  0.49785223  1
  Ca2+  Ca14  1  0.08450248  0.32716843  0.82480733  1
  Ca2+  Ca15  1  0.07089329  0.83043379  0.16707161  1
  Ca2+  Ca16  1  0.07386306  0.82347939  0.49554994  1
  Ca2+  Ca17  1  0.07182703  0.82906518  0.82639258  1
  Ca2+  Ca18  1  0.59052167  0.32412769  0.16050868  1
  Ca2+  Ca19  1  0.58126122  0.32960398  0.49321960  1
  Ca2+  Ca20  1  0.57584358  0.33556646  0.83482422  1
  Ca2+  Ca21  1  0.58568182  0.83105459  0.16620381  1
  Ca2+  Ca22  1  0.58213455  0.82195546  0.49216252  1
  Ca2+  Ca23  1  0.58773149  0.82842075  0.82994918  1
  Ca2+  Ca24  1  0.33667732  0.41882973  0.16565987  1
  Ca2+  Ca25  1  0.32642945  0.41544658  0.50948530  1
  Ca2+  Ca26  1  0.33294447  0.41626668  0.83767768  1
  Ca2+  Ca27  1  0.33517236  0.92039619  0.17955096  1
  Ca2+  Ca28  1  0.33961051  0.92054900  0.49741616  1
  Ca2+  Ca29  1  0.32834616  0.91743960  0.83881054  1
  Ca2+  Ca30  1  0.82346876  0.41751033  0.17927700  1
  Ca2+  Ca31  1  0.83145793  0.41954700  0.49503268  1
  Ca2+  Ca32  1  0.82478876  0.42068098  0.84073617  1
  Ca2+  Ca33  1  0.83358875  0.92329416  0.16832889  1
  Ca2+  Ca34  1  0.84537727  0.92413529  0.50327988  1
  Ca2+  Ca35  1  0.83544672  0.92253294  0.84029362  1
  Ca2+  Ca36  1  0.43193780  0.16776106  0.16200114  1
  Ca2+  Ca37  1  0.42085239  0.17210708  0.49144359  1
  Ca2+  Ca38  1  0.42386540  0.17776681  0.82997787  1
  Ca2+  Ca39  1  0.41967951  0.66710438  0.16658180  1
  Ca2+  Ca40  1  0.42884787  0.66964834  0.49298236  1
  Ca2+  Ca41  1  0.42164668  0.66293690  0.82993143  1
  Ca2+  Ca42  1  0.90539299  0.16894080  0.16692978  1
  Ca2+  Ca43  1  0.91657888  0.16732667  0.49470577  1
  Ca2+  Ca44  1  0.91728197  0.16255161  0.82750476  1
  Ca2+  Ca45  1  0.90865811  0.67569446  0.16688558  1
  Ca2+  Ca46  1  0.92106142  0.67439599  0.48816593  1
  Ca2+  Ca47  1  0.91616246  0.68073427  0.82407255  1
  Al0+  Al48  1  0.00076342  -0.00103325  0.00118964  1
  Al0+  Al49  1  0.00326642  -0.00168913  0.33365172  1
  Al0+  Al50  1  0.00291728  0.00179022  0.66362931  1
  Al0+  Al51  1  0.00245317  0.49901955  -0.00139022  1
  Al0+  Al52  1  -0.00020162  0.49811394  0.32832434  1
  Al0+  Al53  1  -0.00085477  0.49877542  0.67225836  1
  Al0+  Al54  1  0.50083126  -0.00110956  -0.00342659  1
  Al0+  Al55  1  0.50043474  0.00213035  0.33324303  1
  Al0+  Al56  1  0.50142128  0.00172740  0.66989006  1
  Al0+  Al57  1  0.49839988  0.50005164  0.00533419  1
  Al0+  Al58  1  0.49706428  0.49939835  0.33515874  1
  Al0+  Al59  1  0.49848579  0.50040889  0.65878820  1
  Al0+  Al60  1  0.24945809  0.25078349  -0.00123745  1
  Al0+  Al61  1  0.25017338  0.24965279  0.33668671  1
  Al0+  Al62  1  0.24943915  0.25174780  0.66457979  1
  Al0+  Al63  1  0.24998249  0.74880773  0.00337316  1
  Al0+  Al64  1  0.24934004  0.75022090  0.32989883  1
  Al0+  Al65  1  0.25028685  0.75191269  0.66547553  1
  Al0+  Al66  1  0.75087887  0.24971314  -0.00072465  1
  Al0+  Al67  1  0.74964637  0.24927676  0.33611874  1
  Al0+  Al68  1  0.74907610  0.25052696  0.67317890  1
  Al0+  Al69  1  0.75022666  0.75184371  -0.00247495  1
  Al0+  Al70  1  0.74942047  0.74889054  0.32762806  1
  Al0+  Al71  1  0.74838670  0.75135292  0.65840710  1
  Al0+  Al72  1  0.57422953  0.17671632  0.98244436  1
  Al0+  Al73  1  0.57079558  0.18156902  0.32180572  1
  Al0+  Al74  1  0.92785373  0.82326871  0.31583222  1
  Al0+  Al75  1  0.82230150  0.06991732  0.01610249  1
  Al0+  Al76  1  0.32230500  0.07106412  0.34757327  1
  Al0+  Al77  1  0.82187839  0.06887338  0.34819337  1
  Al0+  Al78  1  0.42941928  0.32138013  0.98570093  1
  Al0+  Al79  1  0.67701031  0.42809903  0.35050289  1
  Al0+  Al80  1  0.31909450  0.57019727  0.01446964  1
  Al0+  Al81  1  0.67718309  0.92695497  0.01549572  1
  Al0+  Al82  1  0.43002009  0.31969939  0.65206086  1
  Al0+  Al83  1  0.82122469  0.57153458  0.34735381  1
  Al0+  Al84  1  0.07149639  0.67690826  0.65391161  1
  Al0+  Al85  1  0.92993572  0.31770518  0.32127403  1
  Al0+  Al86  1  0.68004303  0.43090132  0.01221029  1
  Al0+  Al87  1  0.92991073  0.81958955  0.98448559  1
  Al0+  Al88  1  0.82187240  0.06978850  0.68035010  1
  Al0+  Al89  1  0.57133548  0.67596559  0.31454441  1
  Al0+  Al90  1  0.07015563  0.67643880  0.31713155  1
  Al0+  Al91  1  0.92910388  0.82155606  0.65087545  1
  Al0+  Al92  1  0.56942674  0.67970136  0.65386512  1
  Al0+  Al93  1  0.43109103  0.82068482  0.31912377  1
  Al0+  Al94  1  0.17777580  0.42922770  0.68077766  1
  Al0+  Al95  1  0.07009010  0.18089965  0.65341647  1
  Si0+  Si96  1  0.42580651  0.82157347  0.98479206  1
  Si0+  Si97  1  0.42689547  0.82583043  0.65202853  1
  Si0+  Si98  1  0.67652755  0.43094341  0.68215218  1
  Si0+  Si99  1  0.92408293  0.32284803  0.65190578  1
  Si0+  Si100  1  0.07443139  0.17751767  0.31650637  1
  Si0+  Si101  1  0.17860498  0.42869492  0.34827118  1
  Si0+  Si102  1  0.42444353  0.32189953  0.31694511  1
  Si0+  Si103  1  0.32212863  0.07286468  0.68337137  1
  Si0+  Si104  1  0.18106969  0.92998010  0.68231204  1
  Si0+  Si105  1  0.07485375  0.67759575  0.98205432  1
  Si0+  Si106  1  0.32065020  0.07152464  0.01303779  1
  Si0+  Si107  1  0.31909996  0.57241284  0.35059778  1
  Si0+  Si108  1  0.82416961  0.57233908  0.01358960  1
  Si0+  Si109  1  0.18012149  0.92887244  0.01530342  1
  Si0+  Si110  1  0.67702237  0.92685952  0.68237625  1
  Si0+  Si111  1  0.92876438  0.32204249  0.98438595  1
  Si0+  Si112  1  0.57311426  0.17794946  0.65000397  1
  Si0+  Si113  1  0.17697589  0.42527847  0.01922749  1
  Si0+  Si114  1  0.07100386  0.17987976  0.98682538  1
  Si0+  Si115  1  0.81955035  0.57304102  0.68074254  1
  Si0+  Si116  1  0.32195781  0.57231012  0.68163078  1
  Si0+  Si117  1  0.67743784  0.92779417  0.35011620  1
  Si0+  Si118  1  0.56877411  0.67983378  0.98632286  1
  Si0+  Si119  1  0.17985936  0.92724320  0.35252150  1
  O2-  O120  1  0.25380052  -0.00256190  0.05685727  1
  O2-  O121  1  0.24817610  -0.00318591  0.39642287  1
  O2-  O122  1  0.25352577  -0.00049199  0.72635292  1
  O2-  O123  1  0.24318106  0.49667681  0.06213099  1
  O2-  O124  1  0.24829127  0.50068338  0.39135289  1
  O2-  O125  1  0.25093305  0.50633525  0.72646233  1
  O2-  O126  1  0.74598991  0.00202106  0.06507531  1
  O2-  O127  1  0.75164997  -0.00995820  0.39548457  1
  O2-  O128  1  0.74755585  -0.00591847  0.72572115  1
  O2-  O129  1  0.75866069  0.50143707  0.05786703  1
  O2-  O130  1  0.74614294  0.50364735  0.39991749  1
  O2-  O131  1  0.74826374  0.50204971  0.72370891  1
  O2-  O132  1  0.00183434  0.24101363  0.27165994  1
  O2-  O133  1  -0.00702227  0.25363317  0.60897468  1
  O2-  O134  1  -0.00051295  0.24994569  0.94358794  1
  O2-  O135  1  -0.00415970  0.74599908  0.26732504  1
  O2-  O136  1  -0.00369947  0.74408752  0.60305705  1
  O2-  O137  1  0.00170894  0.74129576  0.93840076  1
  O2-  O138  1  0.49746240  0.25769473  0.27457399  1
  O2-  O139  1  0.50375934  0.24503157  0.60497953  1
  O2-  O140  1  0.50158195  0.24997678  0.93468989  1
  O2-  O141  1  0.50126353  0.75010307  0.26477283  1
  O2-  O142  1  0.49602744  0.75716932  0.61019091  1
  O2-  O143  1  0.49921439  0.75267383  0.94313777  1
  O2-  O144  1  0.07496708  0.18163748  0.09152012  1
  O2-  O145  1  0.07689049  0.18126156  0.42195386  1
  O2-  O146  1  0.07064020  0.18118909  0.76727990  1
  O2-  O147  1  0.07791026  0.68006293  0.08702198  1
  O2-  O148  1  0.07099869  0.67761161  0.43080854  1
  O2-  O149  1  0.07188421  0.68077602  0.76785232  1
  O2-  O150  1  0.57230214  0.17712965  0.09600466  1
  O2-  O151  1  0.56866615  0.18211965  0.43533377  1
  O2-  O152  1  0.57135475  0.17823219  0.75540750  1
  O2-  O153  1  0.56693166  0.67950978  0.09052074  1
  O2-  O154  1  0.56734480  0.67703241  0.42844016  1
  O2-  O155  1  0.56744074  0.67821040  0.76779192  1
  O2-  O156  1  0.18128248  0.42616576  0.24310314  1
  O2-  O157  1  0.18013455  0.42773891  0.56766450  1
  O2-  O158  1  0.17658139  0.42355267  0.91372951  1
  O2-  O159  1  0.18096170  0.92957125  0.24637366  1
  O2-  O160  1  0.18302494  0.93028070  0.57787905  1
  O2-  O161  1  0.18107386  0.92992667  0.90963900  1
  O2-  O162  1  0.67997077  0.42655627  0.23679123  1
  O2-  O163  1  0.67648917  0.42932024  0.57772299  1
  O2-  O164  1  0.67964322  0.43527458  0.89814619  1
  O2-  O165  1  0.67462237  0.93242540  0.24479564  1
  O2-  O166  1  0.67172718  0.92836859  0.57740498  1
  O2-  O167  1  0.68013214  0.92487161  0.90138288  1
  O2-  O168  1  0.42697904  0.31791900  0.09881160  1
  O2-  O169  1  0.42128243  0.31897138  0.42272686  1
  O2-  O170  1  0.43157036  0.32058986  0.76513995  1
  O2-  O171  1  0.42172118  0.82124275  0.08900059  1
  O2-  O172  1  0.43223959  0.81878078  0.43325085  1
  O2-  O173  1  0.42528082  0.82602303  0.75805299  1
  O2-  O174  1  0.93014444  0.32373055  0.08917197  1
  O2-  O175  1  0.93297674  0.31792742  0.43449894  1
  O2-  O176  1  0.92371110  0.32265979  0.75800705  1
  O2-  O177  1  0.93209584  0.82039289  0.09683526  1
  O2-  O178  1  0.93333369  0.82480209  0.42920738  1
  O2-  O179  1  0.93075611  0.82122579  0.76501639  1
  O2-  O180  1  0.31948047  0.07098674  0.23393546  1
  O2-  O181  1  0.32235281  0.07187665  0.57859842  1
  O2-  O182  1  0.31672637  0.07073356  0.90747873  1
  O2-  O183  1  0.31885158  0.57199435  0.24533157  1
  O2-  O184  1  0.32244007  0.57094063  0.57630563  1
  O2-  O185  1  0.31812706  0.57163879  0.90098903  1
  O2-  O186  1  0.81929579  0.07007373  0.23556804  1
  O2-  O187  1  0.82058456  0.07101432  0.56745159  1
  O2-  O188  1  0.82580356  0.06690974  0.90211904  1
  O2-  O189  1  0.82159240  0.56655742  0.23342670  1
  O2-  O190  1  0.82044555  0.57198068  0.57638607  1
  O2-  O191  1  0.82220121  0.57118985  0.90717359  1
  O2-  O192  1  0.05639996  0.08184602  0.27317783  1
  O2-  O193  1  0.04506372  0.08446091  0.59770445  1
  O2-  O194  1  0.04523046  0.08744981  0.93955911  1
  O2-  O195  1  0.04898141  0.57713383  0.26342479  1
  O2-  O196  1  0.04848734  0.57533647  0.60624786  1
  O2-  O197  1  0.05611087  0.58068496  0.93934007  1
  O2-  O198  1  0.53758752  0.08676857  0.26695503  1
  O2-  O199  1  0.54867991  0.08330565  0.60585689  1
  O2-  O200  1  0.54421167  0.07852430  0.92876275  1
  O2-  O201  1  0.53757281  0.57777509  0.26409627  1
  O2-  O202  1  0.53680892  0.58616683  0.59623711  1
  O2-  O203  1  0.53714178  0.58921968  0.93871729  1
  O2-  O204  1  0.16609395  0.20897185  0.26898674  1
  O2-  O205  1  0.16547907  0.21275006  0.59845402  1
  O2-  O206  1  0.16162076  0.20827782  0.93648464  1
  O2-  O207  1  0.16740762  0.70917793  0.26406807  1
  O2-  O208  1  0.16978878  0.70731952  0.60161128  1
  O2-  O209  1  0.16672507  0.70858374  0.93481275  1
  O2-  O210  1  0.66664851  0.21131773  0.26729219  1
  O2-  O211  1  0.66668302  0.20648783  0.60624632  1
  O2-  O212  1  0.67243393  0.20622676  0.92952619  1
  O2-  O213  1  0.67034051  0.69918732  0.26228967  1
  O2-  O214  1  0.66439822  0.70793549  0.59653330  1
  O2-  O215  1  0.66081655  0.70531555  0.93756357  1
  O2-  O216  1  0.08199996  0.44866048  0.06403901  1
  O2-  O217  1  0.08635080  0.45419249  0.39469488  1
  O2-  O218  1  0.08071698  0.45377368  0.73858370  1
  O2-  O219  1  0.09077874  0.96045256  0.06393538  1
  O2-  O220  1  0.08733805  0.95347549  0.39931187  1
  O2-  O221  1  0.09096700  0.96135442  0.73095395  1
  O2-  O222  1  0.58523565  0.46225563  0.06753596  1
  O2-  O223  1  0.57625897  0.45286249  0.40122145  1
  O2-  O224  1  0.58471993  0.46223608  0.72795155  1
  O2-  O225  1  0.57512235  0.94834330  0.06436212  1
  O2-  O226  1  0.58651853  0.95912678  0.39851261  1
  O2-  O227  1  0.58386483  0.95243239  0.73169949  1
  O2-  O228  1  0.20479116  0.33271923  0.06647011  1
  O2-  O229  1  0.20733352  0.33766817  0.39730208  1
  O2-  O230  1  0.21228889  0.33342121  0.73556606  1
  O2-  O231  1  0.20587006  0.83707009  0.06242815  1
  O2-  O232  1  0.20720370  0.83400468  0.39808760  1
  O2-  O233  1  0.20819030  0.83837525  0.73213486  1
  O2-  O234  1  0.70922952  0.33335557  0.06345379  1
  O2-  O235  1  0.71052142  0.33214495  0.40509516  1
  O2-  O236  1  0.70355097  0.33980358  0.73179351  1
  O2-  O237  1  0.70762976  0.82894916  0.06792828  1
  O2-  O238  1  0.69586390  0.83061407  0.39079501  1
  O2-  O239  1  0.70067520  0.83166023  0.72677795  1
  O2-  O240  1  0.44381409  0.41767778  0.27449607  1
  O2-  O241  1  0.45809533  0.41547671  0.59627598  1
  O2-  O242  1  0.45832574  0.42068444  0.93373572  1
  O2-  O243  1  0.45671885  0.92014061  0.26772784  1
  O2-  O244  1  0.45189009  0.92019031  0.60717761  1
  O2-  O245  1  0.44903966  0.91361536  0.93544361  1
  O2-  O246  1  0.96306550  0.41116569  0.26323068  1
  O2-  O247  1  0.95081980  0.41636258  0.60761157  1
  O2-  O248  1  0.95682418  0.41376769  0.93530992  1
  O2-  O249  1  0.96408059  0.91962589  0.26248773  1
  O2-  O250  1  0.96531111  0.91729954  0.59915111  1
  O2-  O251  1  0.96695763  0.91533587  0.93176933  1
  O2-  O252  1  0.33243220  0.29260991  0.26981650  1
  O2-  O253  1  0.33401610  0.28848477  0.59847154  1
  O2-  O254  1  0.33028740  0.29227831  0.93249760  1
  O2-  O255  1  0.33217836  0.79389370  0.26668625  1
  O2-  O256  1  0.33384991  0.80179644  0.60515765  1
  O2-  O257  1  0.33497907  0.79068207  0.93573315  1
  O2-  O258  1  0.83372533  0.28749134  0.26744276  1
  O2-  O259  1  0.83035954  0.29748168  0.60682674  1
  O2-  O260  1  0.83775123  0.29599355  0.93526431  1
  O2-  O261  1  0.82844785  0.79980721  0.26379316  1
  O2-  O262  1  0.82955211  0.80051362  0.59874899  1
  O2-  O263  1  0.83295035  0.79085325  0.92925125  1
  O2-  O264  1  0.41390197  0.04660992  0.05723268  1
  O2-  O265  1  0.41767327  0.04032990  0.40401396  1
  O2-  O266  1  0.41452514  0.04743510  0.73175623  1
  O2-  O267  1  0.41356759  0.53869964  0.07121775  1
  O2-  O268  1  0.41038200  0.54480395  0.39870999  1
  O2-  O269  1  0.41477744  0.54257631  0.72774441  1
  O2-  O270  1  0.92074298  0.04027379  0.06890551  1
  O2-  O271  1  0.92208509  0.04356575  0.39898892  1
  O2-  O272  1  0.92061880  0.04129074  0.73221084  1
  O2-  O273  1  0.91987307  0.55084390  0.05667882  1
  O2-  O274  1  0.91927692  0.53748914  0.39896632  1
  O2-  O275  1  0.91011632  0.54583530  0.73146691  1
  O2-  O276  1  0.28835513  0.16152401  0.06070765  1
  O2-  O277  1  0.28931033  0.16674246  0.40306496  1
  O2-  O278  1  0.28971621  0.16299655  0.73066704  1
  O2-  O279  1  0.28945862  0.66677207  0.06999830  1
  O2-  O280  1  0.29151001  0.66447002  0.39715038  1
  O2-  O281  1  0.30030740  0.66771164  0.72722886  1
  O2-  O282  1  0.79813126  0.17079567  0.06473065  1
  O2-  O283  1  0.78808946  0.16400284  0.40306519  1
  O2-  O284  1  0.79207719  0.16673830  0.73592285  1
  O2-  O285  1  0.79617492  0.66529690  0.05760220  1
  O2-  O286  1  0.79694117  0.67228598  0.39768244  1
  O2-  O287  1  0.78982825  0.66543340  0.72685503  1
