# generated using pymatgen
data_Ca2Al2SiO7
_symmetry_space_group_name_H-M   'P 1'
_cell_length_a   15.45760604
_cell_length_b   15.45723945
_cell_length_c   15.28342995
_cell_angle_alpha   90.00413479
_cell_angle_beta   89.99751762
_cell_angle_gamma   90.01299300
_symmetry_Int_Tables_number   1
_chemical_formula_structural   Ca2Al2SiO7
_chemical_formula_sum   'Ca48 Al48 Si24 O168'
_cell_volume   3651.69912455
_cell_formula_units_Z   24
loop_
 _symmetry_equiv_pos_site_id
 _symmetry_equiv_pos_as_xyz
  1  'x, y, z'
loop_
 _atom_type_symbol
 _atom_type_oxidation_number
  Ca2+  2.0
  Al0+  0.0
  Si0+  0.0
  O2-  -2.0
loop_
 _atom_site_type_symbol
 _atom_site_label
 _atom_site_symmetry_multiplicity
 _atom_site_fract_x
 _atom_site_fract_y
 _atom_site_fract_z
 _atom_site_occupancy
  Ca2+  Ca0  1  0.17023798  0.07531073  0.17638010  1
  Ca2+  Ca1  1  0.17794875  0.07956008  0.50036520  1
  Ca2+  Ca2  1  0.17468376  0.08524376  0.83419187  1
  Ca2+  Ca3  1  0.16953515  0.58176347  0.17561794  1
  Ca2+  Ca4  1  0.17193701  0.57847200  0.50417672  1
  Ca2+  Ca5  1  0.16790695  0.58695873  0.83140695  1
  Ca2+  Ca6  1  0.67712278  0.07388559  0.17116000  1
  Ca2+  Ca7  1  0.66816241  0.08094393  0.49724498  1
  Ca2+  Ca8  1  0.67072190  0.07438199  0.84468666  1
  Ca2+  Ca9  1  0.66849937  0.57752034  0.16543024  1
  Ca2+  Ca10  1  0.66504789  0.57655146  0.49892315  1
  Ca2+  Ca11  1  0.67148315  0.58070614  0.84719146  1
  Ca2+  Ca12  1  0.07797698  0.33343779  0.16124172  1
  Ca2+  Ca13  1  0.08792314  0.33785134  0.49511806  1
  Ca2+  Ca14  1  0.07666581  0.33876174  0.83122898  1
  Ca2+  Ca15  1  0.08366735  0.82350979  0.16022860  1
  Ca2+  Ca16  1  0.09278047  0.82165729  0.49323755  1
  Ca2+  Ca17  1  0.07866536  0.82144837  0.83169978  1
  Ca2+  Ca18  1  0.57419438  0.34242061  0.16164096  1
  Ca2+  Ca19  1  0.56955030  0.33547147  0.49112770  1
  Ca2+  Ca20  1  0.57157601  0.33952383  0.83196494  1
  Ca2+  Ca21  1  0.58836821  0.83080372  0.16051898  1
  Ca2+  Ca22  1  0.57770405  0.83454784  0.49650988  1
  Ca2+  Ca23  1  0.58596772  0.82719419  0.83117823  1
  Ca2+  Ca24  1  0.33044295  0.42099572  0.17710020  1
  Ca2+  Ca25  1  0.32762086  0.42324221  0.50484384  1
  Ca2+  Ca26  1  0.33136629  0.41621401  0.83319027  1
  Ca2+  Ca27  1  0.32728734  0.92407683  0.17769867  1
  Ca2+  Ca28  1  0.33358929  0.92338148  0.50466741  1
  Ca2+  Ca29  1  0.33915153  0.91859055  0.83203115  1
  Ca2+  Ca30  1  0.82473533  0.41640100  0.16658531  1
  Ca2+  Ca31  1  0.82468880  0.41420130  0.50027656  1
  Ca2+  Ca32  1  0.82661033  0.42214738  0.84744561  1
  Ca2+  Ca33  1  0.82890884  0.91782936  0.16969188  1
  Ca2+  Ca34  1  0.82993855  0.91812795  0.49746526  1
  Ca2+  Ca35  1  0.83042286  0.91991769  0.84795039  1
  Ca2+  Ca36  1  0.41132323  0.17936788  0.16409570  1
  Ca2+  Ca37  1  0.40574312  0.17572631  0.49489273  1
  Ca2+  Ca38  1  0.41481919  0.17746800  0.82704441  1
  Ca2+  Ca39  1  0.42190153  0.66483587  0.16237250  1
  Ca2+  Ca40  1  0.40618737  0.66857731  0.49727609  1
  Ca2+  Ca41  1  0.42246935  0.66968078  0.82776514  1
  Ca2+  Ca42  1  0.91225538  0.16709612  0.16088197  1
  Ca2+  Ca43  1  0.91814030  0.16650783  0.49318030  1
  Ca2+  Ca44  1  0.90976139  0.17221933  0.83519194  1
  Ca2+  Ca45  1  0.92796951  0.66795443  0.15533851  1
  Ca2+  Ca46  1  0.93223508  0.66467826  0.49326771  1
  Ca2+  Ca47  1  0.92260373  0.66497918  0.83328866  1
  Al0+  Al48  1  0.00358428  -0.00094942  -0.00156649  1
  Al0+  Al49  1  -0.00049091  -0.00071362  0.34124251  1
  Al0+  Al50  1  -0.00065284  0.00089154  0.66703818  1
  Al0+  Al51  1  0.00138579  0.49726444  -0.00471145  1
  Al0+  Al52  1  -0.00038883  0.50010385  0.33056075  1
  Al0+  Al53  1  -0.00154176  0.49989428  0.66425242  1
  Al0+  Al54  1  0.49904635  0.00300328  0.00555494  1
  Al0+  Al55  1  0.50233237  0.00207274  0.33841034  1
  Al0+  Al56  1  0.50182238  -0.00058937  0.66780364  1
  Al0+  Al57  1  0.49798660  0.50256139  -0.00640911  1
  Al0+  Al58  1  0.50037370  0.50111198  0.33668083  1
  Al0+  Al59  1  0.49921585  0.49930509  0.66513058  1
  Al0+  Al60  1  0.24993782  0.25160406  -0.00430131  1
  Al0+  Al61  1  0.24749705  0.25038932  0.33280859  1
  Al0+  Al62  1  0.24792697  0.24950028  0.67118934  1
  Al0+  Al63  1  0.25109488  0.75020069  -0.00450162  1
  Al0+  Al64  1  0.25125690  0.75006023  0.33212616  1
  Al0+  Al65  1  0.25041258  0.74986102  0.66400618  1
  Al0+  Al66  1  0.74777843  0.24866285  0.00249457  1
  Al0+  Al67  1  0.74848216  0.24974216  0.34094897  1
  Al0+  Al68  1  0.74949453  0.24904289  0.66659049  1
  Al0+  Al69  1  0.75142095  0.74880266  -0.00013218  1
  Al0+  Al70  1  0.75053332  0.75025637  0.33825830  1
  Al0+  Al71  1  0.75062295  0.75001186  0.66429298  1
  Al0+  Al72  1  0.17939330  0.92740528  0.34782171  1
  Al0+  Al73  1  0.32152196  0.57239328  0.68446816  1
  Al0+  Al74  1  0.32233048  0.57092133  0.34646841  1
  Al0+  Al75  1  0.32159543  0.06998005  0.68214138  1
  Al0+  Al76  1  0.07235664  0.67932151  0.31796686  1
  Al0+  Al77  1  0.92718922  0.31799714  0.98792177  1
  Al0+  Al78  1  0.43154980  0.82077332  0.65295776  1
  Al0+  Al79  1  0.42851227  0.32041971  0.31943374  1
  Al0+  Al80  1  0.82439747  0.57047512  0.01467414  1
  Al0+  Al81  1  0.67876432  0.92629865  0.35099692  1
  Al0+  Al82  1  0.42804687  0.32009888  0.65068370  1
  Al0+  Al83  1  0.32119719  0.07252852  0.34689190  1
  Al0+  Al84  1  0.17716203  0.42916745  0.68426768  1
  Al0+  Al85  1  0.82380401  0.07090340  0.01413916  1
  Al0+  Al86  1  0.17641203  0.42935624  0.34542107  1
  Al0+  Al87  1  0.42846222  0.32195740  0.98515561  1
  Al0+  Al88  1  0.67794708  0.92702760  0.01445352  1
  Al0+  Al89  1  0.82124072  0.07134784  0.35026661  1
  Al0+  Al90  1  0.67874303  0.42979196  0.34726714  1
  Al0+  Al91  1  0.67554524  0.42961049  0.01371682  1
  Al0+  Al92  1  0.06900272  0.67953317  0.65027435  1
  Al0+  Al93  1  0.57082492  0.68118884  0.98844747  1
  Al0+  Al94  1  0.07366208  0.67640954  0.98316290  1
  Al0+  Al95  1  0.92977756  0.82146432  0.98652055  1
  Si0+  Si96  1  0.31992531  0.07388802  0.01532225  1
  Si0+  Si97  1  0.92765242  0.82194899  0.31753228  1
  Si0+  Si98  1  0.82194453  0.07150746  0.68369548  1
  Si0+  Si99  1  0.92763905  0.31999586  0.65055202  1
  Si0+  Si100  1  0.57257451  0.67955076  0.31885076  1
  Si0+  Si101  1  0.57293154  0.17813525  0.64950534  1
  Si0+  Si102  1  0.57013356  0.17700942  0.98450596  1
  Si0+  Si103  1  0.06918120  0.17800789  0.31949579  1
  Si0+  Si104  1  0.57380778  0.17825192  0.31537356  1
  Si0+  Si105  1  0.06983631  0.17810915  0.65105368  1
  Si0+  Si106  1  0.31973002  0.57231268  0.01356821  1
  Si0+  Si107  1  0.17728390  0.92760859  0.68517465  1
  Si0+  Si108  1  0.81943397  0.57018448  0.68003087  1
  Si0+  Si109  1  0.92694759  0.82411872  0.64798428  1
  Si0+  Si110  1  0.92624635  0.32034946  0.31899708  1
  Si0+  Si111  1  0.42798661  0.82533141  0.98561364  1
  Si0+  Si112  1  0.43071119  0.82314304  0.31862197  1
  Si0+  Si113  1  0.68083711  0.92869718  0.68278901  1
  Si0+  Si114  1  0.82259162  0.57166708  0.35008460  1
  Si0+  Si115  1  0.07336001  0.17737640  0.98265033  1
  Si0+  Si116  1  0.18000784  0.42796362  0.01462066  1
  Si0+  Si117  1  0.57420371  0.67738972  0.64807183  1
  Si0+  Si118  1  0.67906226  0.42809222  0.68167933  1
  Si0+  Si119  1  0.18188593  0.92808582  0.01312378  1
  O2-  O120  1  0.25166884  0.00004086  0.05604281  1
  O2-  O121  1  0.25318783  -0.00257554  0.39786271  1
  O2-  O122  1  0.24756996  -0.00532675  0.73026778  1
  O2-  O123  1  0.24819731  0.50186333  0.05561223  1
  O2-  O124  1  0.24915159  0.49981397  0.39540524  1
  O2-  O125  1  0.25003800  0.49994822  0.73530154  1
  O2-  O126  1  0.75371454  -0.00363631  0.06252733  1
  O2-  O127  1  0.75000516  -0.00087838  0.40121830  1
  O2-  O128  1  0.75347139  -0.00187490  0.72472745  1
  O2-  O129  1  0.75091291  0.49874924  0.06327947  1
  O2-  O130  1  0.75409210  0.50323440  0.39549532  1
  O2-  O131  1  0.74660589  0.50198704  0.72349119  1
  O2-  O132  1  -0.00253403  0.24874943  0.27771334  1
  O2-  O133  1  -0.00027572  0.25020843  0.60856689  1
  O2-  O134  1  -0.00006306  0.24175719  0.93925093  1
  O2-  O135  1  -0.00262508  0.75483026  0.27315685  1
  O2-  O136  1  -0.00320864  0.75732684  0.60348611  1
  O2-  O137  1  -0.00199576  0.74632006  0.93537940  1
  O2-  O138  1  0.50303237  0.24523740  0.27162752  1
  O2-  O139  1  0.50307462  0.24491875  0.60463443  1
  O2-  O140  1  0.50441329  0.24788918  0.93904894  1
  O2-  O141  1  0.50259395  0.75243940  0.27722588  1
  O2-  O142  1  0.50249191  0.74303590  0.60430238  1
  O2-  O143  1  0.50079441  0.76073946  0.94240052  1
  O2-  O144  1  0.07780202  0.17962241  0.08820143  1
  O2-  O145  1  0.06880488  0.17888838  0.42482271  1
  O2-  O146  1  0.06689462  0.17555357  0.75613705  1
  O2-  O147  1  0.07723601  0.67973343  0.09667209  1
  O2-  O148  1  0.07011929  0.67863094  0.43121782  1
  O2-  O149  1  0.06501254  0.68013355  0.76310290  1
  O2-  O150  1  0.56638951  0.17400564  0.08960688  1
  O2-  O151  1  0.57508790  0.18090774  0.42132174  1
  O2-  O152  1  0.57567708  0.18001110  0.75511894  1
  O2-  O153  1  0.56627124  0.67851474  0.10171416  1
  O2-  O154  1  0.57316097  0.67982969  0.42411712  1
  O2-  O155  1  0.57866332  0.68015692  0.75348680  1
  O2-  O156  1  0.17610044  0.42934953  0.23131815  1
  O2-  O157  1  0.17632752  0.42965041  0.57096427  1
  O2-  O158  1  0.18165522  0.42482181  0.90983437  1
  O2-  O159  1  0.18057808  0.92975525  0.23345010  1
  O2-  O160  1  0.17648457  0.93027082  0.57983441  1
  O2-  O161  1  0.18372851  0.92872682  0.90798961  1
  O2-  O162  1  0.67869861  0.43144457  0.23468855  1
  O2-  O163  1  0.68203938  0.42724733  0.57643511  1
  O2-  O164  1  0.67639224  0.43229777  0.89941929  1
  O2-  O165  1  0.68038151  0.92504718  0.23793698  1
  O2-  O166  1  0.68165902  0.92904392  0.57799472  1
  O2-  O167  1  0.67631011  0.93064958  0.90014388  1
  O2-  O168  1  0.42546533  0.32094722  0.09818810  1
  O2-  O169  1  0.42898806  0.31947969  0.43248646  1
  O2-  O170  1  0.43093676  0.31899893  0.76413386  1
  O2-  O171  1  0.42401391  0.82349560  0.09118494  1
  O2-  O172  1  0.43099535  0.82257853  0.42372313  1
  O2-  O173  1  0.43750512  0.82229142  0.76631346  1
  O2-  O174  1  0.93046280  0.31797753  0.10114293  1
  O2-  O175  1  0.92640208  0.31974975  0.42465494  1
  O2-  O176  1  0.92457629  0.31814538  0.75546706  1
  O2-  O177  1  0.93481475  0.82351478  0.09999930  1
  O2-  O178  1  0.92688869  0.81871516  0.42352871  1
  O2-  O179  1  0.92514702  0.82407698  0.75326294  1
  O2-  O180  1  0.31726491  0.07175654  0.23266240  1
  O2-  O181  1  0.31876648  0.06958979  0.56959284  1
  O2-  O182  1  0.31948980  0.07420517  0.91009893  1
  O2-  O183  1  0.32346133  0.56978634  0.23207814  1
  O2-  O184  1  0.31998902  0.57139487  0.57121760  1
  O2-  O185  1  0.31979919  0.57343386  0.90877846  1
  O2-  O186  1  0.82129108  0.07176399  0.23729435  1
  O2-  O187  1  0.82170239  0.07343755  0.57901781  1
  O2-  O188  1  0.81991383  0.07066601  0.89973459  1
  O2-  O189  1  0.82229603  0.57128513  0.24502708  1
  O2-  O190  1  0.81834662  0.56799034  0.57472182  1
  O2-  O191  1  0.82233592  0.56787219  0.90019405  1
  O2-  O192  1  0.04166282  0.08519029  0.27331322  1
  O2-  O193  1  0.04064291  0.08692293  0.60231789  1
  O2-  O194  1  0.05486004  0.08258678  0.93633442  1
  O2-  O195  1  0.03998462  0.58274112  0.26416637  1
  O2-  O196  1  0.03392331  0.58377517  0.59635662  1
  O2-  O197  1  0.04874726  0.57746316  0.93055190  1
  O2-  O198  1  0.55166931  0.08268173  0.27177280  1
  O2-  O199  1  0.55024908  0.08339343  0.60528948  1
  O2-  O200  1  0.54098186  0.08470696  0.93583109  1
  O2-  O201  1  0.54313460  0.58857716  0.27137430  1
  O2-  O202  1  0.55238338  0.58214817  0.60429886  1
  O2-  O203  1  0.53572626  0.58865516  0.92887859  1
  O2-  O204  1  0.15953792  0.20535613  0.26910093  1
  O2-  O205  1  0.16183787  0.20508286  0.60482021  1
  O2-  O206  1  0.16364297  0.20935835  0.93279544  1
  O2-  O207  1  0.16911761  0.71002778  0.26361492  1
  O2-  O208  1  0.16650178  0.70900445  0.59834795  1
  O2-  O209  1  0.16984007  0.71122886  0.92826659  1
  O2-  O210  1  0.66747270  0.20634113  0.27107894  1
  O2-  O211  1  0.66639290  0.20522405  0.60225555  1
  O2-  O212  1  0.66475967  0.19823624  0.93881586  1
  O2-  O213  1  0.66554643  0.70621628  0.27297497  1
  O2-  O214  1  0.66652335  0.70627922  0.59975960  1
  O2-  O215  1  0.66808083  0.70594311  0.93265863  1
  O2-  O216  1  0.08682165  0.45137612  0.06011064  1
  O2-  O217  1  0.07759066  0.45593781  0.39880754  1
  O2-  O218  1  0.07671670  0.45791291  0.73439219  1
  O2-  O219  1  0.09070650  0.95503268  0.06115489  1
  O2-  O220  1  0.08254068  0.95477969  0.40313182  1
  O2-  O221  1  0.08370586  0.95652717  0.73067096  1
  O2-  O222  1  0.57775298  0.46357798  0.06484579  1
  O2-  O223  1  0.58511729  0.46395937  0.40424587  1
  O2-  O224  1  0.58593618  0.45242745  0.72663509  1
  O2-  O225  1  0.58006744  0.95750381  0.06860791  1
  O2-  O226  1  0.58149451  0.95614606  0.40533421  1
  O2-  O227  1  0.59029733  0.95759258  0.73098035  1
  O2-  O228  1  0.20997923  0.33657565  0.06219300  1
  O2-  O229  1  0.20161134  0.33042320  0.39762405  1
  O2-  O230  1  0.20185131  0.32972248  0.73712405  1
  O2-  O231  1  0.21139726  0.83686524  0.06083948  1
  O2-  O232  1  0.20949782  0.83024364  0.40022323  1
  O2-  O233  1  0.20252087  0.83400203  0.72992524  1
  O2-  O234  1  0.69934294  0.32998080  0.06499749  1
  O2-  O235  1  0.70921616  0.33523146  0.40488646  1
  O2-  O236  1  0.70988923  0.33680106  0.72856096  1
  O2-  O237  1  0.70267259  0.82791768  0.06585457  1
  O2-  O238  1  0.70760333  0.82899617  0.40718738  1
  O2-  O239  1  0.70740695  0.83531138  0.72829120  1
  O2-  O240  1  0.46206677  0.41784802  0.26792311  1
  O2-  O241  1  0.45987102  0.41687748  0.59758532  1
  O2-  O242  1  0.45808410  0.41746472  0.92894703  1
  O2-  O243  1  0.45730108  0.91622550  0.27251962  1
  O2-  O244  1  0.46569521  0.91657642  0.59853173  1
  O2-  O245  1  0.44867236  0.92131758  0.94198908  1
  O2-  O246  1  0.95293614  0.41177242  0.27103233  1
  O2-  O247  1  0.95252476  0.41178227  0.60229697  1
  O2-  O248  1  0.96029286  0.41211600  0.93026792  1
  O2-  O249  1  0.95103299  0.91772489  0.27567071  1
  O2-  O250  1  0.95005030  0.91944655  0.60368304  1
  O2-  O251  1  0.96160244  0.91862974  0.93059713  1
  O2-  O252  1  0.33137086  0.28937771  0.26522831  1
  O2-  O253  1  0.32975014  0.28789330  0.60152610  1
  O2-  O254  1  0.33364678  0.28745876  0.92930292  1
  O2-  O255  1  0.33981134  0.79523731  0.26944597  1
  O2-  O256  1  0.33327379  0.79575672  0.59993173  1
  O2-  O257  1  0.33762269  0.79566501  0.93523957  1
  O2-  O258  1  0.83395317  0.29162956  0.27368137  1
  O2-  O259  1  0.83643090  0.28918121  0.60213016  1
  O2-  O260  1  0.82984837  0.28953718  0.93247490  1
  O2-  O261  1  0.83346960  0.79541983  0.27306183  1
  O2-  O262  1  0.83369824  0.79670751  0.60119827  1
  O2-  O263  1  0.83059294  0.79723423  0.93326487  1
  O2-  O264  1  0.41161018  0.05044202  0.06405186  1
  O2-  O265  1  0.42080751  0.05092918  0.39878075  1
  O2-  O266  1  0.41914090  0.03990793  0.73549486  1
  O2-  O267  1  0.41112272  0.54324026  0.05993356  1
  O2-  O268  1  0.41959144  0.54503605  0.40191210  1
  O2-  O269  1  0.42238399  0.54521332  0.73433030  1
  O2-  O270  1  0.92531012  0.04809078  0.06335796  1
  O2-  O271  1  0.91850511  0.04413277  0.40657927  1
  O2-  O272  1  0.91492765  0.04739563  0.73037294  1
  O2-  O273  1  0.92301581  0.53975620  0.06577477  1
  O2-  O274  1  0.91493849  0.54304495  0.39679461  1
  O2-  O275  1  0.90983222  0.53997267  0.72722441  1
  O2-  O276  1  0.28750072  0.16465801  0.06182672  1
  O2-  O277  1  0.28573595  0.16786888  0.40060092  1
  O2-  O278  1  0.28686220  0.16437998  0.73790674  1
  O2-  O279  1  0.29396445  0.66508899  0.06074811  1
  O2-  O280  1  0.29536595  0.66975965  0.39754213  1
  O2-  O281  1  0.29398633  0.67226248  0.73552865  1
  O2-  O282  1  0.79354026  0.16797888  0.06776021  1
  O2-  O283  1  0.79191481  0.16828693  0.40660368  1
  O2-  O284  1  0.79151906  0.16325297  0.73062739  1
  O2-  O285  1  0.79828162  0.66890862  0.06672156  1
  O2-  O286  1  0.79731024  0.66409883  0.39846459  1
  O2-  O287  1  0.79465238  0.66385603  0.72567769  1
