# generated using pymatgen
data_Ca2Al2SiO7
_symmetry_space_group_name_H-M   'P 1'
_cell_length_a   15.46133581
_cell_length_b   15.46095549
_cell_length_c   15.28525921
_cell_angle_alpha   89.98663091
_cell_angle_beta   89.99608308
_cell_angle_gamma   90.00425106
_symmetry_Int_Tables_number   1
_chemical_formula_structural   Ca2Al2SiO7
_chemical_formula_sum   'Ca48 Al48 Si24 O168'
_cell_volume   3653.89561692
_cell_formula_units_Z   24
loop_
 _symmetry_equiv_pos_site_id
 _symmetry_equiv_pos_as_xyz
  1  'x, y, z'
loop_
 _atom_type_symbol
 _atom_type_oxidation_number
  Ca2+  2.0
  Al0+  0.0
  Si0+  0.0
  O2-  -2.0
loop_
 _atom_site_type_symbol
 _atom_site_label
 _atom_site_symmetry_multiplicity
 _atom_site_fract_x
 _atom_site_fract_y
 _atom_site_fract_z
 _atom_site_occupancy
  Ca2+  Ca0  1  0.17377088  0.08801611  0.16288964  1
  Ca2+  Ca1  1  0.17316798  0.08196718  0.50835950  1
  Ca2+  Ca2  1  0.17179882  0.09083957  0.84022472  1
  Ca2+  Ca3  1  0.16581377  0.57563557  0.16818764  1
  Ca2+  Ca4  1  0.17247950  0.57681396  0.50562451  1
  Ca2+  Ca5  1  0.17552672  0.57948903  0.84427448  1
  Ca2+  Ca6  1  0.67917427  0.08814634  0.17300209  1
  Ca2+  Ca7  1  0.67632074  0.09012804  0.50274630  1
  Ca2+  Ca8  1  0.68184658  0.08507659  0.83973161  1
  Ca2+  Ca9  1  0.65424036  0.57604582  0.16690915  1
  Ca2+  Ca10  1  0.66540851  0.57426557  0.50664598  1
  Ca2+  Ca11  1  0.66840863  0.57375215  0.83924994  1
  Ca2+  Ca12  1  0.08580870  0.33166933  0.15761513  1
  Ca2+  Ca13  1  0.07858701  0.33131038  0.49953625  1
  Ca2+  Ca14  1  0.08388606  0.32404174  0.82790401  1
  Ca2+  Ca15  1  0.07823567  0.82613040  0.15537762  1
  Ca2+  Ca16  1  0.08119619  0.83160634  0.49800891  1
  Ca2+  Ca17  1  0.08190920  0.82891185  0.83887231  1
  Ca2+  Ca18  1  0.58340265  0.33296037  0.16105199  1
  Ca2+  Ca19  1  0.58764474  0.33229425  0.49501779  1
  Ca2+  Ca20  1  0.58033659  0.34125579  0.83492587  1
  Ca2+  Ca21  1  0.57568529  0.82172501  0.15934372  1
  Ca2+  Ca22  1  0.57597257  0.82498141  0.48768369  1
  Ca2+  Ca23  1  0.58020448  0.82799763  0.83563095  1
  Ca2+  Ca24  1  0.32530785  0.41613772  0.16183723  1
  Ca2+  Ca25  1  0.32821781  0.42116045  0.50395844  1
  Ca2+  Ca26  1  0.33091598  0.42492094  0.84555410  1
  Ca2+  Ca27  1  0.34293312  0.91647933  0.16498846  1
  Ca2+  Ca28  1  0.33517209  0.91977063  0.50518314  1
  Ca2+  Ca29  1  0.33675931  0.92945995  0.84085689  1
  Ca2+  Ca30  1  0.81945209  0.41598048  0.17067462  1
  Ca2+  Ca31  1  0.82147612  0.41799675  0.50927353  1
  Ca2+  Ca32  1  0.82366159  0.41049591  0.83462596  1
  Ca2+  Ca33  1  0.84085895  0.92678791  0.16763876  1
  Ca2+  Ca34  1  0.83108252  0.92870474  0.50540179  1
  Ca2+  Ca35  1  0.84034902  0.92604583  0.84037848  1
  Ca2+  Ca36  1  0.42320350  0.17249531  0.15772302  1
  Ca2+  Ca37  1  0.42474208  0.16589006  0.49390192  1
  Ca2+  Ca38  1  0.40884778  0.17365270  0.83086402  1
  Ca2+  Ca39  1  0.42328343  0.67082280  0.15614406  1
  Ca2+  Ca40  1  0.41979536  0.67010700  0.49178804  1
  Ca2+  Ca41  1  0.41807901  0.65970710  0.83326215  1
  Ca2+  Ca42  1  0.92111811  0.16479366  0.15800360  1
  Ca2+  Ca43  1  0.91362592  0.16946382  0.50128723  1
  Ca2+  Ca44  1  0.92478528  0.16808159  0.82659696  1
  Ca2+  Ca45  1  0.92301192  0.67324653  0.15352448  1
  Ca2+  Ca46  1  0.91304779  0.66325403  0.49869841  1
  Ca2+  Ca47  1  0.91833662  0.66565489  0.83090467  1
  Al0+  Al48  1  0.00268467  0.00094229  -0.00292318  1
  Al0+  Al49  1  0.00261548  0.00152346  0.33935618  1
  Al0+  Al50  1  0.00122904  -0.00247418  0.66467722  1
  Al0+  Al51  1  -0.00234635  0.49906862  -0.00152960  1
  Al0+  Al52  1  -0.00028642  0.49828994  0.33766331  1
  Al0+  Al53  1  -0.00131157  0.49924159  0.66380306  1
  Al0+  Al54  1  0.50400960  -0.00045933  0.00045036  1
  Al0+  Al55  1  0.50281487  0.00151916  0.32548538  1
  Al0+  Al56  1  0.49882204  -0.00035431  0.66924680  1
  Al0+  Al57  1  0.49922917  0.49876197  0.00086951  1
  Al0+  Al58  1  0.49707338  0.49938221  0.33479404  1
  Al0+  Al59  1  0.49897415  0.49958163  0.67063946  1
  Al0+  Al60  1  0.25177640  0.25005953  0.00061858  1
  Al0+  Al61  1  0.24888942  0.24932223  0.33933138  1
  Al0+  Al62  1  0.25050696  0.24914872  0.66207815  1
  Al0+  Al63  1  0.25034985  0.75255741  -0.00422236  1
  Al0+  Al64  1  0.24783514  0.75177836  0.33088817  1
  Al0+  Al65  1  0.24936728  0.75040826  0.66860205  1
  Al0+  Al66  1  0.75091091  0.24943734  0.00863956  1
  Al0+  Al67  1  0.75172260  0.25238903  0.33756076  1
  Al0+  Al68  1  0.74965286  0.24851464  0.67201064  1
  Al0+  Al69  1  0.74866242  0.75157708  -0.00862968  1
  Al0+  Al70  1  0.75023231  0.75231572  0.32799254  1
  Al0+  Al71  1  0.74882577  0.74870004  0.66674010  1
  Al0+  Al72  1  0.57123776  0.67653816  0.31861058  1
  Al0+  Al73  1  0.43092674  0.31813195  0.98721427  1
  Al0+  Al74  1  0.82244517  0.07075180  0.34921496  1
  Al0+  Al75  1  0.82265267  0.06865062  0.01432915  1
  Al0+  Al76  1  0.07240633  0.17739250  0.64864388  1
  Al0+  Al77  1  0.31913246  0.57107181  0.67932804  1
  Al0+  Al78  1  0.92705118  0.32028314  0.65077496  1
  Al0+  Al79  1  0.68004840  0.43059439  0.01586108  1
  Al0+  Al80  1  0.07134221  0.18191017  0.98830873  1
  Al0+  Al81  1  0.32078278  0.07045843  0.67902783  1
  Al0+  Al82  1  0.07116024  0.67550377  0.98462459  1
  Al0+  Al83  1  0.56925786  0.67682900  0.98105994  1
  Al0+  Al84  1  0.42858578  0.82343954  0.98130523  1
  Al0+  Al85  1  0.17673321  0.42851756  0.01246625  1
  Al0+  Al86  1  0.82217359  0.57261356  0.68172897  1
  Al0+  Al87  1  0.82102116  0.06865797  0.68160610  1
  Al0+  Al88  1  0.67874229  0.42799253  0.68363347  1
  Al0+  Al89  1  0.32025603  0.57340234  0.01635868  1
  Al0+  Al90  1  0.32344692  0.07165059  0.01443545  1
  Al0+  Al91  1  0.42696620  0.82203408  0.31805537  1
  Al0+  Al92  1  0.57361425  0.18234537  0.32012602  1
  Al0+  Al93  1  0.67722654  0.43185450  0.34740908  1
  Al0+  Al94  1  0.92930949  0.82174443  0.98472378  1
  Al0+  Al95  1  0.17723977  0.42754975  0.34980681  1
  Si0+  Si96  1  0.67689246  0.92671316  0.68250211  1
  Si0+  Si97  1  0.17776311  0.92693023  0.68434476  1
  Si0+  Si98  1  0.42941617  0.32231652  0.65070860  1
  Si0+  Si99  1  0.07186088  0.67919047  0.65025843  1
  Si0+  Si100  1  0.67886267  0.92628587  0.01811822  1
  Si0+  Si101  1  0.56965046  0.17766868  0.65388066  1
  Si0+  Si102  1  0.42911448  0.82165205  0.65160280  1
  Si0+  Si103  1  0.42456705  0.32077825  0.31769478  1
  Si0+  Si104  1  0.56963742  0.67809536  0.65072413  1
  Si0+  Si105  1  0.67843194  0.92823304  0.34882589  1
  Si0+  Si106  1  0.93065876  0.82392159  0.32062066  1
  Si0+  Si107  1  0.17947629  0.92855714  0.34864418  1
  Si0+  Si108  1  0.07178805  0.17839862  0.31815189  1
  Si0+  Si109  1  0.93058647  0.32077766  0.31811816  1
  Si0+  Si110  1  0.17783479  0.42751221  0.68220924  1
  Si0+  Si111  1  0.92748244  0.82002852  0.64924414  1
  Si0+  Si112  1  0.92462291  0.32149902  0.98547339  1
  Si0+  Si113  1  0.82246136  0.57421850  0.34689200  1
  Si0+  Si114  1  0.82139660  0.57484498  0.01571986  1
  Si0+  Si115  1  0.32306574  0.06990619  0.34718850  1
  Si0+  Si116  1  0.31844577  0.57357779  0.34922730  1
  Si0+  Si117  1  0.57568397  0.17840963  0.98334400  1
  Si0+  Si118  1  0.17933067  0.92997716  0.01695374  1
  Si0+  Si119  1  0.06865287  0.67818140  0.32051833  1
  O2-  O120  1  0.25194358  -0.00586900  0.06237585  1
  O2-  O121  1  0.25532891  -0.00466803  0.38913345  1
  O2-  O122  1  0.24283258  -0.00032216  0.72600911  1
  O2-  O123  1  0.24391885  0.50448667  0.06453876  1
  O2-  O124  1  0.25189051  0.50323166  0.39476992  1
  O2-  O125  1  0.24471116  0.49695910  0.72607156  1
  O2-  O126  1  0.74886029  -0.00614039  0.06244021  1
  O2-  O127  1  0.74564142  -0.00276565  0.39520842  1
  O2-  O128  1  0.74755074  -0.00736900  0.72749961  1
  O2-  O129  1  0.75296418  0.50760210  0.06239086  1
  O2-  O130  1  0.74818533  0.51174064  0.39096436  1
  O2-  O131  1  0.75280411  0.49889090  0.73187286  1
  O2-  O132  1  0.00189886  0.25003506  0.27579738  1
  O2-  O133  1  -0.00080911  0.24851192  0.59846217  1
  O2-  O134  1  -0.00175295  0.25793643  0.94237340  1
  O2-  O135  1  -0.00444151  0.74728922  0.27922683  1
  O2-  O136  1  -0.00309304  0.74664076  0.60692242  1
  O2-  O137  1  -0.00354123  0.74521817  0.93437044  1
  O2-  O138  1  0.49751799  0.25596835  0.27459118  1
  O2-  O139  1  0.50053326  0.25036073  0.61006190  1
  O2-  O140  1  0.50411024  0.24287982  0.93794187  1
  O2-  O141  1  0.49751547  0.74783475  0.27038649  1
  O2-  O142  1  0.49890624  0.74991214  0.60857327  1
  O2-  O143  1  0.49548821  0.74732720  0.93010654  1
  O2-  O144  1  0.06994977  0.18120202  0.10228554  1
  O2-  O145  1  0.07204105  0.17721826  0.42298470  1
  O2-  O146  1  0.07388531  0.17946087  0.76191575  1
  O2-  O147  1  0.06858251  0.67782678  0.09934940  1
  O2-  O148  1  0.06964412  0.68042273  0.42609090  1
  O2-  O149  1  0.07417033  0.68186826  0.75436302  1
  O2-  O150  1  0.57637953  0.18184130  0.08927952  1
  O2-  O151  1  0.57118627  0.18193624  0.43411388  1
  O2-  O152  1  0.56775201  0.17520037  0.75844110  1
  O2-  O153  1  0.56889095  0.67831551  0.09473716  1
  O2-  O154  1  0.57004125  0.67878515  0.43323883  1
  O2-  O155  1  0.56937295  0.67870255  0.75506145  1
  O2-  O156  1  0.17555443  0.42791063  0.23742573  1
  O2-  O157  1  0.18047009  0.42965229  0.57588084  1
  O2-  O158  1  0.18026043  0.42673576  0.89895762  1
  O2-  O159  1  0.17334732  0.92900929  0.24447192  1
  O2-  O160  1  0.18057925  0.92375597  0.57780585  1
  O2-  O161  1  0.17669641  0.93343233  0.91147078  1
  O2-  O162  1  0.68006734  0.42953148  0.23472531  1
  O2-  O163  1  0.67673902  0.43037188  0.56950297  1
  O2-  O164  1  0.68248715  0.42828214  0.90330285  1
  O2-  O165  1  0.68169187  0.92806108  0.24389945  1
  O2-  O166  1  0.67706514  0.92774554  0.57641083  1
  O2-  O167  1  0.67863916  0.92941664  0.91220890  1
  O2-  O168  1  0.43105216  0.31626588  0.10064330  1
  O2-  O169  1  0.42271522  0.31792109  0.42384392  1
  O2-  O170  1  0.42779772  0.32217841  0.75540004  1
  O2-  O171  1  0.43323761  0.82319084  0.09483903  1
  O2-  O172  1  0.42715022  0.82103321  0.43285024  1
  O2-  O173  1  0.43032935  0.82372884  0.75562141  1
  O2-  O174  1  0.92300897  0.31876822  0.09166327  1
  O2-  O175  1  0.93063668  0.32028403  0.42298325  1
  O2-  O176  1  0.92779212  0.31763468  0.76415066  1
  O2-  O177  1  0.93332106  0.82217587  0.09935870  1
  O2-  O178  1  0.93307460  0.82445654  0.42610955  1
  O2-  O179  1  0.92874770  0.82207366  0.75346059  1
  O2-  O180  1  0.32006530  0.07268119  0.24253183  1
  O2-  O181  1  0.32402502  0.06570753  0.56511886  1
  O2-  O182  1  0.31940889  0.07285429  0.90138231  1
  O2-  O183  1  0.31551124  0.57570666  0.24451752  1
  O2-  O184  1  0.31786033  0.57099847  0.56547993  1
  O2-  O185  1  0.31982647  0.56855597  0.90252572  1
  O2-  O186  1  0.82589946  0.06837154  0.23644699  1
  O2-  O187  1  0.81807187  0.06788965  0.56803217  1
  O2-  O188  1  0.82189629  0.06912654  0.90128153  1
  O2-  O189  1  0.82889278  0.57094772  0.24192295  1
  O2-  O190  1  0.81656041  0.57541843  0.56738777  1
  O2-  O191  1  0.82086752  0.57266883  0.91052199  1
  O2-  O192  1  0.04334477  0.08604789  0.27233875  1
  O2-  O193  1  0.04695431  0.07660006  0.59755701  1
  O2-  O194  1  0.04140760  0.08635771  0.93333390  1
  O2-  O195  1  0.04257841  0.58542930  0.27484271  1
  O2-  O196  1  0.04829946  0.58655928  0.60192284  1
  O2-  O197  1  0.04520042  0.57679261  0.93101909  1
  O2-  O198  1  0.54680368  0.08596121  0.26459874  1
  O2-  O199  1  0.53997678  0.08662612  0.60430666  1
  O2-  O200  1  0.55684120  0.08285752  0.94020826  1
  O2-  O201  1  0.54224955  0.57758955  0.26761307  1
  O2-  O202  1  0.53952830  0.58642555  0.60395293  1
  O2-  O203  1  0.54123054  0.57810145  0.92962497  1
  O2-  O204  1  0.16474164  0.20566774  0.27297202  1
  O2-  O205  1  0.17077210  0.20656583  0.59359147  1
  O2-  O206  1  0.16745631  0.21145219  0.93391003  1
  O2-  O207  1  0.15877357  0.70844137  0.27241464  1
  O2-  O208  1  0.16173564  0.71263806  0.60040280  1
  O2-  O209  1  0.16757625  0.70816754  0.93096926  1
  O2-  O210  1  0.67050464  0.21383092  0.26735656  1
  O2-  O211  1  0.66199904  0.20453123  0.60732153  1
  O2-  O212  1  0.66836038  0.20894912  0.93824339  1
  O2-  O213  1  0.67013401  0.70443414  0.26556986  1
  O2-  O214  1  0.66174945  0.70531067  0.60286881  1
  O2-  O215  1  0.66693182  0.70678365  0.92721265  1
  O2-  O216  1  0.07578616  0.45063804  0.06479774  1
  O2-  O217  1  0.08168052  0.45980468  0.40580077  1
  O2-  O218  1  0.08277501  0.44985464  0.72441749  1
  O2-  O219  1  0.08806006  0.96042029  0.06546561  1
  O2-  O220  1  0.09143918  0.96086484  0.40171172  1
  O2-  O221  1  0.08266812  0.94703286  0.72792791  1
  O2-  O222  1  0.58300626  0.45901927  0.06911052  1
  O2-  O223  1  0.57813835  0.45497308  0.40144714  1
  O2-  O224  1  0.58096473  0.45851628  0.73548396  1
  O2-  O225  1  0.58652999  0.95250438  0.06567780  1
  O2-  O226  1  0.58366128  0.95312803  0.39355843  1
  O2-  O227  1  0.58452490  0.95402675  0.72916000  1
  O2-  O228  1  0.21199510  0.33319046  0.06818661  1
  O2-  O229  1  0.20866752  0.33167039  0.40568359  1
  O2-  O230  1  0.20471013  0.33336793  0.72452128  1
  O2-  O231  1  0.19925169  0.83470125  0.06159063  1
  O2-  O232  1  0.20284733  0.83588003  0.39815727  1
  O2-  O233  1  0.20624796  0.83533179  0.73164092  1
  O2-  O234  1  0.71300921  0.33547794  0.07218750  1
  O2-  O235  1  0.71388757  0.33774485  0.40292649  1
  O2-  O236  1  0.70403375  0.32938593  0.73664827  1
  O2-  O237  1  0.70315582  0.83148799  0.06193656  1
  O2-  O238  1  0.70486357  0.83453680  0.39610803  1
  O2-  O239  1  0.69987712  0.83244781  0.72714980  1
  O2-  O240  1  0.44412867  0.41648568  0.27511604  1
  O2-  O241  1  0.45804997  0.41373277  0.60222290  1
  O2-  O242  1  0.46198154  0.41368418  0.93267485  1
  O2-  O243  1  0.45568547  0.91977094  0.26491828  1
  O2-  O244  1  0.45815876  0.91311693  0.60269273  1
  O2-  O245  1  0.46300694  0.92143507  0.92898589  1
  O2-  O246  1  0.95812453  0.41311248  0.27159637  1
  O2-  O247  1  0.95316719  0.41975872  0.59641364  1
  O2-  O248  1  0.94164517  0.41692656  0.94098211  1
  O2-  O249  1  0.96616586  0.91357198  0.27400592  1
  O2-  O250  1  0.95900728  0.90973090  0.59894478  1
  O2-  O251  1  0.96558085  0.91687062  0.93010785  1
  O2-  O252  1  0.33247197  0.28939219  0.27191724  1
  O2-  O253  1  0.33853261  0.29479188  0.60091798  1
  O2-  O254  1  0.33557355  0.28699225  0.93156762  1
  O2-  O255  1  0.32626421  0.79914128  0.26702340  1
  O2-  O256  1  0.33610079  0.79474152  0.60488094  1
  O2-  O257  1  0.32717372  0.80608560  0.93148508  1
  O2-  O258  1  0.83917794  0.29220237  0.27127456  1
  O2-  O259  1  0.82784334  0.28901698  0.59900712  1
  O2-  O260  1  0.83369286  0.28836432  0.93905010  1
  O2-  O261  1  0.83737749  0.80502657  0.27315252  1
  O2-  O262  1  0.83469362  0.79458876  0.60122467  1
  O2-  O263  1  0.83003497  0.80215023  0.93109314  1
  O2-  O264  1  0.42228993  0.04470912  0.06627666  1
  O2-  O265  1  0.41685167  0.04509493  0.39253726  1
  O2-  O266  1  0.41570325  0.03818503  0.73472231  1
  O2-  O267  1  0.41659719  0.53929211  0.06893169  1
  O2-  O268  1  0.41205313  0.54885821  0.39593759  1
  O2-  O269  1  0.41470560  0.54037036  0.73302769  1
  O2-  O270  1  0.91966228  0.03704828  0.06761679  1
  O2-  O271  1  0.91789379  0.03750218  0.40485161  1
  O2-  O272  1  0.91903277  0.03740198  0.73143454  1
  O2-  O273  1  0.91530758  0.55031397  0.06191761  1
  O2-  O274  1  0.91309611  0.54397972  0.39743765  1
  O2-  O275  1  0.92344972  0.54987369  0.73043619  1
  O2-  O276  1  0.28867949  0.16558052  0.07055222  1
  O2-  O277  1  0.29187201  0.15914006  0.39785710  1
  O2-  O278  1  0.29336946  0.16918816  0.72966336  1
  O2-  O279  1  0.29675047  0.67477514  0.06472833  1
  O2-  O280  1  0.29004206  0.66682543  0.39640790  1
  O2-  O281  1  0.28962509  0.66779186  0.73249012  1
  O2-  O282  1  0.79090482  0.16343607  0.07140429  1
  O2-  O283  1  0.79081563  0.16706314  0.40275924  1
  O2-  O284  1  0.78924908  0.16335273  0.73646215  1
  O2-  O285  1  0.79824988  0.67061394  0.05857391  1
  O2-  O286  1  0.80410202  0.67135139  0.38973689  1
  O2-  O287  1  0.79434834  0.67142577  0.73380137  1
