# generated using pymatgen
data_Ca2Al2SiO7
_symmetry_space_group_name_H-M   'P 1'
_cell_length_a   15.45773846
_cell_length_b   15.45797596
_cell_length_c   15.28406294
_cell_angle_alpha   89.99543039
_cell_angle_beta   90.00281816
_cell_angle_gamma   90.01469433
_symmetry_Int_Tables_number   1
_chemical_formula_structural   Ca2Al2SiO7
_chemical_formula_sum   'Ca48 Al48 Si24 O168'
_cell_volume   3652.05562592
_cell_formula_units_Z   24
loop_
 _symmetry_equiv_pos_site_id
 _symmetry_equiv_pos_as_xyz
  1  'x, y, z'
loop_
 _atom_type_symbol
 _atom_type_oxidation_number
  Ca2+  2.0
  Al0+  0.0
  Si0+  0.0
  O2-  -2.0
loop_
 _atom_site_type_symbol
 _atom_site_label
 _atom_site_symmetry_multiplicity
 _atom_site_fract_x
 _atom_site_fract_y
 _atom_site_fract_z
 _atom_site_occupancy
  Ca2+  Ca0  1  0.16932626  0.08426263  0.16515291  1
  Ca2+  Ca1  1  0.16676573  0.08572441  0.50946522  1
  Ca2+  Ca2  1  0.17252952  0.07804384  0.83374634  1
  Ca2+  Ca3  1  0.18290518  0.58454604  0.17257487  1
  Ca2+  Ca4  1  0.17080178  0.57766046  0.50442216  1
  Ca2+  Ca5  1  0.16974798  0.57513848  0.84081388  1
  Ca2+  Ca6  1  0.67426204  0.08351190  0.17498107  1
  Ca2+  Ca7  1  0.67978714  0.07014169  0.50748716  1
  Ca2+  Ca8  1  0.67741563  0.08352765  0.83965113  1
  Ca2+  Ca9  1  0.65759010  0.57753128  0.17395472  1
  Ca2+  Ca10  1  0.65980901  0.57535790  0.50396010  1
  Ca2+  Ca11  1  0.65775990  0.58185189  0.83196506  1
  Ca2+  Ca12  1  0.07683859  0.32825265  0.16772945  1
  Ca2+  Ca13  1  0.08003750  0.32254513  0.49308092  1
  Ca2+  Ca14  1  0.08406695  0.32656966  0.82152825  1
  Ca2+  Ca15  1  0.07778718  0.84072838  0.16444382  1
  Ca2+  Ca16  1  0.07051834  0.84591958  0.49861679  1
  Ca2+  Ca17  1  0.08126127  0.84288514  0.82635386  1
  Ca2+  Ca18  1  0.58107854  0.32842412  0.15822052  1
  Ca2+  Ca19  1  0.58768911  0.33510144  0.49655853  1
  Ca2+  Ca20  1  0.57822583  0.32754992  0.83324476  1
  Ca2+  Ca21  1  0.58983612  0.82216453  0.16380805  1
  Ca2+  Ca22  1  0.59415657  0.82481059  0.49563504  1
  Ca2+  Ca23  1  0.58862140  0.82302004  0.82451603  1
  Ca2+  Ca24  1  0.34443906  0.42623961  0.16811548  1
  Ca2+  Ca25  1  0.32854707  0.42341362  0.50454619  1
  Ca2+  Ca26  1  0.33071792  0.41853454  0.83725946  1
  Ca2+  Ca27  1  0.32978077  0.91902968  0.16656650  1
  Ca2+  Ca28  1  0.32428857  0.92570012  0.51063344  1
  Ca2+  Ca29  1  0.32396557  0.92521671  0.83852319  1
  Ca2+  Ca30  1  0.82624923  0.41719524  0.17725900  1
  Ca2+  Ca31  1  0.82415982  0.41147330  0.50204167  1
  Ca2+  Ca32  1  0.82468416  0.41561810  0.83431253  1
  Ca2+  Ca33  1  0.82845945  0.92703406  0.17539149  1
  Ca2+  Ca34  1  0.83211563  0.91897996  0.50411367  1
  Ca2+  Ca35  1  0.83377536  0.92479270  0.83139890  1
  Ca2+  Ca36  1  0.42510240  0.17269261  0.15269002  1
  Ca2+  Ca37  1  0.41592887  0.16678695  0.49730975  1
  Ca2+  Ca38  1  0.41149888  0.16632880  0.83154829  1
  Ca2+  Ca39  1  0.42447220  0.66103787  0.16108358  1
  Ca2+  Ca40  1  0.42523359  0.66673754  0.49451955  1
  Ca2+  Ca41  1  0.42336184  0.66480839  0.83151806  1
  Ca2+  Ca42  1  0.91441944  0.16397556  0.16802906  1
  Ca2+  Ca43  1  0.92470046  0.16142175  0.49359472  1
  Ca2+  Ca44  1  0.92132902  0.15848141  0.82633671  1
  Ca2+  Ca45  1  0.91338247  0.67724617  0.16462058  1
  Ca2+  Ca46  1  0.91409730  0.68141764  0.49590105  1
  Ca2+  Ca47  1  0.92007346  0.67751185  0.82328692  1
  Al0+  Al48  1  -0.00270589  0.00129650  0.00736749  1
  Al0+  Al49  1  0.00201732  0.00004405  0.32538129  1
  Al0+  Al50  1  0.00045912  0.00107228  0.66443286  1
  Al0+  Al51  1  -0.00179477  0.50096139  0.00067714  1
  Al0+  Al52  1  0.00132487  0.49953168  0.32928756  1
  Al0+  Al53  1  -0.00083979  0.50042909  0.66966633  1
  Al0+  Al54  1  0.50058797  -0.00301224  -0.00050892  1
  Al0+  Al55  1  0.49894653  -0.00158897  0.33665275  1
  Al0+  Al56  1  0.50104040  -0.00055116  0.67231353  1
  Al0+  Al57  1  0.49905084  0.49862009  -0.00581147  1
  Al0+  Al58  1  0.49951913  0.50103422  0.33943804  1
  Al0+  Al59  1  0.50041614  0.49902150  0.66650589  1
  Al0+  Al60  1  0.24700840  0.24963795  0.00024344  1
  Al0+  Al61  1  0.24947433  0.25117045  0.32661503  1
  Al0+  Al62  1  0.24995556  0.25317250  0.66827919  1
  Al0+  Al63  1  0.24925353  0.74729991  0.00788931  1
  Al0+  Al64  1  0.25200229  0.75119383  0.33975803  1
  Al0+  Al65  1  0.25204269  0.74993183  0.66863081  1
  Al0+  Al66  1  0.74984934  0.25116462  0.00003194  1
  Al0+  Al67  1  0.75091284  0.24993787  0.33865781  1
  Al0+  Al68  1  0.74822234  0.25156965  0.67523022  1
  Al0+  Al69  1  0.75194938  0.74996577  -0.00639544  1
  Al0+  Al70  1  0.75043332  0.74799959  0.32512157  1
  Al0+  Al71  1  0.75142570  0.74844689  0.66111173  1
  Al0+  Al72  1  0.32050839  0.56699084  0.01314455  1
  Al0+  Al73  1  0.17792738  0.43118825  0.67849096  1
  Al0+  Al74  1  0.93238659  0.82042300  0.65314949  1
  Al0+  Al75  1  0.81775538  0.07149426  0.01606274  1
  Al0+  Al76  1  0.17856764  0.92898470  0.67910002  1
  Al0+  Al77  1  0.06996488  0.18198637  0.65476669  1
  Al0+  Al78  1  0.82077761  0.07064122  0.68139725  1
  Al0+  Al79  1  0.92656905  0.32134298  0.31889910  1
  Al0+  Al80  1  0.93022510  0.81953648  0.31664970  1
  Al0+  Al81  1  0.57314366  0.17618331  0.98523425  1
  Al0+  Al82  1  0.32137481  0.57121988  0.34932746  1
  Al0+  Al83  1  0.67801926  0.92618957  0.34699555  1
  Al0+  Al84  1  0.07254190  0.17827086  0.31447702  1
  Al0+  Al85  1  0.56805453  0.67953311  0.31933184  1
  Al0+  Al86  1  0.67773686  0.42970071  0.68366120  1
  Al0+  Al87  1  0.32281215  0.07221044  0.01658270  1
  Al0+  Al88  1  0.56849967  0.67962028  0.65044344  1
  Al0+  Al89  1  0.17853731  0.92925873  0.01703443  1
  Al0+  Al90  1  0.57063271  0.68037767  0.98462395  1
  Al0+  Al91  1  0.32281712  0.07395049  0.68032973  1
  Al0+  Al92  1  0.42758969  0.31953748  0.98388541  1
  Al0+  Al93  1  0.68012475  0.43015507  0.34570243  1
  Al0+  Al94  1  0.82272163  0.07011374  0.34970212  1
  Al0+  Al95  1  0.67993501  0.92486459  0.68222213  1
  Si0+  Si96  1  0.06748336  0.17943477  0.98344206  1
  Si0+  Si97  1  0.57287194  0.17797521  0.65139917  1
  Si0+  Si98  1  0.42976300  0.32081473  0.32038693  1
  Si0+  Si99  1  0.68062461  0.43252042  0.01436685  1
  Si0+  Si100  1  0.42549223  0.82367961  0.31654331  1
  Si0+  Si101  1  0.43015313  0.31992485  0.64973992  1
  Si0+  Si102  1  0.32255267  0.57134856  0.68375705  1
  Si0+  Si103  1  0.07515489  0.67488324  0.65120675  1
  Si0+  Si104  1  0.82260110  0.57296998  0.01466726  1
  Si0+  Si105  1  0.82167660  0.57235834  0.68302512  1
  Si0+  Si106  1  0.42665181  0.82434468  0.64988947  1
  Si0+  Si107  1  0.67841959  0.92390119  0.01532519  1
  Si0+  Si108  1  0.07153145  0.67809448  0.98620253  1
  Si0+  Si109  1  0.17763021  0.42740600  0.34889949  1
  Si0+  Si110  1  0.07546699  0.67708549  0.31687142  1
  Si0+  Si111  1  0.17356129  0.42683775  0.01867816  1
  Si0+  Si112  1  0.93175716  0.82151489  0.98331971  1
  Si0+  Si113  1  0.92509268  0.32440921  0.65174751  1
  Si0+  Si114  1  0.32097067  0.07358613  0.34665471  1
  Si0+  Si115  1  0.42434136  0.82086200  0.98341636  1
  Si0+  Si116  1  0.18007515  0.93020169  0.34865767  1
  Si0+  Si117  1  0.92821761  0.32398565  0.98361769  1
  Si0+  Si118  1  0.82524267  0.57265933  0.34826519  1
  Si0+  Si119  1  0.56997174  0.17768037  0.32281611  1
  O2-  O120  1  0.25218213  -0.00053520  0.06798392  1
  O2-  O121  1  0.24955369  0.00341653  0.38911209  1
  O2-  O122  1  0.25298967  -0.00134558  0.72793212  1
  O2-  O123  1  0.24637892  0.49193021  0.06169262  1
  O2-  O124  1  0.24374790  0.49838207  0.39337904  1
  O2-  O125  1  0.24825292  0.50869261  0.72730698  1
  O2-  O126  1  0.73871079  -0.00027895  0.06001697  1
  O2-  O127  1  0.75153727  -0.00379472  0.39737790  1
  O2-  O128  1  0.74688011  0.00106346  0.73272428  1
  O2-  O129  1  0.75061490  0.50380030  0.05764244  1
  O2-  O130  1  0.75787407  0.50245994  0.39192600  1
  O2-  O131  1  0.75379380  0.50368441  0.72904045  1
  O2-  O132  1  -0.00346279  0.24832084  0.26684461  1
  O2-  O133  1  -0.00646056  0.25554486  0.60851050  1
  O2-  O134  1  -0.00084536  0.25339067  0.94129661  1
  O2-  O135  1  0.00570507  0.74387524  0.27083903  1
  O2-  O136  1  0.00989012  0.74671307  0.60731518  1
  O2-  O137  1  0.00451430  0.75152945  0.94182831  1
  O2-  O138  1  0.49929689  0.24835804  0.27906874  1
  O2-  O139  1  0.49959142  0.24698702  0.60778930  1
  O2-  O140  1  0.49452252  0.24181740  0.93471757  1
  O2-  O141  1  0.49588774  0.75654080  0.27214873  1
  O2-  O142  1  0.49681125  0.75751226  0.60434392  1
  O2-  O143  1  0.49779903  0.75723641  0.93871221  1
  O2-  O144  1  0.06664287  0.18069867  0.08839258  1
  O2-  O145  1  0.07701767  0.18062318  0.42803172  1
  O2-  O146  1  0.06973917  0.18266301  0.76827905  1
  O2-  O147  1  0.06773742  0.67602515  0.09106309  1
  O2-  O148  1  0.07467552  0.67695457  0.42238121  1
  O2-  O149  1  0.07205224  0.67206784  0.75708619  1
  O2-  O150  1  0.57580077  0.18313523  0.09966288  1
  O2-  O151  1  0.56693733  0.17845692  0.42800520  1
  O2-  O152  1  0.57358291  0.18104752  0.75618825  1
  O2-  O153  1  0.57018570  0.67811900  0.09781510  1
  O2-  O154  1  0.56614965  0.67728443  0.43216027  1
  O2-  O155  1  0.56521643  0.67854506  0.76380819  1
  O2-  O156  1  0.17889982  0.42767649  0.24329878  1
  O2-  O157  1  0.18131613  0.43148056  0.56533011  1
  O2-  O158  1  0.16997990  0.43053919  0.91299838  1
  O2-  O159  1  0.18250452  0.92763535  0.24371825  1
  O2-  O160  1  0.17855807  0.93160710  0.56514660  1
  O2-  O161  1  0.17728672  0.93094647  0.90371759  1
  O2-  O162  1  0.67695689  0.43173348  0.23215570  1
  O2-  O163  1  0.67754497  0.43018372  0.57056658  1
  O2-  O164  1  0.68232576  0.43357040  0.90938963  1
  O2-  O165  1  0.67714722  0.92878739  0.23303251  1
  O2-  O166  1  0.68314316  0.92505859  0.56869125  1
  O2-  O167  1  0.68500528  0.91944985  0.91024062  1
  O2-  O168  1  0.43489263  0.32365928  0.09807771  1
  O2-  O169  1  0.42763582  0.31916204  0.42569781  1
  O2-  O170  1  0.43042172  0.32179348  0.75449766  1
  O2-  O171  1  0.42345943  0.81786674  0.08924222  1
  O2-  O172  1  0.42237983  0.82320327  0.42177960  1
  O2-  O173  1  0.42393366  0.82066461  0.75530035  1
  O2-  O174  1  0.92827697  0.32643166  0.08838790  1
  O2-  O175  1  0.92935857  0.32310520  0.43235694  1
  O2-  O176  1  0.92760506  0.32568220  0.75783063  1
  O2-  O177  1  0.93041738  0.81843658  0.08834879  1
  O2-  O178  1  0.93174462  0.81962565  0.42968267  1
  O2-  O179  1  0.93344403  0.81904268  0.76677341  1
  O2-  O180  1  0.32273676  0.07301026  0.24198213  1
  O2-  O181  1  0.32050018  0.07475949  0.56582451  1
  O2-  O182  1  0.31759010  0.07231353  0.90350805  1
  O2-  O183  1  0.32325902  0.56791339  0.23605390  1
  O2-  O184  1  0.32304631  0.56819688  0.57803760  1
  O2-  O185  1  0.31732910  0.56659970  0.90013605  1
  O2-  O186  1  0.81754233  0.07052367  0.23579462  1
  O2-  O187  1  0.82170176  0.07016262  0.56821431  1
  O2-  O188  1  0.82222027  0.06903312  0.90331801  1
  O2-  O189  1  0.82356654  0.57211095  0.24208753  1
  O2-  O190  1  0.82258468  0.57165064  0.57762262  1
  O2-  O191  1  0.82590896  0.57136284  0.90990706  1
  O2-  O192  1  0.04787240  0.08035810  0.25965865  1
  O2-  O193  1  0.04111613  0.08601442  0.59927847  1
  O2-  O194  1  0.03497804  0.08777507  0.93900890  1
  O2-  O195  1  0.05477867  0.58277750  0.26984406  1
  O2-  O196  1  0.04620585  0.58245070  0.60368661  1
  O2-  O197  1  0.04061380  0.58718305  0.93723057  1
  O2-  O198  1  0.54254194  0.08605675  0.27464803  1
  O2-  O199  1  0.54783506  0.08461928  0.60557054  1
  O2-  O200  1  0.55593947  0.07361633  0.93689621  1
  O2-  O201  1  0.53252408  0.58286091  0.26675555  1
  O2-  O202  1  0.53488492  0.58268464  0.59787692  1
  O2-  O203  1  0.53712198  0.58493349  0.93037347  1
  O2-  O204  1  0.16899625  0.21185627  0.25836453  1
  O2-  O205  1  0.16618224  0.21548797  0.60061557  1
  O2-  O206  1  0.16042627  0.20412224  0.93719677  1
  O2-  O207  1  0.16940518  0.70608937  0.27265640  1
  O2-  O208  1  0.17111951  0.69473068  0.60771579  1
  O2-  O209  1  0.16526632  0.70081250  0.94101196  1
  O2-  O210  1  0.66181341  0.20631921  0.27699573  1
  O2-  O211  1  0.66373261  0.21116636  0.60508202  1
  O2-  O212  1  0.66845642  0.21410933  0.93077988  1
  O2-  O213  1  0.66541798  0.70349909  0.26300419  1
  O2-  O214  1  0.66709789  0.70462696  0.59787259  1
  O2-  O215  1  0.66867568  0.70725373  0.93012732  1
  O2-  O216  1  0.08142812  0.45735122  0.06571512  1
  O2-  O217  1  0.08329823  0.45091790  0.39427909  1
  O2-  O218  1  0.08070600  0.45668747  0.73494127  1
  O2-  O219  1  0.08156883  0.96101478  0.07107252  1
  O2-  O220  1  0.08747142  0.95807118  0.39269982  1
  O2-  O221  1  0.08215604  0.96020342  0.73279991  1
  O2-  O222  1  0.58816571  0.46015281  0.05965972  1
  O2-  O223  1  0.58566062  0.46257184  0.40275894  1
  O2-  O224  1  0.58185875  0.46287764  0.73721936  1
  O2-  O225  1  0.58088096  0.93663683  0.05689722  1
  O2-  O226  1  0.57907962  0.95270566  0.40071255  1
  O2-  O227  1  0.57937222  0.94574355  0.73284372  1
  O2-  O228  1  0.19395375  0.33179719  0.06217022  1
  O2-  O229  1  0.20775985  0.33466477  0.39417229  1
  O2-  O230  1  0.21269651  0.33789649  0.73533722  1
  O2-  O231  1  0.20300227  0.82964269  0.07028467  1
  O2-  O232  1  0.20701332  0.83946918  0.39830185  1
  O2-  O233  1  0.20227424  0.82860107  0.73165828  1
  O2-  O234  1  0.70919024  0.34118524  0.06170503  1
  O2-  O235  1  0.70782962  0.33421128  0.40257335  1
  O2-  O236  1  0.70744373  0.33510374  0.74136609  1
  O2-  O237  1  0.71317366  0.83281571  0.06272777  1
  O2-  O238  1  0.70706953  0.82578578  0.39480816  1
  O2-  O239  1  0.71272616  0.82701182  0.73349909  1
  O2-  O240  1  0.46103033  0.41209760  0.27473286  1
  O2-  O241  1  0.46059038  0.41072279  0.60153073  1
  O2-  O242  1  0.46138903  0.41472129  0.92765539  1
  O2-  O243  1  0.44881527  0.91832929  0.27064177  1
  O2-  O244  1  0.44835727  0.91985845  0.60569321  1
  O2-  O245  1  0.44299037  0.91649219  0.93935484  1
  O2-  O246  1  0.95506125  0.42001684  0.26362380  1
  O2-  O247  1  0.94930919  0.41883411  0.60645369  1
  O2-  O248  1  0.95452827  0.41663349  0.93587931  1
  O2-  O249  1  0.96276815  0.91421980  0.26057597  1
  O2-  O250  1  0.96285482  0.91582517  0.59723278  1
  O2-  O251  1  0.95962709  0.91437620  0.93895974  1
  O2-  O252  1  0.33864368  0.29713050  0.26996929  1
  O2-  O253  1  0.33809238  0.29419174  0.60164958  1
  O2-  O254  1  0.32542057  0.29867758  0.93445863  1
  O2-  O255  1  0.33235470  0.79574376  0.27018083  1
  O2-  O256  1  0.33340713  0.79688186  0.60188753  1
  O2-  O257  1  0.33200753  0.78855270  0.93815655  1
  O2-  O258  1  0.82683053  0.29470740  0.26610792  1
  O2-  O259  1  0.82973615  0.30007087  0.60926116  1
  O2-  O260  1  0.83607755  0.29707185  0.93704247  1
  O2-  O261  1  0.83559400  0.78741125  0.25901906  1
  O2-  O262  1  0.83826917  0.78557466  0.59690883  1
  O2-  O263  1  0.84193744  0.79078790  0.93406106  1
  O2-  O264  1  0.42346341  0.04634593  0.06759148  1
  O2-  O265  1  0.41181847  0.04612069  0.39636377  1
  O2-  O266  1  0.42143000  0.04994892  0.73397059  1
  O2-  O267  1  0.41760902  0.53440911  0.06627201  1
  O2-  O268  1  0.41405122  0.53545454  0.40648873  1
  O2-  O269  1  0.41276928  0.53754654  0.73049588  1
  O2-  O270  1  0.91176673  0.03733646  0.07216846  1
  O2-  O271  1  0.92378496  0.04172990  0.39588110  1
  O2-  O272  1  0.91811858  0.03858635  0.73392065  1
  O2-  O273  1  0.91343251  0.54517767  0.06447505  1
  O2-  O274  1  0.92041423  0.55124267  0.39291381  1
  O2-  O275  1  0.91520386  0.54891858  0.73134180  1
  O2-  O276  1  0.29299501  0.17148676  0.06852341  1
  O2-  O277  1  0.29388800  0.16669563  0.39203824  1
  O2-  O278  1  0.29221027  0.17114375  0.73333854  1
  O2-  O279  1  0.29011772  0.66169911  0.07089926  1
  O2-  O280  1  0.29346270  0.66796118  0.40441910  1
  O2-  O281  1  0.30494592  0.66698354  0.72794635  1
  O2-  O282  1  0.79084547  0.17041878  0.06809429  1
  O2-  O283  1  0.79565305  0.16825302  0.40250146  1
  O2-  O284  1  0.79520578  0.16921842  0.73577998  1
  O2-  O285  1  0.79595828  0.66590255  0.06016731  1
  O2-  O286  1  0.79730019  0.66573169  0.39261375  1
  O2-  O287  1  0.79467510  0.66478954  0.72993634  1
