# generated using pymatgen
data_Ca2Al2SiO7
_symmetry_space_group_name_H-M   'P 1'
_cell_length_a   15.46777235
_cell_length_b   15.47282895
_cell_length_c   15.29230648
_cell_angle_alpha   90.00909655
_cell_angle_beta   90.00696300
_cell_angle_gamma   89.99317471
_symmetry_Int_Tables_number   1
_chemical_formula_structural   Ca2Al2SiO7
_chemical_formula_sum   'Ca48 Al48 Si24 O168'
_cell_volume   3659.91060405
_cell_formula_units_Z   24
loop_
 _symmetry_equiv_pos_site_id
 _symmetry_equiv_pos_as_xyz
  1  'x, y, z'
loop_
 _atom_type_symbol
 _atom_type_oxidation_number
  Ca2+  2.0
  Al0+  0.0
  Si0+  0.0
  O2-  -2.0
loop_
 _atom_site_type_symbol
 _atom_site_label
 _atom_site_symmetry_multiplicity
 _atom_site_fract_x
 _atom_site_fract_y
 _atom_site_fract_z
 _atom_site_occupancy
  Ca2+  Ca0  1  0.17614000  0.07172297  0.16534056  1
  Ca2+  Ca1  1  0.16939434  0.07315270  0.50619255  1
  Ca2+  Ca2  1  0.17086942  0.07466657  0.83812979  1
  Ca2+  Ca3  1  0.17324145  0.58297044  0.16503899  1
  Ca2+  Ca4  1  0.16671090  0.58469503  0.50682652  1
  Ca2+  Ca5  1  0.16861280  0.58176304  0.84195147  1
  Ca2+  Ca6  1  0.66905648  0.07878148  0.16516561  1
  Ca2+  Ca7  1  0.66367417  0.07960347  0.50762542  1
  Ca2+  Ca8  1  0.66862384  0.07152931  0.83783366  1
  Ca2+  Ca9  1  0.66885441  0.58524691  0.17448468  1
  Ca2+  Ca10  1  0.65324732  0.58194403  0.50241344  1
  Ca2+  Ca11  1  0.67220789  0.59056248  0.83835417  1
  Ca2+  Ca12  1  0.08599376  0.33246143  0.15875849  1
  Ca2+  Ca13  1  0.08399368  0.32400663  0.49865241  1
  Ca2+  Ca14  1  0.08566383  0.32768465  0.82843422  1
  Ca2+  Ca15  1  0.07498585  0.84490970  0.16196197  1
  Ca2+  Ca16  1  0.07578014  0.84164006  0.49753770  1
  Ca2+  Ca17  1  0.07360736  0.84083673  0.82715165  1
  Ca2+  Ca18  1  0.58596426  0.33015215  0.17054739  1
  Ca2+  Ca19  1  0.58349742  0.32262940  0.48887149  1
  Ca2+  Ca20  1  0.58238887  0.32295032  0.82708481  1
  Ca2+  Ca21  1  0.57294922  0.83590229  0.15946432  1
  Ca2+  Ca22  1  0.57329554  0.83143421  0.49458545  1
  Ca2+  Ca23  1  0.57335742  0.83764277  0.82654407  1
  Ca2+  Ca24  1  0.33617611  0.42091461  0.16871050  1
  Ca2+  Ca25  1  0.34054651  0.41713423  0.50079645  1
  Ca2+  Ca26  1  0.32610648  0.42716731  0.84417265  1
  Ca2+  Ca27  1  0.32507409  0.90566603  0.16965999  1
  Ca2+  Ca28  1  0.32492994  0.90427242  0.50482857  1
  Ca2+  Ca29  1  0.32427474  0.91289458  0.84165654  1
  Ca2+  Ca30  1  0.82821091  0.42800248  0.17139795  1
  Ca2+  Ca31  1  0.82602539  0.42034739  0.50189801  1
  Ca2+  Ca32  1  0.83203326  0.42735867  0.84130082  1
  Ca2+  Ca33  1  0.83189917  0.91473029  0.16627158  1
  Ca2+  Ca34  1  0.82765492  0.90966312  0.50616819  1
  Ca2+  Ca35  1  0.82284439  0.91040901  0.83924167  1
  Ca2+  Ca36  1  0.41694016  0.16823253  0.16366582  1
  Ca2+  Ca37  1  0.43048636  0.16904713  0.49289614  1
  Ca2+  Ca38  1  0.41798055  0.16360420  0.83001851  1
  Ca2+  Ca39  1  0.42031073  0.67368011  0.16421574  1
  Ca2+  Ca40  1  0.42449007  0.67780645  0.49895296  1
  Ca2+  Ca41  1  0.41674975  0.67698047  0.82963093  1
  Ca2+  Ca42  1  0.91668737  0.16553323  0.15869722  1
  Ca2+  Ca43  1  0.92560913  0.15944568  0.49855629  1
  Ca2+  Ca44  1  0.92080581  0.16310547  0.83001192  1
  Ca2+  Ca45  1  0.91455932  0.67857328  0.15985317  1
  Ca2+  Ca46  1  0.92236546  0.67982643  0.50049378  1
  Ca2+  Ca47  1  0.92156350  0.67526740  0.82954856  1
  Al0+  Al48  1  0.00021594  0.00192416  0.00023976  1
  Al0+  Al49  1  0.00191678  0.00068483  0.33276897  1
  Al0+  Al50  1  0.00006611  0.00290702  0.66191938  1
  Al0+  Al51  1  -0.00302993  0.49931580  0.00811843  1
  Al0+  Al52  1  0.00076949  0.49991295  0.33619330  1
  Al0+  Al53  1  -0.00202917  0.50006464  0.66328226  1
  Al0+  Al54  1  0.50073200  0.00123038  0.00131836  1
  Al0+  Al55  1  0.50083527  0.00121827  0.32520864  1
  Al0+  Al56  1  0.49868164  0.00229026  0.66186362  1
  Al0+  Al57  1  0.49938472  0.49713527  0.00136434  1
  Al0+  Al58  1  0.50061467  0.49849705  0.33183874  1
  Al0+  Al59  1  0.49784884  0.49995422  0.66898833  1
  Al0+  Al60  1  0.24934276  0.24862514  0.00468126  1
  Al0+  Al61  1  0.25098259  0.24897434  0.33146757  1
  Al0+  Al62  1  0.24794761  0.25062840  0.66222793  1
  Al0+  Al63  1  0.24941915  0.74688957  0.00540439  1
  Al0+  Al64  1  0.24906975  0.74656015  0.33677845  1
  Al0+  Al65  1  0.24904264  0.74777981  0.66681021  1
  Al0+  Al66  1  0.75091789  0.24987228  -0.00004003  1
  Al0+  Al67  1  0.75264134  0.25230537  0.33403002  1
  Al0+  Al68  1  0.74923648  0.25203669  0.66451036  1
  Al0+  Al69  1  0.74984198  0.74971802  0.00504309  1
  Al0+  Al70  1  0.75434699  0.75121508  0.32918825  1
  Al0+  Al71  1  0.75053735  0.74758839  0.66483913  1
  Al0+  Al72  1  0.18108703  0.92938845  0.34908008  1
  Al0+  Al73  1  0.17847177  0.42900303  0.01436213  1
  Al0+  Al74  1  0.32321111  0.57115082  0.01698754  1
  Al0+  Al75  1  0.42789725  0.82302717  0.65363438  1
  Al0+  Al76  1  0.42929013  0.31972827  0.31674577  1
  Al0+  Al77  1  0.57141153  0.67788092  0.65490304  1
  Al0+  Al78  1  0.92956237  0.82263777  0.98526739  1
  Al0+  Al79  1  0.57122040  0.17974015  0.65429944  1
  Al0+  Al80  1  0.42721026  0.82058717  0.31737161  1
  Al0+  Al81  1  0.82121464  0.07145186  0.01279832  1
  Al0+  Al82  1  0.07046430  0.18029437  0.65246238  1
  Al0+  Al83  1  0.93269161  0.82175834  0.31763740  1
  Al0+  Al84  1  0.32281639  0.07093717  0.01377741  1
  Al0+  Al85  1  0.57176273  0.67962888  0.31872882  1
  Al0+  Al86  1  0.57544597  0.17807263  0.31470138  1
  Al0+  Al87  1  0.17922368  0.92738957  0.01359540  1
  Al0+  Al88  1  0.17896884  0.92846624  0.68024019  1
  Al0+  Al89  1  0.68054271  0.43189862  0.34844901  1
  Al0+  Al90  1  0.67844638  0.92805261  0.01520736  1
  Al0+  Al91  1  0.81870645  0.57145089  0.01414254  1
  Al0+  Al92  1  0.07133038  0.67697508  0.65383218  1
  Al0+  Al93  1  0.67818760  0.92802750  0.67714640  1
  Al0+  Al94  1  0.42791831  0.82085655  0.98594211  1
  Al0+  Al95  1  0.92933133  0.82236887  0.65265873  1
  Si0+  Si96  1  0.67974611  0.92955288  0.34732666  1
  Si0+  Si97  1  0.07063619  0.17982988  0.31574439  1
  Si0+  Si98  1  0.67773947  0.42611780  0.01562683  1
  Si0+  Si99  1  0.82133045  0.07425934  0.68093174  1
  Si0+  Si100  1  0.32056844  0.56967155  0.68245201  1
  Si0+  Si101  1  0.67737142  0.42852713  0.68267726  1
  Si0+  Si102  1  0.42708621  0.31990424  0.98353305  1
  Si0+  Si103  1  0.42766015  0.32185607  0.65251478  1
  Si0+  Si104  1  0.92842857  0.32194244  0.98524042  1
  Si0+  Si105  1  0.32077295  0.56830045  0.35187404  1
  Si0+  Si106  1  0.57275084  0.18040144  0.98314494  1
  Si0+  Si107  1  0.32056619  0.07451884  0.68083825  1
  Si0+  Si108  1  0.93117283  0.32236275  0.31750430  1
  Si0+  Si109  1  0.17805606  0.42660101  0.35122165  1
  Si0+  Si110  1  0.07143861  0.18066630  0.98448718  1
  Si0+  Si111  1  0.82149806  0.56929811  0.68215697  1
  Si0+  Si112  1  0.32347234  0.07316661  0.35116213  1
  Si0+  Si113  1  0.92684436  0.32347284  0.64899487  1
  Si0+  Si114  1  0.82183332  0.07183662  0.34848981  1
  Si0+  Si115  1  0.17720589  0.42820940  0.67976159  1
  Si0+  Si116  1  0.57160049  0.67627235  0.98504704  1
  Si0+  Si117  1  0.07215050  0.67474162  0.31551592  1
  Si0+  Si118  1  0.82391640  0.57438767  0.35410930  1
  Si0+  Si119  1  0.06953631  0.67570142  0.98631743  1
  O2-  O120  1  0.25802125  -0.00757498  0.06357981  1
  O2-  O121  1  0.26055449  -0.00041286  0.39598903  1
  O2-  O122  1  0.25657406  0.00143844  0.72475975  1
  O2-  O123  1  0.25080515  0.49864043  0.06658131  1
  O2-  O124  1  0.24894213  0.49679043  0.39420448  1
  O2-  O125  1  0.24588083  0.50046132  0.72242705  1
  O2-  O126  1  0.75300652  -0.00188435  0.06510332  1
  O2-  O127  1  0.74851428  0.00330686  0.39011156  1
  O2-  O128  1  0.75415875  0.00336866  0.72305019  1
  O2-  O129  1  0.73996692  0.50035174  0.05941362  1
  O2-  O130  1  0.75075819  0.50989383  0.39817571  1
  O2-  O131  1  0.74655082  0.50122564  0.72425692  1
  O2-  O132  1  0.00193117  0.25279689  0.27322818  1
  O2-  O133  1  -0.00676803  0.25257431  0.60488467  1
  O2-  O134  1  -0.00012707  0.25207512  0.94249209  1
  O2-  O135  1  0.00660912  0.74587694  0.27163081  1
  O2-  O136  1  0.00639396  0.75490498  0.60316742  1
  O2-  O137  1  0.00669470  0.74891352  0.94088498  1
  O2-  O138  1  0.50013711  0.24744123  0.26552254  1
  O2-  O139  1  0.49675611  0.25454133  0.60820161  1
  O2-  O140  1  0.49851618  0.24932278  0.94153389  1
  O2-  O141  1  0.50366739  0.75360846  0.26698736  1
  O2-  O142  1  0.50516290  0.75513333  0.60559195  1
  O2-  O143  1  0.50304287  0.74493518  0.94088357  1
  O2-  O144  1  0.07010430  0.18273949  0.08972078  1
  O2-  O145  1  0.06868700  0.18109019  0.42114864  1
  O2-  O146  1  0.07136676  0.18394941  0.76544083  1
  O2-  O147  1  0.06559557  0.67218101  0.09177046  1
  O2-  O148  1  0.06970499  0.67127036  0.42103503  1
  O2-  O149  1  0.06685710  0.66899096  0.76686089  1
  O2-  O150  1  0.57661432  0.18459320  0.08757064  1
  O2-  O151  1  0.57589478  0.18040734  0.42870774  1
  O2-  O152  1  0.57199874  0.18232501  0.76751481  1
  O2-  O153  1  0.57059308  0.67518612  0.09038377  1
  O2-  O154  1  0.56750863  0.68095328  0.43235677  1
  O2-  O155  1  0.56811762  0.67429154  0.76831978  1
  O2-  O156  1  0.17557277  0.42710173  0.24666719  1
  O2-  O157  1  0.17882551  0.42702386  0.57457941  1
  O2-  O158  1  0.17891975  0.42902068  0.90003638  1
  O2-  O159  1  0.17869899  0.93309767  0.23639865  1
  O2-  O160  1  0.17917212  0.93180593  0.56694390  1
  O2-  O161  1  0.17673340  0.93166776  0.89990796  1
  O2-  O162  1  0.68551418  0.43116756  0.23542125  1
  O2-  O163  1  0.67833764  0.42728521  0.57784560  1
  O2-  O164  1  0.68063657  0.42363874  0.90954863  1
  O2-  O165  1  0.68236525  0.92968031  0.24261759  1
  O2-  O166  1  0.67921832  0.93034911  0.56365084  1
  O2-  O167  1  0.67763177  0.92993869  0.90112991  1
  O2-  O168  1  0.42716538  0.32008316  0.08808454  1
  O2-  O169  1  0.42991269  0.31783898  0.43104673  1
  O2-  O170  1  0.42761711  0.32174501  0.75829063  1
  O2-  O171  1  0.42906034  0.81862143  0.09866631  1
  O2-  O172  1  0.42690714  0.81836868  0.43102876  1
  O2-  O173  1  0.42644303  0.82078728  0.76732019  1
  O2-  O174  1  0.92816567  0.32071413  0.09034128  1
  O2-  O175  1  0.93296215  0.32190315  0.42276302  1
  O2-  O176  1  0.92762211  0.32579772  0.75461913  1
  O2-  O177  1  0.93146222  0.82165505  0.09839813  1
  O2-  O178  1  0.93229943  0.82244604  0.43065504  1
  O2-  O179  1  0.92800410  0.81947079  0.76615796  1
  O2-  O180  1  0.31784540  0.07788396  0.24613050  1
  O2-  O181  1  0.31754482  0.08014081  0.57561755  1
  O2-  O182  1  0.31838771  0.07507817  0.89992758  1
  O2-  O183  1  0.31900422  0.56751901  0.24713460  1
  O2-  O184  1  0.32325437  0.56586348  0.57740757  1
  O2-  O185  1  0.32260890  0.56832737  0.90286964  1
  O2-  O186  1  0.82365896  0.07226444  0.24369506  1
  O2-  O187  1  0.81982118  0.07702851  0.57501674  1
  O2-  O188  1  0.81810434  0.07585447  0.89934396  1
  O2-  O189  1  0.82649229  0.57005246  0.24861779  1
  O2-  O190  1  0.82527214  0.56551840  0.57750712  1
  O2-  O191  1  0.81988238  0.56815790  0.90048935  1
  O2-  O192  1  0.03907978  0.09010365  0.26839730  1
  O2-  O193  1  0.04001127  0.08629081  0.59396484  1
  O2-  O194  1  0.04236756  0.09044621  0.93570794  1
  O2-  O195  1  0.04513202  0.58103608  0.26976163  1
  O2-  O196  1  0.03840333  0.58081445  0.59680793  1
  O2-  O197  1  0.03807666  0.58307545  0.94042596  1
  O2-  O198  1  0.55087528  0.07993626  0.26124272  1
  O2-  O199  1  0.54121913  0.08564918  0.59636497  1
  O2-  O200  1  0.54730673  0.08819224  0.93630803  1
  O2-  O201  1  0.54262454  0.58129208  0.26716769  1
  O2-  O202  1  0.53664977  0.58054716  0.60173590  1
  O2-  O203  1  0.54920052  0.58063568  0.94013667  1
  O2-  O204  1  0.16260421  0.20706071  0.26992521  1
  O2-  O205  1  0.16412793  0.21521786  0.59453997  1
  O2-  O206  1  0.16249848  0.21030678  0.93670325  1
  O2-  O207  1  0.16734153  0.69633331  0.27285389  1
  O2-  O208  1  0.17164716  0.69620799  0.60235340  1
  O2-  O209  1  0.16623314  0.69315212  0.94449720  1
  O2-  O210  1  0.67330965  0.21259813  0.26395047  1
  O2-  O211  1  0.66704646  0.21180226  0.59931422  1
  O2-  O212  1  0.66275777  0.21326611  0.93417037  1
  O2-  O213  1  0.67326318  0.70099509  0.27002917  1
  O2-  O214  1  0.67207665  0.69444373  0.60328601  1
  O2-  O215  1  0.66605977  0.70136693  0.94101308  1
  O2-  O216  1  0.08053054  0.45475488  0.06939577  1
  O2-  O217  1  0.08608690  0.45389912  0.39964093  1
  O2-  O218  1  0.08348580  0.45215321  0.72511050  1
  O2-  O219  1  0.08435032  0.96562748  0.06699300  1
  O2-  O220  1  0.08577418  0.96791480  0.40205127  1
  O2-  O221  1  0.08203744  0.96431206  0.73094870  1
  O2-  O222  1  0.58202057  0.44316932  0.05929137  1
  O2-  O223  1  0.58205010  0.45698896  0.40194083  1
  O2-  O224  1  0.58455115  0.45242046  0.73018780  1
  O2-  O225  1  0.58256471  0.96131144  0.06898019  1
  O2-  O226  1  0.58582041  0.95525061  0.39178922  1
  O2-  O227  1  0.58118298  0.96125215  0.72982085  1
  O2-  O228  1  0.20589399  0.33121838  0.06789093  1
  O2-  O229  1  0.20576158  0.33397767  0.39777653  1
  O2-  O230  1  0.20650961  0.33704399  0.72779004  1
  O2-  O231  1  0.19842791  0.82750371  0.06655625  1
  O2-  O232  1  0.20487984  0.82962434  0.40097155  1
  O2-  O233  1  0.20429660  0.82971871  0.73246136  1
  O2-  O234  1  0.71091732  0.33625663  0.06357843  1
  O2-  O235  1  0.71715852  0.33636138  0.40306424  1
  O2-  O236  1  0.70819449  0.33782223  0.73132439  1
  O2-  O237  1  0.70368647  0.83029409  0.06933678  1
  O2-  O238  1  0.71145032  0.83835881  0.39375161  1
  O2-  O239  1  0.70820217  0.83084063  0.73078723  1
  O2-  O240  1  0.45861691  0.41731091  0.26430014  1
  O2-  O241  1  0.45318513  0.41509849  0.60662751  1
  O2-  O242  1  0.45476102  0.41160338  0.93492487  1
  O2-  O243  1  0.44859172  0.92093347  0.26634874  1
  O2-  O244  1  0.44889406  0.92218603  0.59971016  1
  O2-  O245  1  0.45797318  0.91903996  0.93405289  1
  O2-  O246  1  0.95887183  0.41466682  0.27102911  1
  O2-  O247  1  0.95510292  0.41429190  0.59945005  1
  O2-  O248  1  0.95615844  0.41403374  0.93827047  1
  O2-  O249  1  0.96441479  0.91863868  0.26468751  1
  O2-  O250  1  0.95179113  0.92190232  0.59955128  1
  O2-  O251  1  0.95834516  0.92031170  0.93226668  1
  O2-  O252  1  0.32927433  0.29420127  0.26490389  1
  O2-  O253  1  0.33439167  0.29851720  0.60496588  1
  O2-  O254  1  0.33491471  0.29145229  0.93685642  1
  O2-  O255  1  0.32935766  0.78519115  0.26756964  1
  O2-  O256  1  0.33218937  0.78692639  0.60054341  1
  O2-  O257  1  0.32959708  0.78875356  0.93504409  1
  O2-  O258  1  0.84012550  0.29488004  0.26999334  1
  O2-  O259  1  0.83285289  0.30049992  0.60280055  1
  O2-  O260  1  0.83741820  0.29419720  0.93572432  1
  O2-  O261  1  0.83675079  0.79197706  0.26284236  1
  O2-  O262  1  0.83374887  0.78726053  0.59812960  1
  O2-  O263  1  0.83177267  0.78888901  0.93520846  1
  O2-  O264  1  0.42388544  0.05521790  0.06387078  1
  O2-  O265  1  0.42108814  0.05434249  0.39130942  1
  O2-  O266  1  0.41634594  0.05519985  0.72425018  1
  O2-  O267  1  0.42069768  0.53919459  0.06980256  1
  O2-  O268  1  0.41168692  0.53757626  0.39880721  1
  O2-  O269  1  0.40971406  0.53785617  0.73322967  1
  O2-  O270  1  0.92030612  0.04850554  0.06589055  1
  O2-  O271  1  0.91315506  0.04174334  0.39611992  1
  O2-  O272  1  0.91651359  0.05274492  0.72458650  1
  O2-  O273  1  0.91094858  0.53522442  0.07243005  1
  O2-  O274  1  0.91547355  0.54102374  0.40082808  1
  O2-  O275  1  0.91111810  0.53553478  0.73112601  1
  O2-  O276  1  0.28680861  0.16538381  0.07016088  1
  O2-  O277  1  0.29201764  0.16507398  0.39882630  1
  O2-  O278  1  0.28991645  0.16699071  0.72830133  1
  O2-  O279  1  0.29382237  0.66679133  0.07324128  1
  O2-  O280  1  0.29167959  0.65856359  0.40131944  1
  O2-  O281  1  0.29462424  0.66095826  0.73063399  1
  O2-  O282  1  0.79198339  0.16983124  0.06712062  1
  O2-  O283  1  0.79932989  0.16521600  0.39554706  1
  O2-  O284  1  0.79629252  0.16859934  0.72701374  1
  O2-  O285  1  0.79160738  0.66658090  0.07102602  1
  O2-  O286  1  0.80394087  0.67019464  0.39694561  1
  O2-  O287  1  0.79671755  0.66118801  0.73006208  1
