# generated using pymatgen
data_Ca2Al2SiO7
_symmetry_space_group_name_H-M   'P 1'
_cell_length_a   15.46310449
_cell_length_b   15.46575626
_cell_length_c   15.28817790
_cell_angle_alpha   89.99517256
_cell_angle_beta   90.00466336
_cell_angle_gamma   90.00587314
_symmetry_Int_Tables_number   1
_chemical_formula_structural   Ca2Al2SiO7
_chemical_formula_sum   'Ca48 Al48 Si24 O168'
_cell_volume   3656.14637368
_cell_formula_units_Z   24
loop_
 _symmetry_equiv_pos_site_id
 _symmetry_equiv_pos_as_xyz
  1  'x, y, z'
loop_
 _atom_type_symbol
 _atom_type_oxidation_number
  Ca2+  2.0
  Al0+  0.0
  Si0+  0.0
  O2-  -2.0
loop_
 _atom_site_type_symbol
 _atom_site_label
 _atom_site_symmetry_multiplicity
 _atom_site_fract_x
 _atom_site_fract_y
 _atom_site_fract_z
 _atom_site_occupancy
  Ca2+  Ca0  1  0.16757544  0.07661357  0.17116457  1
  Ca2+  Ca1  1  0.17467035  0.08916034  0.50764231  1
  Ca2+  Ca2  1  0.17132513  0.08772161  0.84068271  1
  Ca2+  Ca3  1  0.17656814  0.58839840  0.17456958  1
  Ca2+  Ca4  1  0.16611127  0.58217579  0.50340019  1
  Ca2+  Ca5  1  0.16419992  0.57734456  0.83498123  1
  Ca2+  Ca6  1  0.67228599  0.08711825  0.16885692  1
  Ca2+  Ca7  1  0.66639047  0.08681811  0.50185327  1
  Ca2+  Ca8  1  0.67662138  0.07607669  0.84321175  1
  Ca2+  Ca9  1  0.67130865  0.56849129  0.17122017  1
  Ca2+  Ca10  1  0.66684420  0.57150846  0.50854466  1
  Ca2+  Ca11  1  0.66577733  0.57410202  0.83513726  1
  Ca2+  Ca12  1  0.07037632  0.32800982  0.15671684  1
  Ca2+  Ca13  1  0.07695873  0.33559462  0.49917283  1
  Ca2+  Ca14  1  0.07788637  0.32349732  0.82320567  1
  Ca2+  Ca15  1  0.09767683  0.83161139  0.16581441  1
  Ca2+  Ca16  1  0.08813720  0.82590542  0.49745673  1
  Ca2+  Ca17  1  0.08157505  0.83068853  0.82683671  1
  Ca2+  Ca18  1  0.58633568  0.33142402  0.16557189  1
  Ca2+  Ca19  1  0.57863710  0.33450505  0.49510028  1
  Ca2+  Ca20  1  0.57762477  0.33805519  0.82776256  1
  Ca2+  Ca21  1  0.58127132  0.83288160  0.15896131  1
  Ca2+  Ca22  1  0.58236710  0.82401910  0.49792886  1
  Ca2+  Ca23  1  0.58447517  0.82777710  0.82595420  1
  Ca2+  Ca24  1  0.33221314  0.42822893  0.16907731  1
  Ca2+  Ca25  1  0.32991716  0.41982575  0.50910842  1
  Ca2+  Ca26  1  0.32564531  0.41699773  0.83258124  1
  Ca2+  Ca27  1  0.32268909  0.92767290  0.16962674  1
  Ca2+  Ca28  1  0.32825364  0.92923521  0.50009762  1
  Ca2+  Ca29  1  0.32661833  0.93043446  0.84002564  1
  Ca2+  Ca30  1  0.82588639  0.40220710  0.17010448  1
  Ca2+  Ca31  1  0.82515909  0.40468913  0.50482338  1
  Ca2+  Ca32  1  0.82395504  0.40329155  0.83587017  1
  Ca2+  Ca33  1  0.83123744  0.92365097  0.16426672  1
  Ca2+  Ca34  1  0.83514494  0.91551202  0.50605771  1
  Ca2+  Ca35  1  0.83345735  0.92059257  0.84171689  1
  Ca2+  Ca36  1  0.42015159  0.15637010  0.16506387  1
  Ca2+  Ca37  1  0.41718614  0.16930348  0.49654381  1
  Ca2+  Ca38  1  0.41379639  0.16925663  0.82441069  1
  Ca2+  Ca39  1  0.41173281  0.66462393  0.16101924  1
  Ca2+  Ca40  1  0.42137024  0.66085680  0.49502931  1
  Ca2+  Ca41  1  0.42161626  0.66417314  0.82922040  1
  Ca2+  Ca42  1  0.91907371  0.17338604  0.15765315  1
  Ca2+  Ca43  1  0.92283145  0.17702713  0.49901226  1
  Ca2+  Ca44  1  0.92543025  0.16938540  0.83186858  1
  Ca2+  Ca45  1  0.92509084  0.66795125  0.16582339  1
  Ca2+  Ca46  1  0.92944424  0.66888681  0.49973001  1
  Ca2+  Ca47  1  0.92069565  0.67714316  0.82222900  1
  Al0+  Al48  1  -0.00040066  -0.00111976  0.00516876  1
  Al0+  Al49  1  -0.00264069  -0.00128710  0.33812094  1
  Al0+  Al50  1  0.00059162  0.00083765  0.65902459  1
  Al0+  Al51  1  -0.00277889  0.50056384  -0.00519868  1
  Al0+  Al52  1  -0.00118184  0.50366976  0.32208480  1
  Al0+  Al53  1  -0.00183018  0.50183705  0.66477058  1
  Al0+  Al54  1  0.49838680  -0.00277586  0.00240933  1
  Al0+  Al55  1  0.49991762  -0.00123640  0.33304562  1
  Al0+  Al56  1  0.50011798  -0.00072820  0.67064419  1
  Al0+  Al57  1  0.50149374  0.49924607  0.00737491  1
  Al0+  Al58  1  0.50175630  0.49891603  0.33848427  1
  Al0+  Al59  1  0.50131540  0.49934120  0.66308641  1
  Al0+  Al60  1  0.25169720  0.25286392  0.00273625  1
  Al0+  Al61  1  0.24981232  0.25222726  0.33347194  1
  Al0+  Al62  1  0.25189827  0.25370946  0.66684197  1
  Al0+  Al63  1  0.25299694  0.75104245  0.00222492  1
  Al0+  Al64  1  0.25213655  0.75095016  0.33879968  1
  Al0+  Al65  1  0.25255684  0.75329295  0.66390362  1
  Al0+  Al66  1  0.74716063  0.24796607  0.00305676  1
  Al0+  Al67  1  0.74773186  0.24817685  0.33141917  1
  Al0+  Al68  1  0.74964110  0.24686171  0.67059213  1
  Al0+  Al69  1  0.75041333  0.74610360  0.00372020  1
  Al0+  Al70  1  0.75104133  0.74890537  0.33171035  1
  Al0+  Al71  1  0.74843743  0.74804662  0.65791621  1
  Al0+  Al72  1  0.92876766  0.82262907  0.65225141  1
  Al0+  Al73  1  0.17841533  0.92955168  0.01292342  1
  Al0+  Al74  1  0.32120832  0.07587981  0.01482207  1
  Al0+  Al75  1  0.81998520  0.06993840  0.01549456  1
  Al0+  Al76  1  0.67971700  0.42787730  0.68122388  1
  Al0+  Al77  1  0.07256911  0.17838820  0.98678755  1
  Al0+  Al78  1  0.07412360  0.67880265  0.65278592  1
  Al0+  Al79  1  0.07181040  0.68348635  0.31768866  1
  Al0+  Al80  1  0.68332723  0.42839903  0.34931640  1
  Al0+  Al81  1  0.92964142  0.31969247  0.31914829  1
  Al0+  Al82  1  0.56856888  0.67890826  0.65276422  1
  Al0+  Al83  1  0.31893886  0.56889146  0.01076453  1
  Al0+  Al84  1  0.32046881  0.07215015  0.68077253  1
  Al0+  Al85  1  0.43063423  0.32079817  0.65454071  1
  Al0+  Al86  1  0.92616251  0.32059599  0.65246598  1
  Al0+  Al87  1  0.67834686  0.92489145  0.01359297  1
  Al0+  Al88  1  0.92551290  0.32076374  0.98263814  1
  Al0+  Al89  1  0.68084699  0.42972170  0.01415062  1
  Al0+  Al90  1  0.07360946  0.18060723  0.65131838  1
  Al0+  Al91  1  0.32083172  0.56953352  0.34860957  1
  Al0+  Al92  1  0.17768325  0.93012783  0.35168767  1
  Al0+  Al93  1  0.56763968  0.17894868  0.31941891  1
  Al0+  Al94  1  0.17673266  0.43185057  0.67895100  1
  Al0+  Al95  1  0.32137229  0.07324185  0.34996457  1
  Si0+  Si96  1  0.82429583  0.57342778  0.01731882  1
  Si0+  Si97  1  0.82027595  0.57372959  0.68271479  1
  Si0+  Si98  1  0.42937053  0.82011686  0.98364783  1
  Si0+  Si99  1  0.57160811  0.17566000  0.65323429  1
  Si0+  Si100  1  0.82202800  0.06934693  0.68087472  1
  Si0+  Si101  1  0.92795261  0.81859325  0.98756613  1
  Si0+  Si102  1  0.67873406  0.92648216  0.34939267  1
  Si0+  Si103  1  0.07481734  0.68031854  0.98534254  1
  Si0+  Si104  1  0.57069246  0.67743192  0.98658772  1
  Si0+  Si105  1  0.42703538  0.32459663  0.31508291  1
  Si0+  Si106  1  0.32322031  0.57366878  0.68186949  1
  Si0+  Si107  1  0.07298526  0.17659451  0.31747103  1
  Si0+  Si108  1  0.43188085  0.81893306  0.31706854  1
  Si0+  Si109  1  0.17449034  0.42878476  0.01609701  1
  Si0+  Si110  1  0.17726148  0.92876925  0.68302007  1
  Si0+  Si111  1  0.42937515  0.82527882  0.64871260  1
  Si0+  Si112  1  0.56852318  0.17638738  0.98460106  1
  Si0+  Si113  1  0.43130065  0.32385242  0.98655701  1
  Si0+  Si114  1  0.67981292  0.92673563  0.67935067  1
  Si0+  Si115  1  0.82340796  0.57415069  0.35119743  1
  Si0+  Si116  1  0.57198040  0.67682355  0.31577841  1
  Si0+  Si117  1  0.92531600  0.82395231  0.31333978  1
  Si0+  Si118  1  0.81866391  0.07040192  0.35058074  1
  Si0+  Si119  1  0.17466164  0.43021567  0.34669850  1
  O2-  O120  1  0.24448312  0.00757909  0.06206543  1
  O2-  O121  1  0.24299662  0.00878516  0.40074125  1
  O2-  O122  1  0.24315078  -0.00009863  0.72706804  1
  O2-  O123  1  0.24059081  0.50009663  0.06016623  1
  O2-  O124  1  0.24699700  0.49383662  0.39306367  1
  O2-  O125  1  0.24921478  0.51060667  0.72510906  1
  O2-  O126  1  0.74605105  -0.00088463  0.06591608  1
  O2-  O127  1  0.75038198  -0.00406671  0.39264295  1
  O2-  O128  1  0.75311962  -0.00527222  0.72140388  1
  O2-  O129  1  0.76189795  0.49813335  0.05989845  1
  O2-  O130  1  0.75827106  0.50268810  0.39594707  1
  O2-  O131  1  0.75666902  0.50059684  0.72792252  1
  O2-  O132  1  0.00678535  0.24732059  0.27295234  1
  O2-  O133  1  0.00195319  0.25343179  0.60174716  1
  O2-  O134  1  0.00250627  0.25234235  0.93582184  1
  O2-  O135  1  -0.00128678  0.75997690  0.26971916  1
  O2-  O136  1  0.00360806  0.75304180  0.60357330  1
  O2-  O137  1  0.00113198  0.74972810  0.94501441  1
  O2-  O138  1  0.49071008  0.25100972  0.27102631  1
  O2-  O139  1  0.50428972  0.24475747  0.60879427  1
  O2-  O140  1  0.49541339  0.24602838  0.94413364  1
  O2-  O141  1  0.50129323  0.74691991  0.27234005  1
  O2-  O142  1  0.49273073  0.75159318  0.60421434  1
  O2-  O143  1  0.50373876  0.75141121  0.94270136  1
  O2-  O144  1  0.07058614  0.18001314  0.10074010  1
  O2-  O145  1  0.07129656  0.17774097  0.42290208  1
  O2-  O146  1  0.07186914  0.17824120  0.76479867  1
  O2-  O147  1  0.07608098  0.68196134  0.09043493  1
  O2-  O148  1  0.07032623  0.68277858  0.43025446  1
  O2-  O149  1  0.07274742  0.68118576  0.76716501  1
  O2-  O150  1  0.56931423  0.17695905  0.08977244  1
  O2-  O151  1  0.56925586  0.18013167  0.43269144  1
  O2-  O152  1  0.57080124  0.17368255  0.75891539  1
  O2-  O153  1  0.56840880  0.67732728  0.09178541  1
  O2-  O154  1  0.57155817  0.67873057  0.42081086  1
  O2-  O155  1  0.56846059  0.68041560  0.76654478  1
  O2-  O156  1  0.17601575  0.43342297  0.24083399  1
  O2-  O157  1  0.17936623  0.43237593  0.56571684  1
  O2-  O158  1  0.17629951  0.42933319  0.91049086  1
  O2-  O159  1  0.18187176  0.92993193  0.23809694  1
  O2-  O160  1  0.18021219  0.92768594  0.57781522  1
  O2-  O161  1  0.18160093  0.92441788  0.89948548  1
  O2-  O162  1  0.68296350  0.42990730  0.23598401  1
  O2-  O163  1  0.67949303  0.42853469  0.56827657  1
  O2-  O164  1  0.67637664  0.43335005  0.90118929  1
  O2-  O165  1  0.67930067  0.92532201  0.24456237  1
  O2-  O166  1  0.67820380  0.92852584  0.57401889  1
  O2-  O167  1  0.68171286  0.92401633  0.89951368  1
  O2-  O168  1  0.43523009  0.32869075  0.09139043  1
  O2-  O169  1  0.42993133  0.32700015  0.42053125  1
  O2-  O170  1  0.43192269  0.32166704  0.76823363  1
  O2-  O171  1  0.42899952  0.81788650  0.08880893  1
  O2-  O172  1  0.43651542  0.81841215  0.42215129  1
  O2-  O173  1  0.43274763  0.82658779  0.75446496  1
  O2-  O174  1  0.92682368  0.31819559  0.09663405  1
  O2-  O175  1  0.92917138  0.31779846  0.43202720  1
  O2-  O176  1  0.92436990  0.31449894  0.76543836  1
  O2-  O177  1  0.92430945  0.81517357  0.09232501  1
  O2-  O178  1  0.92004575  0.82051786  0.41833337  1
  O2-  O179  1  0.92673270  0.82163610  0.76659592  1
  O2-  O180  1  0.32336474  0.06807958  0.23682194  1
  O2-  O181  1  0.32397401  0.06941593  0.56807191  1
  O2-  O182  1  0.32392455  0.07227934  0.90110609  1
  O2-  O183  1  0.32072173  0.56982024  0.23501430  1
  O2-  O184  1  0.32521759  0.57052162  0.57641590  1
  O2-  O185  1  0.32040991  0.56765633  0.89784145  1
  O2-  O186  1  0.81733405  0.07003610  0.24569625  1
  O2-  O187  1  0.81798731  0.07089288  0.57555538  1
  O2-  O188  1  0.81931160  0.06674640  0.90149899  1
  O2-  O189  1  0.81947611  0.57737339  0.24547366  1
  O2-  O190  1  0.81623732  0.57702621  0.57739709  1
  O2-  O191  1  0.82055080  0.58249091  0.91247405  1
  O2-  O192  1  0.04366377  0.08244169  0.27452691  1
  O2-  O193  1  0.04553481  0.08315589  0.59673665  1
  O2-  O194  1  0.04330393  0.07846576  0.93649144  1
  O2-  O195  1  0.04037683  0.58931711  0.25853746  1
  O2-  O196  1  0.04341039  0.58231822  0.59789228  1
  O2-  O197  1  0.04906065  0.58762681  0.93895900  1
  O2-  O198  1  0.54142641  0.08048715  0.26553747  1
  O2-  O199  1  0.54616483  0.08227032  0.60607062  1
  O2-  O200  1  0.54426480  0.08295362  0.93810275  1
  O2-  O201  1  0.54378138  0.58438554  0.27023878  1
  O2-  O202  1  0.53898896  0.58374133  0.59634751  1
  O2-  O203  1  0.53774931  0.58712165  0.93935223  1
  O2-  O204  1  0.16828506  0.19812483  0.27276410  1
  O2-  O205  1  0.17094911  0.21129846  0.59897657  1
  O2-  O206  1  0.17292656  0.20640573  0.93639883  1
  O2-  O207  1  0.17043834  0.71431636  0.26641967  1
  O2-  O208  1  0.17363903  0.70498093  0.60028687  1
  O2-  O209  1  0.16573061  0.70965426  0.93749984  1
  O2-  O210  1  0.66289209  0.21201151  0.26391134  1
  O2-  O211  1  0.66542200  0.19964678  0.60779092  1
  O2-  O212  1  0.65974604  0.20548856  0.93745067  1
  O2-  O213  1  0.66407730  0.70529525  0.26923434  1
  O2-  O214  1  0.66225954  0.71072086  0.59398663  1
  O2-  O215  1  0.66388966  0.70161861  0.94021437  1
  O2-  O216  1  0.07901798  0.45181711  0.05918965  1
  O2-  O217  1  0.08191327  0.46148861  0.39060576  1
  O2-  O218  1  0.07953588  0.45978878  0.73412548  1
  O2-  O219  1  0.07899534  0.94751000  0.06769992  1
  O2-  O220  1  0.07479594  0.94635345  0.40025723  1
  O2-  O221  1  0.08109798  0.95032829  0.72522979  1
  O2-  O222  1  0.58854200  0.46691727  0.07232408  1
  O2-  O223  1  0.58688534  0.46046563  0.40217077  1
  O2-  O224  1  0.58366944  0.46348483  0.73407055  1
  O2-  O225  1  0.57870260  0.94859870  0.06476173  1
  O2-  O226  1  0.58760586  0.95468123  0.39701143  1
  O2-  O227  1  0.58961271  0.95537943  0.72947478  1
  O2-  O228  1  0.20337813  0.33778091  0.06463824  1
  O2-  O229  1  0.19380906  0.33448006  0.39056454  1
  O2-  O230  1  0.21323598  0.33825868  0.73512019  1
  O2-  O231  1  0.21622750  0.83453599  0.06805436  1
  O2-  O232  1  0.21548477  0.83518566  0.40519470  1
  O2-  O233  1  0.20565274  0.83554122  0.72958374  1
  O2-  O234  1  0.70487053  0.33162375  0.06776298  1
  O2-  O235  1  0.71221680  0.33076383  0.40166420  1
  O2-  O236  1  0.70661137  0.32995576  0.73552313  1
  O2-  O237  1  0.70695676  0.82732444  0.06852701  1
  O2-  O238  1  0.70604088  0.83369670  0.39611130  1
  O2-  O239  1  0.70423557  0.83312260  0.72434820  1
  O2-  O240  1  0.46009779  0.41643437  0.26861239  1
  O2-  O241  1  0.46269901  0.41517176  0.59756423  1
  O2-  O242  1  0.46739829  0.41267405  0.93804946  1
  O2-  O243  1  0.46222268  0.90931328  0.26866515  1
  O2-  O244  1  0.46283167  0.91564487  0.60078140  1
  O2-  O245  1  0.45522684  0.91202149  0.93526192  1
  O2-  O246  1  0.95336447  0.41759082  0.26375138  1
  O2-  O247  1  0.94664453  0.42174431  0.60292343  1
  O2-  O248  1  0.94456919  0.42309983  0.93297925  1
  O2-  O249  1  0.94509385  0.92030944  0.27084441  1
  O2-  O250  1  0.95204603  0.92037531  0.59642145  1
  O2-  O251  1  0.95224394  0.91150133  0.94175737  1
  O2-  O252  1  0.33063989  0.30717257  0.27108101  1
  O2-  O253  1  0.33509496  0.29334090  0.59840924  1
  O2-  O254  1  0.33651367  0.30477146  0.94162116  1
  O2-  O255  1  0.33993669  0.79062951  0.27153827  1
  O2-  O256  1  0.33457968  0.80638911  0.60362227  1
  O2-  O257  1  0.34006374  0.78793115  0.93410421  1
  O2-  O258  1  0.83431689  0.28285790  0.26646210  1
  O2-  O259  1  0.82915628  0.28467755  0.59973441  1
  O2-  O260  1  0.82685652  0.28745243  0.93307989  1
  O2-  O261  1  0.83320698  0.79342225  0.26523645  1
  O2-  O262  1  0.83179171  0.79256565  0.59684504  1
  O2-  O263  1  0.83695542  0.78796684  0.93891067  1
  O2-  O264  1  0.41726356  0.03938800  0.06756520  1
  O2-  O265  1  0.41854457  0.03663637  0.40195886  1
  O2-  O266  1  0.41662826  0.03818284  0.73566526  1
  O2-  O267  1  0.41338507  0.53622801  0.06834600  1
  O2-  O268  1  0.41786847  0.54017589  0.40208031  1
  O2-  O269  1  0.41496379  0.54231847  0.72832062  1
  O2-  O270  1  0.91601335  0.03982110  0.07134130  1
  O2-  O271  1  0.91065614  0.04623558  0.39894882  1
  O2-  O272  1  0.91492132  0.04319801  0.72625445  1
  O2-  O273  1  0.92052309  0.55472796  0.06111143  1
  O2-  O274  1  0.91960429  0.55205880  0.39172976  1
  O2-  O275  1  0.91591541  0.55634955  0.72686238  1
  O2-  O276  1  0.30385789  0.17655456  0.06742042  1
  O2-  O277  1  0.30153255  0.17590957  0.39846703  1
  O2-  O278  1  0.29401646  0.17002970  0.73312103  1
  O2-  O279  1  0.29271390  0.66602310  0.06586284  1
  O2-  O280  1  0.29268526  0.66585627  0.40298654  1
  O2-  O281  1  0.30616800  0.67086494  0.72451176  1
  O2-  O282  1  0.78798304  0.16610415  0.07032435  1
  O2-  O283  1  0.78448665  0.15942549  0.39849621  1
  O2-  O284  1  0.79045152  0.15756298  0.73225975  1
  O2-  O285  1  0.79233089  0.66220491  0.06970792  1
  O2-  O286  1  0.79465423  0.66684448  0.39775862  1
  O2-  O287  1  0.78760448  0.66581451  0.72951495  1
