# generated using pymatgen
data_Ca2Al2SiO7
_symmetry_space_group_name_H-M   'P 1'
_cell_length_a   15.47431205
_cell_length_b   15.47231119
_cell_length_c   15.29526537
_cell_angle_alpha   89.99607017
_cell_angle_beta   89.99326804
_cell_angle_gamma   89.96184002
_symmetry_Int_Tables_number   1
_chemical_formula_structural   Ca2Al2SiO7
_chemical_formula_sum   'Ca48 Al48 Si24 O168'
_cell_volume   3662.04315459
_cell_formula_units_Z   24
loop_
 _symmetry_equiv_pos_site_id
 _symmetry_equiv_pos_as_xyz
  1  'x, y, z'
loop_
 _atom_type_symbol
 _atom_type_oxidation_number
  Ca2+  2.0
  Al0+  0.0
  Si0+  0.0
  O2-  -2.0
loop_
 _atom_site_type_symbol
 _atom_site_label
 _atom_site_symmetry_multiplicity
 _atom_site_fract_x
 _atom_site_fract_y
 _atom_site_fract_z
 _atom_site_occupancy
  Ca2+  Ca0  1  0.16876865  0.07809744  0.16886246  1
  Ca2+  Ca1  1  0.17531505  0.07994760  0.50687854  1
  Ca2+  Ca2  1  0.17627520  0.08360151  0.83649802  1
  Ca2+  Ca3  1  0.17287779  0.58122592  0.17094132  1
  Ca2+  Ca4  1  0.17760712  0.58272101  0.49813995  1
  Ca2+  Ca5  1  0.17942118  0.57941316  0.84301151  1
  Ca2+  Ca6  1  0.66183171  0.08220768  0.16623748  1
  Ca2+  Ca7  1  0.65969643  0.08560514  0.50281936  1
  Ca2+  Ca8  1  0.66730196  0.08344624  0.84769591  1
  Ca2+  Ca9  1  0.65762180  0.57766261  0.16477098  1
  Ca2+  Ca10  1  0.66635790  0.58333970  0.50615406  1
  Ca2+  Ca11  1  0.66053495  0.58122136  0.84337438  1
  Ca2+  Ca12  1  0.08096879  0.34615281  0.16408173  1
  Ca2+  Ca13  1  0.07915467  0.33772691  0.48994040  1
  Ca2+  Ca14  1  0.08400919  0.33920780  0.83535606  1
  Ca2+  Ca15  1  0.07874968  0.81954587  0.15954201  1
  Ca2+  Ca16  1  0.07832360  0.82603930  0.48739269  1
  Ca2+  Ca17  1  0.08037246  0.82997767  0.83767355  1
  Ca2+  Ca18  1  0.57352643  0.33048156  0.15830793  1
  Ca2+  Ca19  1  0.56877768  0.32321143  0.49607804  1
  Ca2+  Ca20  1  0.57494016  0.33036318  0.83211892  1
  Ca2+  Ca21  1  0.57445541  0.82772384  0.15804089  1
  Ca2+  Ca22  1  0.57648822  0.82588452  0.49623702  1
  Ca2+  Ca23  1  0.58359531  0.82554560  0.83800340  1
  Ca2+  Ca24  1  0.33203859  0.42665853  0.17198943  1
  Ca2+  Ca25  1  0.33990680  0.42366568  0.50227398  1
  Ca2+  Ca26  1  0.33719022  0.42281295  0.84277472  1
  Ca2+  Ca27  1  0.34335020  0.91474714  0.17231796  1
  Ca2+  Ca28  1  0.33773113  0.92106254  0.50290311  1
  Ca2+  Ca29  1  0.34307196  0.92429717  0.83808553  1
  Ca2+  Ca30  1  0.82651121  0.41312102  0.16940701  1
  Ca2+  Ca31  1  0.83322965  0.41534385  0.50011445  1
  Ca2+  Ca32  1  0.82098563  0.41863422  0.84379688  1
  Ca2+  Ca33  1  0.83240891  0.91407872  0.16598652  1
  Ca2+  Ca34  1  0.83257933  0.91606789  0.50298321  1
  Ca2+  Ca35  1  0.82457093  0.92270455  0.84910884  1
  Ca2+  Ca36  1  0.42541635  0.17878214  0.16091978  1
  Ca2+  Ca37  1  0.41841094  0.17451706  0.49428827  1
  Ca2+  Ca38  1  0.42492462  0.17643719  0.82716127  1
  Ca2+  Ca39  1  0.41104942  0.67312762  0.15774140  1
  Ca2+  Ca40  1  0.41569610  0.66495521  0.49619665  1
  Ca2+  Ca41  1  0.42508897  0.65913300  0.83333837  1
  Ca2+  Ca42  1  0.91633307  0.16946138  0.16379576  1
  Ca2+  Ca43  1  0.92119415  0.17403035  0.49278874  1
  Ca2+  Ca44  1  0.91529012  0.16358136  0.83528180  1
  Ca2+  Ca45  1  0.92951747  0.67082194  0.15996685  1
  Ca2+  Ca46  1  0.92615924  0.67221454  0.48643564  1
  Ca2+  Ca47  1  0.92187015  0.66766994  0.83560700  1
  Al0+  Al48  1  0.00053374  0.00194085  -0.00009554  1
  Al0+  Al49  1  -0.00215349  0.00131188  0.33319111  1
  Al0+  Al50  1  -0.00185684  0.00048465  0.66689105  1
  Al0+  Al51  1  -0.00024921  0.50020151  -0.00438600  1
  Al0+  Al52  1  -0.00088690  0.49995888  0.32952062  1
  Al0+  Al53  1  -0.00005331  0.50205418  0.66597651  1
  Al0+  Al54  1  0.50255023  0.00072852  -0.00069806  1
  Al0+  Al55  1  0.50252701  -0.00253284  0.33010700  1
  Al0+  Al56  1  0.50088939  -0.00255410  0.66969921  1
  Al0+  Al57  1  0.49886965  0.50075854  0.00326593  1
  Al0+  Al58  1  0.50144684  0.49741160  0.33781671  1
  Al0+  Al59  1  0.50162386  0.49921324  0.66176838  1
  Al0+  Al60  1  0.24785738  0.24953036  0.00082437  1
  Al0+  Al61  1  0.24980610  0.24874292  0.33371822  1
  Al0+  Al62  1  0.24754134  0.24896151  0.66725651  1
  Al0+  Al63  1  0.24821163  0.75236688  -0.00736974  1
  Al0+  Al64  1  0.24982932  0.74972121  0.33180187  1
  Al0+  Al65  1  0.24780790  0.74851036  0.67162958  1
  Al0+  Al66  1  0.75184192  0.25122170  0.00557709  1
  Al0+  Al67  1  0.75309834  0.24729018  0.33001986  1
  Al0+  Al68  1  0.75077831  0.25018464  0.66368840  1
  Al0+  Al69  1  0.75040048  0.75222145  -0.00132819  1
  Al0+  Al70  1  0.74850175  0.75130888  0.33314298  1
  Al0+  Al71  1  0.75104515  0.75090088  0.66338464  1
  Al0+  Al72  1  0.42996487  0.81778739  0.32309882  1
  Al0+  Al73  1  0.07127361  0.67915176  0.31801070  1
  Al0+  Al74  1  0.42719582  0.82327194  0.98397712  1
  Al0+  Al75  1  0.32244116  0.57184647  0.34966776  1
  Al0+  Al76  1  0.67853476  0.43068368  0.01363720  1
  Al0+  Al77  1  0.57093383  0.17801000  0.31771799  1
  Al0+  Al78  1  0.17818949  0.42775741  0.01437265  1
  Al0+  Al79  1  0.07122069  0.67681673  0.98090973  1
  Al0+  Al80  1  0.17767137  0.42834314  0.34889252  1
  Al0+  Al81  1  0.42636884  0.32143649  0.98571762  1
  Al0+  Al82  1  0.32218449  0.56920765  0.68185420  1
  Al0+  Al83  1  0.82246554  0.07179388  0.01790884  1
  Al0+  Al84  1  0.56958851  0.67847459  0.98780777  1
  Al0+  Al85  1  0.57152847  0.67958403  0.65246197  1
  Al0+  Al86  1  0.32083159  0.57261952  0.01449916  1
  Al0+  Al87  1  0.92961744  0.82272436  0.98394354  1
  Al0+  Al88  1  0.42695512  0.32251668  0.31671205  1
  Al0+  Al89  1  0.42637662  0.32051654  0.65138215  1
  Al0+  Al90  1  0.92628526  0.82333573  0.31812364  1
  Al0+  Al91  1  0.57271257  0.18181676  0.98579638  1
  Al0+  Al92  1  0.67807188  0.92849964  0.01809606  1
  Al0+  Al93  1  0.32146091  0.07056921  0.68009882  1
  Al0+  Al94  1  0.57224413  0.17674632  0.65286135  1
  Al0+  Al95  1  0.93120057  0.32066806  0.31906420  1
  Si0+  Si96  1  0.06938368  0.17745779  0.65205566  1
  Si0+  Si97  1  0.68042302  0.42538628  0.35070424  1
  Si0+  Si98  1  0.07082089  0.67896644  0.64947456  1
  Si0+  Si99  1  0.17523810  0.92884866  0.68366980  1
  Si0+  Si100  1  0.32279239  0.06852698  0.34675101  1
  Si0+  Si101  1  0.82189944  0.07112685  0.35221736  1
  Si0+  Si102  1  0.92929451  0.32099387  0.98417161  1
  Si0+  Si103  1  0.57288798  0.67616033  0.31910155  1
  Si0+  Si104  1  0.07310858  0.17679513  0.31729384  1
  Si0+  Si105  1  0.82267353  0.57279872  0.01583796  1
  Si0+  Si106  1  0.68050236  0.92703487  0.68168364  1
  Si0+  Si107  1  0.93044295  0.82142378  0.65099839  1
  Si0+  Si108  1  0.32179429  0.07057714  0.01578693  1
  Si0+  Si109  1  0.81864511  0.57090663  0.34717516  1
  Si0+  Si110  1  0.42619017  0.82092576  0.65112745  1
  Si0+  Si111  1  0.17749775  0.92991714  0.34661933  1
  Si0+  Si112  1  0.92981495  0.32179525  0.65290082  1
  Si0+  Si113  1  0.07107759  0.17765340  0.98402407  1
  Si0+  Si114  1  0.82230321  0.57268905  0.68063893  1
  Si0+  Si115  1  0.67900014  0.92915495  0.35181637  1
  Si0+  Si116  1  0.82031166  0.07121537  0.68085434  1
  Si0+  Si117  1  0.68237245  0.42982879  0.67984111  1
  Si0+  Si118  1  0.17469377  0.42834796  0.68259334  1
  Si0+  Si119  1  0.17888820  0.93085649  0.01405523  1
  O2-  O120  1  0.25524111  -0.00502886  0.05804963  1
  O2-  O121  1  0.24943208  -0.00052021  0.38984686  1
  O2-  O122  1  0.24781617  -0.00616478  0.72703874  1
  O2-  O123  1  0.24952818  0.49956071  0.06380979  1
  O2-  O124  1  0.25285514  0.49632295  0.39988303  1
  O2-  O125  1  0.24891738  0.49093827  0.72520429  1
  O2-  O126  1  0.75056994  0.00047675  0.06828233  1
  O2-  O127  1  0.75091132  -0.00001891  0.39465308  1
  O2-  O128  1  0.74572000  0.00457375  0.72198697  1
  O2-  O129  1  0.75074636  0.50826981  0.06060129  1
  O2-  O130  1  0.74803052  0.50076734  0.39266646  1
  O2-  O131  1  0.75056626  0.50338229  0.72310689  1
  O2-  O132  1  0.01032616  0.25053924  0.27322448  1
  O2-  O133  1  0.00291026  0.25296636  0.61052972  1
  O2-  O134  1  0.00137752  0.25078340  0.94242659  1
  O2-  O135  1  -0.00116601  0.75207384  0.27030056  1
  O2-  O136  1  0.00147724  0.75186254  0.60737731  1
  O2-  O137  1  -0.00179164  0.74905279  0.93148255  1
  O2-  O138  1  0.50183802  0.25252680  0.26896452  1
  O2-  O139  1  0.49501523  0.24326892  0.60356072  1
  O2-  O140  1  0.49960423  0.25116692  0.93494506  1
  O2-  O141  1  0.49757761  0.73742380  0.27714024  1
  O2-  O142  1  0.49288643  0.75050755  0.60643115  1
  O2-  O143  1  0.49668025  0.74825484  0.93524718  1
  O2-  O144  1  0.07110239  0.17380239  0.08869044  1
  O2-  O145  1  0.06875656  0.17290246  0.42338809  1
  O2-  O146  1  0.06643298  0.17382633  0.75681751  1
  O2-  O147  1  0.06979679  0.67760024  0.09410432  1
  O2-  O148  1  0.06926975  0.68198076  0.43275958  1
  O2-  O149  1  0.06777013  0.67753589  0.75385220  1
  O2-  O150  1  0.57041032  0.18338820  0.09898568  1
  O2-  O151  1  0.56728919  0.17740490  0.43185147  1
  O2-  O152  1  0.57725677  0.18106876  0.76546184  1
  O2-  O153  1  0.56931817  0.67898865  0.10136520  1
  O2-  O154  1  0.57706091  0.68105907  0.42516286  1
  O2-  O155  1  0.57657753  0.68093645  0.76441229  1
  O2-  O156  1  0.17627776  0.43146060  0.23627736  1
  O2-  O157  1  0.16670867  0.43200154  0.57772203  1
  O2-  O158  1  0.17829891  0.42838794  0.90010172  1
  O2-  O159  1  0.17593652  0.93283030  0.24188725  1
  O2-  O160  1  0.17114657  0.93162860  0.57782037  1
  O2-  O161  1  0.17578268  0.93712401  0.90883435  1
  O2-  O162  1  0.68170036  0.42583447  0.24593108  1
  O2-  O163  1  0.68766618  0.42976569  0.57459608  1
  O2-  O164  1  0.68233464  0.42966327  0.89980637  1
  O2-  O165  1  0.67811135  0.92832945  0.24786256  1
  O2-  O166  1  0.68435687  0.92464846  0.57623975  1
  O2-  O167  1  0.68019485  0.93015220  0.90358231  1
  O2-  O168  1  0.42650389  0.31922416  0.09891206  1
  O2-  O169  1  0.42793049  0.32000931  0.43072470  1
  O2-  O170  1  0.42915608  0.32143588  0.76440849  1
  O2-  O171  1  0.42905609  0.82248372  0.09771551  1
  O2-  O172  1  0.43289646  0.82182459  0.43658322  1
  O2-  O173  1  0.42850915  0.82302379  0.75589342  1
  O2-  O174  1  0.92969676  0.32143746  0.08887524  1
  O2-  O175  1  0.93000763  0.31777354  0.43322227  1
  O2-  O176  1  0.92812595  0.32115647  0.75768443  1
  O2-  O177  1  0.93452075  0.82240479  0.09702631  1
  O2-  O178  1  0.92867775  0.82166527  0.43307127  1
  O2-  O179  1  0.93066953  0.82226807  0.75525864  1
  O2-  O180  1  0.32149429  0.06632057  0.24181981  1
  O2-  O181  1  0.31793996  0.06793653  0.56641547  1
  O2-  O182  1  0.31814426  0.07148947  0.91044965  1
  O2-  O183  1  0.32077462  0.57572549  0.23713026  1
  O2-  O184  1  0.31894377  0.57203920  0.56898588  1
  O2-  O185  1  0.32113331  0.56955155  0.90041857  1
  O2-  O186  1  0.82518627  0.07229085  0.24829359  1
  O2-  O187  1  0.82494706  0.06939782  0.57581899  1
  O2-  O188  1  0.82271559  0.07132474  0.90313819  1
  O2-  O189  1  0.81708854  0.57083852  0.24270438  1
  O2-  O190  1  0.82410747  0.57127147  0.57531178  1
  O2-  O191  1  0.82373890  0.56795617  0.90942527  1
  O2-  O192  1  0.04082723  0.08619302  0.26946068  1
  O2-  O193  1  0.03649435  0.08786808  0.60216647  1
  O2-  O194  1  0.04070389  0.08888962  0.93244194  1
  O2-  O195  1  0.03960779  0.58302917  0.26540421  1
  O2-  O196  1  0.03917551  0.58847991  0.60148794  1
  O2-  O197  1  0.03913141  0.58011277  0.92556560  1
  O2-  O198  1  0.54144008  0.08033096  0.26583307  1
  O2-  O199  1  0.55015011  0.07480650  0.60401013  1
  O2-  O200  1  0.54638980  0.08267314  0.93493018  1
  O2-  O201  1  0.55728231  0.57882161  0.27959705  1
  O2-  O202  1  0.54643760  0.58243521  0.59725131  1
  O2-  O203  1  0.54305707  0.58010788  0.93362966  1
  O2-  O204  1  0.16868466  0.19259924  0.27330427  1
  O2-  O205  1  0.16190895  0.19932230  0.60434655  1
  O2-  O206  1  0.16214557  0.20420972  0.93463750  1
  O2-  O207  1  0.16771176  0.70998115  0.26536984  1
  O2-  O208  1  0.16314522  0.70652018  0.60364385  1
  O2-  O209  1  0.16648145  0.70980792  0.92532846  1
  O2-  O210  1  0.67184804  0.20055373  0.26978547  1
  O2-  O211  1  0.66993864  0.20879197  0.59791283  1
  O2-  O212  1  0.67265617  0.21026133  0.93595526  1
  O2-  O213  1  0.66324231  0.70783829  0.27174289  1
  O2-  O214  1  0.66787304  0.71300145  0.59671072  1
  O2-  O215  1  0.66905854  0.70487839  0.93506362  1
  O2-  O216  1  0.07765656  0.45595487  0.06301631  1
  O2-  O217  1  0.07781750  0.45863419  0.40098061  1
  O2-  O218  1  0.08268588  0.45918117  0.73122590  1
  O2-  O219  1  0.09095920  0.96633865  0.06359795  1
  O2-  O220  1  0.08639999  0.95968447  0.39623558  1
  O2-  O221  1  0.08350952  0.96054964  0.73106522  1
  O2-  O222  1  0.58353097  0.46004565  0.07017142  1
  O2-  O223  1  0.58874354  0.44937914  0.40002481  1
  O2-  O224  1  0.58987392  0.45538740  0.72475387  1
  O2-  O225  1  0.57988011  0.95807634  0.07119710  1
  O2-  O226  1  0.58806708  0.95890887  0.40105288  1
  O2-  O227  1  0.58662919  0.94555846  0.72738636  1
  O2-  O228  1  0.19818736  0.32665243  0.06580873  1
  O2-  O229  1  0.19756272  0.32546762  0.39883860  1
  O2-  O230  1  0.19047431  0.33101183  0.72449503  1
  O2-  O231  1  0.19815716  0.83629970  0.05771491  1
  O2-  O232  1  0.20379371  0.83864611  0.39536610  1
  O2-  O233  1  0.19495291  0.83394961  0.72819239  1
  O2-  O234  1  0.71544352  0.33781601  0.06988253  1
  O2-  O235  1  0.71584610  0.33553671  0.39746385  1
  O2-  O236  1  0.71515805  0.33944751  0.72732784  1
  O2-  O237  1  0.70671975  0.82955680  0.06996908  1
  O2-  O238  1  0.70707632  0.83734346  0.40099555  1
  O2-  O239  1  0.71610911  0.83806767  0.72957208  1
  O2-  O240  1  0.45648540  0.42196055  0.26787470  1
  O2-  O241  1  0.46218547  0.41549918  0.59627928  1
  O2-  O242  1  0.45651935  0.41969068  0.93540419  1
  O2-  O243  1  0.46545271  0.91140085  0.26752708  1
  O2-  O244  1  0.45446473  0.91372310  0.60426258  1
  O2-  O245  1  0.46001147  0.92047844  0.93121437  1
  O2-  O246  1  0.95429537  0.41778765  0.26441537  1
  O2-  O247  1  0.95513959  0.41457767  0.60543420  1
  O2-  O248  1  0.95519362  0.41146605  0.93308061  1
  O2-  O249  1  0.95203926  0.92292323  0.26891018  1
  O2-  O250  1  0.95713951  0.91414046  0.60346090  1
  O2-  O251  1  0.96267883  0.92039891  0.93076712  1
  O2-  O252  1  0.32857144  0.29208451  0.26650059  1
  O2-  O253  1  0.32543226  0.29601717  0.60093059  1
  O2-  O254  1  0.32805706  0.29101726  0.93354080  1
  O2-  O255  1  0.33135692  0.79797802  0.26982542  1
  O2-  O256  1  0.32990177  0.79929826  0.60819607  1
  O2-  O257  1  0.32689825  0.80584318  0.93122862  1
  O2-  O258  1  0.83737120  0.28534551  0.26437664  1
  O2-  O259  1  0.84029743  0.29171625  0.60250521  1
  O2-  O260  1  0.83883433  0.29117016  0.93574194  1
  O2-  O261  1  0.82763898  0.79544637  0.26813571  1
  O2-  O262  1  0.83961829  0.79310011  0.60210988  1
  O2-  O263  1  0.83070678  0.79768138  0.93136014  1
  O2-  O264  1  0.41421660  0.04628197  0.06198742  1
  O2-  O265  1  0.41294738  0.03607803  0.39471859  1
  O2-  O266  1  0.41800414  0.04083211  0.73469725  1
  O2-  O267  1  0.41866605  0.54744335  0.06862266  1
  O2-  O268  1  0.42251226  0.54564194  0.40329049  1
  O2-  O269  1  0.42153776  0.54064013  0.73115541  1
  O2-  O270  1  0.92202778  0.04422290  0.06911807  1
  O2-  O271  1  0.91361648  0.04346706  0.40227640  1
  O2-  O272  1  0.91110091  0.04085541  0.72959866  1
  O2-  O273  1  0.91412461  0.54082108  0.06140525  1
  O2-  O274  1  0.91002639  0.54196671  0.39546791  1
  O2-  O275  1  0.91317363  0.54321964  0.72904793  1
  O2-  O276  1  0.28702070  0.15939301  0.06394747  1
  O2-  O277  1  0.29585755  0.16002247  0.39495971  1
  O2-  O278  1  0.28623007  0.16558708  0.73496273  1
  O2-  O279  1  0.29080685  0.67342424  0.06164630  1
  O2-  O280  1  0.29031225  0.67047967  0.40329423  1
  O2-  O281  1  0.28958218  0.66565802  0.73534899  1
  O2-  O282  1  0.79816023  0.17080432  0.07044273  1
  O2-  O283  1  0.79499381  0.16317034  0.40095023  1
  O2-  O284  1  0.79822423  0.16538998  0.72628601  1
  O2-  O285  1  0.80405160  0.66826474  0.05865956  1
  O2-  O286  1  0.79162042  0.66299565  0.39652298  1
  O2-  O287  1  0.79684761  0.66565185  0.72620976  1
