# generated using pymatgen
data_Ca2Al2SiO7
_symmetry_space_group_name_H-M   'P 1'
_cell_length_a   15.45814058
_cell_length_b   15.45825640
_cell_length_c   15.28336393
_cell_angle_alpha   89.99680450
_cell_angle_beta   89.98800129
_cell_angle_gamma   89.99852127
_symmetry_Int_Tables_number   1
_chemical_formula_structural   Ca2Al2SiO7
_chemical_formula_sum   'Ca48 Al48 Si24 O168'
_cell_volume   3652.04990276
_cell_formula_units_Z   24
loop_
 _symmetry_equiv_pos_site_id
 _symmetry_equiv_pos_as_xyz
  1  'x, y, z'
loop_
 _atom_type_symbol
 _atom_type_oxidation_number
  Ca2+  2.0
  Al0+  0.0
  Si0+  0.0
  O2-  -2.0
loop_
 _atom_site_type_symbol
 _atom_site_label
 _atom_site_symmetry_multiplicity
 _atom_site_fract_x
 _atom_site_fract_y
 _atom_site_fract_z
 _atom_site_occupancy
  Ca2+  Ca0  1  0.17066372  0.09240357  0.17188589  1
  Ca2+  Ca1  1  0.17812249  0.09133060  0.50110566  1
  Ca2+  Ca2  1  0.17252884  0.08767958  0.83815286  1
  Ca2+  Ca3  1  0.16566504  0.57097607  0.16950736  1
  Ca2+  Ca4  1  0.16674058  0.57721183  0.50059617  1
  Ca2+  Ca5  1  0.17827576  0.57562656  0.84224171  1
  Ca2+  Ca6  1  0.66372825  0.08418211  0.16525127  1
  Ca2+  Ca7  1  0.67213441  0.08974635  0.50403451  1
  Ca2+  Ca8  1  0.67576250  0.08112006  0.84352563  1
  Ca2+  Ca9  1  0.67980067  0.58216545  0.16846076  1
  Ca2+  Ca10  1  0.67249021  0.57514678  0.50418821  1
  Ca2+  Ca11  1  0.66760412  0.57517947  0.83875125  1
  Ca2+  Ca12  1  0.08115589  0.33052886  0.16264290  1
  Ca2+  Ca13  1  0.07778268  0.33049685  0.48804145  1
  Ca2+  Ca14  1  0.08143463  0.33361723  0.84013625  1
  Ca2+  Ca15  1  0.07892879  0.82412137  0.15991205  1
  Ca2+  Ca16  1  0.08352767  0.82404029  0.49436135  1
  Ca2+  Ca17  1  0.07605131  0.83514785  0.83339927  1
  Ca2+  Ca18  1  0.57800827  0.32013782  0.15813470  1
  Ca2+  Ca19  1  0.57797996  0.33235504  0.49832515  1
  Ca2+  Ca20  1  0.57612337  0.33563096  0.82917640  1
  Ca2+  Ca21  1  0.57983077  0.83372084  0.15604272  1
  Ca2+  Ca22  1  0.57624735  0.83525537  0.49973630  1
  Ca2+  Ca23  1  0.57624468  0.83474211  0.83465940  1
  Ca2+  Ca24  1  0.32168307  0.40741696  0.16582027  1
  Ca2+  Ca25  1  0.32594757  0.41695045  0.50846665  1
  Ca2+  Ca26  1  0.33628071  0.42258045  0.84344264  1
  Ca2+  Ca27  1  0.33451148  0.92227823  0.17049168  1
  Ca2+  Ca28  1  0.33482071  0.92853551  0.50575198  1
  Ca2+  Ca29  1  0.34068931  0.92012864  0.83666715  1
  Ca2+  Ca30  1  0.84790030  0.42303869  0.16901493  1
  Ca2+  Ca31  1  0.83035129  0.41602520  0.50074355  1
  Ca2+  Ca32  1  0.82765609  0.41760051  0.84136185  1
  Ca2+  Ca33  1  0.83245201  0.92016956  0.16214700  1
  Ca2+  Ca34  1  0.83088551  0.92638230  0.50719312  1
  Ca2+  Ca35  1  0.82959458  0.92553763  0.84594594  1
  Ca2+  Ca36  1  0.42471149  0.16616600  0.15948038  1
  Ca2+  Ca37  1  0.41755829  0.16827018  0.49432898  1
  Ca2+  Ca38  1  0.41973195  0.17838412  0.83044323  1
  Ca2+  Ca39  1  0.41446580  0.67355900  0.15656517  1
  Ca2+  Ca40  1  0.41035235  0.67060742  0.50239960  1
  Ca2+  Ca41  1  0.40573629  0.67470050  0.82818619  1
  Ca2+  Ca42  1  0.92595428  0.17743509  0.15494377  1
  Ca2+  Ca43  1  0.92161935  0.17237627  0.49024663  1
  Ca2+  Ca44  1  0.91722760  0.16320982  0.83415802  1
  Ca2+  Ca45  1  0.91872748  0.66395373  0.15951349  1
  Ca2+  Ca46  1  0.92201261  0.66531120  0.48822219  1
  Ca2+  Ca47  1  0.91008459  0.67043425  0.83640449  1
  Al0+  Al48  1  0.00042846  -0.00149912  -0.00293357  1
  Al0+  Al49  1  -0.00004689  -0.00177777  0.33228407  1
  Al0+  Al50  1  0.00045759  -0.00024942  0.66667358  1
  Al0+  Al51  1  0.00247264  0.49823013  0.00021948  1
  Al0+  Al52  1  0.00189196  0.50213093  0.33619263  1
  Al0+  Al53  1  0.00006237  0.49994278  0.66652407  1
  Al0+  Al54  1  0.50101582  -0.00153578  -0.00476288  1
  Al0+  Al55  1  0.49938036  0.00021238  0.33550982  1
  Al0+  Al56  1  0.50024046  -0.00057297  0.66604992  1
  Al0+  Al57  1  0.50188179  0.50164299  0.00455175  1
  Al0+  Al58  1  0.50058758  0.50262268  0.33238469  1
  Al0+  Al59  1  0.50009916  0.50038530  0.66807790  1
  Al0+  Al60  1  0.25057396  0.25003050  -0.00388037  1
  Al0+  Al61  1  0.24958775  0.25132412  0.34085562  1
  Al0+  Al62  1  0.24918686  0.24933166  0.66785858  1
  Al0+  Al63  1  0.25013094  0.75043815  -0.00081192  1
  Al0+  Al64  1  0.24842854  0.75066605  0.32899436  1
  Al0+  Al65  1  0.24820427  0.75014380  0.66374980  1
  Al0+  Al66  1  0.75195242  0.24898398  -0.00225037  1
  Al0+  Al67  1  0.74769098  0.25090324  0.32540795  1
  Al0+  Al68  1  0.75061228  0.25111269  0.67460178  1
  Al0+  Al69  1  0.74920193  0.75006645  0.00247599  1
  Al0+  Al70  1  0.74781612  0.75074073  0.34024072  1
  Al0+  Al71  1  0.74956869  0.75061998  0.66321994  1
  Al0+  Al72  1  0.67849188  0.93059224  0.01526912  1
  Al0+  Al73  1  0.18113901  0.43054142  0.34919010  1
  Al0+  Al74  1  0.32166778  0.07141342  0.68235786  1
  Al0+  Al75  1  0.82345337  0.07254493  0.01803392  1
  Al0+  Al76  1  0.32345191  0.57343189  0.01649431  1
  Al0+  Al77  1  0.82149940  0.07029825  0.67946610  1
  Al0+  Al78  1  0.43020915  0.32167072  0.98644221  1
  Al0+  Al79  1  0.42790373  0.81929502  0.98648035  1
  Al0+  Al80  1  0.42872842  0.82118157  0.65078018  1
  Al0+  Al81  1  0.07293040  0.17761573  0.32042296  1
  Al0+  Al82  1  0.92991339  0.32281192  0.98263579  1
  Al0+  Al83  1  0.56910470  0.17852747  0.32052280  1
  Al0+  Al84  1  0.92866172  0.32104136  0.31938377  1
  Al0+  Al85  1  0.07028683  0.68018288  0.31844588  1
  Al0+  Al86  1  0.82054788  0.57017704  0.34761293  1
  Al0+  Al87  1  0.42848839  0.32211862  0.65198614  1
  Al0+  Al88  1  0.07181293  0.17734991  0.98329821  1
  Al0+  Al89  1  0.67982748  0.43055715  0.67973524  1
  Al0+  Al90  1  0.31864375  0.57052080  0.67877226  1
  Al0+  Al91  1  0.32032153  0.06962744  0.34619043  1
  Al0+  Al92  1  0.92827939  0.81871835  0.98702755  1
  Al0+  Al93  1  0.18176204  0.42787975  0.01576296  1
  Al0+  Al94  1  0.81978810  0.56884793  0.01195500  1
  Al0+  Al95  1  0.57207132  0.17725328  0.98248614  1
  Si0+  Si96  1  0.92438402  0.82217821  0.31746158  1
  Si0+  Si97  1  0.07025015  0.17761501  0.65021271  1
  Si0+  Si98  1  0.57272342  0.17976203  0.65092395  1
  Si0+  Si99  1  0.67817432  0.92624578  0.68316163  1
  Si0+  Si100  1  0.67728492  0.42564203  0.01873881  1
  Si0+  Si101  1  0.17884117  0.92770205  0.68312930  1
  Si0+  Si102  1  0.43071957  0.81990024  0.31920948  1
  Si0+  Si103  1  0.67772458  0.92965145  0.35087775  1
  Si0+  Si104  1  0.67568541  0.42671315  0.34901362  1
  Si0+  Si105  1  0.82076388  0.07181858  0.34621465  1
  Si0+  Si106  1  0.92827922  0.32118689  0.65185626  1
  Si0+  Si107  1  0.32368862  0.57552238  0.35021890  1
  Si0+  Si108  1  0.17588634  0.42682153  0.68457711  1
  Si0+  Si109  1  0.82378519  0.57344267  0.68235329  1
  Si0+  Si110  1  0.07189756  0.67735912  0.98130548  1
  Si0+  Si111  1  0.57283385  0.67912140  0.31880257  1
  Si0+  Si112  1  0.31998185  0.06920571  0.01314924  1
  Si0+  Si113  1  0.92811851  0.82196798  0.65054165  1
  Si0+  Si114  1  0.06911794  0.67918705  0.65156885  1
  Si0+  Si115  1  0.17677012  0.92544286  0.34948848  1
  Si0+  Si116  1  0.42717832  0.32436260  0.31920269  1
  Si0+  Si117  1  0.57333056  0.67736396  0.64810736  1
  Si0+  Si118  1  0.17768721  0.92787204  0.01457439  1
  Si0+  Si119  1  0.57306052  0.67841472  0.98427856  1
  O2-  O120  1  0.24746536  0.00009326  0.05646366  1
  O2-  O121  1  0.24165681  -0.00199307  0.39311251  1
  O2-  O122  1  0.24755987  -0.00461896  0.72830536  1
  O2-  O123  1  0.25477832  0.49895522  0.06666007  1
  O2-  O124  1  0.25912484  0.50326878  0.39460900  1
  O2-  O125  1  0.24861169  0.49237708  0.72617743  1
  O2-  O126  1  0.74802817  0.00346342  0.06782043  1
  O2-  O127  1  0.75013620  0.00066539  0.39098729  1
  O2-  O128  1  0.74735462  -0.00526395  0.72504487  1
  O2-  O129  1  0.75007189  0.49102352  0.06171019  1
  O2-  O130  1  0.74665534  0.49395115  0.39306699  1
  O2-  O131  1  0.75423844  0.50624503  0.72555673  1
  O2-  O132  1  -0.00151707  0.24633447  0.27078933  1
  O2-  O133  1  -0.00031825  0.25029234  0.60959735  1
  O2-  O134  1  -0.00257735  0.24653990  0.93212311  1
  O2-  O135  1  -0.00682658  0.75350361  0.27400393  1
  O2-  O136  1  -0.00485300  0.74747672  0.60824966  1
  O2-  O137  1  0.00173344  0.74448189  0.93656925  1
  O2-  O138  1  0.49547286  0.25505520  0.27601310  1
  O2-  O139  1  0.50141927  0.24503961  0.60499740  1
  O2-  O140  1  0.50453184  0.25378187  0.93356524  1
  O2-  O141  1  0.49853847  0.74649682  0.27698335  1
  O2-  O142  1  0.50396740  0.74636582  0.60405943  1
  O2-  O143  1  0.49850643  0.74061546  0.93994243  1
  O2-  O144  1  0.07369524  0.17802800  0.09670832  1
  O2-  O145  1  0.07059586  0.17934461  0.43488594  1
  O2-  O146  1  0.06979942  0.17490064  0.75467326  1
  O2-  O147  1  0.07156725  0.67982003  0.08699133  1
  O2-  O148  1  0.06975529  0.68250267  0.43250970  1
  O2-  O149  1  0.06858087  0.68042889  0.75613125  1
  O2-  O150  1  0.56600081  0.17580794  0.09656835  1
  O2-  O151  1  0.56995461  0.17832856  0.43410789  1
  O2-  O152  1  0.57240519  0.18161191  0.75573954  1
  O2-  O153  1  0.57497596  0.68250320  0.09029551  1
  O2-  O154  1  0.57408023  0.68035356  0.42396325  1
  O2-  O155  1  0.57805635  0.67875201  0.75303894  1
  O2-  O156  1  0.18144511  0.42946548  0.23688341  1
  O2-  O157  1  0.17289924  0.42923390  0.57873862  1
  O2-  O158  1  0.18188111  0.43074585  0.90179124  1
  O2-  O159  1  0.17979222  0.92072833  0.24428461  1
  O2-  O160  1  0.17804455  0.92776648  0.57727007  1
  O2-  O161  1  0.17891237  0.92637091  0.90931238  1
  O2-  O162  1  0.67130197  0.42960180  0.24429087  1
  O2-  O163  1  0.68264044  0.43019305  0.56608577  1
  O2-  O164  1  0.67545510  0.43032218  0.91282705  1
  O2-  O165  1  0.67511992  0.92678922  0.24666631  1
  O2-  O166  1  0.68004969  0.92547164  0.57677029  1
  O2-  O167  1  0.68004975  0.92926473  0.90148541  1
  O2-  O168  1  0.42892426  0.31624936  0.10047857  1
  O2-  O169  1  0.42907952  0.32457951  0.42523214  1
  O2-  O170  1  0.43033954  0.32344527  0.76438639  1
  O2-  O171  1  0.42931720  0.82090463  0.10026584  1
  O2-  O172  1  0.43208528  0.81984984  0.42450838  1
  O2-  O173  1  0.42933336  0.81952386  0.76329164  1
  O2-  O174  1  0.93474392  0.32502507  0.09593132  1
  O2-  O175  1  0.92751604  0.31821253  0.43427055  1
  O2-  O176  1  0.92930625  0.32358029  0.75612142  1
  O2-  O177  1  0.93089020  0.81666773  0.10016826  1
  O2-  O178  1  0.92537547  0.82208514  0.42390742  1
  O2-  O179  1  0.92823869  0.82206876  0.75519029  1
  O2-  O180  1  0.32317018  0.06587795  0.23309718  1
  O2-  O181  1  0.32011603  0.07059874  0.56879798  1
  O2-  O182  1  0.31915795  0.06740559  0.90797378  1
  O2-  O183  1  0.32312405  0.57893210  0.24544893  1
  O2-  O184  1  0.31411660  0.57098224  0.56526618  1
  O2-  O185  1  0.31910526  0.57524161  0.90256795  1
  O2-  O186  1  0.82097703  0.06884539  0.24223253  1
  O2-  O187  1  0.82081142  0.06983491  0.56517076  1
  O2-  O188  1  0.82374841  0.06688750  0.90408330  1
  O2-  O189  1  0.81850405  0.57324679  0.23497585  1
  O2-  O190  1  0.82479895  0.57290983  0.57658679  1
  O2-  O191  1  0.81529199  0.57007789  0.89841092  1
  O2-  O192  1  0.05204960  0.07594091  0.27115073  1
  O2-  O193  1  0.04259613  0.08569686  0.60190348  1
  O2-  O194  1  0.04733965  0.07774552  0.93037124  1
  O2-  O195  1  0.03989316  0.58422037  0.26566475  1
  O2-  O196  1  0.04316571  0.58654387  0.60352450  1
  O2-  O197  1  0.04791299  0.58418706  0.93525805  1
  O2-  O198  1  0.53647738  0.08199373  0.26731277  1
  O2-  O199  1  0.55179964  0.08408655  0.60638998  1
  O2-  O200  1  0.54075605  0.08067461  0.92862463  1
  O2-  O201  1  0.55045828  0.58639421  0.27084522  1
  O2-  O202  1  0.54674762  0.58475489  0.60098061  1
  O2-  O203  1  0.55481959  0.58243532  0.94123678  1
  O2-  O204  1  0.17195349  0.20793489  0.27070754  1
  O2-  O205  1  0.16241875  0.20550209  0.60372855  1
  O2-  O206  1  0.16872317  0.20862654  0.92867098  1
  O2-  O207  1  0.16555996  0.71225379  0.26269644  1
  O2-  O208  1  0.15837892  0.71036557  0.60100696  1
  O2-  O209  1  0.16398296  0.70766177  0.93514356  1
  O2-  O210  1  0.66429941  0.20640612  0.26348314  1
  O2-  O211  1  0.66638989  0.20946126  0.60561477  1
  O2-  O212  1  0.67299546  0.19916835  0.93369087  1
  O2-  O213  1  0.66324885  0.71175205  0.27180359  1
  O2-  O214  1  0.66655249  0.70417257  0.59897470  1
  O2-  O215  1  0.66311288  0.70998934  0.93498073  1
  O2-  O216  1  0.08429452  0.45893901  0.06830983  1
  O2-  O217  1  0.08661063  0.46574530  0.40535843  1
  O2-  O218  1  0.08369409  0.45754265  0.73100747  1
  O2-  O219  1  0.08574109  0.95170644  0.06242958  1
  O2-  O220  1  0.08098668  0.94438190  0.39522371  1
  O2-  O221  1  0.08497276  0.95353769  0.72858655  1
  O2-  O222  1  0.58621506  0.45454879  0.06804728  1
  O2-  O223  1  0.58339076  0.45647814  0.39769746  1
  O2-  O224  1  0.58456513  0.46257812  0.73478743  1
  O2-  O225  1  0.57894216  0.95764492  0.06802538  1
  O2-  O226  1  0.58724475  0.95931793  0.40039534  1
  O2-  O227  1  0.58408335  0.95005750  0.72728959  1
  O2-  O228  1  0.21080318  0.32885756  0.06802967  1
  O2-  O229  1  0.20902813  0.33495438  0.40751359  1
  O2-  O230  1  0.19674749  0.33187500  0.72796394  1
  O2-  O231  1  0.20723220  0.83718087  0.06327649  1
  O2-  O232  1  0.20763957  0.83391220  0.39839499  1
  O2-  O233  1  0.20222956  0.83371253  0.72851054  1
  O2-  O234  1  0.69831090  0.33018537  0.06107413  1
  O2-  O235  1  0.70036212  0.33230298  0.39447513  1
  O2-  O236  1  0.71054561  0.33642523  0.73701120  1
  O2-  O237  1  0.70856399  0.83296380  0.06933021  1
  O2-  O238  1  0.70449171  0.83893231  0.40206123  1
  O2-  O239  1  0.70327375  0.83188902  0.72767722  1
  O2-  O240  1  0.45067693  0.41871624  0.27373850  1
  O2-  O241  1  0.46069968  0.41850314  0.59756431  1
  O2-  O242  1  0.45602971  0.42308498  0.93771675  1
  O2-  O243  1  0.46200126  0.91042505  0.27241646  1
  O2-  O244  1  0.46147658  0.91734842  0.59536739  1
  O2-  O245  1  0.46219354  0.91306643  0.93008526  1
  O2-  O246  1  0.96070700  0.41941847  0.27090639  1
  O2-  O247  1  0.95539748  0.41390148  0.60406257  1
  O2-  O248  1  0.96222592  0.41987204  0.92763818  1
  O2-  O249  1  0.94915826  0.91551472  0.27159837  1
  O2-  O250  1  0.95975317  0.91216484  0.60117902  1
  O2-  O251  1  0.96130479  0.91316084  0.93061768  1
  O2-  O252  1  0.33339418  0.29731568  0.27644480  1
  O2-  O253  1  0.33006175  0.29216200  0.60005249  1
  O2-  O254  1  0.33394139  0.29143640  0.93128179  1
  O2-  O255  1  0.33785188  0.79645083  0.27234125  1
  O2-  O256  1  0.33177319  0.78989671  0.59631267  1
  O2-  O257  1  0.33051714  0.79304821  0.93116308  1
  O2-  O258  1  0.82962233  0.29921653  0.26607308  1
  O2-  O259  1  0.83601592  0.29257963  0.60569522  1
  O2-  O260  1  0.82951373  0.29974528  0.93210035  1
  O2-  O261  1  0.82959213  0.79702129  0.27490963  1
  O2-  O262  1  0.83504721  0.79905862  0.60224737  1
  O2-  O263  1  0.83223498  0.78714747  0.93213156  1
  O2-  O264  1  0.41092007  0.03764494  0.05937428  1
  O2-  O265  1  0.41454919  0.03387371  0.40312288  1
  O2-  O266  1  0.41888105  0.04011477  0.73381287  1
  O2-  O267  1  0.42435367  0.55363101  0.06797023  1
  O2-  O268  1  0.41984439  0.55569113  0.39468486  1
  O2-  O269  1  0.41770464  0.54795818  0.73011316  1
  O2-  O270  1  0.92122651  0.03784909  0.06886169  1
  O2-  O271  1  0.91276058  0.04390541  0.39517677  1
  O2-  O272  1  0.91788287  0.03783207  0.73226615  1
  O2-  O273  1  0.91855974  0.54300524  0.06360577  1
  O2-  O274  1  0.91673186  0.54190441  0.40325135  1
  O2-  O275  1  0.91715155  0.54820223  0.72849643  1
  O2-  O276  1  0.29372193  0.16118883  0.05980725  1
  O2-  O277  1  0.29306772  0.16583119  0.40316481  1
  O2-  O278  1  0.28874136  0.16726350  0.73601167  1
  O2-  O279  1  0.29160729  0.67183471  0.06854967  1
  O2-  O280  1  0.29301800  0.66833903  0.39641773  1
  O2-  O281  1  0.28375295  0.66668718  0.73130491  1
  O2-  O282  1  0.79982739  0.17301970  0.06784700  1
  O2-  O283  1  0.79098684  0.16405643  0.39242241  1
  O2-  O284  1  0.79318725  0.16579920  0.73491537  1
  O2-  O285  1  0.78639164  0.66370280  0.06754327  1
  O2-  O286  1  0.78770341  0.66612133  0.40423897  1
  O2-  O287  1  0.79938294  0.66892529  0.72520145  1
