# generated using pymatgen
data_Ca2Al2SiO7
_symmetry_space_group_name_H-M   'P 1'
_cell_length_a   15.45358639
_cell_length_b   15.45289333
_cell_length_c   15.28022686
_cell_angle_alpha   90.00170115
_cell_angle_beta   90.00631955
_cell_angle_gamma   90.00476792
_symmetry_Int_Tables_number   1
_chemical_formula_structural   Ca2Al2SiO7
_chemical_formula_sum   'Ca48 Al48 Si24 O168'
_cell_volume   3648.95820430
_cell_formula_units_Z   24
loop_
 _symmetry_equiv_pos_site_id
 _symmetry_equiv_pos_as_xyz
  1  'x, y, z'
loop_
 _atom_type_symbol
 _atom_type_oxidation_number
  Ca2+  2.0
  Al0+  0.0
  Si0+  0.0
  O2-  -2.0
loop_
 _atom_site_type_symbol
 _atom_site_label
 _atom_site_symmetry_multiplicity
 _atom_site_fract_x
 _atom_site_fract_y
 _atom_site_fract_z
 _atom_site_occupancy
  Ca2+  Ca0  1  0.17771748  0.08063464  0.16722695  1
  Ca2+  Ca1  1  0.17087379  0.08227416  0.50792954  1
  Ca2+  Ca2  1  0.17042525  0.07522883  0.83845411  1
  Ca2+  Ca3  1  0.17504367  0.58697540  0.17295376  1
  Ca2+  Ca4  1  0.16606601  0.57508198  0.50107392  1
  Ca2+  Ca5  1  0.17417431  0.57872414  0.84150763  1
  Ca2+  Ca6  1  0.66670496  0.07887733  0.16804312  1
  Ca2+  Ca7  1  0.67566033  0.08061333  0.50469468  1
  Ca2+  Ca8  1  0.65985439  0.07194230  0.84010109  1
  Ca2+  Ca9  1  0.66197362  0.57730742  0.16353646  1
  Ca2+  Ca10  1  0.66825084  0.58013715  0.50983424  1
  Ca2+  Ca11  1  0.65365262  0.57647072  0.83821082  1
  Ca2+  Ca12  1  0.07916525  0.33942457  0.16675109  1
  Ca2+  Ca13  1  0.08402927  0.33257819  0.49388074  1
  Ca2+  Ca14  1  0.08922492  0.32452527  0.82386753  1
  Ca2+  Ca15  1  0.08251823  0.82611290  0.15632192  1
  Ca2+  Ca16  1  0.08837222  0.82814354  0.49574597  1
  Ca2+  Ca17  1  0.08563077  0.83544199  0.83218043  1
  Ca2+  Ca18  1  0.57657841  0.32490449  0.15191323  1
  Ca2+  Ca19  1  0.57653521  0.33953453  0.50100964  1
  Ca2+  Ca20  1  0.57277918  0.33678396  0.83144841  1
  Ca2+  Ca21  1  0.58275101  0.82698810  0.15542646  1
  Ca2+  Ca22  1  0.58048363  0.83423975  0.50369969  1
  Ca2+  Ca23  1  0.58228784  0.82657681  0.82446472  1
  Ca2+  Ca24  1  0.33305807  0.42879127  0.17036468  1
  Ca2+  Ca25  1  0.32453805  0.41964785  0.50490723  1
  Ca2+  Ca26  1  0.33601546  0.41742231  0.83826590  1
  Ca2+  Ca27  1  0.33355860  0.92768679  0.16744153  1
  Ca2+  Ca28  1  0.33050878  0.92142556  0.50717401  1
  Ca2+  Ca29  1  0.32559026  0.91586147  0.84046517  1
  Ca2+  Ca30  1  0.82739960  0.41128060  0.16964207  1
  Ca2+  Ca31  1  0.82940476  0.41552405  0.50509882  1
  Ca2+  Ca32  1  0.81887670  0.41801787  0.83774336  1
  Ca2+  Ca33  1  0.83028156  0.91594125  0.16515080  1
  Ca2+  Ca34  1  0.83003629  0.92204096  0.50571277  1
  Ca2+  Ca35  1  0.82384735  0.91198360  0.84027524  1
  Ca2+  Ca36  1  0.41481624  0.17085116  0.15641435  1
  Ca2+  Ca37  1  0.41281424  0.17238675  0.49795851  1
  Ca2+  Ca38  1  0.41530322  0.17395087  0.83294864  1
  Ca2+  Ca39  1  0.41684018  0.66347146  0.15835747  1
  Ca2+  Ca40  1  0.41675071  0.66978819  0.50117781  1
  Ca2+  Ca41  1  0.42385833  0.66850554  0.82943830  1
  Ca2+  Ca42  1  0.91274360  0.16912810  0.16682685  1
  Ca2+  Ca43  1  0.92220215  0.16993934  0.49403289  1
  Ca2+  Ca44  1  0.92522467  0.16575752  0.82820390  1
  Ca2+  Ca45  1  0.93244360  0.66954774  0.15778376  1
  Ca2+  Ca46  1  0.92448803  0.66760381  0.49231631  1
  Ca2+  Ca47  1  0.92107739  0.67207413  0.83668787  1
  Al0+  Al48  1  -0.00158833  0.00012921  0.00099339  1
  Al0+  Al49  1  -0.00175572  0.00078364  0.33553299  1
  Al0+  Al50  1  0.00229283  0.00080244  0.66416977  1
  Al0+  Al51  1  -0.00191708  0.50060709  -0.00631670  1
  Al0+  Al52  1  -0.00164583  0.50002940  0.32701300  1
  Al0+  Al53  1  -0.00008789  0.49982606  0.67271167  1
  Al0+  Al54  1  0.50038452  0.00034399  0.00541294  1
  Al0+  Al55  1  0.49925900  -0.00093889  0.33814435  1
  Al0+  Al56  1  0.50180951  0.00140636  0.66529311  1
  Al0+  Al57  1  0.49853293  0.49899402  0.00249169  1
  Al0+  Al58  1  0.49866214  0.50041844  0.33689271  1
  Al0+  Al59  1  0.50067646  0.50006495  0.66012021  1
  Al0+  Al60  1  0.24774677  0.25089647  0.00048779  1
  Al0+  Al61  1  0.24972897  0.24960259  0.33809279  1
  Al0+  Al62  1  0.25021291  0.25039295  0.66086866  1
  Al0+  Al63  1  0.24973855  0.74782421  0.00372497  1
  Al0+  Al64  1  0.25306616  0.75058050  0.33263156  1
  Al0+  Al65  1  0.25067731  0.75057240  0.66591663  1
  Al0+  Al66  1  0.74866846  0.24853647  -0.00163783  1
  Al0+  Al67  1  0.74996570  0.24738530  0.33481199  1
  Al0+  Al68  1  0.75079595  0.25183831  0.67230111  1
  Al0+  Al69  1  0.75206644  0.74820297  -0.00188638  1
  Al0+  Al70  1  0.74836377  0.74814000  0.33309562  1
  Al0+  Al71  1  0.75255129  0.75077047  0.66446917  1
  Al0+  Al72  1  0.17907439  0.42829823  0.68088129  1
  Al0+  Al73  1  0.07463119  0.67855748  0.98218316  1
  Al0+  Al74  1  0.42769589  0.32069001  0.98672936  1
  Al0+  Al75  1  0.07033072  0.17924639  0.65209639  1
  Al0+  Al76  1  0.82008614  0.07053812  0.34753735  1
  Al0+  Al77  1  0.32141509  0.07117633  0.34934464  1
  Al0+  Al78  1  0.57005444  0.67931385  0.98827678  1
  Al0+  Al79  1  0.42759636  0.82302509  0.65208826  1
  Al0+  Al80  1  0.93044138  0.82229844  0.98446788  1
  Al0+  Al81  1  0.68031272  0.93012957  0.68017660  1
  Al0+  Al82  1  0.32068850  0.07250575  0.01347220  1
  Al0+  Al83  1  0.67911786  0.42915054  0.01417467  1
  Al0+  Al84  1  0.92825413  0.31953862  0.31973624  1
  Al0+  Al85  1  0.57186808  0.17620735  0.98487481  1
  Al0+  Al86  1  0.32009197  0.56870980  0.01157277  1
  Al0+  Al87  1  0.57219735  0.67966769  0.65012384  1
  Al0+  Al88  1  0.18016659  0.92852127  0.67957071  1
  Al0+  Al89  1  0.17716216  0.92814176  0.01579292  1
  Al0+  Al90  1  0.42992404  0.32034220  0.65035594  1
  Al0+  Al91  1  0.67938936  0.92658577  0.01306537  1
  Al0+  Al92  1  0.32322692  0.57334878  0.35189474  1
  Al0+  Al93  1  0.67838523  0.43091765  0.68075443  1
  Al0+  Al94  1  0.17691886  0.43119587  0.34709761  1
  Al0+  Al95  1  0.07135084  0.68078271  0.32026801  1
  Si0+  Si96  1  0.57164538  0.67757792  0.31694353  1
  Si0+  Si97  1  0.17841962  0.92890161  0.34901182  1
  Si0+  Si98  1  0.06971701  0.18035692  0.98645467  1
  Si0+  Si99  1  0.43127030  0.82212411  0.31685869  1
  Si0+  Si100  1  0.42824122  0.82323144  0.98625099  1
  Si0+  Si101  1  0.67935690  0.42803955  0.34755788  1
  Si0+  Si102  1  0.92643436  0.32159470  0.98310631  1
  Si0+  Si103  1  0.07101543  0.67758644  0.65186129  1
  Si0+  Si104  1  0.42850702  0.32073714  0.31836473  1
  Si0+  Si105  1  0.32118027  0.57128070  0.68299305  1
  Si0+  Si106  1  0.57039225  0.17870780  0.32011718  1
  Si0+  Si107  1  0.67811812  0.92512000  0.35127109  1
  Si0+  Si108  1  0.57459720  0.17786338  0.64891926  1
  Si0+  Si109  1  0.81991576  0.57068097  0.34615388  1
  Si0+  Si110  1  0.32281403  0.07307296  0.68287185  1
  Si0+  Si111  1  0.17424008  0.42711788  0.01561345  1
  Si0+  Si112  1  0.92586584  0.82342531  0.31747794  1
  Si0+  Si113  1  0.82231313  0.07243193  0.01622567  1
  Si0+  Si114  1  0.07312033  0.17684717  0.31508126  1
  Si0+  Si115  1  0.82340083  0.57057441  0.01842145  1
  Si0+  Si116  1  0.82379718  0.57383110  0.68453619  1
  Si0+  Si117  1  0.93017304  0.82119158  0.64984155  1
  Si0+  Si118  1  0.92747329  0.32254521  0.65165529  1
  Si0+  Si119  1  0.82312685  0.07222533  0.68417098  1
  O2-  O120  1  0.25077858  -0.00117192  0.06484378  1
  O2-  O121  1  0.24353713  -0.00034604  0.39517869  1
  O2-  O122  1  0.25782158  0.00030850  0.72573155  1
  O2-  O123  1  0.24164339  0.49731363  0.05823109  1
  O2-  O124  1  0.24924294  0.50190167  0.39913957  1
  O2-  O125  1  0.25342187  0.50225377  0.72800721  1
  O2-  O126  1  0.75265356  0.00354288  0.05900821  1
  O2-  O127  1  0.74904303  -0.00758856  0.39397864  1
  O2-  O128  1  0.75295544  0.00590991  0.72849559  1
  O2-  O129  1  0.75518396  0.50140591  0.06329814  1
  O2-  O130  1  0.74909623  0.50039956  0.38990964  1
  O2-  O131  1  0.75112339  0.50814370  0.72667112  1
  O2-  O132  1  0.00460187  0.24664006  0.27146558  1
  O2-  O133  1  -0.00326268  0.25573781  0.60607457  1
  O2-  O134  1  0.00029662  0.25285542  0.94293211  1
  O2-  O135  1  -0.00202498  0.75797709  0.27490730  1
  O2-  O136  1  0.00111504  0.74961137  0.60844336  1
  O2-  O137  1  0.00574273  0.75431905  0.93296656  1
  O2-  O138  1  0.49830511  0.24811853  0.27699852  1
  O2-  O139  1  0.50596221  0.24603078  0.60331889  1
  O2-  O140  1  0.49897091  0.24786517  0.93631043  1
  O2-  O141  1  0.50123552  0.74932495  0.27547373  1
  O2-  O142  1  0.50064712  0.75226612  0.59995625  1
  O2-  O143  1  0.49914946  0.75717420  0.94175801  1
  O2-  O144  1  0.06904378  0.18130333  0.09159776  1
  O2-  O145  1  0.07116288  0.17626277  0.42067477  1
  O2-  O146  1  0.06858220  0.17897944  0.76569017  1
  O2-  O147  1  0.07195462  0.67744982  0.09608405  1
  O2-  O148  1  0.06718392  0.68104873  0.43420690  1
  O2-  O149  1  0.06973865  0.67766678  0.75641713  1
  O2-  O150  1  0.57337982  0.17881503  0.09944516  1
  O2-  O151  1  0.57153412  0.18097116  0.42528847  1
  O2-  O152  1  0.57389132  0.17702516  0.75394743  1
  O2-  O153  1  0.56827877  0.67953390  0.10219923  1
  O2-  O154  1  0.57532840  0.67811887  0.42157963  1
  O2-  O155  1  0.56995378  0.67933633  0.76356472  1
  O2-  O156  1  0.17808497  0.43258590  0.23345822  1
  O2-  O157  1  0.17636081  0.43126317  0.56795168  1
  O2-  O158  1  0.17510634  0.42560273  0.90985760  1
  O2-  O159  1  0.18029664  0.93008761  0.24373415  1
  O2-  O160  1  0.17892273  0.92990849  0.56605741  1
  O2-  O161  1  0.17790063  0.93154863  0.90200121  1
  O2-  O162  1  0.67950431  0.42817545  0.24256622  1
  O2-  O163  1  0.68264023  0.43080919  0.56665110  1
  O2-  O164  1  0.67971714  0.43164127  0.90131690  1
  O2-  O165  1  0.67730497  0.92369134  0.24580094  1
  O2-  O166  1  0.68480012  0.93162882  0.56652845  1
  O2-  O167  1  0.68088691  0.92660373  0.90013806  1
  O2-  O168  1  0.42946230  0.32062408  0.10103381  1
  O2-  O169  1  0.43122875  0.32103649  0.42354521  1
  O2-  O170  1  0.42984672  0.32016849  0.76304944  1
  O2-  O171  1  0.43067140  0.82210662  0.09251082  1
  O2-  O172  1  0.43279507  0.82405320  0.42172293  1
  O2-  O173  1  0.42673449  0.82093606  0.76555188  1
  O2-  O174  1  0.92560743  0.32060983  0.08850338  1
  O2-  O175  1  0.92621370  0.31816037  0.43277882  1
  O2-  O176  1  0.92710736  0.31994469  0.75730854  1
  O2-  O177  1  0.93007389  0.81956142  0.09859818  1
  O2-  O178  1  0.92393860  0.82110268  0.42347358  1
  O2-  O179  1  0.92874437  0.82154038  0.75441888  1
  O2-  O180  1  0.32324157  0.07037202  0.23660698  1
  O2-  O181  1  0.31988710  0.07243958  0.57673362  1
  O2-  O182  1  0.31726900  0.07403699  0.90004779  1
  O2-  O183  1  0.32662789  0.57092541  0.23843018  1
  O2-  O184  1  0.31799844  0.57118124  0.57727600  1
  O2-  O185  1  0.32140424  0.56696878  0.89847704  1
  O2-  O186  1  0.81617095  0.07190655  0.23477231  1
  O2-  O187  1  0.82242072  0.07147262  0.57814976  1
  O2-  O188  1  0.82493238  0.07297936  0.91076902  1
  O2-  O189  1  0.81783420  0.57183077  0.24152525  1
  O2-  O190  1  0.82682038  0.57203668  0.57816461  1
  O2-  O191  1  0.82540928  0.56835562  0.91290923  1
  O2-  O192  1  0.04511752  0.08333956  0.26969845  1
  O2-  O193  1  0.03828016  0.08399956  0.59526069  1
  O2-  O194  1  0.03986745  0.08941735  0.93874448  1
  O2-  O195  1  0.03702418  0.58666487  0.26427293  1
  O2-  O196  1  0.03992787  0.58580568  0.60535373  1
  O2-  O197  1  0.04130284  0.58137070  0.92814411  1
  O2-  O198  1  0.54506889  0.08466800  0.27572376  1
  O2-  O199  1  0.55136112  0.08458500  0.60073852  1
  O2-  O200  1  0.54364346  0.07712740  0.93378918  1
  O2-  O201  1  0.54343286  0.58471278  0.27132371  1
  O2-  O202  1  0.54419436  0.58239382  0.59464448  1
  O2-  O203  1  0.53514575  0.58416438  0.93532432  1
  O2-  O204  1  0.16745195  0.20244149  0.27060727  1
  O2-  O205  1  0.16571614  0.20904625  0.59613249  1
  O2-  O206  1  0.16053718  0.20724241  0.93701953  1
  O2-  O207  1  0.16942059  0.70928367  0.26803634  1
  O2-  O208  1  0.16256657  0.70466207  0.60417180  1
  O2-  O209  1  0.17422826  0.70313920  0.93073874  1
  O2-  O210  1  0.66125818  0.20764595  0.27209214  1
  O2-  O211  1  0.66945232  0.20531723  0.60499812  1
  O2-  O212  1  0.67060013  0.20254348  0.93168696  1
  O2-  O213  1  0.66395719  0.70410025  0.26874725  1
  O2-  O214  1  0.67220139  0.70692160  0.59754138  1
  O2-  O215  1  0.66843839  0.70298284  0.93579268  1
  O2-  O216  1  0.07871583  0.45124817  0.05861183  1
  O2-  O217  1  0.07700684  0.45936662  0.39832490  1
  O2-  O218  1  0.08210491  0.45587625  0.73609001  1
  O2-  O219  1  0.07902017  0.95828346  0.06851307  1
  O2-  O220  1  0.08252182  0.94893835  0.39332808  1
  O2-  O221  1  0.08372659  0.96172482  0.73238077  1
  O2-  O222  1  0.58449489  0.46160632  0.07045232  1
  O2-  O223  1  0.58784532  0.45593397  0.39519040  1
  O2-  O224  1  0.58068175  0.46117476  0.73199684  1
  O2-  O225  1  0.58389004  0.95550788  0.07028148  1
  O2-  O226  1  0.58615114  0.95388458  0.39830160  1
  O2-  O227  1  0.58250372  0.95822770  0.73270687  1
  O2-  O228  1  0.19797938  0.33403105  0.06293455  1
  O2-  O229  1  0.20363435  0.33203984  0.39936536  1
  O2-  O230  1  0.21057931  0.33071561  0.73182401  1
  O2-  O231  1  0.20371225  0.82942418  0.06785596  1
  O2-  O232  1  0.20766419  0.83645412  0.39510574  1
  O2-  O233  1  0.20719825  0.83088036  0.73330187  1
  O2-  O234  1  0.71068937  0.33174489  0.06702703  1
  O2-  O235  1  0.70855775  0.33732508  0.39562725  1
  O2-  O236  1  0.70992442  0.33532987  0.73646367  1
  O2-  O237  1  0.71323083  0.83091214  0.06824345  1
  O2-  O238  1  0.70280314  0.83098957  0.39750146  1
  O2-  O239  1  0.71303447  0.83305852  0.73146001  1
  O2-  O240  1  0.45822006  0.41311903  0.27293353  1
  O2-  O241  1  0.46183382  0.41539134  0.59367765  1
  O2-  O242  1  0.46040975  0.41704152  0.93314028  1
  O2-  O243  1  0.46135102  0.91374765  0.26942663  1
  O2-  O244  1  0.45663455  0.92171310  0.59816077  1
  O2-  O245  1  0.44990377  0.91785164  0.94216403  1
  O2-  O246  1  0.95476806  0.41578752  0.26260901  1
  O2-  O247  1  0.95072695  0.41800027  0.60793950  1
  O2-  O248  1  0.94936652  0.41390211  0.93510093  1
  O2-  O249  1  0.94677543  0.91884699  0.27324815  1
  O2-  O250  1  0.95851684  0.91260359  0.60158801  1
  O2-  O251  1  0.95261781  0.92262220  0.93216785  1
  O2-  O252  1  0.33566778  0.29404228  0.27332497  1
  O2-  O253  1  0.33481959  0.28845966  0.59396400  1
  O2-  O254  1  0.32805011  0.29495141  0.93435255  1
  O2-  O255  1  0.33918564  0.79656581  0.26944996  1
  O2-  O256  1  0.32994954  0.79312856  0.59646428  1
  O2-  O257  1  0.33510481  0.79534107  0.94180140  1
  O2-  O258  1  0.83221441  0.28476046  0.26519099  1
  O2-  O259  1  0.83382897  0.29626076  0.60525170  1
  O2-  O260  1  0.83635724  0.29077289  0.93452276  1
  O2-  O261  1  0.83257464  0.79472617  0.27181751  1
  O2-  O262  1  0.83978930  0.79329296  0.59932174  1
  O2-  O263  1  0.83445121  0.78764574  0.92992705  1
  O2-  O264  1  0.41851886  0.04648017  0.06930109  1
  O2-  O265  1  0.41701997  0.03857817  0.40482339  1
  O2-  O266  1  0.41885927  0.05401218  0.72513148  1
  O2-  O267  1  0.41363748  0.53501306  0.07029489  1
  O2-  O268  1  0.42100435  0.54293910  0.40592003  1
  O2-  O269  1  0.41597913  0.54515251  0.72467234  1
  O2-  O270  1  0.91446399  0.04698025  0.06546185  1
  O2-  O271  1  0.91769179  0.04409910  0.40276751  1
  O2-  O272  1  0.91645001  0.04395589  0.72835667  1
  O2-  O273  1  0.91701699  0.54292566  0.06428613  1
  O2-  O274  1  0.91108725  0.54241376  0.39389942  1
  O2-  O275  1  0.91454510  0.54519857  0.73447028  1
  O2-  O276  1  0.28758936  0.16953805  0.06842950  1
  O2-  O277  1  0.29289113  0.16775793  0.40399716  1
  O2-  O278  1  0.29188976  0.16518439  0.72729555  1
  O2-  O279  1  0.29365596  0.66508496  0.06850367  1
  O2-  O280  1  0.29681670  0.67309506  0.40263748  1
  O2-  O281  1  0.29546724  0.66477109  0.72829598  1
  O2-  O282  1  0.79642730  0.16575098  0.06302973  1
  O2-  O283  1  0.78554794  0.16481983  0.40475987  1
  O2-  O284  1  0.80209927  0.16685807  0.72978658  1
  O2-  O285  1  0.79780096  0.66361702  0.06446496  1
  O2-  O286  1  0.79281729  0.66235228  0.39587676  1
  O2-  O287  1  0.80234985  0.66887859  0.72801219  1
