# generated using pymatgen
data_Ca2Al2SiO7
_symmetry_space_group_name_H-M   'P 1'
_cell_length_a   15.46978440
_cell_length_b   15.46839624
_cell_length_c   15.29106256
_cell_angle_alpha   90.01594649
_cell_angle_beta   89.98611824
_cell_angle_gamma   89.99171550
_symmetry_Int_Tables_number   1
_chemical_formula_structural   Ca2Al2SiO7
_chemical_formula_sum   'Ca48 Al48 Si24 O168'
_cell_volume   3659.04019860
_cell_formula_units_Z   24
loop_
 _symmetry_equiv_pos_site_id
 _symmetry_equiv_pos_as_xyz
  1  'x, y, z'
loop_
 _atom_type_symbol
 _atom_type_oxidation_number
  Ca2+  2.0
  Al0+  0.0
  Si0+  0.0
  O2-  -2.0
loop_
 _atom_site_type_symbol
 _atom_site_label
 _atom_site_symmetry_multiplicity
 _atom_site_fract_x
 _atom_site_fract_y
 _atom_site_fract_z
 _atom_site_occupancy
  Ca2+  Ca0  1  0.16748676  0.07873690  0.16612347  1
  Ca2+  Ca1  1  0.16729889  0.08150992  0.50360784  1
  Ca2+  Ca2  1  0.17092471  0.07764814  0.83943770  1
  Ca2+  Ca3  1  0.17742103  0.58504739  0.17211047  1
  Ca2+  Ca4  1  0.17920407  0.58122466  0.50858217  1
  Ca2+  Ca5  1  0.17354837  0.57874853  0.83070299  1
  Ca2+  Ca6  1  0.67006542  0.06712692  0.17394452  1
  Ca2+  Ca7  1  0.67630011  0.08414978  0.50535142  1
  Ca2+  Ca8  1  0.66724786  0.08178902  0.83469008  1
  Ca2+  Ca9  1  0.66622181  0.57961291  0.17707271  1
  Ca2+  Ca10  1  0.66573075  0.57683245  0.49988688  1
  Ca2+  Ca11  1  0.65539096  0.58057047  0.83144591  1
  Ca2+  Ca12  1  0.06878845  0.33386578  0.16181470  1
  Ca2+  Ca13  1  0.07167523  0.34054884  0.49854648  1
  Ca2+  Ca14  1  0.07189640  0.34057885  0.82700035  1
  Ca2+  Ca15  1  0.07140771  0.83487314  0.16139954  1
  Ca2+  Ca16  1  0.07542386  0.83067722  0.49370649  1
  Ca2+  Ca17  1  0.07998370  0.83869664  0.83404079  1
  Ca2+  Ca18  1  0.58189218  0.33456513  0.16295675  1
  Ca2+  Ca19  1  0.58816457  0.33596712  0.50185229  1
  Ca2+  Ca20  1  0.57497013  0.33132102  0.82223280  1
  Ca2+  Ca21  1  0.59030997  0.82178821  0.15903233  1
  Ca2+  Ca22  1  0.58387042  0.82123497  0.49409815  1
  Ca2+  Ca23  1  0.58141295  0.82508176  0.82754482  1
  Ca2+  Ca24  1  0.33663589  0.42338265  0.17529385  1
  Ca2+  Ca25  1  0.33085900  0.42687603  0.51168533  1
  Ca2+  Ca26  1  0.34223105  0.41966974  0.83399722  1
  Ca2+  Ca27  1  0.32731330  0.90451410  0.16474976  1
  Ca2+  Ca28  1  0.33415145  0.91374777  0.50710110  1
  Ca2+  Ca29  1  0.33268014  0.90953146  0.84153807  1
  Ca2+  Ca30  1  0.82908683  0.42178948  0.17746494  1
  Ca2+  Ca31  1  0.82591571  0.41388056  0.50532942  1
  Ca2+  Ca32  1  0.82802547  0.41205873  0.83442088  1
  Ca2+  Ca33  1  0.82568397  0.91450946  0.17594337  1
  Ca2+  Ca34  1  0.82982127  0.92368324  0.50070588  1
  Ca2+  Ca35  1  0.82793015  0.92371275  0.84186283  1
  Ca2+  Ca36  1  0.41962255  0.17607647  0.15965299  1
  Ca2+  Ca37  1  0.42553545  0.17089102  0.50171461  1
  Ca2+  Ca38  1  0.42298592  0.17601210  0.82443667  1
  Ca2+  Ca39  1  0.42993495  0.66636586  0.16172664  1
  Ca2+  Ca40  1  0.42550344  0.65836070  0.49961275  1
  Ca2+  Ca41  1  0.42563786  0.67525755  0.82645992  1
  Ca2+  Ca42  1  0.90530121  0.17684406  0.16773325  1
  Ca2+  Ca43  1  0.90574450  0.17501359  0.49767564  1
  Ca2+  Ca44  1  0.91312166  0.17594464  0.82609292  1
  Ca2+  Ca45  1  0.90422015  0.67894208  0.16656743  1
  Ca2+  Ca46  1  0.91425661  0.66965694  0.49000116  1
  Ca2+  Ca47  1  0.91613584  0.67500971  0.83185755  1
  Al0+  Al48  1  0.00204539  0.00167947  0.00214930  1
  Al0+  Al49  1  0.00145933  0.00041545  0.33263882  1
  Al0+  Al50  1  -0.00089745  0.00217108  0.67096737  1
  Al0+  Al51  1  0.00085753  0.50051211  -0.00266668  1
  Al0+  Al52  1  0.00182916  0.49985622  0.32885519  1
  Al0+  Al53  1  0.00060254  0.50260656  0.66623460  1
  Al0+  Al54  1  0.50026125  0.00064979  0.00424138  1
  Al0+  Al55  1  0.49691157  -0.00077203  0.33512550  1
  Al0+  Al56  1  0.49998929  0.00062041  0.65994758  1
  Al0+  Al57  1  0.50082697  0.49988222  -0.00501007  1
  Al0+  Al58  1  0.49925972  0.50080558  0.33698512  1
  Al0+  Al59  1  0.50010755  0.50202168  0.66837416  1
  Al0+  Al60  1  0.24806345  0.25103666  -0.00184253  1
  Al0+  Al61  1  0.24944881  0.24810127  0.33269800  1
  Al0+  Al62  1  0.24693685  0.24814964  0.66731538  1
  Al0+  Al63  1  0.25014525  0.74806589  0.00298768  1
  Al0+  Al64  1  0.24965951  0.74986005  0.33858625  1
  Al0+  Al65  1  0.24785402  0.74963150  0.66894356  1
  Al0+  Al66  1  0.74968579  0.25102957  -0.00241804  1
  Al0+  Al67  1  0.74807250  0.24742596  0.33281935  1
  Al0+  Al68  1  0.75087323  0.25081695  0.66942680  1
  Al0+  Al69  1  0.75251786  0.74930616  -0.00799829  1
  Al0+  Al70  1  0.74859493  0.74817216  0.33374386  1
  Al0+  Al71  1  0.74940731  0.75145572  0.66260309  1
  Al0+  Al72  1  0.93005814  0.81999943  0.32115784  1
  Al0+  Al73  1  0.92805810  0.32036195  0.31966338  1
  Al0+  Al74  1  0.82316329  0.57061089  0.34605383  1
  Al0+  Al75  1  0.67901902  0.42745924  0.34736705  1
  Al0+  Al76  1  0.68134340  0.43120899  0.68186490  1
  Al0+  Al77  1  0.17740017  0.42747845  0.68219728  1
  Al0+  Al78  1  0.92885081  0.32132729  0.98533579  1
  Al0+  Al79  1  0.67646675  0.92600019  0.34911220  1
  Al0+  Al80  1  0.93030430  0.82253299  0.98595016  1
  Al0+  Al81  1  0.57250410  0.17985855  0.65090054  1
  Al0+  Al82  1  0.42822645  0.82091023  0.98787603  1
  Al0+  Al83  1  0.42859205  0.32062592  0.98809383  1
  Al0+  Al84  1  0.42679220  0.32155827  0.65070987  1
  Al0+  Al85  1  0.57207382  0.67917567  0.64745764  1
  Al0+  Al86  1  0.67990911  0.92776012  0.01190855  1
  Al0+  Al87  1  0.32147651  0.57102731  0.68556265  1
  Al0+  Al88  1  0.31973879  0.57048712  0.34710597  1
  Al0+  Al89  1  0.82135914  0.06948073  0.34788410  1
  Al0+  Al90  1  0.42649431  0.82085208  0.65134762  1
  Al0+  Al91  1  0.93062011  0.32171927  0.65271626  1
  Al0+  Al92  1  0.82020258  0.07072501  0.68264201  1
  Al0+  Al93  1  0.56857436  0.67916549  0.31895772  1
  Al0+  Al94  1  0.17989354  0.92839415  0.01535463  1
  Al0+  Al95  1  0.57371896  0.67895194  0.98388812  1
  Si0+  Si96  1  0.07456055  0.17777716  0.31480282  1
  Si0+  Si97  1  0.92981629  0.82385657  0.65197549  1
  Si0+  Si98  1  0.32177070  0.07449981  0.01707761  1
  Si0+  Si99  1  0.32234804  0.07060409  0.68133739  1
  Si0+  Si100  1  0.07371875  0.67836688  0.98274273  1
  Si0+  Si101  1  0.07066169  0.17518042  0.65004567  1
  Si0+  Si102  1  0.06916572  0.68069461  0.65168561  1
  Si0+  Si103  1  0.18021879  0.93009809  0.34930501  1
  Si0+  Si104  1  0.32058923  0.07364896  0.34950506  1
  Si0+  Si105  1  0.17840886  0.42528360  0.34801874  1
  Si0+  Si106  1  0.32145227  0.56763127  0.01614554  1
  Si0+  Si107  1  0.82395957  0.56997811  0.01292158  1
  Si0+  Si108  1  0.82211046  0.07339021  0.01718977  1
  Si0+  Si109  1  0.57173843  0.17738126  0.98521356  1
  Si0+  Si110  1  0.07251582  0.17891476  0.98239043  1
  Si0+  Si111  1  0.17889919  0.92975681  0.68174319  1
  Si0+  Si112  1  0.17662536  0.42856877  0.01674121  1
  Si0+  Si113  1  0.67920061  0.43006635  0.01390607  1
  Si0+  Si114  1  0.57055432  0.17585926  0.31674831  1
  Si0+  Si115  1  0.67742272  0.92811233  0.68329878  1
  Si0+  Si116  1  0.07486230  0.67846477  0.31669335  1
  Si0+  Si117  1  0.82347562  0.57564366  0.68406193  1
  Si0+  Si118  1  0.42565465  0.82361688  0.31616669  1
  Si0+  Si119  1  0.42929692  0.31913909  0.32040905  1
  O2-  O120  1  0.25729311  0.00134099  0.06188578  1
  O2-  O121  1  0.25239186  -0.00041160  0.39135827  1
  O2-  O122  1  0.25424361  -0.00360009  0.72333343  1
  O2-  O123  1  0.25146869  0.49528071  0.05934713  1
  O2-  O124  1  0.24422131  0.49592220  0.39204208  1
  O2-  O125  1  0.25451846  0.49280779  0.73470569  1
  O2-  O126  1  0.75628190  0.00129177  0.05952615  1
  O2-  O127  1  0.74841325  -0.00127854  0.39836155  1
  O2-  O128  1  0.74535809  -0.00335067  0.72918199  1
  O2-  O129  1  0.75102017  0.50050238  0.05485330  1
  O2-  O130  1  0.75615637  0.49471690  0.39631692  1
  O2-  O131  1  0.75457330  0.50783474  0.72924720  1
  O2-  O132  1  0.00353412  0.24520542  0.27275550  1
  O2-  O133  1  0.00643915  0.24773665  0.60632961  1
  O2-  O134  1  0.00230388  0.24554671  0.93862378  1
  O2-  O135  1  0.00141678  0.74200148  0.27290115  1
  O2-  O136  1  -0.00356142  0.74940537  0.60914390  1
  O2-  O137  1  0.00642475  0.74898591  0.93898132  1
  O2-  O138  1  0.50075505  0.24950718  0.27609752  1
  O2-  O139  1  0.50155145  0.25299816  0.59979331  1
  O2-  O140  1  0.50108629  0.24425379  0.94212367  1
  O2-  O141  1  0.49731015  0.75809591  0.27301969  1
  O2-  O142  1  0.49780721  0.75028770  0.59930759  1
  O2-  O143  1  0.50430078  0.75510528  0.93690187  1
  O2-  O144  1  0.07549330  0.18090032  0.08801008  1
  O2-  O145  1  0.08048453  0.17781698  0.41986153  1
  O2-  O146  1  0.06820821  0.16967606  0.75536344  1
  O2-  O147  1  0.07511337  0.67764731  0.08827132  1
  O2-  O148  1  0.07784589  0.68296046  0.42227406  1
  O2-  O149  1  0.06902841  0.68259387  0.75691068  1
  O2-  O150  1  0.57180990  0.17966730  0.09122079  1
  O2-  O151  1  0.56902384  0.17422158  0.42124460  1
  O2-  O152  1  0.56874916  0.17869284  0.76501739  1
  O2-  O153  1  0.57193335  0.67488648  0.09770162  1
  O2-  O154  1  0.56622263  0.67672090  0.43116487  1
  O2-  O155  1  0.57297114  0.68306164  0.76105801  1
  O2-  O156  1  0.18182664  0.42396310  0.24187982  1
  O2-  O157  1  0.17513325  0.43346252  0.56847308  1
  O2-  O158  1  0.17377010  0.43114461  0.91234104  1
  O2-  O159  1  0.18080583  0.92999358  0.24436792  1
  O2-  O160  1  0.17603736  0.93187295  0.57639873  1
  O2-  O161  1  0.17965103  0.93104324  0.90211708  1
  O2-  O162  1  0.67717593  0.42865221  0.23274714  1
  O2-  O163  1  0.68465372  0.42973012  0.56924224  1
  O2-  O164  1  0.67922906  0.42884539  0.90917034  1
  O2-  O165  1  0.67858068  0.92728067  0.23487304  1
  O2-  O166  1  0.68057319  0.92757254  0.57804705  1
  O2-  O167  1  0.68136878  0.93088717  0.89884477  1
  O2-  O168  1  0.43052406  0.32117332  0.10213336  1
  O2-  O169  1  0.42622803  0.31604837  0.42464568  1
  O2-  O170  1  0.42864052  0.31685628  0.76464965  1
  O2-  O171  1  0.42557032  0.81429290  0.10131956  1
  O2-  O172  1  0.42278689  0.82347051  0.42129755  1
  O2-  O173  1  0.42659721  0.82121120  0.76496045  1
  O2-  O174  1  0.92890238  0.32100313  0.09853665  1
  O2-  O175  1  0.93042026  0.31984265  0.43236464  1
  O2-  O176  1  0.93160848  0.31998944  0.76605727  1
  O2-  O177  1  0.93011080  0.82021528  0.09899660  1
  O2-  O178  1  0.93521036  0.82109273  0.43449760  1
  O2-  O179  1  0.93306732  0.82442419  0.75719973  1
  O2-  O180  1  0.31851425  0.07836157  0.24467487  1
  O2-  O181  1  0.31870635  0.07083846  0.57594194  1
  O2-  O182  1  0.31842922  0.07708298  0.91174433  1
  O2-  O183  1  0.31960543  0.56847235  0.23312317  1
  O2-  O184  1  0.31661315  0.57223864  0.57193954  1
  O2-  O185  1  0.31990682  0.56724388  0.91175504  1
  O2-  O186  1  0.81915495  0.06953467  0.23390419  1
  O2-  O187  1  0.82286763  0.06729465  0.56993860  1
  O2-  O188  1  0.82094809  0.07449538  0.91157706  1
  O2-  O189  1  0.81996107  0.57030624  0.23175797  1
  O2-  O190  1  0.82582204  0.57514664  0.57879439  1
  O2-  O191  1  0.82786072  0.56776512  0.90803383  1
  O2-  O192  1  0.05100151  0.08354457  0.26912899  1
  O2-  O193  1  0.04164480  0.08320590  0.60131729  1
  O2-  O194  1  0.05002569  0.08423838  0.93773650  1
  O2-  O195  1  0.05873909  0.58280404  0.27140680  1
  O2-  O196  1  0.04417451  0.58957445  0.60255236  1
  O2-  O197  1  0.04532847  0.58633183  0.93540087  1
  O2-  O198  1  0.53804079  0.08547880  0.26832559  1
  O2-  O199  1  0.54266603  0.08319081  0.59549783  1
  O2-  O200  1  0.54836283  0.08343384  0.93990710  1
  O2-  O201  1  0.53368697  0.58287997  0.26483614  1
  O2-  O202  1  0.54402886  0.57998760  0.59777450  1
  O2-  O203  1  0.53985953  0.58270629  0.93056001  1
  O2-  O204  1  0.16698437  0.20504133  0.26531691  1
  O2-  O205  1  0.16572102  0.19476554  0.60477082  1
  O2-  O206  1  0.16513447  0.20447127  0.93443877  1
  O2-  O207  1  0.16602023  0.71130574  0.26888416  1
  O2-  O208  1  0.15925880  0.71189595  0.60342868  1
  O2-  O209  1  0.16670803  0.70381903  0.93628481  1
  O2-  O210  1  0.66157745  0.20178683  0.26758133  1
  O2-  O211  1  0.67087475  0.20863937  0.59982555  1
  O2-  O212  1  0.66414715  0.20456716  0.93831618  1
  O2-  O213  1  0.66630753  0.70638090  0.26542186  1
  O2-  O214  1  0.67110263  0.70790240  0.59513068  1
  O2-  O215  1  0.67193601  0.70182375  0.92908014  1
  O2-  O216  1  0.08662695  0.46111506  0.06579068  1
  O2-  O217  1  0.08366179  0.44874806  0.39112583  1
  O2-  O218  1  0.08175125  0.46531428  0.73653568  1
  O2-  O219  1  0.08458883  0.96240906  0.07117393  1
  O2-  O220  1  0.08992116  0.96001138  0.39809509  1
  O2-  O221  1  0.08951307  0.96220371  0.73134159  1
  O2-  O222  1  0.58718237  0.45810233  0.06128900  1
  O2-  O223  1  0.58242329  0.45905837  0.40080542  1
  O2-  O224  1  0.58376886  0.45949882  0.73538003  1
  O2-  O225  1  0.58366143  0.95727582  0.06837446  1
  O2-  O226  1  0.57608760  0.95213312  0.39856288  1
  O2-  O227  1  0.58275749  0.95453196  0.72648906  1
  O2-  O228  1  0.19980300  0.33475908  0.06227023  1
  O2-  O229  1  0.20452294  0.33218167  0.39430379  1
  O2-  O230  1  0.19424964  0.32492557  0.73159069  1
  O2-  O231  1  0.20820527  0.83103184  0.07032416  1
  O2-  O232  1  0.20556471  0.83865723  0.39864038  1
  O2-  O233  1  0.20085355  0.83730674  0.72973486  1
  O2-  O234  1  0.70572914  0.33729374  0.06094393  1
  O2-  O235  1  0.70146932  0.32720732  0.39751287  1
  O2-  O236  1  0.71319668  0.33559844  0.73742552  1
  O2-  O237  1  0.71245853  0.82971429  0.06247047  1
  O2-  O238  1  0.70659373  0.82904296  0.40173799  1
  O2-  O239  1  0.70544972  0.83474817  0.72872262  1
  O2-  O240  1  0.45651266  0.41110943  0.27354377  1
  O2-  O241  1  0.45168150  0.42185571  0.60272366  1
  O2-  O242  1  0.46148596  0.41461418  0.93253333  1
  O2-  O243  1  0.44316569  0.91978263  0.27139305  1
  O2-  O244  1  0.45021211  0.92034559  0.59866244  1
  O2-  O245  1  0.44646899  0.92423832  0.94135141  1
  O2-  O246  1  0.95923279  0.41660394  0.26328798  1
  O2-  O247  1  0.96056465  0.41932087  0.60018806  1
  O2-  O248  1  0.96235328  0.41703884  0.93175674  1
  O2-  O249  1  0.96521646  0.91520749  0.26675635  1
  O2-  O250  1  0.96377323  0.91380794  0.60532825  1
  O2-  O251  1  0.96187847  0.91989145  0.93383221  1
  O2-  O252  1  0.33791938  0.28968043  0.27136461  1
  O2-  O253  1  0.32773904  0.29063759  0.60024979  1
  O2-  O254  1  0.33050196  0.29440474  0.93554251  1
  O2-  O255  1  0.33182324  0.79387154  0.27199019  1
  O2-  O256  1  0.32535680  0.79550006  0.60126521  1
  O2-  O257  1  0.33022882  0.78929179  0.93548737  1
  O2-  O258  1  0.83151255  0.28812748  0.26509396  1
  O2-  O259  1  0.83509488  0.28799569  0.60074844  1
  O2-  O260  1  0.83179163  0.29180133  0.93183069  1
  O2-  O261  1  0.83338549  0.79014190  0.26727150  1
  O2-  O262  1  0.83723438  0.80061383  0.60557797  1
  O2-  O263  1  0.83744627  0.79021054  0.92697277  1
  O2-  O264  1  0.41657805  0.05627648  0.06338233  1
  O2-  O265  1  0.41224280  0.04829632  0.39724038  1
  O2-  O266  1  0.41560831  0.04705106  0.72717570  1
  O2-  O267  1  0.41357184  0.53831384  0.06269849  1
  O2-  O268  1  0.41360110  0.53692790  0.40210667  1
  O2-  O269  1  0.42091778  0.54813832  0.73746333  1
  O2-  O270  1  0.91766192  0.05350272  0.06086900  1
  O2-  O271  1  0.92147279  0.04373186  0.39897597  1
  O2-  O272  1  0.91634279  0.03898775  0.73821169  1
  O2-  O273  1  0.91500621  0.54192863  0.06197290  1
  O2-  O274  1  0.92588999  0.55076448  0.39448288  1
  O2-  O275  1  0.91725775  0.55117809  0.73018230  1
  O2-  O276  1  0.28953372  0.16618737  0.06549961  1
  O2-  O277  1  0.28905219  0.16312637  0.39956184  1
  O2-  O278  1  0.29113124  0.16024799  0.73090989  1
  O2-  O279  1  0.29094893  0.65800386  0.06470621  1
  O2-  O280  1  0.28828756  0.66606388  0.40246208  1
  O2-  O281  1  0.28360962  0.66733110  0.73820453  1
  O2-  O282  1  0.79184903  0.16640318  0.06304234  1
  O2-  O283  1  0.79076447  0.16708754  0.40024003  1
  O2-  O284  1  0.79005056  0.16666060  0.73739920  1
  O2-  O285  1  0.79772931  0.66347656  0.05686876  1
  O2-  O286  1  0.79363926  0.66731904  0.40007078  1
  O2-  O287  1  0.79889693  0.67074502  0.72862644  1
