# generated using pymatgen
data_Ca2Al2SiO7
_symmetry_space_group_name_H-M   'P 1'
_cell_length_a   15.45514648
_cell_length_b   15.45531050
_cell_length_c   15.28101867
_cell_angle_alpha   90.01746935
_cell_angle_beta   89.99750393
_cell_angle_gamma   90.00223231
_symmetry_Int_Tables_number   1
_chemical_formula_structural   Ca2Al2SiO7
_chemical_formula_sum   'Ca48 Al48 Si24 O168'
_cell_volume   3650.08640726
_cell_formula_units_Z   24
loop_
 _symmetry_equiv_pos_site_id
 _symmetry_equiv_pos_as_xyz
  1  'x, y, z'
loop_
 _atom_type_symbol
 _atom_type_oxidation_number
  Ca2+  2.0
  Al0+  0.0
  Si0+  0.0
  O2-  -2.0
loop_
 _atom_site_type_symbol
 _atom_site_label
 _atom_site_symmetry_multiplicity
 _atom_site_fract_x
 _atom_site_fract_y
 _atom_site_fract_z
 _atom_site_occupancy
  Ca2+  Ca0  1  0.17574460  0.07741793  0.17035586  1
  Ca2+  Ca1  1  0.17172501  0.08167008  0.50563069  1
  Ca2+  Ca2  1  0.16546810  0.07391352  0.83331378  1
  Ca2+  Ca3  1  0.17499758  0.58155179  0.16462927  1
  Ca2+  Ca4  1  0.16807297  0.57427893  0.50752195  1
  Ca2+  Ca5  1  0.17374352  0.57230781  0.84289121  1
  Ca2+  Ca6  1  0.66360782  0.07724175  0.16979319  1
  Ca2+  Ca7  1  0.68133675  0.07863471  0.50843033  1
  Ca2+  Ca8  1  0.66477975  0.07364674  0.83722157  1
  Ca2+  Ca9  1  0.65250239  0.58042112  0.16617039  1
  Ca2+  Ca10  1  0.66270437  0.58064505  0.50301235  1
  Ca2+  Ca11  1  0.65890390  0.57331136  0.83811877  1
  Ca2+  Ca12  1  0.07729902  0.33605693  0.16287439  1
  Ca2+  Ca13  1  0.08004971  0.32730706  0.49643714  1
  Ca2+  Ca14  1  0.09017408  0.32783501  0.82412263  1
  Ca2+  Ca15  1  0.07724782  0.84187247  0.16330719  1
  Ca2+  Ca16  1  0.07259946  0.84471210  0.50117803  1
  Ca2+  Ca17  1  0.08042838  0.83958017  0.82372128  1
  Ca2+  Ca18  1  0.57985337  0.32634999  0.15920562  1
  Ca2+  Ca19  1  0.57269549  0.33788245  0.49689449  1
  Ca2+  Ca20  1  0.58415650  0.33169527  0.82848478  1
  Ca2+  Ca21  1  0.57411909  0.82779847  0.15475610  1
  Ca2+  Ca22  1  0.57681595  0.83371962  0.49448561  1
  Ca2+  Ca23  1  0.57444328  0.83649881  0.82891437  1
  Ca2+  Ca24  1  0.33547841  0.41984422  0.16853705  1
  Ca2+  Ca25  1  0.33305922  0.41497272  0.50916667  1
  Ca2+  Ca26  1  0.32773628  0.41888429  0.83849800  1
  Ca2+  Ca27  1  0.33402947  0.91552953  0.17112132  1
  Ca2+  Ca28  1  0.33583991  0.92089476  0.50542939  1
  Ca2+  Ca29  1  0.32480075  0.90631681  0.83917343  1
  Ca2+  Ca30  1  0.82686297  0.41534912  0.17074782  1
  Ca2+  Ca31  1  0.82759485  0.41669767  0.50574373  1
  Ca2+  Ca32  1  0.82036726  0.41525169  0.83751750  1
  Ca2+  Ca33  1  0.82583147  0.92016739  0.17391754  1
  Ca2+  Ca34  1  0.83356143  0.92205399  0.50983901  1
  Ca2+  Ca35  1  0.82319336  0.91736062  0.83268394  1
  Ca2+  Ca36  1  0.41803085  0.16808526  0.16408986  1
  Ca2+  Ca37  1  0.41144280  0.17810788  0.49491700  1
  Ca2+  Ca38  1  0.42408186  0.17186957  0.82942938  1
  Ca2+  Ca39  1  0.42334473  0.67401125  0.16033117  1
  Ca2+  Ca40  1  0.42217942  0.68000233  0.49378660  1
  Ca2+  Ca41  1  0.41499599  0.67290607  0.83444878  1
  Ca2+  Ca42  1  0.91050435  0.17027084  0.16770959  1
  Ca2+  Ca43  1  0.92134799  0.16098785  0.49657793  1
  Ca2+  Ca44  1  0.92404365  0.16339737  0.82540857  1
  Ca2+  Ca45  1  0.91783977  0.67318746  0.16553827  1
  Ca2+  Ca46  1  0.91480600  0.68185525  0.49591907  1
  Ca2+  Ca47  1  0.91921901  0.67415601  0.82762836  1
  Al0+  Al48  1  0.00065633  0.00304044  0.00448068  1
  Al0+  Al49  1  0.00017173  0.00040194  0.32997725  1
  Al0+  Al50  1  0.00272011  0.00177511  0.66568936  1
  Al0+  Al51  1  -0.00210458  0.50086293  0.00235270  1
  Al0+  Al52  1  -0.00193079  0.49906579  0.33040702  1
  Al0+  Al53  1  0.00072988  0.49933888  0.67100512  1
  Al0+  Al54  1  0.50014973  0.00144143  -0.00491472  1
  Al0+  Al55  1  0.49860115  0.00114049  0.33733917  1
  Al0+  Al56  1  0.50195145  0.00223074  0.66418804  1
  Al0+  Al57  1  0.49914186  0.50060992  0.00502112  1
  Al0+  Al58  1  0.49732740  0.49900786  0.32756195  1
  Al0+  Al59  1  0.50016279  0.50044926  0.66691251  1
  Al0+  Al60  1  0.24737902  0.24875926  0.00379097  1
  Al0+  Al61  1  0.24884742  0.24823005  0.33151114  1
  Al0+  Al62  1  0.25046196  0.24915570  0.66232988  1
  Al0+  Al63  1  0.24683936  0.74837576  0.00698161  1
  Al0+  Al64  1  0.24913519  0.74698778  0.33360956  1
  Al0+  Al65  1  0.25145379  0.74933827  0.66383213  1
  Al0+  Al66  1  0.75052174  0.25136028  -0.00113874  1
  Al0+  Al67  1  0.75060159  0.24925253  0.33543727  1
  Al0+  Al68  1  0.75226594  0.25095491  0.67476404  1
  Al0+  Al69  1  0.74995498  0.75053271  -0.00062047  1
  Al0+  Al70  1  0.75126313  0.74652312  0.32519122  1
  Al0+  Al71  1  0.75098096  0.75002553  0.66603245  1
  Al0+  Al72  1  0.32152181  0.07076484  0.34776899  1
  Al0+  Al73  1  0.57223096  0.17993356  0.98599587  1
  Al0+  Al74  1  0.07049719  0.18015596  0.65244618  1
  Al0+  Al75  1  0.67990894  0.42932348  0.01559706  1
  Al0+  Al76  1  0.42811193  0.82241785  0.65217241  1
  Al0+  Al77  1  0.43185458  0.31978664  0.65512274  1
  Al0+  Al78  1  0.57209966  0.67769471  0.98166072  1
  Al0+  Al79  1  0.42700002  0.82076965  0.98429511  1
  Al0+  Al80  1  0.93135005  0.82203801  0.31819054  1
  Al0+  Al81  1  0.67744382  0.92775159  0.68081969  1
  Al0+  Al82  1  0.67859911  0.43124839  0.67877032  1
  Al0+  Al83  1  0.82006861  0.07030872  0.34697719  1
  Al0+  Al84  1  0.82361591  0.07070595  0.68301543  1
  Al0+  Al85  1  0.18306980  0.92991598  0.67766442  1
  Al0+  Al86  1  0.17722504  0.42609660  0.01694406  1
  Al0+  Al87  1  0.57082693  0.67907075  0.31802266  1
  Al0+  Al88  1  0.17944963  0.42748144  0.67819035  1
  Al0+  Al89  1  0.42704935  0.31950719  0.31852206  1
  Al0+  Al90  1  0.93051935  0.81977253  0.65508067  1
  Al0+  Al91  1  0.92833219  0.32078129  0.32034467  1
  Al0+  Al92  1  0.42803465  0.82404503  0.31836745  1
  Al0+  Al93  1  0.67794351  0.92925169  0.01400823  1
  Al0+  Al94  1  0.32064451  0.57037413  0.01712758  1
  Al0+  Al95  1  0.17821810  0.92929977  0.01383264  1
  Si0+  Si96  1  0.07045455  0.17991349  0.98504475  1
  Si0+  Si97  1  0.07150239  0.17820670  0.31337541  1
  Si0+  Si98  1  0.57296881  0.17972411  0.31966041  1
  Si0+  Si99  1  0.32346942  0.07369218  0.68331242  1
  Si0+  Si100  1  0.92696538  0.32384663  0.65156470  1
  Si0+  Si101  1  0.92929249  0.32255116  0.98369997  1
  Si0+  Si102  1  0.17733702  0.42962102  0.34860099  1
  Si0+  Si103  1  0.42625342  0.32119373  0.98449166  1
  Si0+  Si104  1  0.82354337  0.57336234  0.68288340  1
  Si0+  Si105  1  0.82205410  0.07150338  0.01751167  1
  Si0+  Si106  1  0.32166398  0.56911577  0.35092052  1
  Si0+  Si107  1  0.07135389  0.67486017  0.31618984  1
  Si0+  Si108  1  0.57621737  0.17843959  0.64894501  1
  Si0+  Si109  1  0.82238758  0.57318592  0.01806587  1
  Si0+  Si110  1  0.32179368  0.57175614  0.68217227  1
  Si0+  Si111  1  0.93040819  0.82381483  0.98482216  1
  Si0+  Si112  1  0.32270011  0.07173622  0.01473920  1
  Si0+  Si113  1  0.82295613  0.57076298  0.34854590  1
  Si0+  Si114  1  0.67903286  0.92497821  0.34816565  1
  Si0+  Si115  1  0.57177842  0.67796849  0.65067523  1
  Si0+  Si116  1  0.06915008  0.67862958  0.98539179  1
  Si0+  Si117  1  0.07313458  0.67540097  0.65118020  1
  Si0+  Si118  1  0.67854799  0.42970568  0.34752000  1
  Si0+  Si119  1  0.17827276  0.92654916  0.35043847  1
  O2-  O120  1  0.25815713  -0.00128778  0.05877358  1
  O2-  O121  1  0.25107129  -0.00880042  0.39370864  1
  O2-  O122  1  0.26214935  -0.00173963  0.72732740  1
  O2-  O123  1  0.25158092  0.49463423  0.06760617  1
  O2-  O124  1  0.24976826  0.49822281  0.39267872  1
  O2-  O125  1  0.25200742  0.50339614  0.72513882  1
  O2-  O126  1  0.75238571  0.00405900  0.06151858  1
  O2-  O127  1  0.74874193  -0.00761164  0.39319514  1
  O2-  O128  1  0.74812890  0.00157141  0.73112854  1
  O2-  O129  1  0.75055794  0.50781969  0.06281049  1
  O2-  O130  1  0.74889162  0.50194055  0.38959178  1
  O2-  O131  1  0.75445932  0.50472650  0.72608072  1
  O2-  O132  1  0.00152740  0.24639996  0.27043318  1
  O2-  O133  1  -0.00504308  0.25498907  0.60684719  1
  O2-  O134  1  0.00306466  0.25423759  0.94244382  1
  O2-  O135  1  0.00860687  0.74934146  0.27191084  1
  O2-  O136  1  0.00478886  0.74451830  0.60707051  1
  O2-  O137  1  0.00142014  0.75251754  0.94262879  1
  O2-  O138  1  0.50157898  0.24451219  0.27350012  1
  O2-  O139  1  0.50711414  0.24705098  0.60517954  1
  O2-  O140  1  0.49701010  0.25506130  0.94006428  1
  O2-  O141  1  0.50340485  0.75567475  0.26900085  1
  O2-  O142  1  0.50745744  0.75117755  0.60732918  1
  O2-  O143  1  0.50125581  0.75140046  0.93275972  1
  O2-  O144  1  0.06845362  0.17845986  0.08996479  1
  O2-  O145  1  0.07204252  0.17917759  0.41904758  1
  O2-  O146  1  0.07082650  0.18077835  0.76601552  1
  O2-  O147  1  0.06589665  0.67756394  0.09056041  1
  O2-  O148  1  0.06781721  0.67006862  0.42172441  1
  O2-  O149  1  0.07164326  0.67469552  0.75686905  1
  O2-  O150  1  0.57178977  0.18096220  0.09957789  1
  O2-  O151  1  0.57482298  0.18473623  0.42504410  1
  O2-  O152  1  0.57415037  0.17980275  0.75467266  1
  O2-  O153  1  0.56980021  0.68046579  0.09504269  1
  O2-  O154  1  0.56886695  0.67716332  0.43221735  1
  O2-  O155  1  0.56944437  0.67454895  0.75568566  1
  O2-  O156  1  0.17626689  0.43228662  0.24383190  1
  O2-  O157  1  0.17924885  0.42935049  0.56451770  1
  O2-  O158  1  0.17800771  0.42653373  0.90315120  1
  O2-  O159  1  0.17688346  0.92986266  0.24462927  1
  O2-  O160  1  0.18128450  0.93326377  0.56469736  1
  O2-  O161  1  0.17430906  0.93191544  0.90070295  1
  O2-  O162  1  0.68067041  0.42863948  0.24259031  1
  O2-  O163  1  0.67843551  0.43362242  0.56500391  1
  O2-  O164  1  0.68279941  0.42845723  0.90239833  1
  O2-  O165  1  0.67994728  0.92805203  0.24240628  1
  O2-  O166  1  0.67998872  0.92767902  0.56676470  1
  O2-  O167  1  0.68010162  0.92995477  0.90124717  1
  O2-  O168  1  0.42631297  0.31731433  0.09032817  1
  O2-  O169  1  0.42816954  0.32185280  0.43186588  1
  O2-  O170  1  0.43135885  0.31923934  0.76814728  1
  O2-  O171  1  0.42807082  0.82119059  0.09782803  1
  O2-  O172  1  0.42883316  0.82160393  0.43236774  1
  O2-  O173  1  0.42354457  0.81812107  0.76468151  1
  O2-  O174  1  0.92832989  0.32088407  0.08907130  1
  O2-  O175  1  0.93064429  0.32343773  0.43314605  1
  O2-  O176  1  0.92840021  0.32472463  0.75723756  1
  O2-  O177  1  0.93213210  0.82327951  0.09011841  1
  O2-  O178  1  0.93165250  0.82135505  0.43142356  1
  O2-  O179  1  0.93206864  0.81810636  0.76846652  1
  O2-  O180  1  0.31825098  0.07321021  0.23455529  1
  O2-  O181  1  0.31926035  0.07554706  0.57756004  1
  O2-  O182  1  0.31870129  0.07642732  0.90940597  1
  O2-  O183  1  0.32048871  0.56856516  0.24635953  1
  O2-  O184  1  0.32132145  0.57021265  0.57608121  1
  O2-  O185  1  0.31651178  0.56977915  0.90303289  1
  O2-  O186  1  0.81703618  0.07107374  0.23373734  1
  O2-  O187  1  0.82362638  0.06861830  0.56899200  1
  O2-  O188  1  0.82595913  0.06925675  0.91232241  1
  O2-  O189  1  0.82745678  0.56869868  0.24394052  1
  O2-  O190  1  0.82449105  0.57307536  0.57697103  1
  O2-  O191  1  0.82719341  0.56950491  0.91249773  1
  O2-  O192  1  0.04632338  0.08509060  0.26661647  1
  O2-  O193  1  0.03942596  0.08530191  0.59572723  1
  O2-  O194  1  0.03835398  0.08926459  0.93698626  1
  O2-  O195  1  0.03912269  0.58510626  0.26627609  1
  O2-  O196  1  0.04660280  0.58165804  0.60470859  1
  O2-  O197  1  0.03823922  0.58767117  0.93688227  1
  O2-  O198  1  0.54936468  0.08468754  0.27608624  1
  O2-  O199  1  0.55319046  0.08508727  0.60178251  1
  O2-  O200  1  0.54082410  0.08550539  0.92876558  1
  O2-  O201  1  0.53650884  0.58274373  0.26434641  1
  O2-  O202  1  0.54152631  0.58655751  0.60194102  1
  O2-  O203  1  0.54154507  0.57764799  0.93256943  1
  O2-  O204  1  0.16354757  0.20606740  0.26607706  1
  O2-  O205  1  0.16543116  0.21169201  0.59567636  1
  O2-  O206  1  0.16330967  0.20397334  0.93778685  1
  O2-  O207  1  0.16704488  0.69446393  0.27266088  1
  O2-  O208  1  0.16629203  0.69885647  0.60366678  1
  O2-  O209  1  0.16197184  0.70254580  0.93981608  1
  O2-  O210  1  0.66449525  0.20809045  0.27108528  1
  O2-  O211  1  0.67106765  0.20523439  0.60625711  1
  O2-  O212  1  0.66848348  0.21173276  0.93158800  1
  O2-  O213  1  0.67168850  0.69521726  0.26527951  1
  O2-  O214  1  0.66755207  0.69751397  0.60607499  1
  O2-  O215  1  0.67385357  0.70030766  0.93231670  1
  O2-  O216  1  0.07895047  0.45865180  0.06829711  1
  O2-  O217  1  0.08576764  0.45982285  0.39570998  1
  O2-  O218  1  0.08257365  0.45430727  0.73398575  1
  O2-  O219  1  0.08485310  0.96729156  0.07098011  1
  O2-  O220  1  0.08583006  0.95856674  0.39522467  1
  O2-  O221  1  0.08868846  0.96555728  0.73270923  1
  O2-  O222  1  0.58210335  0.45434311  0.06929932  1
  O2-  O223  1  0.58569593  0.45837176  0.39277328  1
  O2-  O224  1  0.58307383  0.46249572  0.73463993  1
  O2-  O225  1  0.58125863  0.96231103  0.06649939  1
  O2-  O226  1  0.58546914  0.95055749  0.39396653  1
  O2-  O227  1  0.57883286  0.95704488  0.73354064  1
  O2-  O228  1  0.20046337  0.32665725  0.07042904  1
  O2-  O229  1  0.20295049  0.33603093  0.39280787  1
  O2-  O230  1  0.21286381  0.33173615  0.73141956  1
  O2-  O231  1  0.19950175  0.83172383  0.06909184  1
  O2-  O232  1  0.19510441  0.82971961  0.39341410  1
  O2-  O233  1  0.20632917  0.83021400  0.72987309  1
  O2-  O234  1  0.71576545  0.33400014  0.06972858  1
  O2-  O235  1  0.70767672  0.33913613  0.39605113  1
  O2-  O236  1  0.70811389  0.33582855  0.73557476  1
  O2-  O237  1  0.70983465  0.83263625  0.06729529  1
  O2-  O238  1  0.70420232  0.82955804  0.39013076  1
  O2-  O239  1  0.70731286  0.82942478  0.73315040  1
  O2-  O240  1  0.45876077  0.41426179  0.26312586  1
  O2-  O241  1  0.46169204  0.41682072  0.59980046  1
  O2-  O242  1  0.44923464  0.41621884  0.94221224  1
  O2-  O243  1  0.45047846  0.92531978  0.26880663  1
  O2-  O244  1  0.45559892  0.92107203  0.59986524  1
  O2-  O245  1  0.45108997  0.92054307  0.93226111  1
  O2-  O246  1  0.95925934  0.41618290  0.26364182  1
  O2-  O247  1  0.95227524  0.41803311  0.60570574  1
  O2-  O248  1  0.95301559  0.41599088  0.93790639  1
  O2-  O249  1  0.96111747  0.91789221  0.26183175  1
  O2-  O250  1  0.96489805  0.91486128  0.60081901  1
  O2-  O251  1  0.96029651  0.91603917  0.93990997  1
  O2-  O252  1  0.33055313  0.28944554  0.26456065  1
  O2-  O253  1  0.33672157  0.28787592  0.59836970  1
  O2-  O254  1  0.33211415  0.29345044  0.93988060  1
  O2-  O255  1  0.32840348  0.79322631  0.26900294  1
  O2-  O256  1  0.33326216  0.78862857  0.59532505  1
  O2-  O257  1  0.32659603  0.78843951  0.93635921  1
  O2-  O258  1  0.83189531  0.28924912  0.26585213  1
  O2-  O259  1  0.83235816  0.30001421  0.60683872  1
  O2-  O260  1  0.83912170  0.29206877  0.93515153  1
  O2-  O261  1  0.83669883  0.78837707  0.26237423  1
  O2-  O262  1  0.83461901  0.78923169  0.59867685  1
  O2-  O263  1  0.83885159  0.79578901  0.93793339  1
  O2-  O264  1  0.41735670  0.05116985  0.05974566  1
  O2-  O265  1  0.41900248  0.04772428  0.40459795  1
  O2-  O266  1  0.42043860  0.05734035  0.72448656  1
  O2-  O267  1  0.41853851  0.54463315  0.07160371  1
  O2-  O268  1  0.41280650  0.53853271  0.39791457  1
  O2-  O269  1  0.41408483  0.54454658  0.72879162  1
  O2-  O270  1  0.91433510  0.04549026  0.06658119  1
  O2-  O271  1  0.91922284  0.04197864  0.39722680  1
  O2-  O272  1  0.92092895  0.03937644  0.73566907  1
  O2-  O273  1  0.91372067  0.54398463  0.06742132  1
  O2-  O274  1  0.91301641  0.54019073  0.39818492  1
  O2-  O275  1  0.91661542  0.54872837  0.73103990  1
  O2-  O276  1  0.29159322  0.16237514  0.06465522  1
  O2-  O277  1  0.28514411  0.16651203  0.40202493  1
  O2-  O278  1  0.29022124  0.16400832  0.73073078  1
  O2-  O279  1  0.28557317  0.66506662  0.07392252  1
  O2-  O280  1  0.29388306  0.66115562  0.39895306  1
  O2-  O281  1  0.29547538  0.66461791  0.72829652  1
  O2-  O282  1  0.79735721  0.16638010  0.06093862  1
  O2-  O283  1  0.78969343  0.16656827  0.40278105  1
  O2-  O284  1  0.80182420  0.17053752  0.73596271  1
  O2-  O285  1  0.80232055  0.66862222  0.06225155  1
  O2-  O286  1  0.79645887  0.66361159  0.39519917  1
  O2-  O287  1  0.79929930  0.66649661  0.72978884  1
