# generated using pymatgen
data_Ca2Al2SiO7
_symmetry_space_group_name_H-M   'P 1'
_cell_length_a   15.45689124
_cell_length_b   15.45794035
_cell_length_c   15.28260734
_cell_angle_alpha   90.00887962
_cell_angle_beta   90.00971729
_cell_angle_gamma   90.00292263
_symmetry_Int_Tables_number   1
_chemical_formula_structural   Ca2Al2SiO7
_chemical_formula_sum   'Ca48 Al48 Si24 O168'
_cell_volume   3651.49929460
_cell_formula_units_Z   24
loop_
 _symmetry_equiv_pos_site_id
 _symmetry_equiv_pos_as_xyz
  1  'x, y, z'
loop_
 _atom_type_symbol
 _atom_type_oxidation_number
  Ca2+  2.0
  Al0+  0.0
  Si0+  0.0
  O2-  -2.0
loop_
 _atom_site_type_symbol
 _atom_site_label
 _atom_site_symmetry_multiplicity
 _atom_site_fract_x
 _atom_site_fract_y
 _atom_site_fract_z
 _atom_site_occupancy
  Ca2+  Ca0  1  0.15701640  0.07384123  0.16636300  1
  Ca2+  Ca1  1  0.16353985  0.07125005  0.50604655  1
  Ca2+  Ca2  1  0.15767108  0.07146067  0.83657998  1
  Ca2+  Ca3  1  0.17542166  0.58879108  0.17526524  1
  Ca2+  Ca4  1  0.16461353  0.57643129  0.50080463  1
  Ca2+  Ca5  1  0.17123941  0.57991034  0.83933579  1
  Ca2+  Ca6  1  0.66920525  0.07499011  0.17542953  1
  Ca2+  Ca7  1  0.67269837  0.07037219  0.50879722  1
  Ca2+  Ca8  1  0.67219423  0.08026981  0.83193703  1
  Ca2+  Ca9  1  0.66412700  0.58144549  0.16774488  1
  Ca2+  Ca10  1  0.67238212  0.59034356  0.50680124  1
  Ca2+  Ca11  1  0.67149446  0.58643625  0.83668357  1
  Ca2+  Ca12  1  0.07368136  0.33514366  0.16048062  1
  Ca2+  Ca13  1  0.07491146  0.34294616  0.49513589  1
  Ca2+  Ca14  1  0.07571276  0.33178926  0.82495348  1
  Ca2+  Ca15  1  0.09417632  0.82620504  0.16343871  1
  Ca2+  Ca16  1  0.08042909  0.83416894  0.49572251  1
  Ca2+  Ca17  1  0.08525804  0.82880533  0.82782042  1
  Ca2+  Ca18  1  0.58285867  0.33597373  0.15910311  1
  Ca2+  Ca19  1  0.57499944  0.33537525  0.49950678  1
  Ca2+  Ca20  1  0.57887695  0.33801310  0.82804585  1
  Ca2+  Ca21  1  0.58461421  0.82150385  0.16300121  1
  Ca2+  Ca22  1  0.58774188  0.82642404  0.49652379  1
  Ca2+  Ca23  1  0.57859065  0.82331340  0.82042878  1
  Ca2+  Ca24  1  0.32494223  0.43044755  0.17445731  1
  Ca2+  Ca25  1  0.32319068  0.42075562  0.50552676  1
  Ca2+  Ca26  1  0.33014529  0.41972270  0.83671025  1
  Ca2+  Ca27  1  0.32183641  0.91567371  0.17022917  1
  Ca2+  Ca28  1  0.32331880  0.90906649  0.50574636  1
  Ca2+  Ca29  1  0.32382976  0.90645798  0.83370938  1
  Ca2+  Ca30  1  0.83195890  0.41070664  0.16785376  1
  Ca2+  Ca31  1  0.83886045  0.42349748  0.50836830  1
  Ca2+  Ca32  1  0.83196236  0.41823709  0.83521901  1
  Ca2+  Ca33  1  0.82779877  0.91696166  0.17283702  1
  Ca2+  Ca34  1  0.82562633  0.91582563  0.51323220  1
  Ca2+  Ca35  1  0.83378970  0.91631464  0.82916102  1
  Ca2+  Ca36  1  0.41776524  0.16881185  0.16435157  1
  Ca2+  Ca37  1  0.41201700  0.17249651  0.50204842  1
  Ca2+  Ca38  1  0.41769546  0.17425801  0.82465935  1
  Ca2+  Ca39  1  0.42242984  0.65780429  0.16236276  1
  Ca2+  Ca40  1  0.42620981  0.66832054  0.49748391  1
  Ca2+  Ca41  1  0.42677254  0.66421389  0.82807839  1
  Ca2+  Ca42  1  0.92245141  0.17739686  0.15949527  1
  Ca2+  Ca43  1  0.91053356  0.17689246  0.49924385  1
  Ca2+  Ca44  1  0.91732217  0.17497326  0.82933327  1
  Ca2+  Ca45  1  0.93329969  0.66800180  0.16343910  1
  Ca2+  Ca46  1  0.92015310  0.67031183  0.49884841  1
  Ca2+  Ca47  1  0.92122981  0.66933082  0.82637930  1
  Al0+  Al48  1  -0.00199122  0.00107059  0.00329040  1
  Al0+  Al49  1  -0.00195602  0.00344739  0.33723777  1
  Al0+  Al50  1  -0.00031687  -0.00029762  0.67087288  1
  Al0+  Al51  1  -0.00138478  0.50204476  -0.00794602  1
  Al0+  Al52  1  -0.00113839  0.50185959  0.32597639  1
  Al0+  Al53  1  0.00007566  0.49878988  0.67270399  1
  Al0+  Al54  1  0.49898768  0.00019810  0.00067903  1
  Al0+  Al55  1  0.49989634  0.00008924  0.33697179  1
  Al0+  Al56  1  0.49837596  -0.00077862  0.66661390  1
  Al0+  Al57  1  0.50125747  0.49993301  0.00347427  1
  Al0+  Al58  1  0.49997502  0.50040273  0.33315850  1
  Al0+  Al59  1  0.49973718  0.49892710  0.65629533  1
  Al0+  Al60  1  0.24956684  0.24815898  -0.00257258  1
  Al0+  Al61  1  0.24850914  0.24978798  0.33364578  1
  Al0+  Al62  1  0.24877265  0.24890988  0.66569641  1
  Al0+  Al63  1  0.25102937  0.75007323  0.00429165  1
  Al0+  Al64  1  0.25236204  0.75154035  0.33960922  1
  Al0+  Al65  1  0.25314530  0.74666731  0.66709368  1
  Al0+  Al66  1  0.74896868  0.24983795  0.00090410  1
  Al0+  Al67  1  0.74864404  0.25022603  0.32961495  1
  Al0+  Al68  1  0.75024592  0.24946092  0.66546531  1
  Al0+  Al69  1  0.75042031  0.74854521  -0.00127515  1
  Al0+  Al70  1  0.74908739  0.74894055  0.33025331  1
  Al0+  Al71  1  0.75310208  0.74909378  0.66940250  1
  Al0+  Al72  1  0.68144659  0.43031446  0.01257292  1
  Al0+  Al73  1  0.07401329  0.68119577  0.98597887  1
  Al0+  Al74  1  0.68036460  0.92750705  0.34651199  1
  Al0+  Al75  1  0.17653195  0.42992396  0.34607885  1
  Al0+  Al76  1  0.92909148  0.32176543  0.31871689  1
  Al0+  Al77  1  0.18036918  0.92704882  0.68096476  1
  Al0+  Al78  1  0.32008630  0.56882263  0.01270298  1
  Al0+  Al79  1  0.92947924  0.32108098  0.65184137  1
  Al0+  Al80  1  0.57292793  0.67954957  0.65084913  1
  Al0+  Al81  1  0.82138545  0.57072767  0.67989132  1
  Al0+  Al82  1  0.07139142  0.17751433  0.98384594  1
  Al0+  Al83  1  0.93259103  0.82102974  0.65462401  1
  Al0+  Al84  1  0.92755329  0.32117437  0.98192050  1
  Al0+  Al85  1  0.67783673  0.92729054  0.68348367  1
  Al0+  Al86  1  0.57122732  0.67919346  0.31642622  1
  Al0+  Al87  1  0.07170876  0.68249518  0.32193627  1
  Al0+  Al88  1  0.17889807  0.42828966  0.68147197  1
  Al0+  Al89  1  0.57042542  0.67818443  0.98560856  1
  Al0+  Al90  1  0.42755336  0.82158253  0.65109987  1
  Al0+  Al91  1  0.17873318  0.93065540  0.34819637  1
  Al0+  Al92  1  0.42714050  0.32057800  0.65246070  1
  Al0+  Al93  1  0.82111420  0.07276195  0.68313085  1
  Al0+  Al94  1  0.17924213  0.93065841  0.01387793  1
  Al0+  Al95  1  0.32360528  0.57195750  0.35190646  1
  Si0+  Si96  1  0.32446072  0.07465795  0.01701415  1
  Si0+  Si97  1  0.82385603  0.57425557  0.01904301  1
  Si0+  Si98  1  0.92707778  0.82227480  0.98479478  1
  Si0+  Si99  1  0.57059728  0.17669270  0.98571121  1
  Si0+  Si100  1  0.57219747  0.17743744  0.64934337  1
  Si0+  Si101  1  0.43048326  0.32050147  0.98754468  1
  Si0+  Si102  1  0.07256306  0.17631016  0.31687784  1
  Si0+  Si103  1  0.67740532  0.92803215  0.01502159  1
  Si0+  Si104  1  0.82006457  0.56927671  0.34553137  1
  Si0+  Si105  1  0.42778271  0.32093007  0.31666650  1
  Si0+  Si106  1  0.32353574  0.07352916  0.35106240  1
  Si0+  Si107  1  0.56947776  0.17931003  0.31839921  1
  Si0+  Si108  1  0.17592450  0.42659333  0.01472799  1
  Si0+  Si109  1  0.42860219  0.82394519  0.31546268  1
  Si0+  Si110  1  0.92778306  0.82434005  0.31818534  1
  Si0+  Si111  1  0.07354084  0.67653555  0.65108012  1
  Si0+  Si112  1  0.07110017  0.17741272  0.64852978  1
  Si0+  Si113  1  0.81857485  0.07104344  0.01744833  1
  Si0+  Si114  1  0.81979689  0.07393654  0.35002370  1
  Si0+  Si115  1  0.32134859  0.07274568  0.68370478  1
  Si0+  Si116  1  0.42922080  0.82334346  0.98487287  1
  Si0+  Si117  1  0.32406832  0.56890001  0.68347137  1
  Si0+  Si118  1  0.67857946  0.42691408  0.34844522  1
  Si0+  Si119  1  0.67654701  0.42835408  0.67971669  1
  O2-  O120  1  0.25323983  0.00776299  0.05959408  1
  O2-  O121  1  0.25337707  0.00610863  0.39391210  1
  O2-  O122  1  0.25661474  0.00068578  0.72798946  1
  O2-  O123  1  0.24180937  0.49737530  0.05962167  1
  O2-  O124  1  0.24917645  0.50019042  0.39831155  1
  O2-  O125  1  0.25505222  0.50111637  0.72837588  1
  O2-  O126  1  0.74850868  -0.00170963  0.05893386  1
  O2-  O127  1  0.75683468  0.00001344  0.39313801  1
  O2-  O128  1  0.74914458  0.00035008  0.73370695  1
  O2-  O129  1  0.75728514  0.50242227  0.06224226  1
  O2-  O130  1  0.74918868  0.49820315  0.38914817  1
  O2-  O131  1  0.74413723  0.49704791  0.72435041  1
  O2-  O132  1  0.00638917  0.24845314  0.27418124  1
  O2-  O133  1  0.00408315  0.24728875  0.60341485  1
  O2-  O134  1  0.00417202  0.25334645  0.93311636  1
  O2-  O135  1  0.00167635  0.76189774  0.27347204  1
  O2-  O136  1  0.00875809  0.74888241  0.60655145  1
  O2-  O137  1  -0.00206082  0.75549762  0.94166516  1
  O2-  O138  1  0.49897414  0.24978064  0.27382813  1
  O2-  O139  1  0.50223417  0.24552595  0.60560640  1
  O2-  O140  1  0.49811544  0.24631692  0.94463266  1
  O2-  O141  1  0.49538268  0.75360573  0.27026764  1
  O2-  O142  1  0.50388411  0.75456221  0.60073493  1
  O2-  O143  1  0.49908099  0.75620381  0.94072451  1
  O2-  O144  1  0.06748295  0.17709193  0.09786876  1
  O2-  O145  1  0.07155891  0.17256518  0.42203123  1
  O2-  O146  1  0.07089806  0.17870599  0.75406815  1
  O2-  O147  1  0.07458141  0.68332117  0.09953226  1
  O2-  O148  1  0.06620499  0.68069756  0.43473976  1
  O2-  O149  1  0.07274933  0.67803048  0.75698848  1
  O2-  O150  1  0.56980435  0.17541070  0.09122673  1
  O2-  O151  1  0.56983117  0.18137445  0.42300893  1
  O2-  O152  1  0.57172133  0.17905779  0.75545361  1
  O2-  O153  1  0.56947928  0.67908839  0.09894128  1
  O2-  O154  1  0.57506225  0.68047877  0.42872802  1
  O2-  O155  1  0.56988984  0.67673333  0.76469278  1
  O2-  O156  1  0.17855628  0.42996668  0.23217860  1
  O2-  O157  1  0.17794172  0.43078068  0.56833964  1
  O2-  O158  1  0.18056538  0.42598774  0.90917247  1
  O2-  O159  1  0.17999045  0.93239748  0.23480430  1
  O2-  O160  1  0.17947867  0.92974119  0.56786345  1
  O2-  O161  1  0.18087218  0.92987384  0.90108500  1
  O2-  O162  1  0.67877242  0.42528907  0.24318792  1
  O2-  O163  1  0.67744806  0.42769025  0.57372211  1
  O2-  O164  1  0.67888023  0.43041463  0.89976866  1
  O2-  O165  1  0.68162569  0.93036017  0.23241206  1
  O2-  O166  1  0.68065489  0.92866725  0.56961423  1
  O2-  O167  1  0.67620497  0.93021951  0.91059597  1
  O2-  O168  1  0.43300383  0.31859467  0.09290293  1
  O2-  O169  1  0.42897057  0.31896678  0.42158186  1
  O2-  O170  1  0.43016514  0.32009355  0.76627019  1
  O2-  O171  1  0.43172116  0.82634177  0.09058288  1
  O2-  O172  1  0.43126030  0.82551610  0.42057313  1
  O2-  O173  1  0.42651783  0.81699283  0.76513419  1
  O2-  O174  1  0.92642906  0.31756024  0.09606955  1
  O2-  O175  1  0.92659538  0.32120224  0.43163818  1
  O2-  O176  1  0.92934129  0.32010417  0.76438123  1
  O2-  O177  1  0.92419825  0.82105870  0.09087562  1
  O2-  O178  1  0.92610467  0.82197815  0.42350702  1
  O2-  O179  1  0.93425618  0.81927250  0.76794343  1
  O2-  O180  1  0.32696687  0.07348121  0.24533060  1
  O2-  O181  1  0.31793451  0.07562986  0.57805776  1
  O2-  O182  1  0.33114280  0.07563507  0.91228497  1
  O2-  O183  1  0.32389911  0.56884946  0.23771248  1
  O2-  O184  1  0.32391015  0.56757176  0.57815130  1
  O2-  O185  1  0.32207449  0.56509310  0.89970750  1
  O2-  O186  1  0.81674282  0.07476461  0.24388553  1
  O2-  O187  1  0.81769650  0.07357425  0.56923616  1
  O2-  O188  1  0.81677203  0.07215319  0.91285965  1
  O2-  O189  1  0.81919534  0.56885951  0.24048344  1
  O2-  O190  1  0.82280873  0.56919033  0.56603335  1
  O2-  O191  1  0.82148524  0.57695972  0.91374705  1
  O2-  O192  1  0.04150248  0.08465941  0.26814104  1
  O2-  O193  1  0.04338731  0.08409148  0.60362663  1
  O2-  O194  1  0.03735042  0.07994877  0.93247752  1
  O2-  O195  1  0.03724725  0.58921154  0.26346115  1
  O2-  O196  1  0.04171662  0.58457746  0.60643741  1
  O2-  O197  1  0.04523382  0.58503964  0.93077963  1
  O2-  O198  1  0.54151152  0.08723002  0.27039532  1
  O2-  O199  1  0.54657359  0.08411133  0.60324588  1
  O2-  O200  1  0.54412123  0.08506293  0.93723924  1
  O2-  O201  1  0.54178290  0.58060500  0.26422943  1
  O2-  O202  1  0.54427911  0.58233672  0.59530795  1
  O2-  O203  1  0.53744003  0.58184608  0.93321310  1
  O2-  O204  1  0.16787946  0.19631068  0.27128454  1
  O2-  O205  1  0.16545602  0.19986014  0.60303270  1
  O2-  O206  1  0.17318952  0.19628390  0.93328559  1
  O2-  O207  1  0.17049058  0.71115807  0.27048085  1
  O2-  O208  1  0.16874489  0.69629690  0.60719472  1
  O2-  O209  1  0.17040772  0.71264204  0.93229712  1
  O2-  O210  1  0.66029606  0.20679981  0.26813028  1
  O2-  O211  1  0.66420090  0.20464183  0.60162229  1
  O2-  O212  1  0.66111537  0.20630450  0.93833792  1
  O2-  O213  1  0.66744020  0.71090594  0.26049423  1
  O2-  O214  1  0.67266984  0.70651827  0.60064596  1
  O2-  O215  1  0.66858043  0.70638166  0.93405907  1
  O2-  O216  1  0.07978878  0.44975543  0.05579197  1
  O2-  O217  1  0.07780087  0.46134303  0.39709728  1
  O2-  O218  1  0.08466156  0.45990051  0.73825033  1
  O2-  O219  1  0.08182989  0.95966203  0.06882952  1
  O2-  O220  1  0.08077942  0.96048680  0.40094830  1
  O2-  O221  1  0.08502788  0.95938613  0.73572030  1
  O2-  O222  1  0.58615561  0.46127488  0.07000919  1
  O2-  O223  1  0.58620551  0.45296231  0.39451487  1
  O2-  O224  1  0.58150817  0.45216034  0.72368826  1
  O2-  O225  1  0.58594597  0.95714654  0.06327034  1
  O2-  O226  1  0.58460465  0.96067701  0.39984021  1
  O2-  O227  1  0.57814314  0.95541213  0.73450079  1
  O2-  O228  1  0.20265196  0.33256699  0.06000780  1
  O2-  O229  1  0.20213237  0.32973281  0.39734070  1
  O2-  O230  1  0.20914699  0.33067797  0.73363770  1
  O2-  O231  1  0.21413070  0.83641620  0.07017406  1
  O2-  O232  1  0.20926619  0.83551681  0.40361907  1
  O2-  O233  1  0.21107600  0.82938535  0.73373505  1
  O2-  O234  1  0.70789025  0.33208596  0.06832556  1
  O2-  O235  1  0.70470650  0.33433267  0.39501921  1
  O2-  O236  1  0.70081953  0.33459912  0.72577226  1
  O2-  O237  1  0.70640625  0.83599372  0.06188428  1
  O2-  O238  1  0.71058048  0.83049370  0.39870290  1
  O2-  O239  1  0.70957480  0.83067770  0.73688859  1
  O2-  O240  1  0.45798853  0.41171055  0.26928288  1
  O2-  O241  1  0.45871918  0.41355173  0.59288097  1
  O2-  O242  1  0.46335801  0.40973433  0.93952407  1
  O2-  O243  1  0.45476643  0.91820635  0.26950285  1
  O2-  O244  1  0.44625681  0.92354862  0.60122683  1
  O2-  O245  1  0.45203275  0.91774893  0.93835126  1
  O2-  O246  1  0.95693721  0.41733704  0.26146407  1
  O2-  O247  1  0.96215815  0.41838050  0.60007834  1
  O2-  O248  1  0.94787597  0.42186860  0.93159732  1
  O2-  O249  1  0.94610718  0.92127686  0.27525644  1
  O2-  O250  1  0.95931771  0.91875495  0.60060185  1
  O2-  O251  1  0.94920014  0.91737791  0.94183203  1
  O2-  O252  1  0.33614930  0.29279360  0.26869917  1
  O2-  O253  1  0.33195271  0.28706384  0.59690951  1
  O2-  O254  1  0.33792436  0.29648725  0.94013334  1
  O2-  O255  1  0.33387226  0.79997348  0.27142727  1
  O2-  O256  1  0.33107215  0.78819112  0.59648174  1
  O2-  O257  1  0.33601038  0.79564923  0.94081335  1
  O2-  O258  1  0.83242176  0.28826226  0.26432964  1
  O2-  O259  1  0.83187228  0.29163176  0.59819468  1
  O2-  O260  1  0.82939142  0.28713261  0.93153251  1
  O2-  O261  1  0.83714645  0.79298816  0.26897829  1
  O2-  O262  1  0.83674047  0.78850490  0.60087273  1
  O2-  O263  1  0.83465127  0.79507915  0.93724114  1
  O2-  O264  1  0.41717857  0.04696673  0.06660081  1
  O2-  O265  1  0.41657251  0.04904575  0.39884795  1
  O2-  O266  1  0.41712541  0.05394213  0.72801140  1
  O2-  O267  1  0.41439498  0.53355666  0.06891699  1
  O2-  O268  1  0.42145580  0.53952482  0.40346045  1
  O2-  O269  1  0.41796711  0.53963704  0.72724314  1
  O2-  O270  1  0.90957023  0.04409429  0.06693288  1
  O2-  O271  1  0.91501210  0.05685127  0.39481911  1
  O2-  O272  1  0.91857570  0.04449400  0.73703438  1
  O2-  O273  1  0.91928236  0.55039303  0.06251388  1
  O2-  O274  1  0.91136555  0.54142731  0.39267949  1
  O2-  O275  1  0.91528572  0.53836914  0.73751206  1
  O2-  O276  1  0.30123778  0.16882658  0.06431387  1
  O2-  O277  1  0.29912658  0.16777649  0.39632726  1
  O2-  O278  1  0.29389356  0.16512496  0.73154958  1
  O2-  O279  1  0.29380431  0.66598870  0.06796013  1
  O2-  O280  1  0.29943706  0.67096879  0.40340592  1
  O2-  O281  1  0.30012862  0.66217800  0.73032160  1
  O2-  O282  1  0.78707752  0.16106980  0.06641618  1
  O2-  O283  1  0.78675908  0.16536497  0.39616587  1
  O2-  O284  1  0.78899785  0.17033220  0.73691437  1
  O2-  O285  1  0.79544899  0.66675420  0.06678947  1
  O2-  O286  1  0.79196923  0.66125511  0.39231694  1
  O2-  O287  1  0.79318428  0.66583230  0.73729308  1
