# generated using pymatgen
data_Ca2Al2SiO7
_symmetry_space_group_name_H-M   'P 1'
_cell_length_a   15.45309508
_cell_length_b   15.45311344
_cell_length_c   15.27966196
_cell_angle_alpha   89.99569988
_cell_angle_beta   89.99584468
_cell_angle_gamma   89.99874807
_symmetry_Int_Tables_number   1
_chemical_formula_structural   Ca2Al2SiO7
_chemical_formula_sum   'Ca48 Al48 Si24 O168'
_cell_volume   3648.75928455
_cell_formula_units_Z   24
loop_
 _symmetry_equiv_pos_site_id
 _symmetry_equiv_pos_as_xyz
  1  'x, y, z'
loop_
 _atom_type_symbol
 _atom_type_oxidation_number
  Ca2+  2.0
  Al0+  0.0
  Si0+  0.0
  O2-  -2.0
loop_
 _atom_site_type_symbol
 _atom_site_label
 _atom_site_symmetry_multiplicity
 _atom_site_fract_x
 _atom_site_fract_y
 _atom_site_fract_z
 _atom_site_occupancy
  Ca2+  Ca0  1  0.17329384  0.08416304  0.16617144  1
  Ca2+  Ca1  1  0.17080129  0.07853049  0.51341488  1
  Ca2+  Ca2  1  0.17285288  0.08697786  0.83441273  1
  Ca2+  Ca3  1  0.16690904  0.58045390  0.16873944  1
  Ca2+  Ca4  1  0.18301702  0.58508006  0.50605046  1
  Ca2+  Ca5  1  0.16978771  0.58092645  0.84028425  1
  Ca2+  Ca6  1  0.66959293  0.08137828  0.16661722  1
  Ca2+  Ca7  1  0.66883989  0.07536972  0.50463223  1
  Ca2+  Ca8  1  0.67820694  0.08861704  0.84156421  1
  Ca2+  Ca9  1  0.66097280  0.58294280  0.16723950  1
  Ca2+  Ca10  1  0.66713676  0.57902168  0.51091107  1
  Ca2+  Ca11  1  0.66632096  0.57475795  0.83480548  1
  Ca2+  Ca12  1  0.07169522  0.33870493  0.15845750  1
  Ca2+  Ca13  1  0.07216184  0.33015703  0.49828631  1
  Ca2+  Ca14  1  0.07280432  0.33236102  0.82683124  1
  Ca2+  Ca15  1  0.07745568  0.82542947  0.15648422  1
  Ca2+  Ca16  1  0.08481594  0.83626903  0.50040897  1
  Ca2+  Ca17  1  0.08193449  0.83429855  0.83310172  1
  Ca2+  Ca18  1  0.57683280  0.33200911  0.15908180  1
  Ca2+  Ca19  1  0.57968820  0.33497881  0.49749492  1
  Ca2+  Ca20  1  0.59112182  0.33096307  0.83184868  1
  Ca2+  Ca21  1  0.58482454  0.82503885  0.16460577  1
  Ca2+  Ca22  1  0.57986640  0.82241816  0.49036808  1
  Ca2+  Ca23  1  0.58586873  0.81892577  0.82854108  1
  Ca2+  Ca24  1  0.32735790  0.41993959  0.17266903  1
  Ca2+  Ca25  1  0.34192356  0.42698267  0.50315769  1
  Ca2+  Ca26  1  0.32520087  0.42107584  0.83837202  1
  Ca2+  Ca27  1  0.34147283  0.92076553  0.16954445  1
  Ca2+  Ca28  1  0.32971847  0.91930732  0.50866303  1
  Ca2+  Ca29  1  0.32915091  0.92650697  0.83481779  1
  Ca2+  Ca30  1  0.82834591  0.41017153  0.16660662  1
  Ca2+  Ca31  1  0.82944512  0.41884188  0.50965329  1
  Ca2+  Ca32  1  0.82652458  0.41239585  0.83788594  1
  Ca2+  Ca33  1  0.83015346  0.91923046  0.16917491  1
  Ca2+  Ca34  1  0.82558784  0.92081622  0.50652693  1
  Ca2+  Ca35  1  0.83977482  0.92911502  0.83906017  1
  Ca2+  Ca36  1  0.42229699  0.16916779  0.15913913  1
  Ca2+  Ca37  1  0.41388863  0.17292189  0.49537686  1
  Ca2+  Ca38  1  0.41909552  0.16190029  0.83129300  1
  Ca2+  Ca39  1  0.42361854  0.66796146  0.16624084  1
  Ca2+  Ca40  1  0.42538480  0.66470129  0.49188449  1
  Ca2+  Ca41  1  0.42677019  0.65908796  0.82768244  1
  Ca2+  Ca42  1  0.91247368  0.17609240  0.15909017  1
  Ca2+  Ca43  1  0.91502396  0.17413125  0.50246988  1
  Ca2+  Ca44  1  0.91431189  0.17451337  0.82462329  1
  Ca2+  Ca45  1  0.92204789  0.67447911  0.15430233  1
  Ca2+  Ca46  1  0.91612582  0.66309423  0.49923251  1
  Ca2+  Ca47  1  0.91832247  0.66884027  0.83152240  1
  Al0+  Al48  1  0.00149094  0.00160324  0.00401574  1
  Al0+  Al49  1  0.00141745  0.00145792  0.33360287  1
  Al0+  Al50  1  -0.00022703  -0.00078599  0.66873259  1
  Al0+  Al51  1  -0.00042519  0.50101999  -0.00400519  1
  Al0+  Al52  1  -0.00072839  0.49810165  0.33008433  1
  Al0+  Al53  1  -0.00028203  0.50248379  0.66315395  1
  Al0+  Al54  1  0.50080529  0.00072072  -0.00060194  1
  Al0+  Al55  1  0.50125726  -0.00113521  0.33627462  1
  Al0+  Al56  1  0.49905551  -0.00162887  0.66928845  1
  Al0+  Al57  1  0.49912793  0.50001752  0.00063380  1
  Al0+  Al58  1  0.49985436  0.49819768  0.32848597  1
  Al0+  Al59  1  0.50117830  0.49899643  0.67117966  1
  Al0+  Al60  1  0.24932704  0.25169211  0.01059824  1
  Al0+  Al61  1  0.24791751  0.24978951  0.33061176  1
  Al0+  Al62  1  0.24993474  0.25014916  0.66478489  1
  Al0+  Al63  1  0.25083959  0.75115310  -0.00299522  1
  Al0+  Al64  1  0.25131660  0.74998160  0.33316776  1
  Al0+  Al65  1  0.25043487  0.75097316  0.67607692  1
  Al0+  Al66  1  0.74821367  0.25022887  0.00302665  1
  Al0+  Al67  1  0.75154415  0.25008813  0.33155195  1
  Al0+  Al68  1  0.74797606  0.24884971  0.66592499  1
  Al0+  Al69  1  0.74948986  0.75068343  -0.00926907  1
  Al0+  Al70  1  0.75087675  0.75014037  0.33402871  1
  Al0+  Al71  1  0.75047710  0.74774451  0.66488763  1
  Al0+  Al72  1  0.32232315  0.07397820  0.68094798  1
  Al0+  Al73  1  0.57012002  0.67810790  0.65158959  1
  Al0+  Al74  1  0.32194094  0.57030808  0.68087229  1
  Al0+  Al75  1  0.56911872  0.18011770  0.98663689  1
  Al0+  Al76  1  0.32014054  0.56914684  0.34595033  1
  Al0+  Al77  1  0.92825476  0.31934679  0.98551281  1
  Al0+  Al78  1  0.67921965  0.42999556  0.01638249  1
  Al0+  Al79  1  0.17715804  0.43100277  0.01361145  1
  Al0+  Al80  1  0.07173705  0.17811324  0.65222916  1
  Al0+  Al81  1  0.42842425  0.32039898  0.31948212  1
  Al0+  Al82  1  0.42784881  0.82204832  0.31921130  1
  Al0+  Al83  1  0.92658918  0.32218202  0.65092014  1
  Al0+  Al84  1  0.67988248  0.42864261  0.68118187  1
  Al0+  Al85  1  0.82185920  0.07140172  0.01494529  1
  Al0+  Al86  1  0.56921056  0.67798472  0.98369824  1
  Al0+  Al87  1  0.82360527  0.57265224  0.68211793  1
  Al0+  Al88  1  0.32216555  0.07037140  0.01616080  1
  Al0+  Al89  1  0.67985791  0.92794310  0.34710479  1
  Al0+  Al90  1  0.81811448  0.06902552  0.67893338  1
  Al0+  Al91  1  0.57302123  0.67819131  0.31783384  1
  Al0+  Al92  1  0.92947465  0.32021902  0.31726688  1
  Al0+  Al93  1  0.92888361  0.82385261  0.98423217  1
  Al0+  Al94  1  0.17776380  0.92875465  0.68337840  1
  Al0+  Al95  1  0.07206713  0.67880841  0.98384015  1
  Si0+  Si96  1  0.67883244  0.92624712  0.01519068  1
  Si0+  Si97  1  0.82253161  0.57097676  0.34576467  1
  Si0+  Si98  1  0.17745428  0.42884844  0.68030410  1
  Si0+  Si99  1  0.17873151  0.92916487  0.34728630  1
  Si0+  Si100  1  0.17543186  0.42737636  0.35172370  1
  Si0+  Si101  1  0.32104280  0.07174068  0.34815850  1
  Si0+  Si102  1  0.07438271  0.17914803  0.98519348  1
  Si0+  Si103  1  0.82273122  0.07255655  0.35122771  1
  Si0+  Si104  1  0.82071687  0.57348647  0.01629321  1
  Si0+  Si105  1  0.67714490  0.92624453  0.68379748  1
  Si0+  Si106  1  0.92978183  0.82109482  0.64995732  1
  Si0+  Si107  1  0.32219301  0.57336634  0.01805433  1
  Si0+  Si108  1  0.07377745  0.67958623  0.65020200  1
  Si0+  Si109  1  0.17937873  0.92742825  0.01961930  1
  Si0+  Si110  1  0.07176842  0.17606565  0.31422652  1
  Si0+  Si111  1  0.42562648  0.32146601  0.98343193  1
  Si0+  Si112  1  0.57197931  0.17721010  0.31788168  1
  Si0+  Si113  1  0.57075784  0.17645058  0.65142343  1
  Si0+  Si114  1  0.67948315  0.42870151  0.34684117  1
  Si0+  Si115  1  0.42763213  0.82155690  0.65112125  1
  Si0+  Si116  1  0.92966598  0.82233132  0.32066495  1
  Si0+  Si117  1  0.42888917  0.32031769  0.65360679  1
  Si0+  Si118  1  0.07136701  0.67977826  0.32081376  1
  Si0+  Si119  1  0.42798737  0.82388501  0.98086836  1
  O2-  O120  1  0.24936693  -0.00565066  0.06490814  1
  O2-  O121  1  0.25036477  -0.00017243  0.38922951  1
  O2-  O122  1  0.24825980  0.00386884  0.73022180  1
  O2-  O123  1  0.25083317  0.50684996  0.06130672  1
  O2-  O124  1  0.24703720  0.49330443  0.39546315  1
  O2-  O125  1  0.24437308  0.49823763  0.72599486  1
  O2-  O126  1  0.74928001  -0.00665070  0.06008209  1
  O2-  O127  1  0.75425056  0.00312512  0.39431975  1
  O2-  O128  1  0.74363366  -0.00395087  0.72870214  1
  O2-  O129  1  0.75261008  0.50605628  0.06394557  1
  O2-  O130  1  0.74970521  0.50130616  0.38741502  1
  O2-  O131  1  0.75486972  0.49755882  0.73111908  1
  O2-  O132  1  0.00370745  0.24525312  0.27057870  1
  O2-  O133  1  -0.00022381  0.25020520  0.60161223  1
  O2-  O134  1  0.00350969  0.24460861  0.94032706  1
  O2-  O135  1  -0.00015159  0.75049111  0.27886376  1
  O2-  O136  1  0.00097221  0.74935657  0.60740143  1
  O2-  O137  1  0.00080146  0.75174185  0.93411589  1
  O2-  O138  1  0.50213183  0.24461250  0.27369831  1
  O2-  O139  1  0.49738077  0.24613447  0.61091193  1
  O2-  O140  1  0.49393670  0.25345620  0.93786286  1
  O2-  O141  1  0.50099983  0.75127693  0.26921877  1
  O2-  O142  1  0.49550337  0.75313920  0.60531669  1
  O2-  O143  1  0.49375053  0.75233803  0.93704255  1
  O2-  O144  1  0.07377153  0.18086745  0.09134833  1
  O2-  O145  1  0.07184899  0.17386591  0.41951963  1
  O2-  O146  1  0.07259021  0.18126767  0.76568929  1
  O2-  O147  1  0.07027622  0.68069386  0.09876974  1
  O2-  O148  1  0.07126971  0.68100409  0.42608048  1
  O2-  O149  1  0.07438998  0.67948317  0.75462937  1
  O2-  O150  1  0.56758655  0.18072092  0.10024548  1
  O2-  O151  1  0.57191772  0.17799757  0.42394040  1
  O2-  O152  1  0.57215949  0.17659532  0.75625012  1
  O2-  O153  1  0.56862910  0.67963912  0.09691618  1
  O2-  O154  1  0.57241259  0.67757279  0.43148675  1
  O2-  O155  1  0.56835892  0.67829174  0.76454576  1
  O2-  O156  1  0.17366672  0.43088498  0.24616227  1
  O2-  O157  1  0.17931263  0.43085112  0.57436070  1
  O2-  O158  1  0.18031331  0.42991718  0.90033864  1
  O2-  O159  1  0.17594572  0.93016540  0.24255767  1
  O2-  O160  1  0.18037660  0.92760134  0.56857999  1
  O2-  O161  1  0.17940905  0.92861874  0.91455719  1
  O2-  O162  1  0.68039570  0.42733778  0.24192446  1
  O2-  O163  1  0.67752582  0.42977713  0.56660064  1
  O2-  O164  1  0.68022469  0.42922572  0.90393992  1
  O2-  O165  1  0.68329551  0.92779323  0.23409268  1
  O2-  O166  1  0.67855856  0.92795464  0.57765135  1
  O2-  O167  1  0.67831556  0.92789391  0.90969831  1
  O2-  O168  1  0.42737483  0.31987704  0.08943481  1
  O2-  O169  1  0.43113733  0.31992358  0.43320091  1
  O2-  O170  1  0.42786144  0.32058133  0.75837872  1
  O2-  O171  1  0.42904234  0.82396469  0.08669714  1
  O2-  O172  1  0.42658947  0.82139638  0.43274017  1
  O2-  O173  1  0.43035799  0.82233741  0.75658146  1
  O2-  O174  1  0.92932635  0.31820831  0.09918963  1
  O2-  O175  1  0.92880432  0.32081550  0.42999035  1
  O2-  O176  1  0.92693613  0.32015104  0.76420645  1
  O2-  O177  1  0.92984539  0.82134738  0.09915005  1
  O2-  O178  1  0.93098604  0.82311006  0.42585633  1
  O2-  O179  1  0.93018856  0.82194278  0.75445507  1
  O2-  O180  1  0.32044050  0.07121285  0.24313339  1
  O2-  O181  1  0.32303107  0.07226461  0.56657935  1
  O2-  O182  1  0.32047229  0.07028184  0.90355142  1
  O2-  O183  1  0.31603780  0.56915688  0.23314886  1
  O2-  O184  1  0.32258662  0.56941386  0.56723832  1
  O2-  O185  1  0.32257737  0.57041136  0.91229076  1
  O2-  O186  1  0.82316436  0.07201730  0.24569778  1
  O2-  O187  1  0.81548713  0.06672758  0.56520816  1
  O2-  O188  1  0.82025450  0.07179178  0.90192588  1
  O2-  O189  1  0.82516906  0.57204764  0.24094315  1
  O2-  O190  1  0.82139483  0.57279327  0.56730276  1
  O2-  O191  1  0.81980353  0.57248187  0.91115722  1
  O2-  O192  1  0.04655780  0.08236458  0.26694229  1
  O2-  O193  1  0.04306385  0.07893569  0.59960981  1
  O2-  O194  1  0.05407285  0.08342306  0.94295729  1
  O2-  O195  1  0.04377455  0.58807022  0.27340981  1
  O2-  O196  1  0.04859706  0.58846136  0.59953482  1
  O2-  O197  1  0.04383609  0.58180786  0.92957664  1
  O2-  O198  1  0.54712053  0.08350809  0.27258480  1
  O2-  O199  1  0.54420202  0.08361715  0.60410381  1
  O2-  O200  1  0.54108953  0.08310448  0.93218790  1
  O2-  O201  1  0.54357125  0.58066325  0.26459336  1
  O2-  O202  1  0.53780184  0.58061352  0.59975485  1
  O2-  O203  1  0.53708516  0.58110073  0.93087068  1
  O2-  O204  1  0.16558738  0.20057180  0.26814500  1
  O2-  O205  1  0.17031120  0.20600699  0.59706568  1
  O2-  O206  1  0.16813639  0.20757835  0.94167036  1
  O2-  O207  1  0.16171922  0.70839656  0.27192743  1
  O2-  O208  1  0.16574591  0.71099829  0.60392144  1
  O2-  O209  1  0.17134724  0.70571519  0.93183249  1
  O2-  O210  1  0.66552045  0.20318099  0.27243478  1
  O2-  O211  1  0.66018599  0.20567414  0.60033457  1
  O2-  O212  1  0.66471008  0.21322781  0.93327416  1
  O2-  O213  1  0.67200517  0.70731672  0.26541694  1
  O2-  O214  1  0.66760766  0.70769013  0.59795883  1
  O2-  O215  1  0.66486612  0.70824984  0.92839821  1
  O2-  O216  1  0.08061871  0.46310232  0.06828472  1
  O2-  O217  1  0.08254960  0.45620382  0.39777710  1
  O2-  O218  1  0.08364134  0.45399324  0.72486143  1
  O2-  O219  1  0.08666783  0.95403150  0.06772482  1
  O2-  O220  1  0.08710552  0.95720134  0.39651228  1
  O2-  O221  1  0.07899542  0.95370533  0.73554804  1
  O2-  O222  1  0.58084345  0.45932077  0.06885847  1
  O2-  O223  1  0.58691904  0.45446113  0.39340289  1
  O2-  O224  1  0.58340521  0.45799085  0.73674372  1
  O2-  O225  1  0.58612579  0.95392628  0.06188814  1
  O2-  O226  1  0.58388959  0.95852800  0.40352443  1
  O2-  O227  1  0.58286840  0.94834242  0.72870120  1
  O2-  O228  1  0.20760942  0.33691780  0.07323993  1
  O2-  O229  1  0.19769404  0.33148568  0.39425348  1
  O2-  O230  1  0.20431252  0.33605756  0.72607487  1
  O2-  O231  1  0.20376981  0.83256481  0.06459790  1
  O2-  O232  1  0.20488335  0.83716731  0.39518515  1
  O2-  O233  1  0.20720713  0.83290439  0.74012151  1
  O2-  O234  1  0.71059966  0.33449121  0.07214750  1
  O2-  O235  1  0.70790657  0.33669244  0.39440625  1
  O2-  O236  1  0.70422615  0.32884250  0.73244380  1
  O2-  O237  1  0.70437972  0.83205841  0.06047711  1
  O2-  O238  1  0.71267888  0.83232565  0.40304443  1
  O2-  O239  1  0.70509374  0.83298549  0.72751926  1
  O2-  O240  1  0.45986005  0.41446073  0.26227974  1
  O2-  O241  1  0.46195394  0.41021856  0.60510599  1
  O2-  O242  1  0.44956081  0.41573993  0.93909707  1
  O2-  O243  1  0.45664578  0.92119464  0.26736225  1
  O2-  O244  1  0.45216595  0.91586644  0.60451928  1
  O2-  O245  1  0.45574263  0.91655973  0.93476586  1
  O2-  O246  1  0.96003410  0.41682662  0.26222121  1
  O2-  O247  1  0.95499125  0.42128785  0.59757103  1
  O2-  O248  1  0.95714804  0.41645166  0.93319825  1
  O2-  O249  1  0.95789834  0.91406446  0.27304842  1
  O2-  O250  1  0.95823837  0.91174620  0.60030808  1
  O2-  O251  1  0.95995519  0.92282768  0.93399054  1
  O2-  O252  1  0.33033498  0.29274988  0.26668704  1
  O2-  O253  1  0.33751403  0.29654553  0.60294953  1
  O2-  O254  1  0.33110792  0.29514509  0.94055239  1
  O2-  O255  1  0.32961102  0.79422124  0.26458002  1
  O2-  O256  1  0.33224424  0.79697803  0.60832742  1
  O2-  O257  1  0.33310112  0.80238685  0.93631448  1
  O2-  O258  1  0.83262740  0.28903879  0.26341151  1
  O2-  O259  1  0.82879935  0.29021892  0.59711531  1
  O2-  O260  1  0.83174796  0.28693118  0.93427461  1
  O2-  O261  1  0.83869061  0.79479978  0.27256957  1
  O2-  O262  1  0.83821826  0.79276883  0.60128632  1
  O2-  O263  1  0.83135203  0.79853174  0.92935491  1
  O2-  O264  1  0.41934752  0.03956755  0.07009191  1
  O2-  O265  1  0.41342146  0.04709889  0.39566000  1
  O2-  O266  1  0.41989199  0.04341629  0.73502748  1
  O2-  O267  1  0.41419771  0.54478450  0.06508372  1
  O2-  O268  1  0.41755305  0.53657923  0.39833026  1
  O2-  O269  1  0.41507939  0.53469377  0.73670948  1
  O2-  O270  1  0.91926956  0.04462740  0.07051784  1
  O2-  O271  1  0.91684645  0.04634465  0.39622791  1
  O2-  O272  1  0.91428316  0.03881120  0.73217727  1
  O2-  O273  1  0.91527783  0.54935141  0.06102867  1
  O2-  O274  1  0.91376896  0.54132707  0.39444115  1
  O2-  O275  1  0.92499670  0.55174333  0.73136770  1
  O2-  O276  1  0.29088219  0.16559415  0.07320055  1
  O2-  O277  1  0.29188437  0.16385939  0.39480504  1
  O2-  O278  1  0.29655966  0.17313362  0.73339662  1
  O2-  O279  1  0.29932684  0.66890411  0.06142309  1
  O2-  O280  1  0.28812813  0.66572879  0.40052077  1
  O2-  O281  1  0.29409163  0.66596323  0.73652193  1
  O2-  O282  1  0.78466873  0.16462106  0.07134391  1
  O2-  O283  1  0.79521309  0.16592885  0.39692363  1
  O2-  O284  1  0.78707182  0.16511719  0.73200142  1
  O2-  O285  1  0.79493185  0.66865122  0.06017125  1
  O2-  O286  1  0.79900031  0.66354530  0.39398797  1
  O2-  O287  1  0.79417521  0.67073887  0.73442845  1
