# generated using pymatgen
data_Ca2Al2SiO7
_symmetry_space_group_name_H-M   'P 1'
_cell_length_a   15.47041471
_cell_length_b   15.46644249
_cell_length_c   15.29110187
_cell_angle_alpha   89.99696392
_cell_angle_beta   90.02093429
_cell_angle_gamma   90.00512402
_symmetry_Int_Tables_number   1
_chemical_formula_structural   Ca2Al2SiO7
_chemical_formula_sum   'Ca48 Al48 Si24 O168'
_cell_volume   3658.73653514
_cell_formula_units_Z   24
loop_
 _symmetry_equiv_pos_site_id
 _symmetry_equiv_pos_as_xyz
  1  'x, y, z'
loop_
 _atom_type_symbol
 _atom_type_oxidation_number
  Ca2+  2.0
  Al0+  0.0
  Si0+  0.0
  O2-  -2.0
loop_
 _atom_site_type_symbol
 _atom_site_label
 _atom_site_symmetry_multiplicity
 _atom_site_fract_x
 _atom_site_fract_y
 _atom_site_fract_z
 _atom_site_occupancy
  Ca2+  Ca0  1  0.17569924  0.07814371  0.17037241  1
  Ca2+  Ca1  1  0.16502676  0.07343932  0.50676280  1
  Ca2+  Ca2  1  0.16465160  0.07623305  0.84342503  1
  Ca2+  Ca3  1  0.15612147  0.57813128  0.16701386  1
  Ca2+  Ca4  1  0.16968806  0.58036863  0.51137911  1
  Ca2+  Ca5  1  0.16147889  0.57342899  0.83775908  1
  Ca2+  Ca6  1  0.66710495  0.07514634  0.17638281  1
  Ca2+  Ca7  1  0.66700730  0.07878844  0.49923764  1
  Ca2+  Ca8  1  0.66567999  0.07285286  0.83866916  1
  Ca2+  Ca9  1  0.67172443  0.58774159  0.16289533  1
  Ca2+  Ca10  1  0.66994528  0.58203597  0.50607506  1
  Ca2+  Ca11  1  0.67478616  0.58667964  0.84474397  1
  Ca2+  Ca12  1  0.07964563  0.32500400  0.15245518  1
  Ca2+  Ca13  1  0.08953771  0.32669661  0.50369473  1
  Ca2+  Ca14  1  0.09321151  0.32234343  0.83387504  1
  Ca2+  Ca15  1  0.09342286  0.82562646  0.16061292  1
  Ca2+  Ca16  1  0.09895438  0.82370229  0.49601987  1
  Ca2+  Ca17  1  0.09674343  0.82318813  0.82841083  1
  Ca2+  Ca18  1  0.57550326  0.32324323  0.15987675  1
  Ca2+  Ca19  1  0.57395164  0.32761203  0.49378741  1
  Ca2+  Ca20  1  0.56734754  0.33663332  0.82975858  1
  Ca2+  Ca21  1  0.58066924  0.83676536  0.15527244  1
  Ca2+  Ca22  1  0.58470030  0.83945936  0.49645724  1
  Ca2+  Ca23  1  0.57972166  0.83735342  0.83486458  1
  Ca2+  Ca24  1  0.32914388  0.41347276  0.16251113  1
  Ca2+  Ca25  1  0.32972693  0.42437598  0.51302521  1
  Ca2+  Ca26  1  0.32797240  0.41775987  0.83707734  1
  Ca2+  Ca27  1  0.32915538  0.92350015  0.16567701  1
  Ca2+  Ca28  1  0.32538083  0.92346728  0.49973078  1
  Ca2+  Ca29  1  0.32435071  0.92252481  0.84194079  1
  Ca2+  Ca30  1  0.84365880  0.42259557  0.16468376  1
  Ca2+  Ca31  1  0.83098224  0.41684280  0.50329656  1
  Ca2+  Ca32  1  0.83721680  0.42239269  0.84383595  1
  Ca2+  Ca33  1  0.82223404  0.92101550  0.17073313  1
  Ca2+  Ca34  1  0.82337438  0.91905337  0.50122427  1
  Ca2+  Ca35  1  0.82155913  0.91001159  0.83792143  1
  Ca2+  Ca36  1  0.41669461  0.16109452  0.16003058  1
  Ca2+  Ca37  1  0.41727215  0.16852624  0.49501298  1
  Ca2+  Ca38  1  0.40356204  0.17847035  0.83409487  1
  Ca2+  Ca39  1  0.42545403  0.67899636  0.15419923  1
  Ca2+  Ca40  1  0.41315641  0.66831694  0.49784978  1
  Ca2+  Ca41  1  0.41625632  0.67123764  0.83235198  1
  Ca2+  Ca42  1  0.92100203  0.16775067  0.15847505  1
  Ca2+  Ca43  1  0.91997958  0.16215766  0.49787202  1
  Ca2+  Ca44  1  0.92994221  0.16715329  0.83220817  1
  Ca2+  Ca45  1  0.92520926  0.66962544  0.15867894  1
  Ca2+  Ca46  1  0.93095514  0.67013583  0.49626606  1
  Ca2+  Ca47  1  0.92740111  0.66422528  0.83449322  1
  Al0+  Al48  1  -0.00280771  -0.00285852  0.00046609  1
  Al0+  Al49  1  -0.00223827  -0.00258052  0.33939132  1
  Al0+  Al50  1  -0.00271222  -0.00063792  0.66593103  1
  Al0+  Al51  1  -0.00097858  0.50129590  0.00275565  1
  Al0+  Al52  1  0.00016385  0.50058012  0.33325555  1
  Al0+  Al53  1  -0.00011079  0.50041268  0.66443479  1
  Al0+  Al54  1  0.49901191  -0.00101430  0.00117002  1
  Al0+  Al55  1  0.49814350  0.00067988  0.33704437  1
  Al0+  Al56  1  0.50050082  -0.00011316  0.66976000  1
  Al0+  Al57  1  0.50194246  0.49923268  -0.00535077  1
  Al0+  Al58  1  0.49973160  0.50047249  0.33177626  1
  Al0+  Al59  1  0.50083787  0.50102622  0.66452932  1
  Al0+  Al60  1  0.25031343  0.25078055  0.00188057  1
  Al0+  Al61  1  0.24841783  0.25238065  0.33586270  1
  Al0+  Al62  1  0.24968677  0.25194995  0.65788281  1
  Al0+  Al63  1  0.25293668  0.74864865  -0.00578118  1
  Al0+  Al64  1  0.25327830  0.74713833  0.32955946  1
  Al0+  Al65  1  0.25412351  0.75136228  0.66722231  1
  Al0+  Al66  1  0.74871787  0.25096986  -0.00487463  1
  Al0+  Al67  1  0.74758932  0.25131297  0.33286889  1
  Al0+  Al68  1  0.74975767  0.24938548  0.66740964  1
  Al0+  Al69  1  0.75198556  0.74832001  0.00614034  1
  Al0+  Al70  1  0.75283341  0.74799877  0.33799323  1
  Al0+  Al71  1  0.75004089  0.75029513  0.66863517  1
  Al0+  Al72  1  0.42970015  0.32171961  0.65086740  1
  Al0+  Al73  1  0.92784976  0.32185212  0.98605998  1
  Al0+  Al74  1  0.07049335  0.17681042  0.98781666  1
  Al0+  Al75  1  0.82087921  0.07447206  0.34836183  1
  Al0+  Al76  1  0.17846176  0.42914874  0.68262929  1
  Al0+  Al77  1  0.56823695  0.17949144  0.31999166  1
  Al0+  Al78  1  0.06986802  0.17754554  0.65168322  1
  Al0+  Al79  1  0.32369488  0.57224412  0.68301546  1
  Al0+  Al80  1  0.31853170  0.07209021  0.01331533  1
  Al0+  Al81  1  0.42928906  0.32002404  0.98680161  1
  Al0+  Al82  1  0.42946113  0.82307638  0.98253568  1
  Al0+  Al83  1  0.82093927  0.56872046  0.01519774  1
  Al0+  Al84  1  0.17624829  0.92515918  0.01387705  1
  Al0+  Al85  1  0.67832239  0.92780201  0.34824702  1
  Al0+  Al86  1  0.07150426  0.68116735  0.65274787  1
  Al0+  Al87  1  0.68027925  0.93052977  0.01355142  1
  Al0+  Al88  1  0.17824586  0.93017618  0.67978047  1
  Al0+  Al89  1  0.31980482  0.07365837  0.34998997  1
  Al0+  Al90  1  0.07167708  0.68058909  0.31878282  1
  Al0+  Al91  1  0.57352209  0.68059472  0.98508343  1
  Al0+  Al92  1  0.18014912  0.43143637  0.01454206  1
  Al0+  Al93  1  0.07178923  0.68043107  0.98608857  1
  Al0+  Al94  1  0.17995922  0.92636026  0.34739829  1
  Al0+  Al95  1  0.67943350  0.92994973  0.68267384  1
  Si0+  Si96  1  0.67712001  0.43075540  0.34818171  1
  Si0+  Si97  1  0.32113163  0.07286093  0.68185508  1
  Si0+  Si98  1  0.92603355  0.32207351  0.64907760  1
  Si0+  Si99  1  0.92866043  0.32101710  0.32010113  1
  Si0+  Si100  1  0.57275796  0.68051380  0.65046135  1
  Si0+  Si101  1  0.57266751  0.17737640  0.64980238  1
  Si0+  Si102  1  0.67907580  0.42794788  0.68061406  1
  Si0+  Si103  1  0.92555899  0.82137030  0.31640613  1
  Si0+  Si104  1  0.42650791  0.32429449  0.31551610  1
  Si0+  Si105  1  0.32539100  0.57150751  0.01708437  1
  Si0+  Si106  1  0.67569604  0.42628974  0.01717539  1
  Si0+  Si107  1  0.82130770  0.07468957  0.01496990  1
  Si0+  Si108  1  0.82252154  0.56912016  0.35118659  1
  Si0+  Si109  1  0.92728157  0.82121113  0.98433480  1
  Si0+  Si110  1  0.32255770  0.56842421  0.34633045  1
  Si0+  Si111  1  0.92457204  0.82080660  0.64897901  1
  Si0+  Si112  1  0.57222351  0.17603403  0.98251333  1
  Si0+  Si113  1  0.17650276  0.43049408  0.34918375  1
  Si0+  Si114  1  0.82211137  0.07401971  0.68608050  1
  Si0+  Si115  1  0.43095129  0.82273749  0.64882311  1
  Si0+  Si116  1  0.07027888  0.17735561  0.32003799  1
  Si0+  Si117  1  0.57403515  0.67703311  0.31978896  1
  Si0+  Si118  1  0.81989805  0.56952707  0.68073924  1
  Si0+  Si119  1  0.43175763  0.81946302  0.31922543  1
  O2-  O120  1  0.24574283  0.00023066  0.06252623  1
  O2-  O121  1  0.24439215  0.00460620  0.39913270  1
  O2-  O122  1  0.24829217  0.00911272  0.72573766  1
  O2-  O123  1  0.25362632  0.50700034  0.06334973  1
  O2-  O124  1  0.25135579  0.49831588  0.38914708  1
  O2-  O125  1  0.24965531  0.50221333  0.73211977  1
  O2-  O126  1  0.75050932  0.00898778  0.05986077  1
  O2-  O127  1  0.74937204  0.00114422  0.39784263  1
  O2-  O128  1  0.75394097  0.00449689  0.72924166  1
  O2-  O129  1  0.74719233  0.49206446  0.06200446  1
  O2-  O130  1  0.74834901  0.50091021  0.39258596  1
  O2-  O131  1  0.75163195  0.49636477  0.72313587  1
  O2-  O132  1  -0.00330016  0.24692759  0.27919436  1
  O2-  O133  1  -0.00572756  0.25302123  0.60504291  1
  O2-  O134  1  -0.00125835  0.24923648  0.93667755  1
  O2-  O135  1  -0.00002158  0.75850800  0.27303871  1
  O2-  O136  1  0.00028521  0.75935195  0.60487992  1
  O2-  O137  1  0.00307547  0.76085022  0.93949568  1
  O2-  O138  1  0.48993750  0.25033364  0.27283458  1
  O2-  O139  1  0.50396827  0.24598604  0.60525685  1
  O2-  O140  1  0.50353790  0.24506251  0.93911638  1
  O2-  O141  1  0.50939245  0.75372828  0.27921065  1
  O2-  O142  1  0.50185072  0.75046053  0.60675931  1
  O2-  O143  1  0.50152175  0.75024560  0.93266477  1
  O2-  O144  1  0.06893776  0.17816191  0.10207965  1
  O2-  O145  1  0.07061292  0.18062416  0.42518392  1
  O2-  O146  1  0.06991633  0.17713783  0.76420386  1
  O2-  O147  1  0.06783509  0.67908818  0.09950667  1
  O2-  O148  1  0.07053602  0.67824812  0.43213322  1
  O2-  O149  1  0.06764931  0.67867453  0.76521354  1
  O2-  O150  1  0.57330117  0.17765325  0.08834487  1
  O2-  O151  1  0.56896625  0.18423387  0.43329169  1
  O2-  O152  1  0.57454737  0.17882250  0.75504444  1
  O2-  O153  1  0.57239899  0.68214389  0.09957418  1
  O2-  O154  1  0.57168946  0.67254885  0.42509736  1
  O2-  O155  1  0.57588610  0.68024135  0.75471128  1
  O2-  O156  1  0.17387292  0.43043896  0.24430777  1
  O2-  O157  1  0.17958995  0.43152305  0.56795895  1
  O2-  O158  1  0.18086635  0.43031254  0.90205699  1
  O2-  O159  1  0.18421390  0.92488013  0.23453383  1
  O2-  O160  1  0.18297444  0.92908500  0.56649852  1
  O2-  O161  1  0.17865373  0.92690796  0.90011003  1
  O2-  O162  1  0.67517991  0.43274934  0.24374929  1
  O2-  O163  1  0.68025343  0.43015148  0.57482849  1
  O2-  O164  1  0.67518616  0.42847405  0.91141280  1
  O2-  O165  1  0.67988050  0.92710380  0.23499926  1
  O2-  O166  1  0.68060806  0.92954458  0.56971810  1
  O2-  O167  1  0.68265731  0.93032700  0.90028081  1
  O2-  O168  1  0.43195181  0.32056364  0.10009834  1
  O2-  O169  1  0.43090670  0.32926124  0.42088342  1
  O2-  O170  1  0.43103246  0.32190509  0.76371150  1
  O2-  O171  1  0.43183335  0.82226351  0.09694708  1
  O2-  O172  1  0.43002750  0.81556205  0.42469590  1
  O2-  O173  1  0.43284769  0.82427067  0.75320283  1
  O2-  O174  1  0.93035608  0.32016388  0.10058234  1
  O2-  O175  1  0.92988539  0.32445488  0.42530178  1
  O2-  O176  1  0.92212121  0.32232425  0.75372757  1
  O2-  O177  1  0.92363916  0.81780903  0.08987010  1
  O2-  O178  1  0.91920598  0.81543944  0.42170475  1
  O2-  O179  1  0.91805628  0.81497068  0.75399206  1
  O2-  O180  1  0.31979026  0.07297571  0.23700360  1
  O2-  O181  1  0.32314381  0.06929777  0.57610843  1
  O2-  O182  1  0.31686953  0.07339868  0.89951026  1
  O2-  O183  1  0.32642158  0.56725938  0.24183795  1
  O2-  O184  1  0.32329496  0.57101240  0.56811437  1
  O2-  O185  1  0.32633845  0.56839143  0.91192304  1
  O2-  O186  1  0.81878175  0.07592087  0.23488011  1
  O2-  O187  1  0.81987189  0.07588491  0.58053059  1
  O2-  O188  1  0.82035725  0.07370411  0.90940634  1
  O2-  O189  1  0.82388578  0.56792942  0.24665788  1
  O2-  O190  1  0.81736263  0.56860350  0.57501226  1
  O2-  O191  1  0.81977704  0.56849432  0.90170559  1
  O2-  O192  1  0.04522418  0.08369245  0.27593852  1
  O2-  O193  1  0.03709138  0.08127290  0.59661179  1
  O2-  O194  1  0.04089251  0.07850418  0.93468761  1
  O2-  O195  1  0.03482377  0.58450506  0.26670333  1
  O2-  O196  1  0.03677413  0.58535613  0.59750471  1
  O2-  O197  1  0.03293172  0.58610650  0.93376735  1
  O2-  O198  1  0.54108458  0.08112497  0.26802913  1
  O2-  O199  1  0.54567926  0.08365321  0.60443969  1
  O2-  O200  1  0.54680169  0.08296568  0.93705429  1
  O2-  O201  1  0.54171097  0.58763830  0.27029936  1
  O2-  O202  1  0.54666410  0.58843778  0.60165567  1
  O2-  O203  1  0.54950484  0.58097825  0.93306349  1
  O2-  O204  1  0.16144913  0.20866193  0.27341113  1
  O2-  O205  1  0.16443559  0.20964829  0.59400711  1
  O2-  O206  1  0.16763354  0.20854224  0.93556893  1
  O2-  O207  1  0.17000129  0.70468935  0.26516633  1
  O2-  O208  1  0.17023777  0.70980415  0.60040329  1
  O2-  O209  1  0.16997216  0.70147985  0.93204363  1
  O2-  O210  1  0.66356961  0.21459402  0.26544405  1
  O2-  O211  1  0.66637125  0.20375838  0.60337291  1
  O2-  O212  1  0.66533843  0.20051057  0.93496359  1
  O2-  O213  1  0.66920045  0.69756380  0.27642108  1
  O2-  O214  1  0.66431741  0.70870292  0.60133838  1
  O2-  O215  1  0.67277935  0.70886177  0.93449536  1
  O2-  O216  1  0.08411793  0.46246581  0.06968389  1
  O2-  O217  1  0.08656667  0.46169423  0.39822557  1
  O2-  O218  1  0.07831015  0.45621815  0.73199327  1
  O2-  O219  1  0.07497866  0.94612044  0.06447239  1
  O2-  O220  1  0.07837500  0.94428345  0.39809260  1
  O2-  O221  1  0.07788540  0.95209919  0.72949047  1
  O2-  O222  1  0.58388113  0.45504859  0.06508559  1
  O2-  O223  1  0.58618161  0.46054920  0.39743359  1
  O2-  O224  1  0.58849984  0.45841892  0.72701829  1
  O2-  O225  1  0.58300625  0.95796542  0.06642895  1
  O2-  O226  1  0.58025340  0.95530061  0.40144601  1
  O2-  O227  1  0.58304955  0.96076850  0.73649973  1
  O2-  O228  1  0.21214976  0.33603775  0.07021548  1
  O2-  O229  1  0.20070994  0.33801021  0.39654943  1
  O2-  O230  1  0.20874907  0.32935288  0.73042255  1
  O2-  O231  1  0.20931565  0.82666626  0.06428707  1
  O2-  O232  1  0.21792424  0.82918057  0.39916847  1
  O2-  O233  1  0.21463995  0.83543706  0.73209247  1
  O2-  O234  1  0.69792225  0.33092469  0.06131365  1
  O2-  O235  1  0.70542983  0.34015967  0.39712590  1
  O2-  O236  1  0.70258268  0.33522177  0.72721946  1
  O2-  O237  1  0.71386569  0.83563952  0.06847643  1
  O2-  O238  1  0.70741848  0.82871979  0.40183954  1
  O2-  O239  1  0.71105033  0.83265723  0.73500095  1
  O2-  O240  1  0.45857312  0.41554444  0.26772462  1
  O2-  O241  1  0.46452389  0.41764972  0.59578399  1
  O2-  O242  1  0.46200078  0.41472604  0.93049691  1
  O2-  O243  1  0.45409721  0.91296264  0.27416187  1
  O2-  O244  1  0.46140548  0.91403334  0.60115785  1
  O2-  O245  1  0.45944272  0.92050828  0.92886940  1
  O2-  O246  1  0.96029698  0.41168142  0.27235047  1
  O2-  O247  1  0.95110320  0.41554775  0.60143441  1
  O2-  O248  1  0.95555681  0.42072816  0.93571360  1
  O2-  O249  1  0.94286077  0.91817243  0.27453364  1
  O2-  O250  1  0.94065425  0.91754853  0.60681460  1
  O2-  O251  1  0.94036435  0.91721316  0.93927715  1
  O2-  O252  1  0.32973787  0.30531482  0.27377800  1
  O2-  O253  1  0.33430734  0.29432765  0.59333823  1
  O2-  O254  1  0.33317239  0.29012685  0.93247066  1
  O2-  O255  1  0.34445342  0.78401569  0.26877034  1
  O2-  O256  1  0.34063718  0.79385062  0.59921129  1
  O2-  O257  1  0.33303881  0.79336886  0.92734770  1
  O2-  O258  1  0.83497105  0.30017505  0.27388728  1
  O2-  O259  1  0.83185447  0.29645202  0.60151710  1
  O2-  O260  1  0.82782318  0.30018336  0.93257315  1
  O2-  O261  1  0.83458862  0.78806635  0.26810252  1
  O2-  O262  1  0.83454630  0.78636551  0.59929134  1
  O2-  O263  1  0.83762676  0.78511875  0.93680021  1
  O2-  O264  1  0.41694086  0.04224992  0.06589989  1
  O2-  O265  1  0.41646179  0.04207351  0.40440202  1
  O2-  O266  1  0.41343249  0.04466361  0.72840838  1
  O2-  O267  1  0.41843923  0.54218263  0.06309659  1
  O2-  O268  1  0.41419121  0.54143708  0.39635119  1
  O2-  O269  1  0.42294609  0.54326834  0.73336823  1
  O2-  O270  1  0.91320479  0.04677649  0.06285745  1
  O2-  O271  1  0.91823863  0.04617158  0.40386130  1
  O2-  O272  1  0.91552727  0.04855473  0.73112504  1
  O2-  O273  1  0.91533858  0.53794935  0.07344634  1
  O2-  O274  1  0.91221354  0.53634192  0.40040944  1
  O2-  O275  1  0.91204719  0.54355693  0.72679739  1
  O2-  O276  1  0.29342424  0.16976881  0.06918274  1
  O2-  O277  1  0.29654919  0.17469295  0.40092688  1
  O2-  O278  1  0.29917096  0.16928554  0.72146742  1
  O2-  O279  1  0.30409620  0.66701026  0.05996972  1
  O2-  O280  1  0.29538875  0.66000665  0.39406023  1
  O2-  O281  1  0.30126616  0.67237349  0.73237924  1
  O2-  O282  1  0.79899376  0.17009069  0.05917885  1
  O2-  O283  1  0.79138079  0.17304640  0.40208090  1
  O2-  O284  1  0.79629360  0.16775122  0.73198920  1
  O2-  O285  1  0.78828899  0.66261763  0.07344266  1
  O2-  O286  1  0.79689783  0.66033872  0.40033873  1
  O2-  O287  1  0.78891485  0.65969060  0.72801544  1
