# generated using pymatgen
data_Ca2Al2SiO7
_symmetry_space_group_name_H-M   'P 1'
_cell_length_a   15.46133889
_cell_length_b   15.46116473
_cell_length_c   15.28540635
_cell_angle_alpha   89.98335339
_cell_angle_beta   90.00349718
_cell_angle_gamma   90.01446261
_symmetry_Int_Tables_number   1
_chemical_formula_structural   Ca2Al2SiO7
_chemical_formula_sum   'Ca48 Al48 Si24 O168'
_cell_volume   3653.98081152
_cell_formula_units_Z   24
loop_
 _symmetry_equiv_pos_site_id
 _symmetry_equiv_pos_as_xyz
  1  'x, y, z'
loop_
 _atom_type_symbol
 _atom_type_oxidation_number
  Ca2+  2.0
  Al0+  0.0
  Si0+  0.0
  O2-  -2.0
loop_
 _atom_site_type_symbol
 _atom_site_label
 _atom_site_symmetry_multiplicity
 _atom_site_fract_x
 _atom_site_fract_y
 _atom_site_fract_z
 _atom_site_occupancy
  Ca2+  Ca0  1  0.16489714  0.07334300  0.17529214  1
  Ca2+  Ca1  1  0.17396995  0.08261171  0.49958714  1
  Ca2+  Ca2  1  0.17070663  0.07872041  0.84130743  1
  Ca2+  Ca3  1  0.16761771  0.58868831  0.16849036  1
  Ca2+  Ca4  1  0.17133914  0.57925963  0.50698725  1
  Ca2+  Ca5  1  0.17138978  0.57465528  0.84437137  1
  Ca2+  Ca6  1  0.67814201  0.08919077  0.17393043  1
  Ca2+  Ca7  1  0.67342327  0.08022288  0.50437983  1
  Ca2+  Ca8  1  0.67772941  0.07931517  0.83668289  1
  Ca2+  Ca9  1  0.66750784  0.58078330  0.16828791  1
  Ca2+  Ca10  1  0.66305406  0.58816306  0.50411301  1
  Ca2+  Ca11  1  0.66980628  0.58125733  0.84228971  1
  Ca2+  Ca12  1  0.08261409  0.32085531  0.16156936  1
  Ca2+  Ca13  1  0.07804313  0.32827476  0.49044645  1
  Ca2+  Ca14  1  0.09186800  0.33081573  0.83278983  1
  Ca2+  Ca15  1  0.09359871  0.82702469  0.16011779  1
  Ca2+  Ca16  1  0.08730665  0.82850593  0.49213395  1
  Ca2+  Ca17  1  0.08706948  0.82973305  0.83834729  1
  Ca2+  Ca18  1  0.58570574  0.32919559  0.16473307  1
  Ca2+  Ca19  1  0.57768050  0.32450196  0.49098118  1
  Ca2+  Ca20  1  0.58362203  0.33660204  0.83209890  1
  Ca2+  Ca21  1  0.56791819  0.83557573  0.16337834  1
  Ca2+  Ca22  1  0.58039283  0.82786952  0.49336195  1
  Ca2+  Ca23  1  0.57957904  0.82885267  0.82588268  1
  Ca2+  Ca24  1  0.32754075  0.42234878  0.16472701  1
  Ca2+  Ca25  1  0.32466563  0.42273642  0.51014229  1
  Ca2+  Ca26  1  0.32572093  0.42929860  0.83818049  1
  Ca2+  Ca27  1  0.32594805  0.91333566  0.17268381  1
  Ca2+  Ca28  1  0.33566844  0.92305214  0.49525089  1
  Ca2+  Ca29  1  0.33137237  0.91889973  0.83856145  1
  Ca2+  Ca30  1  0.83475534  0.41809942  0.16620053  1
  Ca2+  Ca31  1  0.83429579  0.41460607  0.49900338  1
  Ca2+  Ca32  1  0.82455423  0.42315339  0.84463149  1
  Ca2+  Ca33  1  0.83730424  0.92932099  0.17148772  1
  Ca2+  Ca34  1  0.82977296  0.93004144  0.50683165  1
  Ca2+  Ca35  1  0.82875740  0.92293462  0.83622832  1
  Ca2+  Ca36  1  0.42295654  0.15805254  0.16547228  1
  Ca2+  Ca37  1  0.41906067  0.15991430  0.49163959  1
  Ca2+  Ca38  1  0.41468829  0.16807187  0.82729996  1
  Ca2+  Ca39  1  0.41280833  0.67854612  0.16068553  1
  Ca2+  Ca40  1  0.42604850  0.66924234  0.49204203  1
  Ca2+  Ca41  1  0.41398263  0.66850958  0.82962325  1
  Ca2+  Ca42  1  0.92391332  0.16319124  0.16208840  1
  Ca2+  Ca43  1  0.91827305  0.17043065  0.48921004  1
  Ca2+  Ca44  1  0.92047084  0.15946173  0.83409977  1
  Ca2+  Ca45  1  0.92849192  0.66575885  0.16029414  1
  Ca2+  Ca46  1  0.92472810  0.67177450  0.49068720  1
  Ca2+  Ca47  1  0.92169080  0.65888491  0.83384759  1
  Al0+  Al48  1  0.00105144  -0.00049794  0.00121992  1
  Al0+  Al49  1  0.00001057  -0.00010150  0.34179934  1
  Al0+  Al50  1  0.00081119  0.00019055  0.66805257  1
  Al0+  Al51  1  -0.00142570  0.49726408  0.00196953  1
  Al0+  Al52  1  -0.00177750  0.50080160  0.32727796  1
  Al0+  Al53  1  -0.00100684  0.49758509  0.66782317  1
  Al0+  Al54  1  0.50138532  -0.00030909  -0.00860646  1
  Al0+  Al55  1  0.50062235  -0.00059402  0.32758640  1
  Al0+  Al56  1  0.50034625  -0.00079947  0.67333550  1
  Al0+  Al57  1  0.49936978  0.49925642  0.00810500  1
  Al0+  Al58  1  0.50116202  0.49862809  0.33081186  1
  Al0+  Al59  1  0.49911090  0.49980997  0.66486608  1
  Al0+  Al60  1  0.25267194  0.25093434  -0.00157132  1
  Al0+  Al61  1  0.24879181  0.25145442  0.33325705  1
  Al0+  Al62  1  0.24936476  0.24940857  0.67168971  1
  Al0+  Al63  1  0.25002332  0.75098639  -0.00502506  1
  Al0+  Al64  1  0.25133708  0.74935012  0.33340751  1
  Al0+  Al65  1  0.25126416  0.75183262  0.66667011  1
  Al0+  Al66  1  0.75078958  0.24926566  0.00510811  1
  Al0+  Al67  1  0.74800203  0.25322127  0.33136005  1
  Al0+  Al68  1  0.75114011  0.25049838  0.66950226  1
  Al0+  Al69  1  0.74891717  0.75133835  0.00500901  1
  Al0+  Al70  1  0.75121442  0.74865908  0.32965058  1
  Al0+  Al71  1  0.75038142  0.75053364  0.66554810  1
  Al0+  Al72  1  0.57061866  0.67900787  0.65413811  1
  Al0+  Al73  1  0.56889458  0.17911787  0.32097392  1
  Al0+  Al74  1  0.32082174  0.06999134  0.68047833  1
  Al0+  Al75  1  0.32202993  0.07245290  0.34553686  1
  Al0+  Al76  1  0.82018227  0.06804856  0.01520320  1
  Al0+  Al77  1  0.82169988  0.57350499  0.01642380  1
  Al0+  Al78  1  0.06883522  0.67785491  0.98470368  1
  Al0+  Al79  1  0.17659579  0.42974495  0.68125185  1
  Al0+  Al80  1  0.07142530  0.17758409  0.31949678  1
  Al0+  Al81  1  0.17901504  0.92662791  0.34956074  1
  Al0+  Al82  1  0.42881127  0.82075333  0.98207257  1
  Al0+  Al83  1  0.82017678  0.07306779  0.34791269  1
  Al0+  Al84  1  0.92772087  0.32140645  0.31684194  1
  Al0+  Al85  1  0.18153931  0.93129253  0.01202933  1
  Al0+  Al86  1  0.31868810  0.57238000  0.01665278  1
  Al0+  Al87  1  0.67943782  0.92713632  0.68116090  1
  Al0+  Al88  1  0.43059730  0.81991597  0.31812777  1
  Al0+  Al89  1  0.82200148  0.07314129  0.68271240  1
  Al0+  Al90  1  0.32226127  0.57222183  0.67987293  1
  Al0+  Al91  1  0.57377600  0.67636085  0.31559395  1
  Al0+  Al92  1  0.67813844  0.42885956  0.01679655  1
  Al0+  Al93  1  0.17807942  0.42625029  0.01770422  1
  Al0+  Al94  1  0.07195300  0.17812260  0.98493398  1
  Al0+  Al95  1  0.07076335  0.68089676  0.32149694  1
  Si0+  Si96  1  0.43024257  0.32228255  0.98352095  1
  Si0+  Si97  1  0.57139116  0.17943067  0.65346226  1
  Si0+  Si98  1  0.92795921  0.82342658  0.31846122  1
  Si0+  Si99  1  0.92936869  0.82134583  0.65200242  1
  Si0+  Si100  1  0.17689954  0.92723048  0.68472853  1
  Si0+  Si101  1  0.32477904  0.07301602  0.01499349  1
  Si0+  Si102  1  0.92766218  0.32098140  0.65257391  1
  Si0+  Si103  1  0.17709769  0.43045971  0.34758819  1
  Si0+  Si104  1  0.42592644  0.32311762  0.31669910  1
  Si0+  Si105  1  0.82095946  0.57122031  0.67858612  1
  Si0+  Si106  1  0.07169016  0.17864250  0.65181567  1
  Si0+  Si107  1  0.67532884  0.92816101  0.01811000  1
  Si0+  Si108  1  0.32193223  0.56993519  0.34866986  1
  Si0+  Si109  1  0.42867712  0.31975552  0.65236628  1
  Si0+  Si110  1  0.67867611  0.92719727  0.34799159  1
  Si0+  Si111  1  0.42735573  0.82454710  0.64795168  1
  Si0+  Si112  1  0.92610146  0.82277580  0.98344990  1
  Si0+  Si113  1  0.07035219  0.67802737  0.65301080  1
  Si0+  Si114  1  0.92719499  0.31926081  0.98117511  1
  Si0+  Si115  1  0.82146620  0.57090865  0.34977561  1
  Si0+  Si116  1  0.57167306  0.67748846  0.98411708  1
  Si0+  Si117  1  0.67877918  0.42907672  0.67851631  1
  Si0+  Si118  1  0.67790587  0.43048267  0.35146687  1
  Si0+  Si119  1  0.57302650  0.18028677  0.98229106  1
  O2-  O120  1  0.25499125  0.00656645  0.05887829  1
  O2-  O121  1  0.24907499  0.00215172  0.39732493  1
  O2-  O122  1  0.24692216  -0.00476855  0.72727669  1
  O2-  O123  1  0.24393870  0.50360080  0.06815453  1
  O2-  O124  1  0.25002250  0.49939561  0.39073301  1
  O2-  O125  1  0.24586412  0.50497543  0.72952028  1
  O2-  O126  1  0.74558336  -0.00573913  0.06302766  1
  O2-  O127  1  0.74669366  -0.00377912  0.39343111  1
  O2-  O128  1  0.75042650  0.00018192  0.73127131  1
  O2-  O129  1  0.74900215  0.50203597  0.06629918  1
  O2-  O130  1  0.74762319  0.50315476  0.39380904  1
  O2-  O131  1  0.74699662  0.50287153  0.71971460  1
  O2-  O132  1  -0.00320808  0.24624883  0.26842083  1
  O2-  O133  1  -0.00105580  0.24947793  0.61156488  1
  O2-  O134  1  -0.00111621  0.25425775  0.93567777  1
  O2-  O135  1  0.00022871  0.75902086  0.27443135  1
  O2-  O136  1  0.00176236  0.75106095  0.61006346  1
  O2-  O137  1  -0.01017613  0.74924400  0.93820504  1
  O2-  O138  1  0.49003636  0.24944912  0.27371818  1
  O2-  O139  1  0.49772616  0.24700366  0.60957305  1
  O2-  O140  1  0.50120284  0.25077771  0.94037793  1
  O2-  O141  1  0.50182847  0.74780253  0.26650437  1
  O2-  O142  1  0.49515762  0.75297030  0.60680008  1
  O2-  O143  1  0.50403069  0.74518159  0.93721424  1
  O2-  O144  1  0.07009905  0.17640173  0.09739403  1
  O2-  O145  1  0.07215660  0.18226188  0.43397563  1
  O2-  O146  1  0.07174599  0.17845580  0.75685641  1
  O2-  O147  1  0.07007335  0.68201803  0.09755592  1
  O2-  O148  1  0.06803525  0.67843697  0.43566618  1
  O2-  O149  1  0.06737040  0.67646528  0.75771294  1
  O2-  O150  1  0.57217908  0.17956121  0.08733903  1
  O2-  O151  1  0.56972141  0.18185690  0.43490082  1
  O2-  O152  1  0.57235852  0.18414992  0.75857490  1
  O2-  O153  1  0.57064123  0.67953497  0.08926512  1
  O2-  O154  1  0.57153280  0.67697419  0.42992661  1
  O2-  O155  1  0.57211909  0.67779199  0.76695577  1
  O2-  O156  1  0.17835983  0.43103231  0.24316863  1
  O2-  O157  1  0.17610737  0.43078240  0.56687327  1
  O2-  O158  1  0.18314004  0.42698481  0.90387737  1
  O2-  O159  1  0.18061394  0.92500869  0.23623622  1
  O2-  O160  1  0.17462949  0.92657088  0.57948566  1
  O2-  O161  1  0.18218591  0.93297923  0.89838560  1
  O2-  O162  1  0.67710335  0.42979727  0.24715372  1
  O2-  O163  1  0.68037224  0.42627730  0.57355690  1
  O2-  O164  1  0.67878423  0.42948023  0.90188463  1
  O2-  O165  1  0.68051839  0.92887104  0.24251149  1
  O2-  O166  1  0.68126202  0.92870259  0.56730456  1
  O2-  O167  1  0.67619396  0.92971595  0.91231657  1
  O2-  O168  1  0.43004672  0.32071354  0.08847514  1
  O2-  O169  1  0.42954599  0.32651137  0.42288058  1
  O2-  O170  1  0.43210040  0.32039843  0.75738043  1
  O2-  O171  1  0.42972295  0.82280920  0.09475252  1
  O2-  O172  1  0.43223457  0.81891613  0.43217993  1
  O2-  O173  1  0.42762719  0.82467241  0.75344952  1
  O2-  O174  1  0.92507538  0.31544773  0.08631177  1
  O2-  O175  1  0.93019856  0.32295213  0.43175030  1
  O2-  O176  1  0.92442377  0.32375561  0.75689448  1
  O2-  O177  1  0.92831658  0.82469682  0.08880679  1
  O2-  O178  1  0.92555063  0.81829014  0.42467235  1
  O2-  O179  1  0.92845420  0.82035066  0.75684039  1
  O2-  O180  1  0.32289883  0.07100352  0.23235327  1
  O2-  O181  1  0.32094732  0.07154146  0.56776601  1
  O2-  O182  1  0.32377670  0.07200227  0.90884097  1
  O2-  O183  1  0.32118161  0.56945609  0.24402932  1
  O2-  O184  1  0.32166876  0.56819365  0.56564230  1
  O2-  O185  1  0.32004769  0.56973220  0.90288534  1
  O2-  O186  1  0.81924197  0.07155643  0.23492703  1
  O2-  O187  1  0.81971397  0.07482780  0.56916921  1
  O2-  O188  1  0.81835676  0.06718140  0.90196656  1
  O2-  O189  1  0.82267201  0.56933847  0.24557397  1
  O2-  O190  1  0.82361219  0.56969608  0.57339351  1
  O2-  O191  1  0.81902825  0.57109381  0.90138461  1
  O2-  O192  1  0.04526470  0.07664196  0.27177122  1
  O2-  O193  1  0.04556055  0.08612647  0.60492014  1
  O2-  O194  1  0.03810857  0.08227311  0.93005537  1
  O2-  O195  1  0.03603487  0.58740314  0.26562473  1
  O2-  O196  1  0.03998107  0.58660308  0.60538238  1
  O2-  O197  1  0.03926406  0.57948714  0.93196351  1
  O2-  O198  1  0.54453952  0.08332614  0.26335344  1
  O2-  O199  1  0.54612301  0.08583493  0.60917107  1
  O2-  O200  1  0.54664459  0.08913903  0.93263469  1
  O2-  O201  1  0.54715080  0.57670855  0.26560529  1
  O2-  O202  1  0.54171896  0.58151996  0.59862723  1
  O2-  O203  1  0.54757764  0.58157414  0.94171204  1
  O2-  O204  1  0.16919520  0.20779470  0.26647511  1
  O2-  O205  1  0.16348568  0.20809099  0.60512502  1
  O2-  O206  1  0.17018332  0.20800542  0.93181758  1
  O2-  O207  1  0.16828938  0.70662965  0.26870886  1
  O2-  O208  1  0.16344015  0.70408681  0.60670816  1
  O2-  O209  1  0.16313078  0.71261462  0.92874415  1
  O2-  O210  1  0.66214254  0.21667259  0.26571736  1
  O2-  O211  1  0.66251608  0.21079954  0.60614321  1
  O2-  O212  1  0.66445487  0.21050494  0.93535774  1
  O2-  O213  1  0.67371786  0.70064050  0.26472751  1
  O2-  O214  1  0.66831089  0.70813357  0.59935190  1
  O2-  O215  1  0.66673025  0.70274648  0.93947900  1
  O2-  O216  1  0.07621299  0.44438727  0.06480601  1
  O2-  O217  1  0.08539590  0.46106515  0.39412153  1
  O2-  O218  1  0.07744932  0.45438612  0.73465001  1
  O2-  O219  1  0.08464027  0.95827882  0.06586695  1
  O2-  O220  1  0.08043946  0.95049697  0.40496131  1
  O2-  O221  1  0.08403580  0.95359075  0.73138439  1
  O2-  O222  1  0.58036529  0.45284951  0.07187740  1
  O2-  O223  1  0.58518599  0.45580413  0.39981111  1
  O2-  O224  1  0.58645738  0.45379304  0.72571457  1
  O2-  O225  1  0.58220907  0.95871733  0.06162384  1
  O2-  O226  1  0.58519309  0.95334946  0.39313020  1
  O2-  O227  1  0.58222345  0.95412622  0.73607868  1
  O2-  O228  1  0.21460164  0.32995615  0.07002313  1
  O2-  O229  1  0.20310331  0.33866587  0.39633661  1
  O2-  O230  1  0.20756425  0.33277958  0.73412020  1
  O2-  O231  1  0.21290122  0.83470893  0.06342048  1
  O2-  O232  1  0.21109121  0.82909262  0.40436388  1
  O2-  O233  1  0.20135737  0.83314171  0.73023516  1
  O2-  O234  1  0.70783539  0.33115116  0.06962878  1
  O2-  O235  1  0.70731980  0.33987043  0.40081399  1
  O2-  O236  1  0.70858310  0.33954963  0.72911683  1
  O2-  O237  1  0.69543916  0.83385855  0.06371369  1
  O2-  O238  1  0.70431299  0.83260373  0.39301556  1
  O2-  O239  1  0.71062201  0.82977616  0.73542410  1
  O2-  O240  1  0.45823399  0.41311654  0.26801869  1
  O2-  O241  1  0.45817692  0.40996458  0.60251921  1
  O2-  O242  1  0.46050804  0.41402332  0.93666108  1
  O2-  O243  1  0.45827084  0.91698735  0.26262024  1
  O2-  O244  1  0.45666485  0.91797282  0.60319387  1
  O2-  O245  1  0.46066656  0.91694738  0.92608055  1
  O2-  O246  1  0.95731156  0.41838107  0.26318319  1
  O2-  O247  1  0.95483077  0.41261811  0.60272301  1
  O2-  O248  1  0.94700994  0.41497034  0.93694208  1
  O2-  O249  1  0.94893215  0.91907217  0.27666823  1
  O2-  O250  1  0.95663109  0.91368690  0.60448482  1
  O2-  O251  1  0.95817157  0.91320002  0.93439286  1
  O2-  O252  1  0.33091159  0.30459293  0.27227469  1
  O2-  O253  1  0.33559972  0.29375362  0.60644397  1
  O2-  O254  1  0.33989069  0.29454707  0.93317015  1
  O2-  O255  1  0.33288035  0.78922701  0.26611808  1
  O2-  O256  1  0.33229074  0.80273301  0.60260543  1
  O2-  O257  1  0.33358980  0.78993911  0.92601597  1
  O2-  O258  1  0.82740483  0.29992917  0.26660114  1
  O2-  O259  1  0.83577938  0.29355718  0.60343591  1
  O2-  O260  1  0.83376404  0.29018842  0.93496531  1
  O2-  O261  1  0.83655273  0.79566416  0.26991863  1
  O2-  O262  1  0.83907554  0.79227140  0.60241611  1
  O2-  O263  1  0.82970035  0.80247101  0.93969885  1
  O2-  O264  1  0.41976836  0.04619379  0.05678643  1
  O2-  O265  1  0.42119873  0.04171636  0.39796484  1
  O2-  O266  1  0.41739370  0.04359237  0.73658049  1
  O2-  O267  1  0.41551125  0.54144183  0.07054801  1
  O2-  O268  1  0.41406677  0.53992412  0.39491169  1
  O2-  O269  1  0.41877399  0.53829724  0.73364473  1
  O2-  O270  1  0.91625334  0.03629729  0.06802764  1
  O2-  O271  1  0.91556412  0.04388700  0.40509117  1
  O2-  O272  1  0.92062379  0.04347844  0.73386851  1
  O2-  O273  1  0.91908100  0.54327219  0.06887366  1
  O2-  O274  1  0.91228179  0.53958738  0.39851116  1
  O2-  O275  1  0.91055705  0.53999589  0.72799408  1
  O2-  O276  1  0.30501787  0.16804606  0.05836624  1
  O2-  O277  1  0.29730318  0.17270026  0.39897963  1
  O2-  O278  1  0.29099390  0.16612165  0.73598265  1
  O2-  O279  1  0.29060857  0.67149367  0.06633673  1
  O2-  O280  1  0.29496145  0.66103608  0.39694591  1
  O2-  O281  1  0.30030462  0.67312619  0.72906410  1
  O2-  O282  1  0.78871623  0.16387364  0.06853811  1
  O2-  O283  1  0.78675005  0.17025504  0.39970876  1
  O2-  O284  1  0.79233784  0.17077698  0.73685435  1
  O2-  O285  1  0.79728142  0.67270984  0.06919466  1
  O2-  O286  1  0.79691233  0.66421245  0.39709669  1
  O2-  O287  1  0.79696630  0.66320294  0.72604018  1
