# generated using pymatgen
data_Ca2Al2SiO7
_symmetry_space_group_name_H-M   'P 1'
_cell_length_a   15.45474868
_cell_length_b   15.45460556
_cell_length_c   15.28152066
_cell_angle_alpha   90.00372135
_cell_angle_beta   89.99341712
_cell_angle_gamma   90.00455946
_symmetry_Int_Tables_number   1
_chemical_formula_structural   Ca2Al2SiO7
_chemical_formula_sum   'Ca48 Al48 Si24 O168'
_cell_volume   3649.94600613
_cell_formula_units_Z   24
loop_
 _symmetry_equiv_pos_site_id
 _symmetry_equiv_pos_as_xyz
  1  'x, y, z'
loop_
 _atom_type_symbol
 _atom_type_oxidation_number
  Ca2+  2.0
  Al0+  0.0
  Si0+  0.0
  O2-  -2.0
loop_
 _atom_site_type_symbol
 _atom_site_label
 _atom_site_symmetry_multiplicity
 _atom_site_fract_x
 _atom_site_fract_y
 _atom_site_fract_z
 _atom_site_occupancy
  Ca2+  Ca0  1  0.17200867  0.08839137  0.16850331  1
  Ca2+  Ca1  1  0.16819029  0.07706989  0.50794892  1
  Ca2+  Ca2  1  0.17879207  0.07790120  0.83339892  1
  Ca2+  Ca3  1  0.17021341  0.58142979  0.16833493  1
  Ca2+  Ca4  1  0.17189610  0.58574786  0.50593946  1
  Ca2+  Ca5  1  0.18483638  0.57893008  0.83981793  1
  Ca2+  Ca6  1  0.66073395  0.06922401  0.17228978  1
  Ca2+  Ca7  1  0.67138522  0.07735255  0.50226809  1
  Ca2+  Ca8  1  0.66847435  0.07762724  0.83727414  1
  Ca2+  Ca9  1  0.66511582  0.57484605  0.17252977  1
  Ca2+  Ca10  1  0.67477657  0.58331306  0.50129266  1
  Ca2+  Ca11  1  0.66407364  0.58495661  0.83747238  1
  Ca2+  Ca12  1  0.07951189  0.33490383  0.16609779  1
  Ca2+  Ca13  1  0.07582723  0.32476083  0.48784242  1
  Ca2+  Ca14  1  0.08753148  0.33511036  0.83246799  1
  Ca2+  Ca15  1  0.07647128  0.82685459  0.16952593  1
  Ca2+  Ca16  1  0.07862500  0.82927470  0.49023061  1
  Ca2+  Ca17  1  0.08507421  0.83487766  0.82779091  1
  Ca2+  Ca18  1  0.57611009  0.34317347  0.16146449  1
  Ca2+  Ca19  1  0.57379711  0.33540796  0.49527007  1
  Ca2+  Ca20  1  0.57182710  0.33936827  0.83087891  1
  Ca2+  Ca21  1  0.58555054  0.83008160  0.16146829  1
  Ca2+  Ca22  1  0.57548532  0.83176797  0.49583160  1
  Ca2+  Ca23  1  0.58011334  0.82257267  0.82694745  1
  Ca2+  Ca24  1  0.33699212  0.41980533  0.16645082  1
  Ca2+  Ca25  1  0.33691599  0.42000658  0.50538724  1
  Ca2+  Ca26  1  0.33833837  0.42345205  0.84069080  1
  Ca2+  Ca27  1  0.34108901  0.92488603  0.17281005  1
  Ca2+  Ca28  1  0.32959485  0.91747305  0.51023871  1
  Ca2+  Ca29  1  0.33937348  0.92390400  0.83290569  1
  Ca2+  Ca30  1  0.82089951  0.41890269  0.17883527  1
  Ca2+  Ca31  1  0.83390869  0.42420753  0.50220281  1
  Ca2+  Ca32  1  0.82419575  0.42509919  0.83912909  1
  Ca2+  Ca33  1  0.82179695  0.91009582  0.17340131  1
  Ca2+  Ca34  1  0.83032097  0.91572031  0.50235222  1
  Ca2+  Ca35  1  0.82740552  0.92324019  0.83697258  1
  Ca2+  Ca36  1  0.41503348  0.17805473  0.16126273  1
  Ca2+  Ca37  1  0.40964190  0.17736544  0.49652024  1
  Ca2+  Ca38  1  0.40705510  0.17527299  0.83038724  1
  Ca2+  Ca39  1  0.42200381  0.67232503  0.15898945  1
  Ca2+  Ca40  1  0.41731189  0.67597004  0.49907180  1
  Ca2+  Ca41  1  0.42703789  0.66155764  0.82456687  1
  Ca2+  Ca42  1  0.92119864  0.16934668  0.16754226  1
  Ca2+  Ca43  1  0.92099983  0.16835612  0.49093203  1
  Ca2+  Ca44  1  0.91527693  0.16760321  0.82634727  1
  Ca2+  Ca45  1  0.91534041  0.66363614  0.17057517  1
  Ca2+  Ca46  1  0.92107639  0.66523362  0.48937515  1
  Ca2+  Ca47  1  0.91702785  0.66692118  0.82719648  1
  Al0+  Al48  1  0.00122340  0.00121307  -0.00128045  1
  Al0+  Al49  1  0.00129278  -0.00181932  0.32283224  1
  Al0+  Al50  1  -0.00073365  -0.00028049  0.67501621  1
  Al0+  Al51  1  0.00155655  0.50073251  -0.00011713  1
  Al0+  Al52  1  0.00171156  0.49804377  0.32879655  1
  Al0+  Al53  1  -0.00254477  0.49971391  0.67086955  1
  Al0+  Al54  1  0.50059674  0.00118950  0.00752487  1
  Al0+  Al55  1  0.49933391  0.00170135  0.33746693  1
  Al0+  Al56  1  0.50017764  0.00096492  0.66749541  1
  Al0+  Al57  1  0.50091455  0.50219193  -0.00043286  1
  Al0+  Al58  1  0.49933934  0.50112908  0.33537684  1
  Al0+  Al59  1  0.50102848  0.49905427  0.65905826  1
  Al0+  Al60  1  0.24818774  0.24918513  0.00238211  1
  Al0+  Al61  1  0.25131037  0.25165918  0.32632086  1
  Al0+  Al62  1  0.24752063  0.24799183  0.66405632  1
  Al0+  Al63  1  0.24840357  0.75202231  0.00271131  1
  Al0+  Al64  1  0.25077644  0.75190509  0.32393693  1
  Al0+  Al65  1  0.24981496  0.74754842  0.67286096  1
  Al0+  Al66  1  0.75102322  0.25057104  0.00278159  1
  Al0+  Al67  1  0.74792813  0.24759214  0.33407667  1
  Al0+  Al68  1  0.74856035  0.25009818  0.67016163  1
  Al0+  Al69  1  0.75107006  0.75205850  -0.00246947  1
  Al0+  Al70  1  0.74903960  0.74916291  0.33952041  1
  Al0+  Al71  1  0.75095973  0.74862241  0.66661698  1
  Al0+  Al72  1  0.42964863  0.82305260  0.31934077  1
  Al0+  Al73  1  0.31995978  0.06940743  0.01576246  1
  Al0+  Al74  1  0.42799649  0.31851647  0.65285368  1
  Al0+  Al75  1  0.17896568  0.92678696  0.68040458  1
  Al0+  Al76  1  0.43015776  0.31925133  0.98596068  1
  Al0+  Al77  1  0.32226820  0.07278130  0.68006290  1
  Al0+  Al78  1  0.07287658  0.67702489  0.31813740  1
  Al0+  Al79  1  0.68136801  0.93015962  0.01272589  1
  Al0+  Al80  1  0.57034404  0.68114448  0.98720830  1
  Al0+  Al81  1  0.42788911  0.82159823  0.65334307  1
  Al0+  Al82  1  0.67967505  0.43034792  0.01227555  1
  Al0+  Al83  1  0.82149870  0.57127459  0.68190614  1
  Al0+  Al84  1  0.43133452  0.32257276  0.31795053  1
  Al0+  Al85  1  0.82221023  0.56852142  0.34826689  1
  Al0+  Al86  1  0.32207476  0.56877317  0.67784041  1
  Al0+  Al87  1  0.67580696  0.42605723  0.35097826  1
  Al0+  Al88  1  0.92629642  0.81982378  0.31897508  1
  Al0+  Al89  1  0.82016055  0.07141634  0.67903043  1
  Al0+  Al90  1  0.92640662  0.32062593  0.31856178  1
  Al0+  Al91  1  0.32322908  0.57227647  0.01623876  1
  Al0+  Al92  1  0.17887356  0.42900039  0.01618834  1
  Al0+  Al93  1  0.67765355  0.92819061  0.34955057  1
  Al0+  Al94  1  0.07177352  0.17773576  0.31733150  1
  Al0+  Al95  1  0.57356912  0.67792314  0.64785286  1
  Si0+  Si96  1  0.06980387  0.67804809  0.65499045  1
  Si0+  Si97  1  0.92719155  0.32137410  0.65362833  1
  Si0+  Si98  1  0.18081903  0.42823875  0.34835454  1
  Si0+  Si99  1  0.17510783  0.92817355  0.02055744  1
  Si0+  Si100  1  0.57098127  0.67981272  0.31735783  1
  Si0+  Si101  1  0.67772311  0.92725836  0.68336295  1
  Si0+  Si102  1  0.17671611  0.42717927  0.67999030  1
  Si0+  Si103  1  0.57478016  0.17718845  0.65025425  1
  Si0+  Si104  1  0.17965124  0.92894208  0.34551233  1
  Si0+  Si105  1  0.93015873  0.82115307  0.98251969  1
  Si0+  Si106  1  0.57349242  0.17602388  0.98420502  1
  Si0+  Si107  1  0.42696164  0.82506871  0.98416641  1
  Si0+  Si108  1  0.07178369  0.67852947  0.98188579  1
  Si0+  Si109  1  0.57141643  0.17715771  0.31725791  1
  Si0+  Si110  1  0.82306717  0.57317013  0.01605798  1
  Si0+  Si111  1  0.82422875  0.06965742  0.34761484  1
  Si0+  Si112  1  0.31925496  0.07276768  0.34900700  1
  Si0+  Si113  1  0.67818972  0.42841254  0.68380334  1
  Si0+  Si114  1  0.92787610  0.32161118  0.98318392  1
  Si0+  Si115  1  0.93036304  0.82217361  0.65374394  1
  Si0+  Si116  1  0.31970849  0.57360270  0.34819853  1
  Si0+  Si117  1  0.06799349  0.17845763  0.65330843  1
  Si0+  Si118  1  0.82415131  0.07299936  0.01842684  1
  Si0+  Si119  1  0.06996560  0.17900515  0.98073885  1
  O2-  O120  1  0.24847063  -0.00808930  0.06401185  1
  O2-  O121  1  0.24835019  0.00096621  0.38958434  1
  O2-  O122  1  0.25516675  -0.00462905  0.72927367  1
  O2-  O123  1  0.25115673  0.50024064  0.06690285  1
  O2-  O124  1  0.24881554  0.50185723  0.39087112  1
  O2-  O125  1  0.24904001  0.49166015  0.72378023  1
  O2-  O126  1  0.75403662  0.00616316  0.06172120  1
  O2-  O127  1  0.75645682  0.00081821  0.39319580  1
  O2-  O128  1  0.74480894  -0.00160932  0.72687459  1
  O2-  O129  1  0.75564929  0.50357605  0.05909151  1
  O2-  O130  1  0.75199402  0.49497555  0.39934707  1
  O2-  O131  1  0.74443647  0.49956735  0.72831174  1
  O2-  O132  1  -0.00178768  0.24857105  0.26760330  1
  O2-  O133  1  -0.00251609  0.24978505  0.61116229  1
  O2-  O134  1  -0.00160263  0.25036020  0.93904675  1
  O2-  O135  1  -0.00444061  0.74469739  0.26910627  1
  O2-  O136  1  0.00059245  0.75036307  0.61201716  1
  O2-  O137  1  0.00160604  0.75080530  0.93947857  1
  O2-  O138  1  0.50966234  0.25138530  0.27216456  1
  O2-  O139  1  0.50139096  0.24152074  0.60692224  1
  O2-  O140  1  0.50593816  0.24505803  0.93884628  1
  O2-  O141  1  0.50493133  0.75013936  0.27181630  1
  O2-  O142  1  0.50099823  0.75176194  0.60125502  1
  O2-  O143  1  0.49224950  0.75320100  0.94061114  1
  O2-  O144  1  0.06796689  0.17695488  0.08540178  1
  O2-  O145  1  0.07125069  0.17773265  0.43176666  1
  O2-  O146  1  0.06775867  0.18012536  0.75854026  1
  O2-  O147  1  0.07019013  0.67826648  0.08656714  1
  O2-  O148  1  0.07599980  0.68078496  0.43246996  1
  O2-  O149  1  0.06700578  0.67787096  0.76021330  1
  O2-  O150  1  0.57229655  0.17488934  0.08965500  1
  O2-  O151  1  0.56796892  0.17449344  0.42295015  1
  O2-  O152  1  0.57946366  0.17978745  0.75571921  1
  O2-  O153  1  0.57225315  0.68330824  0.10025871  1
  O2-  O154  1  0.56829503  0.68051132  0.42279079  1
  O2-  O155  1  0.57340057  0.67915445  0.76196976  1
  O2-  O156  1  0.18266822  0.42725322  0.24364669  1
  O2-  O157  1  0.17350934  0.42896664  0.57430745  1
  O2-  O158  1  0.17795446  0.43149541  0.90191828  1
  O2-  O159  1  0.18151882  0.92948367  0.24053114  1
  O2-  O160  1  0.17372609  0.92949685  0.56650821  1
  O2-  O161  1  0.17124665  0.93065371  0.91503163  1
  O2-  O162  1  0.67470109  0.43065059  0.23713568  1
  O2-  O163  1  0.68200695  0.42536380  0.57865438  1
  O2-  O164  1  0.68148867  0.43061327  0.89894724  1
  O2-  O165  1  0.67786115  0.92964338  0.23621643  1
  O2-  O166  1  0.68004601  0.92814771  0.57783641  1
  O2-  O167  1  0.68497545  0.93154238  0.89954467  1
  O2-  O168  1  0.43186068  0.31847777  0.09886669  1
  O2-  O169  1  0.42748658  0.31948688  0.43122358  1
  O2-  O170  1  0.42853593  0.31921386  0.76598362  1
  O2-  O171  1  0.43015921  0.82544479  0.08996041  1
  O2-  O172  1  0.42638765  0.82185951  0.43219728  1
  O2-  O173  1  0.43084344  0.82113656  0.76706634  1
  O2-  O174  1  0.92762554  0.31983910  0.08766927  1
  O2-  O175  1  0.93061987  0.31910935  0.43307729  1
  O2-  O176  1  0.92858319  0.32100017  0.75901085  1
  O2-  O177  1  0.92937443  0.82054792  0.08708408  1
  O2-  O178  1  0.93152165  0.82355661  0.43301058  1
  O2-  O179  1  0.93142158  0.82188024  0.75932311  1
  O2-  O180  1  0.31934968  0.07206434  0.24379371  1
  O2-  O181  1  0.31498080  0.07619513  0.56649580  1
  O2-  O182  1  0.31779359  0.06950301  0.90273433  1
  O2-  O183  1  0.31965865  0.57281653  0.24333750  1
  O2-  O184  1  0.31718698  0.57028014  0.56437160  1
  O2-  O185  1  0.32313771  0.56986797  0.90232029  1
  O2-  O186  1  0.82279703  0.06919584  0.24203738  1
  O2-  O187  1  0.82265469  0.06989908  0.56618115  1
  O2-  O188  1  0.82509349  0.07187225  0.91239372  1
  O2-  O189  1  0.81882480  0.56857072  0.23436885  1
  O2-  O190  1  0.82841707  0.56776397  0.56982309  1
  O2-  O191  1  0.82344052  0.57204328  0.91000916  1
  O2-  O192  1  0.04646586  0.08073964  0.26009739  1
  O2-  O193  1  0.03830067  0.08626068  0.60785998  1
  O2-  O194  1  0.04151793  0.08710597  0.93265596  1
  O2-  O195  1  0.05009808  0.57810459  0.26455323  1
  O2-  O196  1  0.04045469  0.58629447  0.60766244  1
  O2-  O197  1  0.04351110  0.58708495  0.93360252  1
  O2-  O198  1  0.53824680  0.08650507  0.26944436  1
  O2-  O199  1  0.55518504  0.08174230  0.60581377  1
  O2-  O200  1  0.54704645  0.08223479  0.93848150  1
  O2-  O201  1  0.54233476  0.58696609  0.27192641  1
  O2-  O202  1  0.54612629  0.58023954  0.59444350  1
  O2-  O203  1  0.54144206  0.58498017  0.93139931  1
  O2-  O204  1  0.16788325  0.21015446  0.26272535  1
  O2-  O205  1  0.15866844  0.20439993  0.60329446  1
  O2-  O206  1  0.16117927  0.20801330  0.93344881  1
  O2-  O207  1  0.16650034  0.71221297  0.25976230  1
  O2-  O208  1  0.16244941  0.70261852  0.60876829  1
  O2-  O209  1  0.16427344  0.70690624  0.93529251  1
  O2-  O210  1  0.66761524  0.19187649  0.27286227  1
  O2-  O211  1  0.66669165  0.20712198  0.60164466  1
  O2-  O212  1  0.66918173  0.19915702  0.94001386  1
  O2-  O213  1  0.66557491  0.70303953  0.27363260  1
  O2-  O214  1  0.67312087  0.70650872  0.59681343  1
  O2-  O215  1  0.66685858  0.71367929  0.93201124  1
  O2-  O216  1  0.08011653  0.45903473  0.06834094  1
  O2-  O217  1  0.08743948  0.45136519  0.39460215  1
  O2-  O218  1  0.08490157  0.45452564  0.72922536  1
  O2-  O219  1  0.08312780  0.95995264  0.06681026  1
  O2-  O220  1  0.08610185  0.95507562  0.39062385  1
  O2-  O221  1  0.08378917  0.96018472  0.73840214  1
  O2-  O222  1  0.58494928  0.46328630  0.06672123  1
  O2-  O223  1  0.57855485  0.45889097  0.40443542  1
  O2-  O224  1  0.58363265  0.45360157  0.72691961  1
  O2-  O225  1  0.58557115  0.95830678  0.06929107  1
  O2-  O226  1  0.58325935  0.96466422  0.40503748  1
  O2-  O227  1  0.58418711  0.95106901  0.72967481  1
  O2-  O228  1  0.20215620  0.32952313  0.06752701  1
  O2-  O229  1  0.21150236  0.33679880  0.39574792  1
  O2-  O230  1  0.19788243  0.33210405  0.72442659  1
  O2-  O231  1  0.19334024  0.83231418  0.06386400  1
  O2-  O232  1  0.20857660  0.83703565  0.39205061  1
  O2-  O233  1  0.20164271  0.82853430  0.73603406  1
  O2-  O234  1  0.70799543  0.33282441  0.06623367  1
  O2-  O235  1  0.69803491  0.32451194  0.40061104  1
  O2-  O236  1  0.70544131  0.33623226  0.73233850  1
  O2-  O237  1  0.71617922  0.83488488  0.06691674  1
  O2-  O238  1  0.70585991  0.83242558  0.40512891  1
  O2-  O239  1  0.70736701  0.83510937  0.72952725  1
  O2-  O240  1  0.45842797  0.42096533  0.26580673  1
  O2-  O241  1  0.45998408  0.41306719  0.59616085  1
  O2-  O242  1  0.46206672  0.41617360  0.93330319  1
  O2-  O243  1  0.46011192  0.92098700  0.26799176  1
  O2-  O244  1  0.45195573  0.92244780  0.60182095  1
  O2-  O245  1  0.45651544  0.91846193  0.93979780  1
  O2-  O246  1  0.95648044  0.41691416  0.26350912  1
  O2-  O247  1  0.95657485  0.41284624  0.60655183  1
  O2-  O248  1  0.95632374  0.41393981  0.93612030  1
  O2-  O249  1  0.95720917  0.91478265  0.26048721  1
  O2-  O250  1  0.95873540  0.91435689  0.60768520  1
  O2-  O251  1  0.95840617  0.91407209  0.93602690  1
  O2-  O252  1  0.33688135  0.28875148  0.26245890  1
  O2-  O253  1  0.33023511  0.28935170  0.59830603  1
  O2-  O254  1  0.33213885  0.28750592  0.93460110  1
  O2-  O255  1  0.33521761  0.79371960  0.26119975  1
  O2-  O256  1  0.32813520  0.79112204  0.60279054  1
  O2-  O257  1  0.32978310  0.80648335  0.94259713  1
  O2-  O258  1  0.82726785  0.29261897  0.26666478  1
  O2-  O259  1  0.83522506  0.29406957  0.60732822  1
  O2-  O260  1  0.83608224  0.29344246  0.93473304  1
  O2-  O261  1  0.82682188  0.79237434  0.26786245  1
  O2-  O262  1  0.83819798  0.79663993  0.60723887  1
  O2-  O263  1  0.83959769  0.79346478  0.93259104  1
  O2-  O264  1  0.41677005  0.04337407  0.07175944  1
  O2-  O265  1  0.41047274  0.04636201  0.39724375  1
  O2-  O266  1  0.42285133  0.05251997  0.73254364  1
  O2-  O267  1  0.42074499  0.54409329  0.06948570  1
  O2-  O268  1  0.41086674  0.54592935  0.39609018  1
  O2-  O269  1  0.41981521  0.53826059  0.72907936  1
  O2-  O270  1  0.91774447  0.04526446  0.06278811  1
  O2-  O271  1  0.91935243  0.04408997  0.39103238  1
  O2-  O272  1  0.91393567  0.03981064  0.73859553  1
  O2-  O273  1  0.91729808  0.54879475  0.06017904  1
  O2-  O274  1  0.92333399  0.54225007  0.39845978  1
  O2-  O275  1  0.91607386  0.53748163  0.73996906  1
  O2-  O276  1  0.28422739  0.16406799  0.06975222  1
  O2-  O277  1  0.28944921  0.16505582  0.39426336  1
  O2-  O278  1  0.28498579  0.16819775  0.73501937  1
  O2-  O279  1  0.29400122  0.67185956  0.06703345  1
  O2-  O280  1  0.28965269  0.66613591  0.39310624  1
  O2-  O281  1  0.28987021  0.66214447  0.73650692  1
  O2-  O282  1  0.80243258  0.16754888  0.06320217  1
  O2-  O283  1  0.79906069  0.16282986  0.39486469  1
  O2-  O284  1  0.79146107  0.16786539  0.73564103  1
  O2-  O285  1  0.79850246  0.66760412  0.05938205  1
  O2-  O286  1  0.79435994  0.66645841  0.40274277  1
  O2-  O287  1  0.79514378  0.66937974  0.73554247  1
