# generated using pymatgen
data_Ca2Al2SiO7
_symmetry_space_group_name_H-M   'P 1'
_cell_length_a   15.45757987
_cell_length_b   15.45933558
_cell_length_c   15.28293747
_cell_angle_alpha   89.98006866
_cell_angle_beta   90.00123127
_cell_angle_gamma   90.01468623
_symmetry_Int_Tables_number   1
_chemical_formula_structural   Ca2Al2SiO7
_chemical_formula_sum   'Ca48 Al48 Si24 O168'
_cell_volume   3652.07022007
_cell_formula_units_Z   24
loop_
 _symmetry_equiv_pos_site_id
 _symmetry_equiv_pos_as_xyz
  1  'x, y, z'
loop_
 _atom_type_symbol
 _atom_type_oxidation_number
  Ca2+  2.0
  Al0+  0.0
  Si0+  0.0
  O2-  -2.0
loop_
 _atom_site_type_symbol
 _atom_site_label
 _atom_site_symmetry_multiplicity
 _atom_site_fract_x
 _atom_site_fract_y
 _atom_site_fract_z
 _atom_site_occupancy
  Ca2+  Ca0  1  0.16539042  0.08336723  0.17079174  1
  Ca2+  Ca1  1  0.16401105  0.07407267  0.50574865  1
  Ca2+  Ca2  1  0.17534531  0.08451414  0.83833572  1
  Ca2+  Ca3  1  0.17040359  0.58835990  0.17594486  1
  Ca2+  Ca4  1  0.17494639  0.58024217  0.50632462  1
  Ca2+  Ca5  1  0.16930500  0.57682824  0.83476318  1
  Ca2+  Ca6  1  0.67675783  0.09141846  0.17295437  1
  Ca2+  Ca7  1  0.67690182  0.09438075  0.50053037  1
  Ca2+  Ca8  1  0.67961423  0.08776847  0.83858082  1
  Ca2+  Ca9  1  0.66286238  0.58001984  0.16723277  1
  Ca2+  Ca10  1  0.67173547  0.57739983  0.50892814  1
  Ca2+  Ca11  1  0.67169151  0.57577491  0.84139076  1
  Ca2+  Ca12  1  0.07628142  0.32370039  0.16285184  1
  Ca2+  Ca13  1  0.07723018  0.32956985  0.49267821  1
  Ca2+  Ca14  1  0.08575875  0.32791742  0.82899856  1
  Ca2+  Ca15  1  0.08948805  0.82447728  0.16538010  1
  Ca2+  Ca16  1  0.08853221  0.83177569  0.49398323  1
  Ca2+  Ca17  1  0.08648893  0.82860660  0.83148652  1
  Ca2+  Ca18  1  0.57792365  0.33163271  0.16181890  1
  Ca2+  Ca19  1  0.57967993  0.33282892  0.49846733  1
  Ca2+  Ca20  1  0.57499832  0.34275011  0.83029602  1
  Ca2+  Ca21  1  0.58643555  0.82075442  0.16186550  1
  Ca2+  Ca22  1  0.57948508  0.82446806  0.49200437  1
  Ca2+  Ca23  1  0.58576091  0.82687077  0.83177052  1
  Ca2+  Ca24  1  0.33397166  0.42058883  0.16853630  1
  Ca2+  Ca25  1  0.33022557  0.42524402  0.50853317  1
  Ca2+  Ca26  1  0.33301199  0.41226934  0.83311467  1
  Ca2+  Ca27  1  0.32813674  0.92288637  0.17189713  1
  Ca2+  Ca28  1  0.32066086  0.92147848  0.50634546  1
  Ca2+  Ca29  1  0.33126857  0.92882458  0.83478957  1
  Ca2+  Ca30  1  0.83114659  0.41672725  0.16701257  1
  Ca2+  Ca31  1  0.82945378  0.41931043  0.50778804  1
  Ca2+  Ca32  1  0.82059410  0.42382233  0.83859595  1
  Ca2+  Ca33  1  0.83667347  0.92775413  0.16885453  1
  Ca2+  Ca34  1  0.83578694  0.93075828  0.50293294  1
  Ca2+  Ca35  1  0.83539204  0.92630963  0.83592879  1
  Ca2+  Ca36  1  0.42007616  0.17018157  0.15667052  1
  Ca2+  Ca37  1  0.41741121  0.17223996  0.49736169  1
  Ca2+  Ca38  1  0.41067864  0.17559936  0.82710642  1
  Ca2+  Ca39  1  0.42530897  0.66268562  0.16445023  1
  Ca2+  Ca40  1  0.41679023  0.66133316  0.49317861  1
  Ca2+  Ca41  1  0.42295570  0.66022236  0.82910377  1
  Ca2+  Ca42  1  0.92272975  0.16410101  0.16572541  1
  Ca2+  Ca43  1  0.91741610  0.17236667  0.48848390  1
  Ca2+  Ca44  1  0.92070363  0.15852170  0.83077927  1
  Ca2+  Ca45  1  0.92820153  0.66444962  0.15730116  1
  Ca2+  Ca46  1  0.92290459  0.66704398  0.49344430  1
  Ca2+  Ca47  1  0.91798344  0.65803799  0.83085762  1
  Al0+  Al48  1  0.00095412  -0.00173084  -0.00020246  1
  Al0+  Al49  1  -0.00059646  0.00021763  0.33840049  1
  Al0+  Al50  1  -0.00045275  -0.00351519  0.67305114  1
  Al0+  Al51  1  -0.00004362  0.49818264  -0.00193888  1
  Al0+  Al52  1  -0.00105957  0.50026628  0.32537830  1
  Al0+  Al53  1  0.00164571  0.49877820  0.67096863  1
  Al0+  Al54  1  0.50036358  -0.00006399  0.00336345  1
  Al0+  Al55  1  0.50078061  -0.00016775  0.32975842  1
  Al0+  Al56  1  0.50093345  -0.00203514  0.66654930  1
  Al0+  Al57  1  0.49940771  0.50012941  -0.00379111  1
  Al0+  Al58  1  0.49997381  0.50050570  0.33407174  1
  Al0+  Al59  1  0.49993166  0.49859792  0.66606296  1
  Al0+  Al60  1  0.24965015  0.24975783  -0.00181480  1
  Al0+  Al61  1  0.24902259  0.25144936  0.33059906  1
  Al0+  Al62  1  0.25036775  0.24977393  0.66387207  1
  Al0+  Al63  1  0.24967233  0.75049814  -0.00574553  1
  Al0+  Al64  1  0.25125561  0.75200929  0.33735392  1
  Al0+  Al65  1  0.25129583  0.74962053  0.67399349  1
  Al0+  Al66  1  0.74948202  0.25134305  0.00845946  1
  Al0+  Al67  1  0.74755527  0.25265234  0.32975948  1
  Al0+  Al68  1  0.75064802  0.25053713  0.67553056  1
  Al0+  Al69  1  0.75163178  0.75038285  -0.00164056  1
  Al0+  Al70  1  0.74959081  0.75037933  0.32924789  1
  Al0+  Al71  1  0.75284369  0.75198667  0.66606000  1
  Al0+  Al72  1  0.56922979  0.17914819  0.32036710  1
  Al0+  Al73  1  0.07204061  0.67694224  0.98372633  1
  Al0+  Al74  1  0.92678259  0.32248128  0.31808202  1
  Al0+  Al75  1  0.07117008  0.17688872  0.32004547  1
  Al0+  Al76  1  0.07166726  0.68125052  0.32261981  1
  Al0+  Al77  1  0.67889657  0.42902790  0.68107574  1
  Al0+  Al78  1  0.18045163  0.93136902  0.34619650  1
  Al0+  Al79  1  0.82183004  0.07013959  0.01603602  1
  Al0+  Al80  1  0.06870524  0.17853172  0.98483753  1
  Al0+  Al81  1  0.17809306  0.92808815  0.68460474  1
  Al0+  Al82  1  0.32242794  0.07127263  0.67942035  1
  Al0+  Al83  1  0.82223538  0.57170515  0.01746885  1
  Al0+  Al84  1  0.32023291  0.56913038  0.34506909  1
  Al0+  Al85  1  0.17854432  0.42739204  0.68062469  1
  Al0+  Al86  1  0.67612253  0.43130469  0.01894510  1
  Al0+  Al87  1  0.82239776  0.57326357  0.67931808  1
  Al0+  Al88  1  0.42879509  0.32045608  0.65017406  1
  Al0+  Al89  1  0.81946261  0.07095190  0.68000295  1
  Al0+  Al90  1  0.42986579  0.31919917  0.98592702  1
  Al0+  Al91  1  0.32052133  0.07250977  0.01485623  1
  Al0+  Al92  1  0.32176721  0.57039953  0.68315221  1
  Al0+  Al93  1  0.57115426  0.67830529  0.32052166  1
  Al0+  Al94  1  0.57048342  0.68042143  0.98432812  1
  Al0+  Al95  1  0.81805463  0.07121969  0.34718793  1
  Si0+  Si96  1  0.57433638  0.17658207  0.65205295  1
  Si0+  Si97  1  0.42779225  0.82398974  0.98172448  1
  Si0+  Si98  1  0.67889060  0.43137311  0.34919849  1
  Si0+  Si99  1  0.67740068  0.92744959  0.01746817  1
  Si0+  Si100  1  0.42769518  0.32257279  0.31721040  1
  Si0+  Si101  1  0.42770010  0.82194827  0.31687917  1
  Si0+  Si102  1  0.42834107  0.82132028  0.65076670  1
  Si0+  Si103  1  0.06976640  0.17662246  0.65221101  1
  Si0+  Si104  1  0.92730827  0.82260485  0.31719573  1
  Si0+  Si105  1  0.17894010  0.42799778  0.01597498  1
  Si0+  Si106  1  0.82265893  0.57282993  0.34661391  1
  Si0+  Si107  1  0.17979181  0.92729112  0.01789257  1
  Si0+  Si108  1  0.92617170  0.32099714  0.98071047  1
  Si0+  Si109  1  0.07174357  0.67855103  0.65188971  1
  Si0+  Si110  1  0.92872944  0.31996218  0.65435592  1
  Si0+  Si111  1  0.67763491  0.92613338  0.68195152  1
  Si0+  Si112  1  0.57150168  0.68003507  0.65144153  1
  Si0+  Si113  1  0.31913628  0.57190080  0.01454513  1
  Si0+  Si114  1  0.17497448  0.42754934  0.34754714  1
  Si0+  Si115  1  0.32491866  0.07489032  0.34875621  1
  Si0+  Si116  1  0.92958597  0.82185236  0.64971244  1
  Si0+  Si117  1  0.57358640  0.17684912  0.98356937  1
  Si0+  Si118  1  0.67676255  0.92559118  0.34969459  1
  Si0+  Si119  1  0.92940247  0.82131210  0.98210993  1
  O2-  O120  1  0.24751350  -0.00338877  0.06214112  1
  O2-  O121  1  0.25257184  0.00954945  0.39196881  1
  O2-  O122  1  0.24880333  0.00228934  0.73180684  1
  O2-  O123  1  0.24566420  0.50386494  0.05757403  1
  O2-  O124  1  0.24425898  0.49576271  0.39140396  1
  O2-  O125  1  0.25130069  0.49731321  0.73313147  1
  O2-  O126  1  0.74330924  -0.00143628  0.06178014  1
  O2-  O127  1  0.74238744  -0.00311748  0.39450256  1
  O2-  O128  1  0.74179293  -0.00113254  0.72578234  1
  O2-  O129  1  0.74922279  0.50221699  0.06979994  1
  O2-  O130  1  0.75160483  0.50209881  0.38952693  1
  O2-  O131  1  0.74830945  0.50427576  0.72915858  1
  O2-  O132  1  -0.00034568  0.24969487  0.27033259  1
  O2-  O133  1  -0.00159099  0.24795485  0.61079252  1
  O2-  O134  1  -0.00805338  0.24987422  0.93557007  1
  O2-  O135  1  -0.00465004  0.75312154  0.27359211  1
  O2-  O136  1  0.00030647  0.74945571  0.60912792  1
  O2-  O137  1  -0.00607721  0.74859214  0.93755592  1
  O2-  O138  1  0.48926404  0.24764943  0.27326279  1
  O2-  O139  1  0.50361598  0.24326164  0.60726051  1
  O2-  O140  1  0.50449665  0.24400916  0.93871844  1
  O2-  O141  1  0.49846539  0.75495506  0.27344194  1
  O2-  O142  1  0.49866487  0.74911402  0.60837818  1
  O2-  O143  1  0.49663397  0.75567573  0.93673554  1
  O2-  O144  1  0.06848234  0.17984833  0.09781362  1
  O2-  O145  1  0.06900842  0.17741756  0.43426619  1
  O2-  O146  1  0.06854243  0.17711859  0.75744295  1
  O2-  O147  1  0.07550990  0.68093423  0.09715661  1
  O2-  O148  1  0.07034472  0.68146171  0.43595650  1
  O2-  O149  1  0.06992217  0.67921031  0.75688528  1
  O2-  O150  1  0.57117303  0.17742850  0.08941141  1
  O2-  O151  1  0.57096662  0.18297882  0.43376504  1
  O2-  O152  1  0.57552833  0.17564119  0.75737593  1
  O2-  O153  1  0.56708675  0.68081183  0.09767742  1
  O2-  O154  1  0.57104210  0.67891810  0.43397791  1
  O2-  O155  1  0.57192017  0.68324795  0.75643305  1
  O2-  O156  1  0.17645433  0.42799250  0.24177266  1
  O2-  O157  1  0.17576897  0.43092924  0.56671577  1
  O2-  O158  1  0.18085223  0.42714131  0.91097406  1
  O2-  O159  1  0.18363459  0.92846729  0.23325619  1
  O2-  O160  1  0.17823097  0.92840006  0.57063097  1
  O2-  O161  1  0.18115888  0.92713160  0.91251744  1
  O2-  O162  1  0.67561560  0.43311939  0.24459153  1
  O2-  O163  1  0.68166182  0.42891420  0.56658024  1
  O2-  O164  1  0.67590525  0.43328786  0.90556907  1
  O2-  O165  1  0.67895243  0.92316106  0.24439657  1
  O2-  O166  1  0.67966092  0.92191123  0.57650138  1
  O2-  O167  1  0.67768930  0.92778215  0.91152695  1
  O2-  O168  1  0.42997014  0.31898049  0.09951485  1
  O2-  O169  1  0.43015268  0.32429715  0.42269193  1
  O2-  O170  1  0.42979059  0.31981539  0.76303771  1
  O2-  O171  1  0.42692324  0.82231172  0.08744524  1
  O2-  O172  1  0.42826636  0.82137007  0.42271380  1
  O2-  O173  1  0.43123206  0.82293090  0.75569492  1
  O2-  O174  1  0.92945942  0.32148300  0.08630714  1
  O2-  O175  1  0.92664385  0.32282465  0.43270995  1
  O2-  O176  1  0.92908912  0.31871790  0.75913182  1
  O2-  O177  1  0.93210160  0.82315628  0.08778330  1
  O2-  O178  1  0.92608073  0.82090640  0.42310774  1
  O2-  O179  1  0.92802268  0.82364499  0.75445637  1
  O2-  O180  1  0.32621034  0.07234255  0.24314659  1
  O2-  O181  1  0.32178233  0.06869558  0.56551606  1
  O2-  O182  1  0.31927287  0.07158125  0.90199547  1
  O2-  O183  1  0.32095348  0.56792370  0.23147042  1
  O2-  O184  1  0.31981587  0.57138762  0.56912899  1
  O2-  O185  1  0.31889784  0.57095193  0.90976690  1
  O2-  O186  1  0.81830667  0.06815980  0.23444430  1
  O2-  O187  1  0.81960554  0.07185697  0.56684282  1
  O2-  O188  1  0.82139756  0.06686012  0.90260920  1
  O2-  O189  1  0.82264716  0.57347819  0.24212900  1
  O2-  O190  1  0.82176132  0.57269909  0.56477156  1
  O2-  O191  1  0.82032957  0.56927002  0.90388823  1
  O2-  O192  1  0.04113287  0.07864935  0.26775060  1
  O2-  O193  1  0.04051551  0.08352158  0.60811485  1
  O2-  O194  1  0.04071715  0.08052913  0.93182859  1
  O2-  O195  1  0.04459028  0.58531697  0.26612158  1
  O2-  O196  1  0.04459296  0.58609165  0.60508187  1
  O2-  O197  1  0.04418578  0.57900344  0.93090543  1
  O2-  O198  1  0.54791502  0.08006897  0.26604436  1
  O2-  O199  1  0.55367566  0.08121773  0.60607516  1
  O2-  O200  1  0.55157256  0.08126007  0.93982161  1
  O2-  O201  1  0.53665493  0.58347889  0.26562169  1
  O2-  O202  1  0.54579457  0.58768413  0.60470420  1
  O2-  O203  1  0.53676237  0.58561825  0.92987644  1
  O2-  O204  1  0.17047740  0.20280986  0.26671330  1
  O2-  O205  1  0.16120085  0.20273677  0.60400559  1
  O2-  O206  1  0.16425624  0.21293781  0.93143767  1
  O2-  O207  1  0.16780057  0.71484284  0.26866506  1
  O2-  O208  1  0.16474198  0.70761426  0.60723744  1
  O2-  O209  1  0.16719414  0.71037107  0.92794744  1
  O2-  O210  1  0.66237020  0.21515790  0.26406580  1
  O2-  O211  1  0.66764531  0.20717470  0.60669048  1
  O2-  O212  1  0.66844407  0.20311160  0.94068016  1
  O2-  O213  1  0.66729844  0.70777853  0.26460853  1
  O2-  O214  1  0.66335576  0.71025296  0.60433104  1
  O2-  O215  1  0.66771563  0.71126648  0.93121302  1
  O2-  O216  1  0.08542800  0.45105508  0.06119824  1
  O2-  O217  1  0.08084623  0.45357466  0.39220631  1
  O2-  O218  1  0.08216636  0.45599304  0.73720541  1
  O2-  O219  1  0.08579874  0.95135809  0.06273944  1
  O2-  O220  1  0.08333917  0.95692662  0.40226175  1
  O2-  O221  1  0.07973287  0.95251982  0.73831291  1
  O2-  O222  1  0.57752376  0.46295153  0.07072477  1
  O2-  O223  1  0.58831935  0.46112078  0.39809951  1
  O2-  O224  1  0.58077038  0.45687591  0.73220629  1
  O2-  O225  1  0.58284636  0.94758218  0.06386359  1
  O2-  O226  1  0.58124790  0.94741270  0.39392362  1
  O2-  O227  1  0.58286667  0.94533175  0.72760200  1
  O2-  O228  1  0.21184818  0.33877701  0.06470644  1
  O2-  O229  1  0.19871348  0.33333007  0.39382858  1
  O2-  O230  1  0.20516340  0.32847487  0.73207931  1
  O2-  O231  1  0.20794168  0.83333194  0.06285625  1
  O2-  O232  1  0.21481268  0.83725437  0.40367650  1
  O2-  O233  1  0.20848361  0.83144248  0.73833947  1
  O2-  O234  1  0.70232273  0.33228396  0.07180502  1
  O2-  O235  1  0.70619755  0.33966251  0.39617527  1
  O2-  O236  1  0.70770357  0.33328492  0.73791845  1
  O2-  O237  1  0.70631750  0.83486253  0.06358732  1
  O2-  O238  1  0.70455069  0.83250729  0.39705258  1
  O2-  O239  1  0.70895222  0.83572395  0.73130022  1
  O2-  O240  1  0.46094771  0.41321988  0.26979129  1
  O2-  O241  1  0.46122706  0.41701844  0.59526018  1
  O2-  O242  1  0.45948362  0.41566408  0.93147711  1
  O2-  O243  1  0.45060000  0.91571091  0.26974538  1
  O2-  O244  1  0.45658971  0.91208855  0.60055526  1
  O2-  O245  1  0.45517211  0.91766736  0.93599545  1
  O2-  O246  1  0.95436464  0.41924255  0.26130382  1
  O2-  O247  1  0.95718107  0.41189805  0.60652788  1
  O2-  O248  1  0.95452929  0.41339277  0.93420836  1
  O2-  O249  1  0.95454187  0.91581754  0.27244959  1
  O2-  O250  1  0.95948330  0.91312887  0.60134599  1
  O2-  O251  1  0.96020634  0.91244889  0.93359156  1
  O2-  O252  1  0.33165169  0.30611988  0.27265574  1
  O2-  O253  1  0.33202424  0.29120786  0.59425564  1
  O2-  O254  1  0.33365925  0.28839089  0.93174657  1
  O2-  O255  1  0.33598078  0.79345559  0.26943648  1
  O2-  O256  1  0.33562268  0.79293324  0.60519635  1
  O2-  O257  1  0.33487188  0.79886361  0.93468628  1
  O2-  O258  1  0.82930609  0.29480894  0.26424864  1
  O2-  O259  1  0.83604138  0.29248716  0.60782961  1
  O2-  O260  1  0.83004695  0.29770541  0.93941648  1
  O2-  O261  1  0.83394189  0.79961727  0.26961060  1
  O2-  O262  1  0.83775569  0.79647857  0.59996793  1
  O2-  O263  1  0.83425009  0.80225219  0.93631111  1
  O2-  O264  1  0.41820400  0.04301687  0.06822391  1
  O2-  O265  1  0.41808226  0.04681563  0.39482925  1
  O2-  O266  1  0.42085975  0.04155859  0.73230460  1
  O2-  O267  1  0.41020026  0.54116651  0.06102085  1
  O2-  O268  1  0.41604961  0.53748625  0.40075900  1
  O2-  O269  1  0.42082305  0.54337807  0.73346502  1
  O2-  O270  1  0.91753360  0.03421726  0.06871004  1
  O2-  O271  1  0.91339909  0.03963602  0.40307111  1
  O2-  O272  1  0.91310127  0.03472912  0.73534140  1
  O2-  O273  1  0.92195423  0.54169153  0.06784089  1
  O2-  O274  1  0.91489763  0.54484612  0.39341711  1
  O2-  O275  1  0.91928031  0.54378253  0.73252025  1
  O2-  O276  1  0.28812581  0.16828471  0.06894276  1
  O2-  O277  1  0.30362413  0.17084082  0.39177584  1
  O2-  O278  1  0.29474031  0.16973871  0.73048060  1
  O2-  O279  1  0.29394839  0.66558801  0.05982917  1
  O2-  O280  1  0.29248897  0.66612072  0.39951153  1
  O2-  O281  1  0.29528243  0.66787422  0.73763227  1
  O2-  O282  1  0.79452822  0.16712164  0.06998752  1
  O2-  O283  1  0.78533782  0.16883632  0.39887432  1
  O2-  O284  1  0.79234321  0.16567682  0.73821393  1
  O2-  O285  1  0.79887452  0.67316694  0.06617023  1
  O2-  O286  1  0.79547636  0.66550088  0.39333483  1
  O2-  O287  1  0.79850116  0.67320361  0.73074865  1
