# generated using pymatgen
data_Ca2Al2SiO7
_symmetry_space_group_name_H-M   'P 1'
_cell_length_a   15.45685397
_cell_length_b   15.45624511
_cell_length_c   15.28263584
_cell_angle_alpha   89.99638059
_cell_angle_beta   89.99789071
_cell_angle_gamma   89.98489054
_symmetry_Int_Tables_number   1
_chemical_formula_structural   Ca2Al2SiO7
_chemical_formula_sum   'Ca48 Al48 Si24 O168'
_cell_volume   3651.09680955
_cell_formula_units_Z   24
loop_
 _symmetry_equiv_pos_site_id
 _symmetry_equiv_pos_as_xyz
  1  'x, y, z'
loop_
 _atom_type_symbol
 _atom_type_oxidation_number
  Ca2+  2.0
  Al0+  0.0
  Si0+  0.0
  O2-  -2.0
loop_
 _atom_site_type_symbol
 _atom_site_label
 _atom_site_symmetry_multiplicity
 _atom_site_fract_x
 _atom_site_fract_y
 _atom_site_fract_z
 _atom_site_occupancy
  Ca2+  Ca0  1  0.17122524  0.07801103  0.17164359  1
  Ca2+  Ca1  1  0.17745814  0.07570976  0.51067244  1
  Ca2+  Ca2  1  0.16368176  0.07542389  0.83613013  1
  Ca2+  Ca3  1  0.17444354  0.59082791  0.16875697  1
  Ca2+  Ca4  1  0.16861519  0.59080132  0.50244903  1
  Ca2+  Ca5  1  0.16898380  0.58540019  0.83973553  1
  Ca2+  Ca6  1  0.67134967  0.08377090  0.17776257  1
  Ca2+  Ca7  1  0.66919382  0.08086397  0.50361012  1
  Ca2+  Ca8  1  0.66478118  0.07723481  0.83110756  1
  Ca2+  Ca9  1  0.66282421  0.58273576  0.17362282  1
  Ca2+  Ca10  1  0.67223480  0.58359496  0.51071974  1
  Ca2+  Ca11  1  0.67219362  0.57977666  0.83140859  1
  Ca2+  Ca12  1  0.08467772  0.32384770  0.16105828  1
  Ca2+  Ca13  1  0.07965896  0.32784824  0.50382512  1
  Ca2+  Ca14  1  0.08399325  0.31925441  0.82336429  1
  Ca2+  Ca15  1  0.08711073  0.82625401  0.16350322  1
  Ca2+  Ca16  1  0.08466241  0.82505054  0.49676974  1
  Ca2+  Ca17  1  0.09538848  0.82492895  0.82898238  1
  Ca2+  Ca18  1  0.57749580  0.32552705  0.16374707  1
  Ca2+  Ca19  1  0.58112362  0.33105464  0.49893893  1
  Ca2+  Ca20  1  0.57320492  0.33654061  0.82704485  1
  Ca2+  Ca21  1  0.56939186  0.82920832  0.16629016  1
  Ca2+  Ca22  1  0.57570637  0.83456752  0.49432710  1
  Ca2+  Ca23  1  0.57087571  0.83737606  0.82562359  1
  Ca2+  Ca24  1  0.33783141  0.42824599  0.16923699  1
  Ca2+  Ca25  1  0.33673207  0.42447213  0.50415433  1
  Ca2+  Ca26  1  0.33804492  0.42135837  0.84020357  1
  Ca2+  Ca27  1  0.32988256  0.91329638  0.17097901  1
  Ca2+  Ca28  1  0.33724552  0.92380440  0.50831121  1
  Ca2+  Ca29  1  0.32582857  0.91644454  0.83416849  1
  Ca2+  Ca30  1  0.83088189  0.41858384  0.17265183  1
  Ca2+  Ca31  1  0.82734975  0.42249101  0.51413402  1
  Ca2+  Ca32  1  0.83538451  0.41634910  0.82826111  1
  Ca2+  Ca33  1  0.83459383  0.92186419  0.17668566  1
  Ca2+  Ca34  1  0.82877060  0.91570811  0.50337154  1
  Ca2+  Ca35  1  0.82370511  0.91125296  0.83436393  1
  Ca2+  Ca36  1  0.41692282  0.16822245  0.16550093  1
  Ca2+  Ca37  1  0.41707895  0.16644144  0.49609299  1
  Ca2+  Ca38  1  0.40944790  0.17864443  0.82501742  1
  Ca2+  Ca39  1  0.40806040  0.67438933  0.16541965  1
  Ca2+  Ca40  1  0.41903824  0.68003015  0.49133125  1
  Ca2+  Ca41  1  0.40813736  0.67899624  0.83050432  1
  Ca2+  Ca42  1  0.92167179  0.16354027  0.16133877  1
  Ca2+  Ca43  1  0.91726062  0.16627534  0.49851647  1
  Ca2+  Ca44  1  0.93031089  0.16901921  0.82554259  1
  Ca2+  Ca45  1  0.92788376  0.67326926  0.16514951  1
  Ca2+  Ca46  1  0.92459256  0.66992530  0.49501253  1
  Ca2+  Ca47  1  0.92938285  0.66310050  0.82452961  1
  Al0+  Al48  1  -0.00121275  -0.00141826  -0.00015873  1
  Al0+  Al49  1  -0.00040546  0.00139340  0.33622456  1
  Al0+  Al50  1  0.00112061  -0.00271095  0.66660302  1
  Al0+  Al51  1  -0.00095302  0.50005605  -0.00050435  1
  Al0+  Al52  1  -0.00092146  0.49816218  0.32929634  1
  Al0+  Al53  1  0.00209305  0.49930004  0.66266679  1
  Al0+  Al54  1  0.50063374  -0.00028815  -0.00268419  1
  Al0+  Al55  1  0.50037210  0.00113795  0.32739977  1
  Al0+  Al56  1  0.49995750  0.00296835  0.67257223  1
  Al0+  Al57  1  0.50197557  0.49993553  0.00192322  1
  Al0+  Al58  1  0.49836246  0.49934160  0.33616601  1
  Al0+  Al59  1  0.50140196  0.50053428  0.66721408  1
  Al0+  Al60  1  0.24974835  0.24968705  -0.00664934  1
  Al0+  Al61  1  0.24842586  0.25061592  0.33726189  1
  Al0+  Al62  1  0.25097996  0.25213154  0.65902094  1
  Al0+  Al63  1  0.24971625  0.75093895  0.00042886  1
  Al0+  Al64  1  0.24931834  0.74845852  0.33193874  1
  Al0+  Al65  1  0.25161698  0.75195059  0.65987543  1
  Al0+  Al66  1  0.74918966  0.25017195  0.00015689  1
  Al0+  Al67  1  0.74945311  0.24955726  0.33357054  1
  Al0+  Al68  1  0.74923817  0.25082142  0.67044393  1
  Al0+  Al69  1  0.74907256  0.74916197  0.00335014  1
  Al0+  Al70  1  0.75009824  0.74968232  0.32603807  1
  Al0+  Al71  1  0.75176348  0.74941383  0.67826712  1
  Al0+  Al72  1  0.06956713  0.68075026  0.98516397  1
  Al0+  Al73  1  0.42876121  0.82212841  0.31803428  1
  Al0+  Al74  1  0.07007523  0.17752217  0.98736386  1
  Al0+  Al75  1  0.67757401  0.42794095  0.68318693  1
  Al0+  Al76  1  0.32195508  0.07125058  0.34595065  1
  Al0+  Al77  1  0.07177172  0.67981670  0.65269035  1
  Al0+  Al78  1  0.42923501  0.32385063  0.65089849  1
  Al0+  Al79  1  0.07056072  0.67733601  0.31637633  1
  Al0+  Al80  1  0.57136172  0.67639962  0.32037243  1
  Al0+  Al81  1  0.07172731  0.17490449  0.64857499  1
  Al0+  Al82  1  0.67902295  0.92936651  0.67959362  1
  Al0+  Al83  1  0.82430790  0.57068633  0.68212184  1
  Al0+  Al84  1  0.42938769  0.82016330  0.98419181  1
  Al0+  Al85  1  0.32123489  0.07397413  0.68285298  1
  Al0+  Al86  1  0.82189966  0.07179877  0.34743721  1
  Al0+  Al87  1  0.92899043  0.82340266  0.31940786  1
  Al0+  Al88  1  0.43094919  0.82239859  0.65303956  1
  Al0+  Al89  1  0.32026594  0.56995121  0.01238556  1
  Al0+  Al90  1  0.17955632  0.92761815  0.68095253  1
  Al0+  Al91  1  0.57091375  0.18064455  0.32106273  1
  Al0+  Al92  1  0.43105699  0.32079610  0.98799409  1
  Al0+  Al93  1  0.92873746  0.31935707  0.65168302  1
  Al0+  Al94  1  0.17940277  0.93017009  0.01523718  1
  Al0+  Al95  1  0.31949500  0.57075356  0.34911064  1
  Si0+  Si96  1  0.07137757  0.17965487  0.31874835  1
  Si0+  Si97  1  0.32089169  0.57146087  0.68035360  1
  Si0+  Si98  1  0.92781415  0.31953974  0.31784239  1
  Si0+  Si99  1  0.92606691  0.32204958  0.98417221  1
  Si0+  Si100  1  0.67889263  0.92773934  0.34743379  1
  Si0+  Si101  1  0.92559850  0.82189874  0.98224756  1
  Si0+  Si102  1  0.67664732  0.92819949  0.01801263  1
  Si0+  Si103  1  0.57410486  0.17805695  0.98191148  1
  Si0+  Si104  1  0.17830726  0.92806095  0.35005086  1
  Si0+  Si105  1  0.17529513  0.42678983  0.35135076  1
  Si0+  Si106  1  0.67930616  0.42851507  0.34769225  1
  Si0+  Si107  1  0.32232240  0.07444942  0.01625692  1
  Si0+  Si108  1  0.57367370  0.67970579  0.65386454  1
  Si0+  Si109  1  0.57177340  0.17851639  0.65114212  1
  Si0+  Si110  1  0.82084510  0.57058709  0.34636678  1
  Si0+  Si111  1  0.81867909  0.06979329  0.01409655  1
  Si0+  Si112  1  0.17656491  0.42574878  0.01490359  1
  Si0+  Si113  1  0.68001004  0.42917768  0.01798711  1
  Si0+  Si114  1  0.82270100  0.57093134  0.01840763  1
  Si0+  Si115  1  0.92411224  0.82082109  0.65205961  1
  Si0+  Si116  1  0.57418720  0.67727445  0.98157933  1
  Si0+  Si117  1  0.82312320  0.07255417  0.68454820  1
  Si0+  Si118  1  0.42573511  0.32195710  0.31682920  1
  Si0+  Si119  1  0.17991886  0.42982694  0.68068929  1
  O2-  O120  1  0.25471716  0.00515141  0.06131231  1
  O2-  O121  1  0.25039819  -0.00608470  0.39251645  1
  O2-  O122  1  0.24737721  0.00339102  0.73205946  1
  O2-  O123  1  0.24530273  0.49423886  0.05918167  1
  O2-  O124  1  0.24260149  0.49736040  0.39481165  1
  O2-  O125  1  0.25131471  0.49977934  0.72383709  1
  O2-  O126  1  0.74801149  -0.00032666  0.05887014  1
  O2-  O127  1  0.74898403  -0.00517556  0.39231050  1
  O2-  O128  1  0.75560993  0.00227817  0.72845199  1
  O2-  O129  1  0.75125461  0.49984820  0.06095547  1
  O2-  O130  1  0.74597282  0.50394733  0.38862493  1
  O2-  O131  1  0.75233031  0.49798926  0.73249131  1
  O2-  O132  1  -0.00096107  0.24917348  0.27523490  1
  O2-  O133  1  -0.00422159  0.24410114  0.59943005  1
  O2-  O134  1  -0.00264874  0.25539672  0.94241835  1
  O2-  O135  1  0.00177397  0.75334990  0.26759108  1
  O2-  O136  1  -0.00482578  0.75423206  0.60902344  1
  O2-  O137  1  -0.00629507  0.75356558  0.93742641  1
  O2-  O138  1  0.49332414  0.25182030  0.27308163  1
  O2-  O139  1  0.50359600  0.24761883  0.60685856  1
  O2-  O140  1  0.50218843  0.24358633  0.93933079  1
  O2-  O141  1  0.49744214  0.74557899  0.26895635  1
  O2-  O142  1  0.50853768  0.74999064  0.60804567  1
  O2-  O143  1  0.50542026  0.74569078  0.93789056  1
  O2-  O144  1  0.06777865  0.17903266  0.10128901  1
  O2-  O145  1  0.07069406  0.18128862  0.42305261  1
  O2-  O146  1  0.07060809  0.17749717  0.76261310  1
  O2-  O147  1  0.06780059  0.68110043  0.09790129  1
  O2-  O148  1  0.06750332  0.67636982  0.42983427  1
  O2-  O149  1  0.07296581  0.67945023  0.76607328  1
  O2-  O150  1  0.57826164  0.18029958  0.08764092  1
  O2-  O151  1  0.57376473  0.18369493  0.43363987  1
  O2-  O152  1  0.57150228  0.17906924  0.75701827  1
  O2-  O153  1  0.57623363  0.67821574  0.08709486  1
  O2-  O154  1  0.57357903  0.67825626  0.43396564  1
  O2-  O155  1  0.57101807  0.67964775  0.75966284  1
  O2-  O156  1  0.17590403  0.42231231  0.24559714  1
  O2-  O157  1  0.17961458  0.43120594  0.57549029  1
  O2-  O158  1  0.17592692  0.42582409  0.90940532  1
  O2-  O159  1  0.17701580  0.93112907  0.24391164  1
  O2-  O160  1  0.18242784  0.92588898  0.56739178  1
  O2-  O161  1  0.18007816  0.92991391  0.90267720  1
  O2-  O162  1  0.68272431  0.42682858  0.24197169  1
  O2-  O163  1  0.67753193  0.43090339  0.56911422  1
  O2-  O164  1  0.68019665  0.42854764  0.91356305  1
  O2-  O165  1  0.68004575  0.93083422  0.24146962  1
  O2-  O166  1  0.68012212  0.92976982  0.56647896  1
  O2-  O167  1  0.67752660  0.92858662  0.91284324  1
  O2-  O168  1  0.43418749  0.32050480  0.10129612  1
  O2-  O169  1  0.42792675  0.32305571  0.42213562  1
  O2-  O170  1  0.43049353  0.32528138  0.76436201  1
  O2-  O171  1  0.43049746  0.82007760  0.09712044  1
  O2-  O172  1  0.43237572  0.82397218  0.43153857  1
  O2-  O173  1  0.42944992  0.81883920  0.76639403  1
  O2-  O174  1  0.92346253  0.32037057  0.09036848  1
  O2-  O175  1  0.92659349  0.32066837  0.42216883  1
  O2-  O176  1  0.93318265  0.31809857  0.76571565  1
  O2-  O177  1  0.92445169  0.82149559  0.08773336  1
  O2-  O178  1  0.92681844  0.82019029  0.43293016  1
  O2-  O179  1  0.92108404  0.81860106  0.75773128  1
  O2-  O180  1  0.31742161  0.07490944  0.23249622  1
  O2-  O181  1  0.32308682  0.07079710  0.56892317  1
  O2-  O182  1  0.32118113  0.07616114  0.91121970  1
  O2-  O183  1  0.31972173  0.56805456  0.23565766  1
  O2-  O184  1  0.32008867  0.57024406  0.57528305  1
  O2-  O185  1  0.31893398  0.56877280  0.89898251  1
  O2-  O186  1  0.81984176  0.07352700  0.23357512  1
  O2-  O187  1  0.82014404  0.07323495  0.57897321  1
  O2-  O188  1  0.81676916  0.06965759  0.90931195  1
  O2-  O189  1  0.82163716  0.56590061  0.24083452  1
  O2-  O190  1  0.82138709  0.57167331  0.56797663  1
  O2-  O191  1  0.82349468  0.57013868  0.91385754  1
  O2-  O192  1  0.04416501  0.08785540  0.27166023  1
  O2-  O193  1  0.04636737  0.07506624  0.59747990  1
  O2-  O194  1  0.03481408  0.08284718  0.93286965  1
  O2-  O195  1  0.03984023  0.57926744  0.26282652  1
  O2-  O196  1  0.04326763  0.58344572  0.59811371  1
  O2-  O197  1  0.04043657  0.58188950  0.93376505  1
  O2-  O198  1  0.54490152  0.08496674  0.26324978  1
  O2-  O199  1  0.54627806  0.08539699  0.60499821  1
  O2-  O200  1  0.55316839  0.08288469  0.93804310  1
  O2-  O201  1  0.54587573  0.57616028  0.26844235  1
  O2-  O202  1  0.54813612  0.58668624  0.60750887  1
  O2-  O203  1  0.55069310  0.58250131  0.93806129  1
  O2-  O204  1  0.16206610  0.21056185  0.27021880  1
  O2-  O205  1  0.16716768  0.21009038  0.59470551  1
  O2-  O206  1  0.16569281  0.20611507  0.93148163  1
  O2-  O207  1  0.16937640  0.70417854  0.26461371  1
  O2-  O208  1  0.16605758  0.71267016  0.59588643  1
  O2-  O209  1  0.16590650  0.71196418  0.93225858  1
  O2-  O210  1  0.66589603  0.21534462  0.26401851  1
  O2-  O211  1  0.66617832  0.20281019  0.60645935  1
  O2-  O212  1  0.66629453  0.20721626  0.93461875  1
  O2-  O213  1  0.66836964  0.70348274  0.26312837  1
  O2-  O214  1  0.66973532  0.70250964  0.61220381  1
  O2-  O215  1  0.66859645  0.70297396  0.93663779  1
  O2-  O216  1  0.08203884  0.44946715  0.06145232  1
  O2-  O217  1  0.08015561  0.45089570  0.39536729  1
  O2-  O218  1  0.08876827  0.45693283  0.72901260  1
  O2-  O219  1  0.08109662  0.95947184  0.06804977  1
  O2-  O220  1  0.08609269  0.95669994  0.39664182  1
  O2-  O221  1  0.07843156  0.94835218  0.73312191  1
  O2-  O222  1  0.58940992  0.45734723  0.06755689  1
  O2-  O223  1  0.58560127  0.44922929  0.39356337  1
  O2-  O224  1  0.58095765  0.46110858  0.73828195  1
  O2-  O225  1  0.58510617  0.95711750  0.06523438  1
  O2-  O226  1  0.58601046  0.95622475  0.39216688  1
  O2-  O227  1  0.58589488  0.96414384  0.73828534  1
  O2-  O228  1  0.20267645  0.33184306  0.06100356  1
  O2-  O229  1  0.20208439  0.33478307  0.40010825  1
  O2-  O230  1  0.20741230  0.33751256  0.72662224  1
  O2-  O231  1  0.21197430  0.83449000  0.06972244  1
  O2-  O232  1  0.19936272  0.83253349  0.39270979  1
  O2-  O233  1  0.21498854  0.83040426  0.73362152  1
  O2-  O234  1  0.70837222  0.33668426  0.06565114  1
  O2-  O235  1  0.71234590  0.33934678  0.39601039  1
  O2-  O236  1  0.70319107  0.32947986  0.73805038  1
  O2-  O237  1  0.70366145  0.83571872  0.06460034  1
  O2-  O238  1  0.70334860  0.83309150  0.39172005  1
  O2-  O239  1  0.70796853  0.83485875  0.73964767  1
  O2-  O240  1  0.45445417  0.41444657  0.27066768  1
  O2-  O241  1  0.46301357  0.41982148  0.59670285  1
  O2-  O242  1  0.46565481  0.41644085  0.93413912  1
  O2-  O243  1  0.45931632  0.91816136  0.26143988  1
  O2-  O244  1  0.46198746  0.92058993  0.60356574  1
  O2-  O245  1  0.46046255  0.91750321  0.93141418  1
  O2-  O246  1  0.95497851  0.41029677  0.26731652  1
  O2-  O247  1  0.96063655  0.41582097  0.59713211  1
  O2-  O248  1  0.94799371  0.41669301  0.93997933  1
  O2-  O249  1  0.95455450  0.92367037  0.26748547  1
  O2-  O250  1  0.94511798  0.91574841  0.60760607  1
  O2-  O251  1  0.94813227  0.91610509  0.93713662  1
  O2-  O252  1  0.33125546  0.29764925  0.27196117  1
  O2-  O253  1  0.33337674  0.29768836  0.59448083  1
  O2-  O254  1  0.33368079  0.29580248  0.93296368  1
  O2-  O255  1  0.32993124  0.79391952  0.26640812  1
  O2-  O256  1  0.33787942  0.78872614  0.59579540  1
  O2-  O257  1  0.33375684  0.78690707  0.93106484  1
  O2-  O258  1  0.83698748  0.29117326  0.26841158  1
  O2-  O259  1  0.82740486  0.29633212  0.60210295  1
  O2-  O260  1  0.83327293  0.29442837  0.93764764  1
  O2-  O261  1  0.83199602  0.79523595  0.26277092  1
  O2-  O262  1  0.83112757  0.79249110  0.60592466  1
  O2-  O263  1  0.83077966  0.79540746  0.93833694  1
  O2-  O264  1  0.41828298  0.05052095  0.05935894  1
  O2-  O265  1  0.42107312  0.04447834  0.39674895  1
  O2-  O266  1  0.41908295  0.04828450  0.73769978  1
  O2-  O267  1  0.41749752  0.53951810  0.06663146  1
  O2-  O268  1  0.41579083  0.53857644  0.40386388  1
  O2-  O269  1  0.41297699  0.54534393  0.72754721  1
  O2-  O270  1  0.91016299  0.04232805  0.06240230  1
  O2-  O271  1  0.91857189  0.04517077  0.40283846  1
  O2-  O272  1  0.91732048  0.04808666  0.72928821  1
  O2-  O273  1  0.91376725  0.54167963  0.06731718  1
  O2-  O274  1  0.91150839  0.53853143  0.39315358  1
  O2-  O275  1  0.92229839  0.53842422  0.73451440  1
  O2-  O276  1  0.29551642  0.16828344  0.06218035  1
  O2-  O277  1  0.29053098  0.16764988  0.40038559  1
  O2-  O278  1  0.29385623  0.17519983  0.73053404  1
  O2-  O279  1  0.28713136  0.66516113  0.06694790  1
  O2-  O280  1  0.29027599  0.66814266  0.40258945  1
  O2-  O281  1  0.29071800  0.66311103  0.72578042  1
  O2-  O282  1  0.79227602  0.16279730  0.06153786  1
  O2-  O283  1  0.78791420  0.16739172  0.40149900  1
  O2-  O284  1  0.79614577  0.16484874  0.73263838  1
  O2-  O285  1  0.79451300  0.66303791  0.06563396  1
  O2-  O286  1  0.79690786  0.66436738  0.39078129  1
  O2-  O287  1  0.79651882  0.66636170  0.74100114  1
