# generated using pymatgen
data_Ca2Al2SiO7
_symmetry_space_group_name_H-M   'P 1'
_cell_length_a   15.45747165
_cell_length_b   15.45793196
_cell_length_c   15.28296439
_cell_angle_alpha   90.00492352
_cell_angle_beta   90.01452537
_cell_angle_gamma   89.99634286
_symmetry_Int_Tables_number   1
_chemical_formula_structural   Ca2Al2SiO7
_chemical_formula_sum   'Ca48 Al48 Si24 O168'
_cell_volume   3651.71970186
_cell_formula_units_Z   24
loop_
 _symmetry_equiv_pos_site_id
 _symmetry_equiv_pos_as_xyz
  1  'x, y, z'
loop_
 _atom_type_symbol
 _atom_type_oxidation_number
  Ca2+  2.0
  Al0+  0.0
  Si0+  0.0
  O2-  -2.0
loop_
 _atom_site_type_symbol
 _atom_site_label
 _atom_site_symmetry_multiplicity
 _atom_site_fract_x
 _atom_site_fract_y
 _atom_site_fract_z
 _atom_site_occupancy
  Ca2+  Ca0  1  0.17121326  0.08696357  0.17157584  1
  Ca2+  Ca1  1  0.15745184  0.07942219  0.50734592  1
  Ca2+  Ca2  1  0.16984080  0.08195104  0.83512817  1
  Ca2+  Ca3  1  0.16951066  0.57577219  0.17733670  1
  Ca2+  Ca4  1  0.16586603  0.58513708  0.49927385  1
  Ca2+  Ca5  1  0.16645669  0.57929225  0.83948406  1
  Ca2+  Ca6  1  0.66227740  0.07662783  0.17165457  1
  Ca2+  Ca7  1  0.66656386  0.07840284  0.50359566  1
  Ca2+  Ca8  1  0.66115534  0.07030861  0.83776096  1
  Ca2+  Ca9  1  0.67449014  0.57359501  0.17576642  1
  Ca2+  Ca10  1  0.66784139  0.57917124  0.50280361  1
  Ca2+  Ca11  1  0.67007889  0.57637335  0.83803202  1
  Ca2+  Ca12  1  0.07346706  0.34799535  0.16560959  1
  Ca2+  Ca13  1  0.08019424  0.32329278  0.48880555  1
  Ca2+  Ca14  1  0.07845803  0.33282221  0.83046101  1
  Ca2+  Ca15  1  0.07653000  0.82612364  0.16871215  1
  Ca2+  Ca16  1  0.08115906  0.82550269  0.49281785  1
  Ca2+  Ca17  1  0.08365810  0.82683981  0.82315769  1
  Ca2+  Ca18  1  0.59383395  0.32952419  0.16497823  1
  Ca2+  Ca19  1  0.58160925  0.33774210  0.49341274  1
  Ca2+  Ca20  1  0.57809878  0.34081255  0.82514237  1
  Ca2+  Ca21  1  0.58130717  0.82492364  0.16026545  1
  Ca2+  Ca22  1  0.59077446  0.81983215  0.49659728  1
  Ca2+  Ca23  1  0.58300830  0.83200955  0.82942516  1
  Ca2+  Ca24  1  0.31968366  0.41942431  0.17549157  1
  Ca2+  Ca25  1  0.33257478  0.42053392  0.49876428  1
  Ca2+  Ca26  1  0.32775924  0.41484667  0.83754508  1
  Ca2+  Ca27  1  0.33863439  0.91992372  0.16630124  1
  Ca2+  Ca28  1  0.32489499  0.91938568  0.50548563  1
  Ca2+  Ca29  1  0.33018213  0.92081579  0.84057999  1
  Ca2+  Ca30  1  0.83265640  0.42320208  0.17342974  1
  Ca2+  Ca31  1  0.82599489  0.41555514  0.49841564  1
  Ca2+  Ca32  1  0.82418763  0.42080100  0.84387000  1
  Ca2+  Ca33  1  0.83038718  0.91408037  0.17132672  1
  Ca2+  Ca34  1  0.83281649  0.91506236  0.50417239  1
  Ca2+  Ca35  1  0.82153964  0.91602595  0.83609938  1
  Ca2+  Ca36  1  0.42083577  0.16467894  0.16394609  1
  Ca2+  Ca37  1  0.42318382  0.17525125  0.49655744  1
  Ca2+  Ca38  1  0.41418839  0.17266022  0.83034856  1
  Ca2+  Ca39  1  0.42110065  0.66455247  0.16550866  1
  Ca2+  Ca40  1  0.42755028  0.66236732  0.49338138  1
  Ca2+  Ca41  1  0.42395639  0.67246007  0.82711171  1
  Ca2+  Ca42  1  0.92204856  0.18243663  0.16581671  1
  Ca2+  Ca43  1  0.92538088  0.17067710  0.49073089  1
  Ca2+  Ca44  1  0.92023780  0.17475699  0.82962782  1
  Ca2+  Ca45  1  0.91465267  0.65895862  0.16859517  1
  Ca2+  Ca46  1  0.92391660  0.66998412  0.49026731  1
  Ca2+  Ca47  1  0.92048058  0.66268269  0.83110213  1
  Al0+  Al48  1  0.00049396  -0.00174555  -0.00235725  1
  Al0+  Al49  1  -0.00043605  0.00018239  0.32441175  1
  Al0+  Al50  1  -0.00038615  0.00064976  0.67140666  1
  Al0+  Al51  1  -0.00058078  0.49926498  -0.00030373  1
  Al0+  Al52  1  0.00008204  0.49990272  0.33707840  1
  Al0+  Al53  1  0.00007405  0.50055558  0.66226404  1
  Al0+  Al54  1  0.49837918  -0.00127584  0.00298904  1
  Al0+  Al55  1  0.49936237  0.00101499  0.33342179  1
  Al0+  Al56  1  0.49864187  0.00181700  0.67013515  1
  Al0+  Al57  1  0.50076353  0.49905214  0.00189830  1
  Al0+  Al58  1  0.49778003  0.50009054  0.33309152  1
  Al0+  Al59  1  0.49893381  0.50164267  0.66338873  1
  Al0+  Al60  1  0.25117614  0.24837251  0.00793346  1
  Al0+  Al61  1  0.25318041  0.24868230  0.33564770  1
  Al0+  Al62  1  0.25041175  0.25137293  0.65804334  1
  Al0+  Al63  1  0.25060315  0.75159357  -0.00422253  1
  Al0+  Al64  1  0.24982486  0.75251993  0.33296882  1
  Al0+  Al65  1  0.25046203  0.75073813  0.66792225  1
  Al0+  Al66  1  0.75141981  0.24688386  -0.00543540  1
  Al0+  Al67  1  0.75062572  0.24711592  0.32984438  1
  Al0+  Al68  1  0.74881293  0.25039034  0.67184802  1
  Al0+  Al69  1  0.75124917  0.74981626  0.00547900  1
  Al0+  Al70  1  0.74813397  0.74860903  0.32874201  1
  Al0+  Al71  1  0.75031483  0.75019186  0.66883956  1
  Al0+  Al72  1  0.07271665  0.67849780  0.65335528  1
  Al0+  Al73  1  0.57089833  0.68150752  0.65418012  1
  Al0+  Al74  1  0.43001981  0.82076570  0.98513488  1
  Al0+  Al75  1  0.67991453  0.42625842  0.34848347  1
  Al0+  Al76  1  0.07219548  0.67875742  0.31767205  1
  Al0+  Al77  1  0.92736108  0.82046650  0.31811662  1
  Al0+  Al78  1  0.06901986  0.18026281  0.65492246  1
  Al0+  Al79  1  0.67910029  0.92872904  0.67920733  1
  Al0+  Al80  1  0.32010728  0.57383126  0.34901257  1
  Al0+  Al81  1  0.42968018  0.32189351  0.65269923  1
  Al0+  Al82  1  0.92990618  0.32113406  0.31937784  1
  Al0+  Al83  1  0.17814583  0.42808690  0.35169093  1
  Al0+  Al84  1  0.18076618  0.42998408  0.01134341  1
  Al0+  Al85  1  0.17865514  0.92865760  0.68009245  1
  Al0+  Al86  1  0.82110347  0.56988287  0.01498217  1
  Al0+  Al87  1  0.67662534  0.42607604  0.01444987  1
  Al0+  Al88  1  0.92980615  0.32156854  0.98386810  1
  Al0+  Al89  1  0.56982021  0.67699519  0.31817577  1
  Al0+  Al90  1  0.31877911  0.06920971  0.01416304  1
  Al0+  Al91  1  0.67775800  0.43008907  0.68047222  1
  Al0+  Al92  1  0.57061148  0.17873630  0.32009468  1
  Al0+  Al93  1  0.67951309  0.93046827  0.01568245  1
  Al0+  Al94  1  0.82056744  0.57283394  0.35158992  1
  Al0+  Al95  1  0.07410755  0.17805227  0.31681808  1
  Si0+  Si96  1  0.07421055  0.17748172  0.98291391  1
  Si0+  Si97  1  0.17651025  0.92535391  0.01784837  1
  Si0+  Si98  1  0.32111245  0.57114857  0.68267335  1
  Si0+  Si99  1  0.07008169  0.68008160  0.98496528  1
  Si0+  Si100  1  0.67744394  0.92915518  0.34811816  1
  Si0+  Si101  1  0.42833446  0.32021916  0.98706191  1
  Si0+  Si102  1  0.17913873  0.42850258  0.68044502  1
  Si0+  Si103  1  0.92533722  0.32241969  0.65005583  1
  Si0+  Si104  1  0.32057923  0.07396716  0.68250348  1
  Si0+  Si105  1  0.82437424  0.07119175  0.01712242  1
  Si0+  Si106  1  0.42915373  0.32201014  0.31420258  1
  Si0+  Si107  1  0.92847326  0.82146800  0.65318505  1
  Si0+  Si108  1  0.57305257  0.67746543  0.98300620  1
  Si0+  Si109  1  0.57035878  0.17753050  0.98409947  1
  Si0+  Si110  1  0.42792374  0.82489304  0.65021207  1
  Si0+  Si111  1  0.82137087  0.06868658  0.34642791  1
  Si0+  Si112  1  0.82342303  0.57158734  0.68325179  1
  Si0+  Si113  1  0.32236354  0.57463213  0.01385241  1
  Si0+  Si114  1  0.57251376  0.17681693  0.65196749  1
  Si0+  Si115  1  0.92763039  0.82265638  0.98225519  1
  Si0+  Si116  1  0.32376309  0.07059180  0.35119065  1
  Si0+  Si117  1  0.42820307  0.82318704  0.31801455  1
  Si0+  Si118  1  0.17797801  0.93237814  0.34696677  1
  Si0+  Si119  1  0.82261602  0.07297039  0.68471888  1
  O2-  O120  1  0.24295665  -0.00394853  0.06186255  1
  O2-  O121  1  0.24698022  0.00488755  0.39124647  1
  O2-  O122  1  0.25334717  0.00376472  0.72654061  1
  O2-  O123  1  0.25542825  0.50472903  0.05725838  1
  O2-  O124  1  0.24770949  0.50316537  0.40129593  1
  O2-  O125  1  0.24755528  0.50182745  0.72427257  1
  O2-  O126  1  0.75515672  0.00382961  0.06282666  1
  O2-  O127  1  0.75151931  -0.00307694  0.39028479  1
  O2-  O128  1  0.75089269  0.00593341  0.72711726  1
  O2-  O129  1  0.74835868  0.49802225  0.06339205  1
  O2-  O130  1  0.74885064  0.49992803  0.40089709  1
  O2-  O131  1  0.75563317  0.50154799  0.72680341  1
  O2-  O132  1  0.00885702  0.25631163  0.26806936  1
  O2-  O133  1  -0.00619733  0.25306041  0.60714099  1
  O2-  O134  1  0.00491849  0.24544410  0.93852360  1
  O2-  O135  1  -0.00449574  0.74530808  0.26667816  1
  O2-  O136  1  -0.00124523  0.75499505  0.60922300  1
  O2-  O137  1  -0.00011501  0.75197876  0.94173041  1
  O2-  O138  1  0.50057936  0.25598786  0.27033045  1
  O2-  O139  1  0.50823663  0.24950817  0.60834627  1
  O2-  O140  1  0.50426011  0.25433392  0.94343854  1
  O2-  O141  1  0.49353743  0.75167800  0.27381191  1
  O2-  O142  1  0.49895035  0.75917881  0.60631713  1
  O2-  O143  1  0.50359054  0.74539368  0.93788457  1
  O2-  O144  1  0.07342373  0.17604502  0.08785246  1
  O2-  O145  1  0.06803881  0.17381272  0.43067677  1
  O2-  O146  1  0.07002566  0.18292533  0.76832244  1
  O2-  O147  1  0.07169095  0.68174677  0.08943450  1
  O2-  O148  1  0.07388294  0.68550097  0.43130110  1
  O2-  O149  1  0.07160760  0.67802115  0.76731428  1
  O2-  O150  1  0.56834965  0.17526292  0.08914182  1
  O2-  O151  1  0.56693480  0.17384875  0.43324609  1
  O2-  O152  1  0.56904717  0.17375496  0.75770873  1
  O2-  O153  1  0.57063423  0.67811152  0.08833024  1
  O2-  O154  1  0.57070705  0.68051328  0.43170836  1
  O2-  O155  1  0.56863038  0.68214122  0.76753226  1
  O2-  O156  1  0.18157233  0.42891470  0.23767107  1
  O2-  O157  1  0.18079812  0.42769561  0.57621248  1
  O2-  O158  1  0.18246819  0.43032343  0.89716855  1
  O2-  O159  1  0.18010905  0.93257548  0.24182601  1
  O2-  O160  1  0.17922364  0.93015513  0.56676165  1
  O2-  O161  1  0.17744031  0.92490187  0.91201684  1
  O2-  O162  1  0.68284284  0.42533752  0.23512030  1
  O2-  O163  1  0.67799115  0.42953810  0.56803943  1
  O2-  O164  1  0.67469723  0.43032937  0.90028500  1
  O2-  O165  1  0.67492665  0.93263106  0.24311012  1
  O2-  O166  1  0.68167138  0.92944360  0.56597994  1
  O2-  O167  1  0.67985472  0.93139420  0.90209779  1
  O2-  O168  1  0.42590870  0.31736198  0.09152577  1
  O2-  O169  1  0.42902777  0.31921195  0.42014476  1
  O2-  O170  1  0.42730795  0.31969346  0.76669174  1
  O2-  O171  1  0.43138394  0.81971782  0.09817748  1
  O2-  O172  1  0.42995873  0.82658545  0.42371479  1
  O2-  O173  1  0.42775087  0.82353098  0.75595923  1
  O2-  O174  1  0.93099533  0.32233130  0.09619699  1
  O2-  O175  1  0.92688897  0.31388990  0.43322934  1
  O2-  O176  1  0.92752361  0.32217722  0.75598540  1
  O2-  O177  1  0.92879346  0.82628684  0.08665474  1
  O2-  O178  1  0.93123546  0.82502152  0.43213931  1
  O2-  O179  1  0.92820064  0.81980036  0.75913728  1
  O2-  O180  1  0.32728774  0.06716913  0.24616774  1
  O2-  O181  1  0.32218027  0.07221012  0.57699173  1
  O2-  O182  1  0.31709836  0.07052172  0.90071165  1
  O2-  O183  1  0.31939500  0.57215928  0.23480160  1
  O2-  O184  1  0.32224297  0.57140573  0.57818236  1
  O2-  O185  1  0.32104983  0.57440968  0.90764723  1
  O2-  O186  1  0.81951281  0.06713682  0.24146728  1
  O2-  O187  1  0.82424056  0.07221376  0.57902785  1
  O2-  O188  1  0.82333288  0.06883048  0.91114952  1
  O2-  O189  1  0.81733411  0.57208177  0.23815005  1
  O2-  O190  1  0.82341439  0.57362727  0.57838086  1
  O2-  O191  1  0.82141831  0.56957474  0.90055798  1
  O2-  O192  1  0.04127195  0.08314032  0.26024730  1
  O2-  O193  1  0.03887882  0.08207451  0.60320998  1
  O2-  O194  1  0.04973891  0.08259129  0.93705755  1
  O2-  O195  1  0.04986873  0.57788647  0.26909566  1
  O2-  O196  1  0.04367371  0.58232509  0.59848665  1
  O2-  O197  1  0.04116384  0.58922934  0.93618033  1
  O2-  O198  1  0.53426533  0.08382363  0.26458477  1
  O2-  O199  1  0.54307994  0.08472982  0.60398263  1
  O2-  O200  1  0.53458052  0.08839725  0.93618750  1
  O2-  O201  1  0.53802701  0.58137723  0.26333960  1
  O2-  O202  1  0.53644011  0.58745398  0.59921369  1
  O2-  O203  1  0.54707615  0.58323704  0.93733361  1
  O2-  O204  1  0.17727604  0.19664300  0.27090451  1
  O2-  O205  1  0.16465207  0.20838912  0.59852311  1
  O2-  O206  1  0.16845677  0.20468844  0.93868098  1
  O2-  O207  1  0.16869406  0.71374028  0.26363982  1
  O2-  O208  1  0.16962392  0.70947936  0.60084316  1
  O2-  O209  1  0.16199888  0.70711324  0.93617676  1
  O2-  O210  1  0.66769204  0.20216110  0.26442294  1
  O2-  O211  1  0.66867553  0.19655604  0.60925216  1
  O2-  O212  1  0.66403273  0.19532592  0.93623337  1
  O2-  O213  1  0.66372779  0.71039597  0.26228508  1
  O2-  O214  1  0.66806517  0.71170034  0.60088985  1
  O2-  O215  1  0.66692240  0.70548229  0.93892674  1
  O2-  O216  1  0.08555886  0.46306481  0.06405842  1
  O2-  O217  1  0.07884853  0.45041286  0.40404016  1
  O2-  O218  1  0.08569976  0.45436343  0.72657140  1
  O2-  O219  1  0.08136893  0.94810663  0.06143338  1
  O2-  O220  1  0.08528306  0.95954129  0.39287310  1
  O2-  O221  1  0.08264562  0.95811809  0.73673777  1
  O2-  O222  1  0.57739560  0.45083822  0.06765066  1
  O2-  O223  1  0.57891567  0.45255085  0.39649807  1
  O2-  O224  1  0.58096366  0.46380155  0.73329238  1
  O2-  O225  1  0.58395506  0.96303574  0.06934887  1
  O2-  O226  1  0.58743023  0.96114045  0.39686737  1
  O2-  O227  1  0.58162012  0.95845026  0.73372924  1
  O2-  O228  1  0.21076764  0.33502554  0.06731187  1
  O2-  O229  1  0.21137766  0.32933425  0.40296277  1
  O2-  O230  1  0.21087110  0.33728361  0.72727431  1
  O2-  O231  1  0.20573567  0.83290396  0.06381772  1
  O2-  O232  1  0.20763026  0.84186526  0.39553638  1
  O2-  O233  1  0.21036447  0.83288467  0.73608852  1
  O2-  O234  1  0.70247418  0.32413989  0.05984966  1
  O2-  O235  1  0.70798311  0.32619337  0.40010887  1
  O2-  O236  1  0.70204582  0.33134285  0.73492100  1
  O2-  O237  1  0.70892470  0.83398562  0.06903214  1
  O2-  O238  1  0.70335033  0.83646683  0.39323000  1
  O2-  O239  1  0.71198099  0.83406874  0.73639519  1
  O2-  O240  1  0.44799906  0.41669396  0.26925128  1
  O2-  O241  1  0.45790862  0.41803276  0.59798796  1
  O2-  O242  1  0.45028940  0.41411502  0.93963896  1
  O2-  O243  1  0.45830438  0.91491962  0.27033145  1
  O2-  O244  1  0.44889650  0.92055411  0.60626634  1
  O2-  O245  1  0.46149486  0.91753273  0.93129623  1
  O2-  O246  1  0.95317731  0.42129919  0.26873527  1
  O2-  O247  1  0.95023699  0.41573711  0.60454707  1
  O2-  O248  1  0.96288253  0.41704016  0.92803367  1
  O2-  O249  1  0.95944531  0.91594388  0.26078865  1
  O2-  O250  1  0.95111176  0.91666827  0.60965688  1
  O2-  O251  1  0.95464827  0.91406443  0.93241630  1
  O2-  O252  1  0.33721275  0.29061477  0.26836946  1
  O2-  O253  1  0.33652705  0.28844782  0.59438210  1
  O2-  O254  1  0.33808078  0.28671577  0.93858151  1
  O2-  O255  1  0.33364333  0.80325058  0.27190938  1
  O2-  O256  1  0.33508349  0.79699364  0.60454327  1
  O2-  O257  1  0.33248629  0.79335480  0.92946531  1
  O2-  O258  1  0.83529643  0.28433134  0.26426847  1
  O2-  O259  1  0.83083635  0.29634731  0.60652988  1
  O2-  O260  1  0.83404216  0.28857118  0.92749762  1
  O2-  O261  1  0.82810699  0.79760605  0.26511732  1
  O2-  O262  1  0.83560824  0.79582388  0.60627355  1
  O2-  O263  1  0.83547541  0.79349288  0.93584212  1
  O2-  O264  1  0.41367933  0.03588755  0.06969177  1
  O2-  O265  1  0.41246138  0.03652695  0.40153759  1
  O2-  O266  1  0.41409683  0.05086218  0.73060796  1
  O2-  O267  1  0.41645494  0.55098040  0.05869544  1
  O2-  O268  1  0.41762095  0.54253379  0.40232078  1
  O2-  O269  1  0.41124766  0.54077019  0.73173813  1
  O2-  O270  1  0.91834455  0.04473592  0.06159805  1
  O2-  O271  1  0.91370077  0.04026729  0.39317451  1
  O2-  O272  1  0.91375002  0.04501732  0.73476426  1
  O2-  O273  1  0.91925188  0.54104313  0.06698629  1
  O2-  O274  1  0.92011694  0.54798653  0.40290925  1
  O2-  O275  1  0.91793328  0.54622600  0.72908986  1
  O2-  O276  1  0.29139995  0.16417078  0.07259691  1
  O2-  O277  1  0.30356971  0.16399635  0.39780777  1
  O2-  O278  1  0.29200149  0.16752809  0.72742596  1
  O2-  O279  1  0.29611799  0.66807179  0.05918689  1
  O2-  O280  1  0.29544864  0.67419367  0.40102178  1
  O2-  O281  1  0.29528238  0.66349151  0.73066697  1
  O2-  O282  1  0.79957578  0.16539377  0.06066372  1
  O2-  O283  1  0.79200010  0.15846993  0.39593458  1
  O2-  O284  1  0.79901224  0.16645815  0.73221724  1
  O2-  O285  1  0.79754984  0.66907927  0.06753064  1
  O2-  O286  1  0.79089529  0.67273928  0.40198577  1
  O2-  O287  1  0.79716774  0.66475732  0.73055053  1
