# generated using pymatgen
data_Ca2Al2SiO7
_symmetry_space_group_name_H-M   'P 1'
_cell_length_a   15.45702125
_cell_length_b   15.45631964
_cell_length_c   15.28294371
_cell_angle_alpha   89.99484836
_cell_angle_beta   90.01149120
_cell_angle_gamma   90.00373071
_symmetry_Int_Tables_number   1
_chemical_formula_structural   Ca2Al2SiO7
_chemical_formula_sum   'Ca48 Al48 Si24 O168'
_cell_volume   3651.22752404
_cell_formula_units_Z   24
loop_
 _symmetry_equiv_pos_site_id
 _symmetry_equiv_pos_as_xyz
  1  'x, y, z'
loop_
 _atom_type_symbol
 _atom_type_oxidation_number
  Ca2+  2.0
  Al0+  0.0
  Si0+  0.0
  O2-  -2.0
loop_
 _atom_site_type_symbol
 _atom_site_label
 _atom_site_symmetry_multiplicity
 _atom_site_fract_x
 _atom_site_fract_y
 _atom_site_fract_z
 _atom_site_occupancy
  Ca2+  Ca0  1  0.16296639  0.08232187  0.17471008  1
  Ca2+  Ca1  1  0.16791450  0.07090674  0.50431801  1
  Ca2+  Ca2  1  0.17058131  0.08531218  0.83367472  1
  Ca2+  Ca3  1  0.16168205  0.57305227  0.16913187  1
  Ca2+  Ca4  1  0.16840719  0.58566858  0.50660162  1
  Ca2+  Ca5  1  0.16682587  0.57938203  0.83921939  1
  Ca2+  Ca6  1  0.67878505  0.08517552  0.17282763  1
  Ca2+  Ca7  1  0.66766294  0.07929341  0.50359650  1
  Ca2+  Ca8  1  0.66858095  0.06968421  0.84185592  1
  Ca2+  Ca9  1  0.67028244  0.58300929  0.16761634  1
  Ca2+  Ca10  1  0.67401021  0.58968973  0.50722149  1
  Ca2+  Ca11  1  0.67194885  0.57976294  0.83960590  1
  Ca2+  Ca12  1  0.07645586  0.32297076  0.15540158  1
  Ca2+  Ca13  1  0.07941301  0.32335389  0.49328809  1
  Ca2+  Ca14  1  0.07633507  0.33476033  0.83554818  1
  Ca2+  Ca15  1  0.07458443  0.83954387  0.16716557  1
  Ca2+  Ca16  1  0.08195317  0.83331308  0.49404032  1
  Ca2+  Ca17  1  0.07955185  0.82731772  0.82361219  1
  Ca2+  Ca18  1  0.59014389  0.32896260  0.16310889  1
  Ca2+  Ca19  1  0.58072879  0.33159508  0.49891070  1
  Ca2+  Ca20  1  0.58124722  0.33990200  0.82595663  1
  Ca2+  Ca21  1  0.59023731  0.82314686  0.16304689  1
  Ca2+  Ca22  1  0.58505884  0.82658319  0.49385984  1
  Ca2+  Ca23  1  0.59495164  0.82467275  0.82901106  1
  Ca2+  Ca24  1  0.32678473  0.41505759  0.16607968  1
  Ca2+  Ca25  1  0.33397071  0.41484451  0.50539332  1
  Ca2+  Ca26  1  0.32875073  0.41455916  0.83805699  1
  Ca2+  Ca27  1  0.32557662  0.91263878  0.17508506  1
  Ca2+  Ca28  1  0.32596207  0.91567704  0.50580231  1
  Ca2+  Ca29  1  0.32867325  0.91938469  0.83190745  1
  Ca2+  Ca30  1  0.83673762  0.42675616  0.16811910  1
  Ca2+  Ca31  1  0.82477974  0.42888896  0.50703961  1
  Ca2+  Ca32  1  0.82502233  0.42483162  0.84102118  1
  Ca2+  Ca33  1  0.83210906  0.92399709  0.17045793  1
  Ca2+  Ca34  1  0.83265003  0.92005706  0.50022353  1
  Ca2+  Ca35  1  0.82181894  0.91800687  0.83830318  1
  Ca2+  Ca36  1  0.42664975  0.16322225  0.16614901  1
  Ca2+  Ca37  1  0.41932056  0.16765952  0.49913427  1
  Ca2+  Ca38  1  0.41573950  0.17309045  0.82488170  1
  Ca2+  Ca39  1  0.42769877  0.67256253  0.16459005  1
  Ca2+  Ca40  1  0.43116716  0.67294696  0.49246108  1
  Ca2+  Ca41  1  0.43287528  0.66432756  0.82745334  1
  Ca2+  Ca42  1  0.92358435  0.16306160  0.15728061  1
  Ca2+  Ca43  1  0.92058714  0.16406908  0.48917582  1
  Ca2+  Ca44  1  0.91335970  0.16939633  0.83734111  1
  Ca2+  Ca45  1  0.90449366  0.67129058  0.16581930  1
  Ca2+  Ca46  1  0.91536715  0.67052728  0.49651351  1
  Ca2+  Ca47  1  0.91792688  0.65997728  0.82783520  1
  Al0+  Al48  1  0.00169534  -0.00130256  -0.00570312  1
  Al0+  Al49  1  0.00058937  -0.00142517  0.33441098  1
  Al0+  Al50  1  0.00076436  0.00009676  0.67094226  1
  Al0+  Al51  1  0.00069843  0.49862911  0.00493409  1
  Al0+  Al52  1  -0.00085361  0.49912472  0.34036639  1
  Al0+  Al53  1  0.00056245  0.49967026  0.66291992  1
  Al0+  Al54  1  0.49693431  -0.00182478  0.00325091  1
  Al0+  Al55  1  0.49866658  0.00189518  0.32565027  1
  Al0+  Al56  1  0.49924021  0.00059767  0.67527298  1
  Al0+  Al57  1  0.50051066  0.50150065  0.00057803  1
  Al0+  Al58  1  0.49773264  0.49956759  0.32887260  1
  Al0+  Al59  1  0.49940243  0.50008747  0.65873545  1
  Al0+  Al60  1  0.25019973  0.24898454  0.00151553  1
  Al0+  Al61  1  0.24947632  0.24913229  0.33049865  1
  Al0+  Al62  1  0.24997742  0.24978674  0.66419055  1
  Al0+  Al63  1  0.25132013  0.75166075  0.00004787  1
  Al0+  Al64  1  0.24991338  0.74707922  0.33318932  1
  Al0+  Al65  1  0.24964192  0.74870971  0.66833580  1
  Al0+  Al66  1  0.75104753  0.24934108  0.00018129  1
  Al0+  Al67  1  0.74979329  0.25239183  0.33526984  1
  Al0+  Al68  1  0.74977071  0.25208503  0.66794357  1
  Al0+  Al69  1  0.74954064  0.75018288  0.00113326  1
  Al0+  Al70  1  0.75174031  0.75012158  0.32962501  1
  Al0+  Al71  1  0.75363164  0.75209586  0.66899265  1
  Al0+  Al72  1  0.57045498  0.68093115  0.98375954  1
  Al0+  Al73  1  0.82107827  0.07184802  0.34669318  1
  Al0+  Al74  1  0.07245798  0.17718876  0.98156376  1
  Al0+  Al75  1  0.92793662  0.32236800  0.98413339  1
  Al0+  Al76  1  0.67992758  0.93034317  0.67782745  1
  Al0+  Al77  1  0.81928613  0.57212149  0.34985942  1
  Al0+  Al78  1  0.42670044  0.82177984  0.31931231  1
  Al0+  Al79  1  0.67622832  0.42809143  0.01574665  1
  Al0+  Al80  1  0.82163333  0.06942135  0.01410998  1
  Al0+  Al81  1  0.93128947  0.81979958  0.31995954  1
  Al0+  Al82  1  0.31994985  0.07185678  0.68143112  1
  Al0+  Al83  1  0.18010086  0.92854087  0.34609671  1
  Al0+  Al84  1  0.67706541  0.92813619  0.01787448  1
  Al0+  Al85  1  0.06881718  0.17883731  0.32103704  1
  Al0+  Al86  1  0.82200564  0.57130141  0.68184953  1
  Al0+  Al87  1  0.67673173  0.42976668  0.68042407  1
  Al0+  Al88  1  0.07149650  0.67798546  0.65357370  1
  Al0+  Al89  1  0.42846274  0.32065587  0.65333742  1
  Al0+  Al90  1  0.17800320  0.92670578  0.68349519  1
  Al0+  Al91  1  0.57223843  0.18042565  0.32046074  1
  Al0+  Al92  1  0.18025489  0.42898841  0.01336414  1
  Al0+  Al93  1  0.82194034  0.57037586  0.01621021  1
  Al0+  Al94  1  0.57300280  0.68124753  0.65298234  1
  Al0+  Al95  1  0.57280207  0.67928104  0.31685378  1
  Si0+  Si96  1  0.82360691  0.07492020  0.68288543  1
  Si0+  Si97  1  0.07010084  0.17950109  0.65054516  1
  Si0+  Si98  1  0.57258688  0.17616494  0.65311008  1
  Si0+  Si99  1  0.57137717  0.17722204  0.98509038  1
  Si0+  Si100  1  0.31970030  0.07192082  0.01747726  1
  Si0+  Si101  1  0.17984591  0.92784282  0.01534051  1
  Si0+  Si102  1  0.92845054  0.32339816  0.31798824  1
  Si0+  Si103  1  0.42796500  0.82316652  0.65224749  1
  Si0+  Si104  1  0.32078566  0.56918518  0.34912309  1
  Si0+  Si105  1  0.67496867  0.42858585  0.35125765  1
  Si0+  Si106  1  0.17943281  0.42828156  0.67989240  1
  Si0+  Si107  1  0.42502634  0.82300299  0.98000435  1
  Si0+  Si108  1  0.07281745  0.67889228  0.98754292  1
  Si0+  Si109  1  0.32136465  0.57044073  0.68006706  1
  Si0+  Si110  1  0.67709383  0.92968726  0.34807121  1
  Si0+  Si111  1  0.32366776  0.07346922  0.34953560  1
  Si0+  Si112  1  0.92798235  0.32145753  0.64991837  1
  Si0+  Si113  1  0.32217568  0.57338681  0.01683086  1
  Si0+  Si114  1  0.92987571  0.82014647  0.98361848  1
  Si0+  Si115  1  0.92982036  0.82381482  0.64988294  1
  Si0+  Si116  1  0.07243075  0.67510878  0.31647463  1
  Si0+  Si117  1  0.43016576  0.31976760  0.98622476  1
  Si0+  Si118  1  0.17966657  0.42743751  0.35021100  1
  Si0+  Si119  1  0.42656385  0.32194056  0.31398867  1
  O2-  O120  1  0.24868656  0.00040163  0.05814380  1
  O2-  O121  1  0.25773328  0.00126881  0.39189247  1
  O2-  O122  1  0.24905700  -0.00026350  0.73343247  1
  O2-  O123  1  0.25246414  0.50569501  0.06168557  1
  O2-  O124  1  0.25005946  0.49836038  0.39315572  1
  O2-  O125  1  0.24949275  0.50008459  0.72253892  1
  O2-  O126  1  0.74711871  0.00217363  0.06710037  1
  O2-  O127  1  0.74338430  0.00027494  0.39357503  1
  O2-  O128  1  0.75221671  0.00798973  0.72423006  1
  O2-  O129  1  0.75009900  0.49776108  0.06593077  1
  O2-  O130  1  0.74047002  0.50055870  0.39477807  1
  O2-  O131  1  0.74771579  0.50171135  0.73105534  1
  O2-  O132  1  -0.00641743  0.25190280  0.27345079  1
  O2-  O133  1  -0.00507559  0.24592639  0.60784336  1
  O2-  O134  1  -0.00107709  0.24868367  0.93303477  1
  O2-  O135  1  0.00424985  0.74319507  0.27154866  1
  O2-  O136  1  -0.00019090  0.75521406  0.60726631  1
  O2-  O137  1  0.00010324  0.74675720  0.94368724  1
  O2-  O138  1  0.49764765  0.25523213  0.27166910  1
  O2-  O139  1  0.50468956  0.24631476  0.60908112  1
  O2-  O140  1  0.50376444  0.25205664  0.94308522  1
  O2-  O141  1  0.50244473  0.75442461  0.26830244  1
  O2-  O142  1  0.49979780  0.75858034  0.60741596  1
  O2-  O143  1  0.49666067  0.75735951  0.93682033  1
  O2-  O144  1  0.07336134  0.17762021  0.09534344  1
  O2-  O145  1  0.06904909  0.18101750  0.43471508  1
  O2-  O146  1  0.07204942  0.18214974  0.75519792  1
  O2-  O147  1  0.07659374  0.68201227  0.09241603  1
  O2-  O148  1  0.07328340  0.67551012  0.42208623  1
  O2-  O149  1  0.07139470  0.67652063  0.76721394  1
  O2-  O150  1  0.56806073  0.17736420  0.09032609  1
  O2-  O151  1  0.57005712  0.18062514  0.43380179  1
  O2-  O152  1  0.57130457  0.17616777  0.75872228  1
  O2-  O153  1  0.56749824  0.68053119  0.09659406  1
  O2-  O154  1  0.57179969  0.68031470  0.43087509  1
  O2-  O155  1  0.57069006  0.67984671  0.76605892  1
  O2-  O156  1  0.18038145  0.42803870  0.24520234  1
  O2-  O157  1  0.18101682  0.42781172  0.57447038  1
  O2-  O158  1  0.18274057  0.43096002  0.89981296  1
  O2-  O159  1  0.17980979  0.93115172  0.23250867  1
  O2-  O160  1  0.17835647  0.92779727  0.56982285  1
  O2-  O161  1  0.18238621  0.92462583  0.91065782  1
  O2-  O162  1  0.67624355  0.42697273  0.24592333  1
  O2-  O163  1  0.67898756  0.42775129  0.56678651  1
  O2-  O164  1  0.67262782  0.43188733  0.90236824  1
  O2-  O165  1  0.67981566  0.93078012  0.24283544  1
  O2-  O166  1  0.67998410  0.93168781  0.56441803  1
  O2-  O167  1  0.67932457  0.92872139  0.90389338  1
  O2-  O168  1  0.42774919  0.31681780  0.09132655  1
  O2-  O169  1  0.42398985  0.32202901  0.41949222  1
  O2-  O170  1  0.42541155  0.31991850  0.76665524  1
  O2-  O171  1  0.41911305  0.82028380  0.08514012  1
  O2-  O172  1  0.42633202  0.81867287  0.43325874  1
  O2-  O173  1  0.42645929  0.81942634  0.75779146  1
  O2-  O174  1  0.93264212  0.32377351  0.09775266  1
  O2-  O175  1  0.93237177  0.32320619  0.42415836  1
  O2-  O176  1  0.93021094  0.32312743  0.75455023  1
  O2-  O177  1  0.93245693  0.82280793  0.08877642  1
  O2-  O178  1  0.93267596  0.82026711  0.43304654  1
  O2-  O179  1  0.93045989  0.82420427  0.75566855  1
  O2-  O180  1  0.32089649  0.07658178  0.24379601  1
  O2-  O181  1  0.31813231  0.07225191  0.56786397  1
  O2-  O182  1  0.31999198  0.07361443  0.91256192  1
  O2-  O183  1  0.31926876  0.56702199  0.24400547  1
  O2-  O184  1  0.31964863  0.56936421  0.57480489  1
  O2-  O185  1  0.32088201  0.57210836  0.91091014  1
  O2-  O186  1  0.82263036  0.07041712  0.23423006  1
  O2-  O187  1  0.82539195  0.07451135  0.57705257  1
  O2-  O188  1  0.81909395  0.06605847  0.90008145  1
  O2-  O189  1  0.82184333  0.56900931  0.23733350  1
  O2-  O190  1  0.82143456  0.57039576  0.56809733  1
  O2-  O191  1  0.82295651  0.56996149  0.90276983  1
  O2-  O192  1  0.04004273  0.08249401  0.26731301  1
  O2-  O193  1  0.04559911  0.08525918  0.60599681  1
  O2-  O194  1  0.04678060  0.07839521  0.92754516  1
  O2-  O195  1  0.04664048  0.57989799  0.27350236  1
  O2-  O196  1  0.04318691  0.58169674  0.59666681  1
  O2-  O197  1  0.04850631  0.58561680  0.94200769  1
  O2-  O198  1  0.54193445  0.08590003  0.26206202  1
  O2-  O199  1  0.54438863  0.08320420  0.60684250  1
  O2-  O200  1  0.53783288  0.08606313  0.93908026  1
  O2-  O201  1  0.53968831  0.58152770  0.26485304  1
  O2-  O202  1  0.53865931  0.58700357  0.59674387  1
  O2-  O203  1  0.53556512  0.58441140  0.93076241  1
  O2-  O204  1  0.16549480  0.20993096  0.26701024  1
  O2-  O205  1  0.15967821  0.21177153  0.60158288  1
  O2-  O206  1  0.17117864  0.20966546  0.93067765  1
  O2-  O207  1  0.16647672  0.69724143  0.27037539  1
  O2-  O208  1  0.16959061  0.70593311  0.59983328  1
  O2-  O209  1  0.16435395  0.70798754  0.93879144  1
  O2-  O210  1  0.66854227  0.21241564  0.26599922  1
  O2-  O211  1  0.66669101  0.20035576  0.60668496  1
  O2-  O212  1  0.66448519  0.19821109  0.93864811  1
  O2-  O213  1  0.67063230  0.70624457  0.26347254  1
  O2-  O214  1  0.67035246  0.71288217  0.60125890  1
  O2-  O215  1  0.66768453  0.71184006  0.93099106  1
  O2-  O216  1  0.08604988  0.45926112  0.07097053  1
  O2-  O217  1  0.08849974  0.45364746  0.39954491  1
  O2-  O218  1  0.08770921  0.45588171  0.72629736  1
  O2-  O219  1  0.08687084  0.95403583  0.06000918  1
  O2-  O220  1  0.08582385  0.96201790  0.40227528  1
  O2-  O221  1  0.07993795  0.95502127  0.73699217  1
  O2-  O222  1  0.57785189  0.45686363  0.06974567  1
  O2-  O223  1  0.57811862  0.44934024  0.39331588  1
  O2-  O224  1  0.57596365  0.45580235  0.72921297  1
  O2-  O225  1  0.57577362  0.95078649  0.06720793  1
  O2-  O226  1  0.58168100  0.95409945  0.39111164  1
  O2-  O227  1  0.58381502  0.95589024  0.73550676  1
  O2-  O228  1  0.21467124  0.33392213  0.06867546  1
  O2-  O229  1  0.20939047  0.33562847  0.39728070  1
  O2-  O230  1  0.20880917  0.33776643  0.72773319  1
  O2-  O231  1  0.20894752  0.83687708  0.06459894  1
  O2-  O232  1  0.20709716  0.82962860  0.39823045  1
  O2-  O233  1  0.20712500  0.82835244  0.73690942  1
  O2-  O234  1  0.70056216  0.32743579  0.06498129  1
  O2-  O235  1  0.70315336  0.33654985  0.39942605  1
  O2-  O236  1  0.70339265  0.33049591  0.73318374  1
  O2-  O237  1  0.70999829  0.83152038  0.06959108  1
  O2-  O238  1  0.70570890  0.83656952  0.39281140  1
  O2-  O239  1  0.71565943  0.83700925  0.73477308  1
  O2-  O240  1  0.44769274  0.41605844  0.26723099  1
  O2-  O241  1  0.45631573  0.41562624  0.59438083  1
  O2-  O242  1  0.45236814  0.41356872  0.94019433  1
  O2-  O243  1  0.44474692  0.92234140  0.26690320  1
  O2-  O244  1  0.44859888  0.91949894  0.61003238  1
  O2-  O245  1  0.44622157  0.91903017  0.93674073  1
  O2-  O246  1  0.95988210  0.41565616  0.27278427  1
  O2-  O247  1  0.96122669  0.41023860  0.59978866  1
  O2-  O248  1  0.96296579  0.41982569  0.93148443  1
  O2-  O249  1  0.96566483  0.91438310  0.26439448  1
  O2-  O250  1  0.95512353  0.91827498  0.60431631  1
  O2-  O251  1  0.96064851  0.90912548  0.93268576  1
  O2-  O252  1  0.33397964  0.29381377  0.26660171  1
  O2-  O253  1  0.33278022  0.28872728  0.59635371  1
  O2-  O254  1  0.33950122  0.28864214  0.93816551  1
  O2-  O255  1  0.33031371  0.78672065  0.26435720  1
  O2-  O256  1  0.33534443  0.79383065  0.60615319  1
  O2-  O257  1  0.33245197  0.79444977  0.93172686  1
  O2-  O258  1  0.83283658  0.30451774  0.27540115  1
  O2-  O259  1  0.83471629  0.29775803  0.60296792  1
  O2-  O260  1  0.82920265  0.29479129  0.93026630  1
  O2-  O261  1  0.83547670  0.79154790  0.26389309  1
  O2-  O262  1  0.83743369  0.79765119  0.60248743  1
  O2-  O263  1  0.83789620  0.79326053  0.93704155  1
  O2-  O264  1  0.41089543  0.04372212  0.06589383  1
  O2-  O265  1  0.41894543  0.05226905  0.39382839  1
  O2-  O266  1  0.41756182  0.04767566  0.73823624  1
  O2-  O267  1  0.41368567  0.54497027  0.06415837  1
  O2-  O268  1  0.41256591  0.54062346  0.39670607  1
  O2-  O269  1  0.41223387  0.54012192  0.72677742  1
  O2-  O270  1  0.92130179  0.03786148  0.06311469  1
  O2-  O271  1  0.91559856  0.03676164  0.40220131  1
  O2-  O272  1  0.91617584  0.04865539  0.73018101  1
  O2-  O273  1  0.92072514  0.54485625  0.07033044  1
  O2-  O274  1  0.91595771  0.53984009  0.40468166  1
  O2-  O275  1  0.92100189  0.53922932  0.73187794  1
  O2-  O276  1  0.29279680  0.16286761  0.06654210  1
  O2-  O277  1  0.29534527  0.16673962  0.39574069  1
  O2-  O278  1  0.28798366  0.16987559  0.73469099  1
  O2-  O279  1  0.29675059  0.66728853  0.06226571  1
  O2-  O280  1  0.29279588  0.65993916  0.39789581  1
  O2-  O281  1  0.29494642  0.66103627  0.72987593  1
  O2-  O282  1  0.79894188  0.16950018  0.06512700  1
  O2-  O283  1  0.79393213  0.16995580  0.40057975  1
  O2-  O284  1  0.80070994  0.16924669  0.72809506  1
  O2-  O285  1  0.79221250  0.66881525  0.06712210  1
  O2-  O286  1  0.79176886  0.67074657  0.40179293  1
  O2-  O287  1  0.79998011  0.67121020  0.73305494  1
