# generated using pymatgen
data_Ca2Al2SiO7
_symmetry_space_group_name_H-M   'P 1'
_cell_length_a   15.46170432
_cell_length_b   15.46150205
_cell_length_c   15.28643305
_cell_angle_alpha   90.01179197
_cell_angle_beta   89.98750095
_cell_angle_gamma   89.98232988
_symmetry_Int_Tables_number   1
_chemical_formula_structural   Ca2Al2SiO7
_chemical_formula_sum   'Ca48 Al48 Si24 O168'
_cell_volume   3654.39227867
_cell_formula_units_Z   24
loop_
 _symmetry_equiv_pos_site_id
 _symmetry_equiv_pos_as_xyz
  1  'x, y, z'
loop_
 _atom_type_symbol
 _atom_type_oxidation_number
  Ca2+  2.0
  Al0+  0.0
  Si0+  0.0
  O2-  -2.0
loop_
 _atom_site_type_symbol
 _atom_site_label
 _atom_site_symmetry_multiplicity
 _atom_site_fract_x
 _atom_site_fract_y
 _atom_site_fract_z
 _atom_site_occupancy
  Ca2+  Ca0  1  0.16812893  0.06652489  0.17588209  1
  Ca2+  Ca1  1  0.17604096  0.07508155  0.50153890  1
  Ca2+  Ca2  1  0.17317685  0.07563854  0.84065651  1
  Ca2+  Ca3  1  0.15643574  0.58203219  0.16746361  1
  Ca2+  Ca4  1  0.16937670  0.58970060  0.50478257  1
  Ca2+  Ca5  1  0.16929819  0.58958271  0.83665488  1
  Ca2+  Ca6  1  0.67469131  0.07949634  0.17405910  1
  Ca2+  Ca7  1  0.67153109  0.08199295  0.49761396  1
  Ca2+  Ca8  1  0.66879655  0.07920416  0.83731877  1
  Ca2+  Ca9  1  0.67062184  0.57712989  0.17371175  1
  Ca2+  Ca10  1  0.67000254  0.58282413  0.50127130  1
  Ca2+  Ca11  1  0.66349861  0.58167302  0.84174538  1
  Ca2+  Ca12  1  0.07047220  0.33609079  0.16070968  1
  Ca2+  Ca13  1  0.07130288  0.33339727  0.49295881  1
  Ca2+  Ca14  1  0.07206232  0.34555856  0.83253982  1
  Ca2+  Ca15  1  0.08205194  0.82697963  0.16172190  1
  Ca2+  Ca16  1  0.08608001  0.82199969  0.49070002  1
  Ca2+  Ca17  1  0.08600010  0.82725519  0.83565628  1
  Ca2+  Ca18  1  0.58278611  0.33935877  0.16685507  1
  Ca2+  Ca19  1  0.57677770  0.33354977  0.48997979  1
  Ca2+  Ca20  1  0.58491927  0.33367195  0.83214208  1
  Ca2+  Ca21  1  0.57246384  0.83061252  0.15867870  1
  Ca2+  Ca22  1  0.57252324  0.82930969  0.49707381  1
  Ca2+  Ca23  1  0.57523501  0.82057024  0.82798009  1
  Ca2+  Ca24  1  0.32688290  0.41767011  0.17207213  1
  Ca2+  Ca25  1  0.33281407  0.42331329  0.50584567  1
  Ca2+  Ca26  1  0.32576785  0.42759973  0.84028813  1
  Ca2+  Ca27  1  0.32554106  0.91160912  0.17412401  1
  Ca2+  Ca28  1  0.33574597  0.91848067  0.50268613  1
  Ca2+  Ca29  1  0.33499669  0.91491176  0.83736458  1
  Ca2+  Ca30  1  0.82686273  0.41996819  0.17559512  1
  Ca2+  Ca31  1  0.83496998  0.41949059  0.49756685  1
  Ca2+  Ca32  1  0.83046219  0.41643405  0.84175719  1
  Ca2+  Ca33  1  0.83902137  0.91757153  0.17745891  1
  Ca2+  Ca34  1  0.84175859  0.92038616  0.49903095  1
  Ca2+  Ca35  1  0.83599070  0.91607125  0.84072312  1
  Ca2+  Ca36  1  0.41048461  0.17037261  0.17041851  1
  Ca2+  Ca37  1  0.41075738  0.16908404  0.49136177  1
  Ca2+  Ca38  1  0.41530860  0.16642498  0.82837910  1
  Ca2+  Ca39  1  0.42142540  0.67770519  0.16097319  1
  Ca2+  Ca40  1  0.41409743  0.67501134  0.49689008  1
  Ca2+  Ca41  1  0.42148907  0.67297776  0.82671497  1
  Ca2+  Ca42  1  0.90934693  0.17587958  0.16458761  1
  Ca2+  Ca43  1  0.91201133  0.17653652  0.49293908  1
  Ca2+  Ca44  1  0.91991125  0.17989156  0.82993462  1
  Ca2+  Ca45  1  0.92256653  0.67248438  0.16509301  1
  Ca2+  Ca46  1  0.92829539  0.66758817  0.48925157  1
  Ca2+  Ca47  1  0.93074960  0.66592901  0.83162890  1
  Al0+  Al48  1  0.00277811  0.00285039  0.00019931  1
  Al0+  Al49  1  0.00147639  -0.00031755  0.34364453  1
  Al0+  Al50  1  0.00091889  0.00254506  0.67013890  1
  Al0+  Al51  1  -0.00061954  0.50130848  -0.00366563  1
  Al0+  Al52  1  -0.00175727  0.49805702  0.32972394  1
  Al0+  Al53  1  -0.00293972  0.50067886  0.65814540  1
  Al0+  Al54  1  0.50228389  0.00303111  -0.00217091  1
  Al0+  Al55  1  0.50091918  0.00099520  0.33174723  1
  Al0+  Al56  1  0.50173907  0.00017417  0.66824009  1
  Al0+  Al57  1  0.49936204  0.49844163  0.00142989  1
  Al0+  Al58  1  0.49841267  0.49787734  0.33252788  1
  Al0+  Al59  1  0.50023579  0.49902286  0.66887343  1
  Al0+  Al60  1  0.25016436  0.25151569  0.00357752  1
  Al0+  Al61  1  0.24921682  0.24956817  0.33214906  1
  Al0+  Al62  1  0.24782447  0.24815608  0.67256264  1
  Al0+  Al63  1  0.25111456  0.75227137  -0.00249800  1
  Al0+  Al64  1  0.25084958  0.74734529  0.32806309  1
  Al0+  Al65  1  0.24998532  0.75012710  0.66487599  1
  Al0+  Al66  1  0.74905575  0.25090077  -0.00107036  1
  Al0+  Al67  1  0.74753724  0.24813338  0.33751550  1
  Al0+  Al68  1  0.74949772  0.25008295  0.66355949  1
  Al0+  Al69  1  0.74923472  0.75118292  -0.00496495  1
  Al0+  Al70  1  0.75103561  0.74794825  0.33611382  1
  Al0+  Al71  1  0.75003201  0.74950340  0.66483021  1
  Al0+  Al72  1  0.67742621  0.42935759  0.35016977  1
  Al0+  Al73  1  0.43020535  0.82113825  0.65046507  1
  Al0+  Al74  1  0.32135018  0.07049297  0.34762533  1
  Al0+  Al75  1  0.18021543  0.92474163  0.35043375  1
  Al0+  Al76  1  0.92875563  0.31961052  0.65059853  1
  Al0+  Al77  1  0.67888315  0.42861176  0.01381083  1
  Al0+  Al78  1  0.92864083  0.32012187  0.98695809  1
  Al0+  Al79  1  0.32213248  0.07109252  0.68207278  1
  Al0+  Al80  1  0.92891618  0.82552723  0.98586201  1
  Al0+  Al81  1  0.43106431  0.82166919  0.31880507  1
  Al0+  Al82  1  0.82211191  0.57109706  0.34918909  1
  Al0+  Al83  1  0.42950618  0.82328489  0.98411799  1
  Al0+  Al84  1  0.17754021  0.43054513  0.01402247  1
  Al0+  Al85  1  0.07024796  0.67937127  0.98358034  1
  Al0+  Al86  1  0.06988265  0.68108948  0.65201903  1
  Al0+  Al87  1  0.07205594  0.67796134  0.31655630  1
  Al0+  Al88  1  0.57062142  0.67650792  0.98663318  1
  Al0+  Al89  1  0.18078350  0.92966009  0.01438568  1
  Al0+  Al90  1  0.82183913  0.06945569  0.34725854  1
  Al0+  Al91  1  0.42715235  0.32157674  0.32003650  1
  Al0+  Al92  1  0.57269997  0.67524136  0.64934872  1
  Al0+  Al93  1  0.92870845  0.82272499  0.32157665  1
  Al0+  Al94  1  0.32088526  0.57096885  0.67995632  1
  Al0+  Al95  1  0.92727460  0.31796763  0.31808432  1
  Si0+  Si96  1  0.82052241  0.07277420  0.68370920  1
  Si0+  Si97  1  0.57137153  0.17841017  0.31574690  1
  Si0+  Si98  1  0.42669213  0.32055568  0.98418719  1
  Si0+  Si99  1  0.67927760  0.92949409  0.01351967  1
  Si0+  Si100  1  0.07389872  0.17945031  0.98384074  1
  Si0+  Si101  1  0.17762243  0.42808017  0.34769441  1
  Si0+  Si102  1  0.82131512  0.57086163  0.68228945  1
  Si0+  Si103  1  0.57160714  0.18113452  0.98434229  1
  Si0+  Si104  1  0.82043098  0.07100895  0.01276380  1
  Si0+  Si105  1  0.67715218  0.92634206  0.34952978  1
  Si0+  Si106  1  0.32059021  0.56895847  0.34672818  1
  Si0+  Si107  1  0.67966198  0.42809769  0.68238182  1
  Si0+  Si108  1  0.32176394  0.57200828  0.01774836  1
  Si0+  Si109  1  0.92747730  0.82480655  0.65109937  1
  Si0+  Si110  1  0.57102629  0.17907724  0.65151434  1
  Si0+  Si111  1  0.17565767  0.42848573  0.68130128  1
  Si0+  Si112  1  0.42754231  0.31916620  0.65511415  1
  Si0+  Si113  1  0.82176146  0.57360698  0.01487723  1
  Si0+  Si114  1  0.07245095  0.17798758  0.31766728  1
  Si0+  Si115  1  0.07286703  0.17647886  0.64947541  1
  Si0+  Si116  1  0.68044895  0.92897012  0.68244523  1
  Si0+  Si117  1  0.17820526  0.92808095  0.68527819  1
  Si0+  Si118  1  0.32536861  0.07327636  0.01816857  1
  Si0+  Si119  1  0.57227912  0.67645637  0.31757605  1
  O2-  O120  1  0.25870130  0.00226983  0.05994460  1
  O2-  O121  1  0.25428881  -0.00433639  0.39969342  1
  O2-  O122  1  0.24861821  -0.00403693  0.72896164  1
  O2-  O123  1  0.25008449  0.50640527  0.06241471  1
  O2-  O124  1  0.24770213  0.49975139  0.38963493  1
  O2-  O125  1  0.24462922  0.49666802  0.72580307  1
  O2-  O126  1  0.75625401  -0.00585748  0.05555734  1
  O2-  O127  1  0.75102171  -0.00976342  0.39375267  1
  O2-  O128  1  0.75459174  -0.00268174  0.72608305  1
  O2-  O129  1  0.75103916  0.50608921  0.05818599  1
  O2-  O130  1  0.74872770  0.50078847  0.40124876  1
  O2-  O131  1  0.74829508  0.50128736  0.72471121  1
  O2-  O132  1  0.00045942  0.24200966  0.27130658  1
  O2-  O133  1  0.00486021  0.24566513  0.60533209  1
  O2-  O134  1  0.00764109  0.25045936  0.93870948  1
  O2-  O135  1  0.00096178  0.75273678  0.26993662  1
  O2-  O136  1  -0.00320027  0.75777777  0.60704213  1
  O2-  O137  1  -0.00155689  0.75241651  0.93406520  1
  O2-  O138  1  0.50166881  0.24665792  0.27276464  1
  O2-  O139  1  0.49605645  0.24647602  0.61133757  1
  O2-  O140  1  0.49837065  0.24988983  0.94199894  1
  O2-  O141  1  0.50856253  0.74936169  0.27318650  1
  O2-  O142  1  0.49917642  0.74597925  0.60039026  1
  O2-  O143  1  0.49902384  0.74817021  0.93569369  1
  O2-  O144  1  0.07133320  0.17872251  0.08902852  1
  O2-  O145  1  0.07360173  0.18366122  0.42347487  1
  O2-  O146  1  0.07035898  0.17470746  0.75518889  1
  O2-  O147  1  0.06718834  0.67791331  0.09632204  1
  O2-  O148  1  0.07266547  0.67750965  0.43042738  1
  O2-  O149  1  0.06883640  0.67957062  0.76482320  1
  O2-  O150  1  0.57434142  0.17985794  0.08871571  1
  O2-  O151  1  0.57200922  0.17831583  0.42169476  1
  O2-  O152  1  0.57434802  0.18125406  0.75703524  1
  O2-  O153  1  0.57013240  0.67899131  0.10024674  1
  O2-  O154  1  0.56849081  0.67581559  0.42313659  1
  O2-  O155  1  0.57286864  0.67642257  0.76285132  1
  O2-  O156  1  0.17865159  0.42758924  0.24254268  1
  O2-  O157  1  0.17838988  0.42633510  0.57559130  1
  O2-  O158  1  0.18070299  0.42924075  0.90061975  1
  O2-  O159  1  0.18040886  0.92651770  0.23671817  1
  O2-  O160  1  0.17662562  0.93017082  0.58018276  1
  O2-  O161  1  0.18008357  0.93364674  0.90104080  1
  O2-  O162  1  0.67805733  0.43110902  0.23644281  1
  O2-  O163  1  0.67949695  0.42468802  0.57799378  1
  O2-  O164  1  0.68155854  0.42509423  0.90003489  1
  O2-  O165  1  0.67530411  0.93020986  0.24366381  1
  O2-  O166  1  0.67985411  0.93212288  0.57759351  1
  O2-  O167  1  0.67756097  0.93463600  0.90825655  1
  O2-  O168  1  0.42577342  0.31942424  0.08896876  1
  O2-  O169  1  0.42757634  0.32097970  0.43382019  1
  O2-  O170  1  0.43042297  0.31833010  0.76047643  1
  O2-  O171  1  0.43245396  0.82410444  0.09779387  1
  O2-  O172  1  0.43203998  0.82066486  0.43179444  1
  O2-  O173  1  0.43372017  0.82198046  0.76383960  1
  O2-  O174  1  0.92587319  0.31662924  0.09948049  1
  O2-  O175  1  0.92974811  0.31717395  0.43139714  1
  O2-  O176  1  0.92721617  0.31874982  0.76409568  1
  O2-  O177  1  0.92935933  0.82746542  0.09870668  1
  O2-  O178  1  0.93095098  0.82092651  0.43551363  1
  O2-  O179  1  0.92712443  0.82441400  0.75671592  1
  O2-  O180  1  0.31824552  0.07155267  0.23415843  1
  O2-  O181  1  0.32119119  0.07381214  0.56972152  1
  O2-  O182  1  0.32499415  0.07481765  0.91215666  1
  O2-  O183  1  0.32292860  0.56654937  0.24178377  1
  O2-  O184  1  0.32089716  0.56772078  0.56657207  1
  O2-  O185  1  0.32294876  0.56778630  0.91186767  1
  O2-  O186  1  0.81730136  0.07213158  0.23376719  1
  O2-  O187  1  0.81812638  0.07420490  0.57900843  1
  O2-  O188  1  0.81576893  0.07282861  0.90721124  1
  O2-  O189  1  0.82112263  0.56993908  0.23544437  1
  O2-  O190  1  0.82217161  0.56891278  0.57773000  1
  O2-  O191  1  0.82184968  0.57056817  0.90861124  1
  O2-  O192  1  0.04965364  0.08195940  0.27729039  1
  O2-  O193  1  0.04630537  0.08329858  0.60323112  1
  O2-  O194  1  0.04527759  0.08847618  0.93431416  1
  O2-  O195  1  0.04116617  0.57990429  0.26489124  1
  O2-  O196  1  0.03847962  0.58557326  0.59661931  1
  O2-  O197  1  0.04132990  0.58189394  0.92801454  1
  O2-  O198  1  0.54775222  0.08547749  0.26752325  1
  O2-  O199  1  0.54812356  0.08633396  0.60515020  1
  O2-  O200  1  0.54604881  0.08983932  0.93400635  1
  O2-  O201  1  0.54165406  0.58472257  0.27111912  1
  O2-  O202  1  0.54705427  0.57471591  0.59969859  1
  O2-  O203  1  0.54297698  0.57720104  0.93389046  1
  O2-  O204  1  0.16361437  0.20615667  0.26897592  1
  O2-  O205  1  0.16728890  0.20171078  0.60524911  1
  O2-  O206  1  0.16884301  0.20267339  0.93894527  1
  O2-  O207  1  0.17056328  0.70183344  0.26261872  1
  O2-  O208  1  0.16689936  0.70918827  0.59851610  1
  O2-  O209  1  0.16949240  0.70732034  0.93243353  1
  O2-  O210  1  0.66387805  0.20536896  0.26874388  1
  O2-  O211  1  0.66069779  0.21007556  0.60208653  1
  O2-  O212  1  0.66111106  0.21124901  0.93293703  1
  O2-  O213  1  0.66805237  0.69632785  0.27476084  1
  O2-  O214  1  0.67096996  0.70636786  0.59737030  1
  O2-  O215  1  0.66841975  0.70412221  0.93191056  1
  O2-  O216  1  0.07947527  0.45890390  0.06636118  1
  O2-  O217  1  0.08554901  0.45403527  0.39468481  1
  O2-  O218  1  0.08109384  0.45624625  0.72429762  1
  O2-  O219  1  0.08515329  0.96504130  0.06839324  1
  O2-  O220  1  0.08408447  0.95463744  0.40711725  1
  O2-  O221  1  0.08491170  0.95629620  0.73243979  1
  O2-  O222  1  0.58026407  0.45352711  0.06666314  1
  O2-  O223  1  0.57767168  0.45631211  0.40203934  1
  O2-  O224  1  0.58700836  0.45158069  0.73078873  1
  O2-  O225  1  0.59061932  0.96524622  0.06271620  1
  O2-  O226  1  0.58727697  0.96059285  0.39815151  1
  O2-  O227  1  0.59150754  0.96196208  0.73231737  1
  O2-  O228  1  0.20932015  0.33427781  0.06867928  1
  O2-  O229  1  0.20679231  0.33726195  0.39590414  1
  O2-  O230  1  0.19852556  0.33492200  0.72916586  1
  O2-  O231  1  0.20907014  0.83213185  0.06718703  1
  O2-  O232  1  0.20999758  0.82534747  0.40016093  1
  O2-  O233  1  0.20333247  0.83431357  0.73015652  1
  O2-  O234  1  0.71071066  0.33203853  0.06741094  1
  O2-  O235  1  0.70307167  0.32999355  0.40209196  1
  O2-  O236  1  0.71003876  0.33611134  0.72983329  1
  O2-  O237  1  0.69875084  0.83544332  0.05902864  1
  O2-  O238  1  0.69539216  0.83136730  0.39468446  1
  O2-  O239  1  0.70574315  0.83616949  0.72948332  1
  O2-  O240  1  0.45820108  0.41656317  0.26327815  1
  O2-  O241  1  0.45714762  0.40987408  0.60756430  1
  O2-  O242  1  0.45498020  0.41181852  0.93653400  1
  O2-  O243  1  0.46007295  0.91889262  0.26540621  1
  O2-  O244  1  0.46365928  0.91948974  0.59942558  1
  O2-  O245  1  0.46080598  0.92201508  0.93259899  1
  O2-  O246  1  0.95966862  0.41300082  0.26392562  1
  O2-  O247  1  0.95779166  0.41511417  0.59504116  1
  O2-  O248  1  0.95663077  0.41661063  0.93173993  1
  O2-  O249  1  0.95213945  0.92483749  0.27428239  1
  O2-  O250  1  0.95042549  0.92106586  0.60895072  1
  O2-  O251  1  0.95763409  0.92438210  0.93202277  1
  O2-  O252  1  0.33139913  0.29034365  0.26419092  1
  O2-  O253  1  0.33394063  0.29409074  0.61014255  1
  O2-  O254  1  0.33553604  0.29251912  0.93534767  1
  O2-  O255  1  0.33699481  0.78625966  0.26429841  1
  O2-  O256  1  0.33080842  0.79577779  0.59966217  1
  O2-  O257  1  0.33119963  0.79783021  0.93133209  1
  O2-  O258  1  0.82947279  0.28618584  0.26783600  1
  O2-  O259  1  0.83312935  0.28496282  0.59723058  1
  O2-  O260  1  0.83416532  0.28390695  0.93110195  1
  O2-  O261  1  0.82841163  0.79702197  0.26997059  1
  O2-  O262  1  0.83357109  0.80090583  0.60593940  1
  O2-  O263  1  0.82875153  0.80233849  0.93340261  1
  O2-  O264  1  0.42118273  0.05253384  0.06181067  1
  O2-  O265  1  0.42270841  0.04867114  0.39792592  1
  O2-  O266  1  0.42093466  0.04444001  0.73525991  1
  O2-  O267  1  0.41332948  0.54134281  0.06481792  1
  O2-  O268  1  0.41048089  0.53866758  0.39610250  1
  O2-  O269  1  0.41630597  0.53719782  0.73566508  1
  O2-  O270  1  0.91473670  0.05308186  0.05778484  1
  O2-  O271  1  0.91754868  0.04645493  0.40687647  1
  O2-  O272  1  0.91425771  0.05127027  0.73075346  1
  O2-  O273  1  0.91425022  0.54560598  0.06019864  1
  O2-  O274  1  0.91936567  0.53678474  0.40209905  1
  O2-  O275  1  0.91244527  0.53885699  0.72918875  1
  O2-  O276  1  0.29875010  0.16687224  0.06334483  1
  O2-  O277  1  0.28998768  0.16909235  0.40040225  1
  O2-  O278  1  0.29096030  0.16723837  0.73935434  1
  O2-  O279  1  0.30084861  0.66765301  0.06006338  1
  O2-  O280  1  0.29374295  0.66064211  0.39394469  1
  O2-  O281  1  0.29061185  0.66769862  0.73378572  1
  O2-  O282  1  0.78406404  0.15954133  0.06093032  1
  O2-  O283  1  0.78344078  0.16233496  0.40448810  1
  O2-  O284  1  0.78582839  0.16266142  0.73166419  1
  O2-  O285  1  0.79806940  0.66852648  0.05893271  1
  O2-  O286  1  0.79701746  0.66983370  0.40428287  1
  O2-  O287  1  0.79714959  0.66427560  0.72853542  1
