# generated using pymatgen
data_Ca2Al2SiO7
_symmetry_space_group_name_H-M   'P 1'
_cell_length_a   15.45654767
_cell_length_b   15.45739033
_cell_length_c   15.28285209
_cell_angle_alpha   89.98630703
_cell_angle_beta   89.99210273
_cell_angle_gamma   90.00503705
_symmetry_Int_Tables_number   1
_chemical_formula_structural   Ca2Al2SiO7
_chemical_formula_sum   'Ca48 Al48 Si24 O168'
_cell_volume   3651.34663149
_cell_formula_units_Z   24
loop_
 _symmetry_equiv_pos_site_id
 _symmetry_equiv_pos_as_xyz
  1  'x, y, z'
loop_
 _atom_type_symbol
 _atom_type_oxidation_number
  Ca2+  2.0
  Al0+  0.0
  Si0+  0.0
  O2-  -2.0
loop_
 _atom_site_type_symbol
 _atom_site_label
 _atom_site_symmetry_multiplicity
 _atom_site_fract_x
 _atom_site_fract_y
 _atom_site_fract_z
 _atom_site_occupancy
  Ca2+  Ca0  1  0.16996850  0.08452913  0.16918472  1
  Ca2+  Ca1  1  0.18104322  0.08564930  0.50518974  1
  Ca2+  Ca2  1  0.17198251  0.08829345  0.83888128  1
  Ca2+  Ca3  1  0.16219884  0.58380851  0.16618021  1
  Ca2+  Ca4  1  0.16596372  0.57837094  0.50575057  1
  Ca2+  Ca5  1  0.17297119  0.57062666  0.84357481  1
  Ca2+  Ca6  1  0.67975936  0.08444745  0.17008962  1
  Ca2+  Ca7  1  0.67380740  0.08612844  0.50677025  1
  Ca2+  Ca8  1  0.67670903  0.09040678  0.83522919  1
  Ca2+  Ca9  1  0.67409175  0.58316581  0.16452250  1
  Ca2+  Ca10  1  0.67770753  0.58059858  0.51029394  1
  Ca2+  Ca11  1  0.66511036  0.57854576  0.84182987  1
  Ca2+  Ca12  1  0.07725683  0.32875499  0.16019265  1
  Ca2+  Ca13  1  0.07582264  0.33559499  0.49549576  1
  Ca2+  Ca14  1  0.08838627  0.33330710  0.83262229  1
  Ca2+  Ca15  1  0.07886360  0.81983175  0.15779706  1
  Ca2+  Ca16  1  0.08180142  0.82340197  0.49370671  1
  Ca2+  Ca17  1  0.07746093  0.82633849  0.83671887  1
  Ca2+  Ca18  1  0.57822181  0.33628331  0.15799815  1
  Ca2+  Ca19  1  0.58493107  0.33174402  0.50489433  1
  Ca2+  Ca20  1  0.57494043  0.34022572  0.82592079  1
  Ca2+  Ca21  1  0.57803179  0.82903150  0.16221385  1
  Ca2+  Ca22  1  0.58093254  0.82874113  0.49826265  1
  Ca2+  Ca23  1  0.58944873  0.81822825  0.83058294  1
  Ca2+  Ca24  1  0.33016785  0.42029554  0.15965021  1
  Ca2+  Ca25  1  0.32385637  0.41211189  0.50894026  1
  Ca2+  Ca26  1  0.32878223  0.41246030  0.84161462  1
  Ca2+  Ca27  1  0.33384602  0.92045579  0.17692082  1
  Ca2+  Ca28  1  0.33954534  0.92436729  0.50104959  1
  Ca2+  Ca29  1  0.33585822  0.92436251  0.83410890  1
  Ca2+  Ca30  1  0.83321214  0.42424197  0.16941935  1
  Ca2+  Ca31  1  0.83224364  0.42481620  0.50659284  1
  Ca2+  Ca32  1  0.81812305  0.42735856  0.83877684  1
  Ca2+  Ca33  1  0.84266794  0.92523737  0.16562831  1
  Ca2+  Ca34  1  0.83645823  0.93010735  0.50497833  1
  Ca2+  Ca35  1  0.83698502  0.92439219  0.83951058  1
  Ca2+  Ca36  1  0.41647108  0.17213291  0.15998589  1
  Ca2+  Ca37  1  0.41827676  0.16619340  0.50066812  1
  Ca2+  Ca38  1  0.42203101  0.17867360  0.82325863  1
  Ca2+  Ca39  1  0.41905277  0.66912256  0.15725881  1
  Ca2+  Ca40  1  0.42597124  0.67010169  0.49517132  1
  Ca2+  Ca41  1  0.42889644  0.65460479  0.83267583  1
  Ca2+  Ca42  1  0.91666171  0.16947890  0.15926856  1
  Ca2+  Ca43  1  0.90862539  0.17482277  0.49368900  1
  Ca2+  Ca44  1  0.92030889  0.16273232  0.83094106  1
  Ca2+  Ca45  1  0.92162924  0.66517332  0.15759025  1
  Ca2+  Ca46  1  0.92051847  0.65838704  0.49197045  1
  Ca2+  Ca47  1  0.91012298  0.66532420  0.83261614  1
  Al0+  Al48  1  0.00211648  0.00004237  -0.00347798  1
  Al0+  Al49  1  0.00219893  -0.00083985  0.34018822  1
  Al0+  Al50  1  0.00194963  -0.00146755  0.66739899  1
  Al0+  Al51  1  0.00010445  0.49735139  0.00164879  1
  Al0+  Al52  1  -0.00077820  0.49757410  0.32814481  1
  Al0+  Al53  1  0.00105792  0.49934231  0.67504492  1
  Al0+  Al54  1  0.50176321  0.00102762  -0.00027261  1
  Al0+  Al55  1  0.50066068  0.00008493  0.33274240  1
  Al0+  Al56  1  0.50096229  0.00023386  0.66900813  1
  Al0+  Al57  1  0.49707140  0.49990283  0.00179623  1
  Al0+  Al58  1  0.49912238  0.49865679  0.33344813  1
  Al0+  Al59  1  0.49904210  0.50099564  0.65472299  1
  Al0+  Al60  1  0.24975243  0.25055073  -0.00187552  1
  Al0+  Al61  1  0.25036198  0.24983020  0.33695704  1
  Al0+  Al62  1  0.24991299  0.24847228  0.66959238  1
  Al0+  Al63  1  0.24862595  0.75185570  -0.00302668  1
  Al0+  Al64  1  0.25088055  0.74915609  0.32730678  1
  Al0+  Al65  1  0.24826988  0.75076060  0.66561717  1
  Al0+  Al66  1  0.75025073  0.24969004  0.00812074  1
  Al0+  Al67  1  0.74829577  0.25079056  0.33148413  1
  Al0+  Al68  1  0.75013851  0.25211520  0.67102945  1
  Al0+  Al69  1  0.74805651  0.75188506  -0.00293274  1
  Al0+  Al70  1  0.75057631  0.74985674  0.33682165  1
  Al0+  Al71  1  0.75215022  0.75400611  0.66161331  1
  Al0+  Al72  1  0.07140051  0.67503557  0.98186992  1
  Al0+  Al73  1  0.82180306  0.57363940  0.68148009  1
  Al0+  Al74  1  0.06947142  0.67827301  0.31999740  1
  Al0+  Al75  1  0.92769444  0.31884590  0.31976023  1
  Al0+  Al76  1  0.31951311  0.57258439  0.01443486  1
  Al0+  Al77  1  0.82131938  0.07211613  0.68077754  1
  Al0+  Al78  1  0.82093611  0.56911003  0.34629933  1
  Al0+  Al79  1  0.06937755  0.18039055  0.98684096  1
  Al0+  Al80  1  0.57304443  0.17902032  0.65181303  1
  Al0+  Al81  1  0.67690470  0.43161962  0.68037225  1
  Al0+  Al82  1  0.42687652  0.32092976  0.64875971  1
  Al0+  Al83  1  0.67621522  0.42901331  0.01630240  1
  Al0+  Al84  1  0.18002271  0.42887252  0.67970513  1
  Al0+  Al85  1  0.82184802  0.07123558  0.34740279  1
  Al0+  Al86  1  0.32099813  0.07105560  0.34655089  1
  Al0+  Al87  1  0.81983612  0.57301095  0.01523270  1
  Al0+  Al88  1  0.43104538  0.31896328  0.98758731  1
  Al0+  Al89  1  0.43168114  0.82060916  0.32010455  1
  Al0+  Al90  1  0.56785072  0.68091756  0.98848315  1
  Al0+  Al91  1  0.32164109  0.06926816  0.68236003  1
  Al0+  Al92  1  0.82239916  0.06920417  0.01388840  1
  Al0+  Al93  1  0.17837925  0.42652068  0.01766800  1
  Al0+  Al94  1  0.57256627  0.67893141  0.65094416  1
  Al0+  Al95  1  0.92893955  0.81999149  0.98492692  1
  Si0+  Si96  1  0.17787389  0.92606924  0.68513882  1
  Si0+  Si97  1  0.42659847  0.82231807  0.65065160  1
  Si0+  Si98  1  0.67664062  0.92786584  0.01725336  1
  Si0+  Si99  1  0.07132518  0.17667403  0.65033611  1
  Si0+  Si100  1  0.57345190  0.67671411  0.31601935  1
  Si0+  Si101  1  0.92487651  0.32164854  0.98171440  1
  Si0+  Si102  1  0.17981549  0.93004673  0.01510483  1
  Si0+  Si103  1  0.42587698  0.32065055  0.31711780  1
  Si0+  Si104  1  0.32143709  0.57422295  0.67891812  1
  Si0+  Si105  1  0.42621820  0.82619161  0.98222158  1
  Si0+  Si106  1  0.92748914  0.82434149  0.31875566  1
  Si0+  Si107  1  0.07346965  0.17774928  0.32013282  1
  Si0+  Si108  1  0.32176692  0.07044761  0.01441594  1
  Si0+  Si109  1  0.18031050  0.42997214  0.34794315  1
  Si0+  Si110  1  0.67483125  0.42781605  0.35144593  1
  Si0+  Si111  1  0.57011896  0.17938764  0.31725211  1
  Si0+  Si112  1  0.57434075  0.17677788  0.98468181  1
  Si0+  Si113  1  0.93123899  0.32045585  0.65445171  1
  Si0+  Si114  1  0.93013901  0.82345025  0.64861425  1
  Si0+  Si115  1  0.67756471  0.92871298  0.35050639  1
  Si0+  Si116  1  0.06899021  0.67824396  0.65219048  1
  Si0+  Si117  1  0.32200955  0.57252910  0.34862539  1
  Si0+  Si118  1  0.67834667  0.92834006  0.68364207  1
  Si0+  Si119  1  0.17977098  0.92492998  0.35026359  1
  O2-  O120  1  0.25528988  -0.00382140  0.05792883  1
  O2-  O121  1  0.24665029  -0.00418143  0.39396007  1
  O2-  O122  1  0.24665449  -0.00526112  0.72898129  1
  O2-  O123  1  0.24400825  0.50516010  0.06700169  1
  O2-  O124  1  0.25132527  0.50107232  0.39080338  1
  O2-  O125  1  0.25827314  0.50109719  0.72288670  1
  O2-  O126  1  0.74642353  -0.00420399  0.06112090  1
  O2-  O127  1  0.74940876  -0.00553289  0.39452428  1
  O2-  O128  1  0.74477146  -0.00060580  0.72713441  1
  O2-  O129  1  0.75067734  0.49860519  0.06629054  1
  O2-  O130  1  0.74321229  0.49782851  0.39357925  1
  O2-  O131  1  0.74300451  0.50892893  0.73001905  1
  O2-  O132  1  -0.00091143  0.23908490  0.27560541  1
  O2-  O133  1  -0.00050798  0.24710620  0.60915468  1
  O2-  O134  1  -0.00505880  0.25382821  0.93766215  1
  O2-  O135  1  -0.00614307  0.75346145  0.27569850  1
  O2-  O136  1  -0.00347928  0.74704656  0.60790485  1
  O2-  O137  1  -0.00600976  0.74230193  0.93257791  1
  O2-  O138  1  0.49893357  0.25103550  0.27610732  1
  O2-  O139  1  0.49998363  0.24900491  0.59906503  1
  O2-  O140  1  0.50813497  0.24712111  0.94108801  1
  O2-  O141  1  0.50414713  0.74502569  0.27226274  1
  O2-  O142  1  0.49506024  0.75315679  0.60672722  1
  O2-  O143  1  0.49230009  0.75490824  0.93962038  1
  O2-  O144  1  0.06926881  0.17929294  0.10050105  1
  O2-  O145  1  0.07685121  0.18209924  0.42575516  1
  O2-  O146  1  0.07092207  0.17534322  0.75529942  1
  O2-  O147  1  0.07224514  0.68102536  0.09573022  1
  O2-  O148  1  0.06977526  0.67822113  0.43405396  1
  O2-  O149  1  0.07094625  0.68061276  0.75632216  1
  O2-  O150  1  0.57037316  0.17323042  0.09075500  1
  O2-  O151  1  0.57115507  0.17875499  0.42209607  1
  O2-  O152  1  0.57172659  0.17943210  0.76513058  1
  O2-  O153  1  0.56688977  0.68434093  0.10180667  1
  O2-  O154  1  0.57212657  0.67805865  0.42170725  1
  O2-  O155  1  0.57139447  0.67960325  0.76395268  1
  O2-  O156  1  0.18238329  0.42755449  0.24359553  1
  O2-  O157  1  0.17649813  0.43203315  0.56552764  1
  O2-  O158  1  0.18449035  0.42360289  0.90428376  1
  O2-  O159  1  0.18001567  0.92554217  0.24473989  1
  O2-  O160  1  0.17764872  0.92483285  0.57935073  1
  O2-  O161  1  0.18020921  0.93221063  0.90994506  1
  O2-  O162  1  0.67215871  0.42819813  0.24621621  1
  O2-  O163  1  0.68278638  0.43029875  0.56631259  1
  O2-  O164  1  0.67461833  0.43025132  0.90293642  1
  O2-  O165  1  0.67509063  0.93074813  0.24510612  1
  O2-  O166  1  0.68017680  0.92749903  0.57764858  1
  O2-  O167  1  0.67406986  0.92939723  0.91190504  1
  O2-  O168  1  0.43005892  0.31517031  0.10159664  1
  O2-  O169  1  0.42278810  0.31987369  0.42171752  1
  O2-  O170  1  0.42559534  0.31961527  0.76205763  1
  O2-  O171  1  0.42835576  0.82965493  0.08800894  1
  O2-  O172  1  0.43364801  0.81935430  0.43335616  1
  O2-  O173  1  0.42503611  0.82232382  0.75587461  1
  O2-  O174  1  0.92531796  0.31802992  0.08776543  1
  O2-  O175  1  0.93028254  0.32013046  0.43369505  1
  O2-  O176  1  0.93378977  0.31917670  0.75899531  1
  O2-  O177  1  0.93426477  0.82353252  0.09885220  1
  O2-  O178  1  0.93041263  0.82598483  0.42459727  1
  O2-  O179  1  0.93189807  0.82743822  0.75308533  1
  O2-  O180  1  0.31865374  0.07135215  0.23312754  1
  O2-  O181  1  0.31997668  0.06732610  0.56884325  1
  O2-  O182  1  0.32084274  0.06912261  0.90953233  1
  O2-  O183  1  0.32347826  0.57253402  0.24412270  1
  O2-  O184  1  0.31574909  0.57783269  0.57268572  1
  O2-  O185  1  0.32162508  0.56910014  0.90067992  1
  O2-  O186  1  0.82198394  0.06966759  0.23454827  1
  O2-  O187  1  0.82164153  0.07049354  0.56722876  1
  O2-  O188  1  0.82185655  0.06815833  0.90087549  1
  O2-  O189  1  0.82077574  0.56908789  0.23392105  1
  O2-  O190  1  0.82562616  0.56861173  0.56732418  1
  O2-  O191  1  0.81462675  0.57299389  0.90189531  1
  O2-  O192  1  0.05578262  0.08019480  0.27891325  1
  O2-  O193  1  0.04672951  0.08374891  0.60297230  1
  O2-  O194  1  0.04096930  0.08461911  0.93029933  1
  O2-  O195  1  0.04002655  0.58260662  0.26522642  1
  O2-  O196  1  0.04258443  0.58517638  0.60602366  1
  O2-  O197  1  0.05172684  0.57301633  0.93403690  1
  O2-  O198  1  0.54201246  0.08807566  0.26935423  1
  O2-  O199  1  0.54596024  0.07877170  0.60022110  1
  O2-  O200  1  0.54818445  0.08374349  0.93727450  1
  O2-  O201  1  0.54702022  0.58251396  0.27215303  1
  O2-  O202  1  0.54320842  0.58530631  0.59071826  1
  O2-  O203  1  0.53523799  0.58507313  0.93480840  1
  O2-  O204  1  0.16489243  0.20871925  0.27195655  1
  O2-  O205  1  0.16260735  0.20615689  0.60328192  1
  O2-  O206  1  0.16563655  0.21096223  0.93186851  1
  O2-  O207  1  0.16550558  0.70905926  0.26530623  1
  O2-  O208  1  0.16020826  0.70858214  0.60281118  1
  O2-  O209  1  0.16796950  0.71118823  0.92850230  1
  O2-  O210  1  0.66101381  0.20731507  0.26812985  1
  O2-  O211  1  0.67189098  0.20943406  0.59873507  1
  O2-  O212  1  0.66986385  0.19936875  0.94266605  1
  O2-  O213  1  0.66733469  0.70379518  0.27157929  1
  O2-  O214  1  0.66797984  0.71426461  0.59560379  1
  O2-  O215  1  0.66254390  0.71284856  0.93194243  1
  O2-  O216  1  0.07749816  0.44659284  0.06830076  1
  O2-  O217  1  0.08825156  0.45815791  0.39426332  1
  O2-  O218  1  0.08682905  0.46116996  0.73749631  1
  O2-  O219  1  0.09093094  0.96326804  0.06398953  1
  O2-  O220  1  0.08630854  0.94702690  0.39880570  1
  O2-  O221  1  0.08517042  0.95266486  0.73139271  1
  O2-  O222  1  0.57910900  0.45934766  0.07040253  1
  O2-  O223  1  0.58027392  0.45111229  0.39792390  1
  O2-  O224  1  0.57448863  0.45573589  0.72599252  1
  O2-  O225  1  0.58345905  0.95538241  0.06545488  1
  O2-  O226  1  0.58591915  0.95813298  0.39851139  1
  O2-  O227  1  0.58375762  0.94776585  0.72949008  1
  O2-  O228  1  0.21417203  0.33007917  0.07176884  1
  O2-  O229  1  0.20872412  0.33887735  0.39746034  1
  O2-  O230  1  0.20640533  0.33140301  0.73271787  1
  O2-  O231  1  0.20331313  0.83731580  0.06244593  1
  O2-  O232  1  0.20864161  0.83221186  0.39705877  1
  O2-  O233  1  0.20382384  0.83277538  0.73197015  1
  O2-  O234  1  0.70183223  0.33002625  0.07060133  1
  O2-  O235  1  0.70142129  0.33387960  0.39568137  1
  O2-  O236  1  0.70799175  0.33532330  0.73479492  1
  O2-  O237  1  0.70015831  0.83483651  0.06430417  1
  O2-  O238  1  0.69919954  0.83395288  0.39650194  1
  O2-  O239  1  0.70899728  0.83651014  0.72996749  1
  O2-  O240  1  0.45218072  0.41374684  0.27120319  1
  O2-  O241  1  0.45015766  0.41917240  0.59230573  1
  O2-  O242  1  0.45694274  0.41642967  0.93449032  1
  O2-  O243  1  0.46209077  0.91725592  0.26481869  1
  O2-  O244  1  0.45408670  0.91551510  0.60453983  1
  O2-  O245  1  0.45531502  0.91899411  0.93518549  1
  O2-  O246  1  0.96374605  0.41146808  0.26290745  1
  O2-  O247  1  0.96330188  0.41171941  0.60699501  1
  O2-  O248  1  0.94848048  0.41555474  0.93705146  1
  O2-  O249  1  0.95593023  0.91799254  0.27332680  1
  O2-  O250  1  0.96502007  0.91266111  0.59862347  1
  O2-  O251  1  0.96628513  0.91509069  0.92988056  1
  O2-  O252  1  0.33514343  0.28966788  0.26940425  1
  O2-  O253  1  0.32831778  0.28753530  0.59672545  1
  O2-  O254  1  0.33642623  0.28428461  0.93324453  1
  O2-  O255  1  0.33500955  0.79281137  0.26512403  1
  O2-  O256  1  0.33240499  0.79818837  0.60324467  1
  O2-  O257  1  0.33127246  0.80675327  0.93740400  1
  O2-  O258  1  0.83048248  0.29171674  0.26532725  1
  O2-  O259  1  0.83918743  0.29449639  0.60677730  1
  O2-  O260  1  0.83115083  0.29312044  0.93788421  1
  O2-  O261  1  0.83183373  0.80339615  0.27539819  1
  O2-  O262  1  0.83732397  0.80414513  0.59986045  1
  O2-  O263  1  0.82807027  0.80164061  0.93302534  1
  O2-  O264  1  0.41535034  0.04653367  0.06117955  1
  O2-  O265  1  0.41758923  0.03937909  0.39987849  1
  O2-  O266  1  0.41796009  0.03927202  0.73697247  1
  O2-  O267  1  0.41467242  0.53985023  0.07118593  1
  O2-  O268  1  0.41421739  0.54505714  0.39622673  1
  O2-  O269  1  0.41789685  0.55337491  0.71832971  1
  O2-  O270  1  0.91915309  0.03635725  0.06682067  1
  O2-  O271  1  0.91965626  0.04500594  0.40289406  1
  O2-  O272  1  0.91843980  0.03813920  0.73180016  1
  O2-  O273  1  0.91991870  0.54650149  0.06504686  1
  O2-  O274  1  0.91743596  0.53409729  0.39934578  1
  O2-  O275  1  0.91695314  0.54062267  0.73653888  1
  O2-  O276  1  0.28937575  0.16007183  0.06222544  1
  O2-  O277  1  0.28879908  0.16632158  0.40304356  1
  O2-  O278  1  0.28807859  0.16424448  0.73621660  1
  O2-  O279  1  0.29669298  0.67452383  0.06419918  1
  O2-  O280  1  0.29357474  0.66438721  0.39549507  1
  O2-  O281  1  0.29323524  0.66623602  0.72664068  1
  O2-  O282  1  0.79269157  0.16454485  0.07077362  1
  O2-  O283  1  0.78693526  0.16767305  0.39939047  1
  O2-  O284  1  0.79404457  0.16847020  0.73545411  1
  O2-  O285  1  0.79031061  0.67226006  0.06668046  1
  O2-  O286  1  0.79605528  0.66804134  0.40033779  1
  O2-  O287  1  0.80245077  0.67707504  0.72587857  1
