# generated using pymatgen
data_Ca2Al2SiO7
_symmetry_space_group_name_H-M   'P 1'
_cell_length_a   15.45778079
_cell_length_b   15.45779819
_cell_length_c   15.28274645
_cell_angle_alpha   89.99212895
_cell_angle_beta   90.00894888
_cell_angle_gamma   89.99101037
_symmetry_Int_Tables_number   1
_chemical_formula_structural   Ca2Al2SiO7
_chemical_formula_sum   'Ca48 Al48 Si24 O168'
_cell_volume   3651.70907232
_cell_formula_units_Z   24
loop_
 _symmetry_equiv_pos_site_id
 _symmetry_equiv_pos_as_xyz
  1  'x, y, z'
loop_
 _atom_type_symbol
 _atom_type_oxidation_number
  Ca2+  2.0
  Al0+  0.0
  Si0+  0.0
  O2-  -2.0
loop_
 _atom_site_type_symbol
 _atom_site_label
 _atom_site_symmetry_multiplicity
 _atom_site_fract_x
 _atom_site_fract_y
 _atom_site_fract_z
 _atom_site_occupancy
  Ca2+  Ca0  1  0.15674937  0.07479156  0.17378096  1
  Ca2+  Ca1  1  0.15945151  0.07078488  0.50205818  1
  Ca2+  Ca2  1  0.16291145  0.07179494  0.84001778  1
  Ca2+  Ca3  1  0.17580202  0.58993287  0.17300754  1
  Ca2+  Ca4  1  0.17740102  0.59142000  0.50515782  1
  Ca2+  Ca5  1  0.17819693  0.58929657  0.83850386  1
  Ca2+  Ca6  1  0.66996272  0.07881349  0.17575224  1
  Ca2+  Ca7  1  0.66720991  0.08477342  0.50509371  1
  Ca2+  Ca8  1  0.65770842  0.07325914  0.83542423  1
  Ca2+  Ca9  1  0.67159468  0.58280355  0.17797034  1
  Ca2+  Ca10  1  0.67704124  0.59529591  0.50384402  1
  Ca2+  Ca11  1  0.67356012  0.59069283  0.83240047  1
  Ca2+  Ca12  1  0.08771650  0.31914223  0.16392973  1
  Ca2+  Ca13  1  0.08278058  0.32573388  0.49349373  1
  Ca2+  Ca14  1  0.08577547  0.32649271  0.83259626  1
  Ca2+  Ca15  1  0.08303706  0.82895992  0.16607508  1
  Ca2+  Ca16  1  0.08283765  0.82622310  0.49208168  1
  Ca2+  Ca17  1  0.09066315  0.82527561  0.83004218  1
  Ca2+  Ca18  1  0.57385953  0.33054277  0.16646685  1
  Ca2+  Ca19  1  0.57432649  0.32746582  0.49435022  1
  Ca2+  Ca20  1  0.57257059  0.32909609  0.82392792  1
  Ca2+  Ca21  1  0.58699427  0.82712401  0.16474789  1
  Ca2+  Ca22  1  0.58725144  0.82517631  0.49770158  1
  Ca2+  Ca23  1  0.58331888  0.83327386  0.82498083  1
  Ca2+  Ca24  1  0.33946905  0.42338204  0.17064242  1
  Ca2+  Ca25  1  0.34116495  0.42273997  0.50081783  1
  Ca2+  Ca26  1  0.34372760  0.42548883  0.83509864  1
  Ca2+  Ca27  1  0.31818737  0.91561519  0.17240336  1
  Ca2+  Ca28  1  0.31952642  0.91236826  0.50371196  1
  Ca2+  Ca29  1  0.32151863  0.91422467  0.83748513  1
  Ca2+  Ca30  1  0.83124273  0.42314545  0.17561321  1
  Ca2+  Ca31  1  0.83493553  0.43130592  0.50472204  1
  Ca2+  Ca32  1  0.83337388  0.42368984  0.83339466  1
  Ca2+  Ca33  1  0.83170043  0.91806030  0.17429498  1
  Ca2+  Ca34  1  0.83137031  0.91858529  0.50095927  1
  Ca2+  Ca35  1  0.81923255  0.91412901  0.83565956  1
  Ca2+  Ca36  1  0.41336272  0.17989979  0.16264681  1
  Ca2+  Ca37  1  0.42510274  0.17500923  0.49253196  1
  Ca2+  Ca38  1  0.41770898  0.17912394  0.82325689  1
  Ca2+  Ca39  1  0.41775578  0.66081741  0.16649637  1
  Ca2+  Ca40  1  0.42595849  0.65834554  0.49575639  1
  Ca2+  Ca41  1  0.41968881  0.66405515  0.82570471  1
  Ca2+  Ca42  1  0.92481753  0.15709745  0.16850076  1
  Ca2+  Ca43  1  0.91812774  0.16534478  0.49060737  1
  Ca2+  Ca44  1  0.92103867  0.16479228  0.83473745  1
  Ca2+  Ca45  1  0.92702315  0.66814276  0.16675775  1
  Ca2+  Ca46  1  0.92471651  0.67006331  0.49107168  1
  Ca2+  Ca47  1  0.93049560  0.66527823  0.82529580  1
  Al0+  Al48  1  -0.00283679  -0.00138567  -0.00274588  1
  Al0+  Al49  1  -0.00360430  -0.00152271  0.33612440  1
  Al0+  Al50  1  -0.00188719  -0.00115649  0.67407165  1
  Al0+  Al51  1  0.00222738  0.49966817  -0.00357443  1
  Al0+  Al52  1  0.00132180  0.49971998  0.33377897  1
  Al0+  Al53  1  0.00231366  0.49944965  0.66794480  1
  Al0+  Al54  1  0.49892918  -0.00145317  0.00650523  1
  Al0+  Al55  1  0.49815198  -0.00118282  0.32995190  1
  Al0+  Al56  1  0.49821452  0.00102904  0.66628560  1
  Al0+  Al57  1  0.50244716  0.49991693  -0.00048073  1
  Al0+  Al58  1  0.50048257  0.49946297  0.32929240  1
  Al0+  Al59  1  0.50185677  0.50045893  0.66288323  1
  Al0+  Al60  1  0.24969842  0.25165367  -0.01154743  1
  Al0+  Al61  1  0.24985067  0.24997443  0.32594405  1
  Al0+  Al62  1  0.24857518  0.25076321  0.66083742  1
  Al0+  Al63  1  0.25168926  0.75059403  0.00524959  1
  Al0+  Al64  1  0.25128069  0.74901346  0.33944403  1
  Al0+  Al65  1  0.25034623  0.74901033  0.67181996  1
  Al0+  Al66  1  0.75027812  0.25061642  -0.00043907  1
  Al0+  Al67  1  0.74849448  0.24949222  0.33398711  1
  Al0+  Al68  1  0.75164095  0.25147810  0.66594622  1
  Al0+  Al69  1  0.75145521  0.75059519  0.00447094  1
  Al0+  Al70  1  0.75019759  0.75011281  0.32880284  1
  Al0+  Al71  1  0.75154171  0.75232633  0.67280784  1
  Al0+  Al72  1  0.43109202  0.32195438  0.98289329  1
  Al0+  Al73  1  0.17829413  0.93027301  0.01559726  1
  Al0+  Al74  1  0.57031210  0.68104004  0.31952193  1
  Al0+  Al75  1  0.07265848  0.68037780  0.98559556  1
  Al0+  Al76  1  0.67720494  0.92846174  0.01646841  1
  Al0+  Al77  1  0.32091504  0.56885810  0.34823895  1
  Al0+  Al78  1  0.57278486  0.17620927  0.31631625  1
  Al0+  Al79  1  0.67809884  0.93142427  0.67830399  1
  Al0+  Al80  1  0.07398524  0.67774740  0.31887005  1
  Al0+  Al81  1  0.17855412  0.93037619  0.34795722  1
  Al0+  Al82  1  0.82204835  0.57176899  0.34637496  1
  Al0+  Al83  1  0.32166051  0.56913992  0.01452021  1
  Al0+  Al84  1  0.06901336  0.17740275  0.98486011  1
  Al0+  Al85  1  0.57181471  0.17689564  0.65211021  1
  Al0+  Al86  1  0.92903549  0.82058316  0.31891727  1
  Al0+  Al87  1  0.81826880  0.07022797  0.34703661  1
  Al0+  Al88  1  0.17862099  0.92941556  0.68222958  1
  Al0+  Al89  1  0.32192832  0.56783845  0.68043725  1
  Al0+  Al90  1  0.06845408  0.17862621  0.32217138  1
  Al0+  Al91  1  0.07257271  0.67931728  0.65307985  1
  Al0+  Al92  1  0.42798965  0.32247631  0.64852600  1
  Al0+  Al93  1  0.82295924  0.57239121  0.68136057  1
  Al0+  Al94  1  0.57237498  0.68195036  0.65483207  1
  Al0+  Al95  1  0.42930964  0.32063353  0.31530918  1
  Si0+  Si96  1  0.17711086  0.42490957  0.68407624  1
  Si0+  Si97  1  0.82357089  0.57016143  0.01540456  1
  Si0+  Si98  1  0.92825139  0.82183312  0.65184182  1
  Si0+  Si99  1  0.42642989  0.82237694  0.65145054  1
  Si0+  Si100  1  0.32013069  0.07377521  0.68166249  1
  Si0+  Si101  1  0.32001889  0.07470890  0.01513584  1
  Si0+  Si102  1  0.42966406  0.82099727  0.98625776  1
  Si0+  Si103  1  0.17695874  0.42650092  0.01603852  1
  Si0+  Si104  1  0.68057269  0.42943808  0.01438350  1
  Si0+  Si105  1  0.92929442  0.32185614  0.65163994  1
  Si0+  Si106  1  0.57249950  0.17664536  0.98399558  1
  Si0+  Si107  1  0.57263271  0.68003363  0.98499772  1
  Si0+  Si108  1  0.82199025  0.07521002  0.68576428  1
  Si0+  Si109  1  0.67539985  0.92715908  0.35002345  1
  Si0+  Si110  1  0.92640047  0.82088407  0.98074786  1
  Si0+  Si111  1  0.81997067  0.07272797  0.01678621  1
  Si0+  Si112  1  0.06821521  0.17690978  0.65203241  1
  Si0+  Si113  1  0.68025946  0.42824288  0.68310608  1
  Si0+  Si114  1  0.42579155  0.82203787  0.31653302  1
  Si0+  Si115  1  0.92619827  0.32357200  0.98246023  1
  Si0+  Si116  1  0.32203884  0.07401404  0.34874285  1
  Si0+  Si117  1  0.92710224  0.32335929  0.31832843  1
  Si0+  Si118  1  0.67830817  0.42884654  0.35064857  1
  Si0+  Si119  1  0.17775167  0.42491395  0.34879046  1
  O2-  O120  1  0.24905564  0.00945434  0.06126110  1
  O2-  O121  1  0.25364088  0.00559682  0.39426262  1
  O2-  O122  1  0.25243460  0.00547582  0.72850182  1
  O2-  O123  1  0.24541825  0.49507671  0.06024685  1
  O2-  O124  1  0.24430596  0.49517140  0.39350646  1
  O2-  O125  1  0.24752328  0.49247374  0.72733603  1
  O2-  O126  1  0.74932246  0.00632714  0.06063905  1
  O2-  O127  1  0.73959884  -0.00000397  0.39396854  1
  O2-  O128  1  0.74851646  0.01008004  0.72713825  1
  O2-  O129  1  0.75311134  0.49859746  0.05714554  1
  O2-  O130  1  0.74777335  0.49714176  0.39453781  1
  O2-  O131  1  0.74718975  0.49848510  0.72890662  1
  O2-  O132  1  -0.00482307  0.25432683  0.27385527  1
  O2-  O133  1  -0.00210930  0.24841146  0.60987079  1
  O2-  O134  1  -0.00527520  0.25382827  0.93916029  1
  O2-  O135  1  0.00127749  0.74885766  0.26864651  1
  O2-  O136  1  -0.00231763  0.75423317  0.60783473  1
  O2-  O137  1  -0.00287660  0.75396741  0.93722804  1
  O2-  O138  1  0.49890101  0.24561628  0.26575821  1
  O2-  O139  1  0.49953376  0.24817496  0.60215085  1
  O2-  O140  1  0.50300814  0.24332375  0.93819470  1
  O2-  O141  1  0.49656293  0.75566103  0.27134243  1
  O2-  O142  1  0.49730025  0.75584820  0.60761961  1
  O2-  O143  1  0.50261750  0.75199752  0.94338535  1
  O2-  O144  1  0.06662542  0.17734936  0.09779287  1
  O2-  O145  1  0.06620251  0.17959573  0.43567946  1
  O2-  O146  1  0.06683258  0.17770374  0.75728457  1
  O2-  O147  1  0.07083387  0.68030461  0.09820184  1
  O2-  O148  1  0.07337413  0.67971317  0.43258560  1
  O2-  O149  1  0.07281471  0.68090001  0.76669501  1
  O2-  O150  1  0.57369998  0.17963742  0.08912305  1
  O2-  O151  1  0.57263242  0.17875323  0.42975659  1
  O2-  O152  1  0.56948060  0.17802097  0.76641525  1
  O2-  O153  1  0.57306554  0.67924380  0.09002587  1
  O2-  O154  1  0.57187208  0.68282572  0.43259172  1
  O2-  O155  1  0.57180198  0.68366395  0.76865409  1
  O2-  O156  1  0.17782089  0.42281949  0.24317582  1
  O2-  O157  1  0.17356417  0.42276802  0.57880641  1
  O2-  O158  1  0.17561256  0.42717297  0.91039100  1
  O2-  O159  1  0.17915332  0.93157018  0.23465163  1
  O2-  O160  1  0.17713157  0.93084289  0.56928886  1
  O2-  O161  1  0.18168350  0.92985123  0.90227491  1
  O2-  O162  1  0.68032211  0.43062145  0.24417617  1
  O2-  O163  1  0.68429904  0.42615172  0.57803400  1
  O2-  O164  1  0.68148518  0.43026199  0.90931058  1
  O2-  O165  1  0.67823966  0.92683233  0.24419843  1
  O2-  O166  1  0.68238249  0.92945984  0.56580044  1
  O2-  O167  1  0.67754129  0.92788154  0.90308223  1
  O2-  O168  1  0.43327735  0.32262121  0.09549872  1
  O2-  O169  1  0.43100191  0.32050257  0.42848845  1
  O2-  O170  1  0.43065472  0.32178075  0.76257169  1
  O2-  O171  1  0.42952396  0.81974457  0.09114560  1
  O2-  O172  1  0.42578637  0.82223460  0.42214633  1
  O2-  O173  1  0.42670491  0.82133544  0.75770542  1
  O2-  O174  1  0.92406243  0.32599637  0.08757138  1
  O2-  O175  1  0.92879911  0.32330977  0.42421763  1
  O2-  O176  1  0.92958896  0.32167331  0.75700181  1
  O2-  O177  1  0.92466226  0.82008545  0.08597304  1
  O2-  O178  1  0.92905501  0.82031891  0.43281369  1
  O2-  O179  1  0.92791659  0.82052916  0.75775853  1
  O2-  O180  1  0.31996532  0.07300635  0.24290252  1
  O2-  O181  1  0.31756398  0.07280857  0.57621989  1
  O2-  O182  1  0.32054286  0.07109109  0.90935792  1
  O2-  O183  1  0.32110047  0.56780578  0.23482946  1
  O2-  O184  1  0.32159508  0.56819619  0.56772790  1
  O2-  O185  1  0.32348864  0.56918477  0.90130099  1
  O2-  O186  1  0.81936906  0.06792606  0.23379804  1
  O2-  O187  1  0.82630942  0.07496080  0.58062737  1
  O2-  O188  1  0.81912941  0.07334066  0.91097357  1
  O2-  O189  1  0.82026427  0.56829006  0.23253730  1
  O2-  O190  1  0.82257270  0.57181013  0.56854817  1
  O2-  O191  1  0.82208075  0.56986177  0.91010232  1
  O2-  O192  1  0.03337219  0.08388869  0.26830919  1
  O2-  O193  1  0.03821616  0.08463929  0.60725413  1
  O2-  O194  1  0.03478093  0.08237161  0.92890369  1
  O2-  O195  1  0.04722397  0.57825084  0.26683571  1
  O2-  O196  1  0.04396771  0.58111767  0.60209402  1
  O2-  O197  1  0.04336032  0.58276126  0.93186058  1
  O2-  O198  1  0.54849477  0.07589276  0.26525854  1
  O2-  O199  1  0.54505082  0.07835105  0.59884406  1
  O2-  O200  1  0.54731804  0.08089896  0.94189956  1
  O2-  O201  1  0.54101422  0.58464927  0.26450516  1
  O2-  O202  1  0.54579020  0.58505835  0.60085162  1
  O2-  O203  1  0.54555893  0.58837634  0.93760602  1
  O2-  O204  1  0.16404694  0.20643421  0.26503850  1
  O2-  O205  1  0.15965356  0.20288048  0.60401723  1
  O2-  O206  1  0.16405528  0.20736217  0.92725862  1
  O2-  O207  1  0.17254818  0.70847050  0.26824251  1
  O2-  O208  1  0.16930275  0.71176138  0.60134778  1
  O2-  O209  1  0.17007473  0.71361461  0.93410832  1
  O2-  O210  1  0.67084613  0.20709532  0.26323238  1
  O2-  O211  1  0.67202671  0.20478601  0.60259968  1
  O2-  O212  1  0.66649227  0.20250869  0.93812812  1
  O2-  O213  1  0.66555695  0.71094520  0.26229576  1
  O2-  O214  1  0.66945828  0.71491360  0.60292489  1
  O2-  O215  1  0.66572194  0.70760509  0.93951264  1
  O2-  O216  1  0.08225523  0.44910295  0.06157949  1
  O2-  O217  1  0.08310743  0.44626117  0.39495447  1
  O2-  O218  1  0.08435510  0.45012727  0.73237006  1
  O2-  O219  1  0.07875316  0.95782749  0.06470630  1
  O2-  O220  1  0.08290971  0.96225361  0.40237312  1
  O2-  O221  1  0.08249972  0.95976873  0.73825872  1
  O2-  O222  1  0.59089674  0.46035184  0.06342699  1
  O2-  O223  1  0.58514957  0.45564707  0.39501191  1
  O2-  O224  1  0.58647519  0.45360873  0.72817069  1
  O2-  O225  1  0.57992420  0.95395988  0.07179728  1
  O2-  O226  1  0.57895624  0.94574568  0.39303098  1
  O2-  O227  1  0.57967139  0.95731597  0.73350249  1
  O2-  O228  1  0.20308891  0.33131389  0.05874547  1
  O2-  O229  1  0.20445403  0.33117774  0.39518180  1
  O2-  O230  1  0.20093005  0.33002470  0.72964064  1
  O2-  O231  1  0.21446520  0.83642546  0.07052608  1
  O2-  O232  1  0.21196653  0.83531464  0.40321127  1
  O2-  O233  1  0.21310354  0.83476190  0.73776955  1
  O2-  O234  1  0.70654859  0.33697325  0.06208898  1
  O2-  O235  1  0.70251405  0.33509425  0.39611571  1
  O2-  O236  1  0.70861843  0.33594824  0.73215294  1
  O2-  O237  1  0.71108589  0.83258333  0.07061978  1
  O2-  O238  1  0.70620824  0.83486850  0.39514397  1
  O2-  O239  1  0.71253461  0.83807466  0.73759679  1
  O2-  O240  1  0.46290205  0.41678827  0.26100336  1
  O2-  O241  1  0.46049827  0.41911851  0.59589468  1
  O2-  O242  1  0.46865336  0.41707813  0.92952556  1
  O2-  O243  1  0.44605532  0.91630350  0.26924144  1
  O2-  O244  1  0.44730258  0.91695242  0.60618340  1
  O2-  O245  1  0.45505635  0.91419805  0.93944015  1
  O2-  O246  1  0.95247589  0.41595296  0.27046449  1
  O2-  O247  1  0.95943028  0.41234967  0.60342610  1
  O2-  O248  1  0.95355187  0.41558529  0.93350790  1
  O2-  O249  1  0.95716106  0.91842024  0.26522769  1
  O2-  O250  1  0.95209581  0.91730577  0.60868916  1
  O2-  O251  1  0.94729583  0.91543410  0.93487443  1
  O2-  O252  1  0.33080826  0.29458562  0.26073463  1
  O2-  O253  1  0.32839983  0.29681935  0.59668902  1
  O2-  O254  1  0.33396086  0.29655642  0.92726001  1
  O2-  O255  1  0.33391954  0.79211812  0.26997980  1
  O2-  O256  1  0.33402558  0.79376315  0.60570023  1
  O2-  O257  1  0.33900653  0.79114770  0.93798015  1
  O2-  O258  1  0.83322721  0.29937631  0.27272775  1
  O2-  O259  1  0.83739138  0.29747785  0.60359000  1
  O2-  O260  1  0.83301239  0.29733734  0.93421775  1
  O2-  O261  1  0.83184368  0.79288422  0.26328759  1
  O2-  O262  1  0.83518186  0.79592130  0.60629717  1
  O2-  O263  1  0.83315699  0.79138803  0.93473726  1
  O2-  O264  1  0.41262483  0.04855395  0.06280855  1
  O2-  O265  1  0.41628143  0.04860651  0.39389363  1
  O2-  O266  1  0.41396520  0.05047709  0.72830834  1
  O2-  O267  1  0.41942992  0.53786099  0.06678296  1
  O2-  O268  1  0.41853298  0.53636839  0.39965739  1
  O2-  O269  1  0.42015776  0.53879727  0.73376124  1
  O2-  O270  1  0.91281735  0.04362678  0.06183630  1
  O2-  O271  1  0.91231160  0.03705138  0.40460073  1
  O2-  O272  1  0.91238813  0.04418833  0.73616852  1
  O2-  O273  1  0.91573725  0.54155040  0.06122349  1
  O2-  O274  1  0.91868848  0.54088149  0.40067264  1
  O2-  O275  1  0.91816806  0.53672501  0.73617650  1
  O2-  O276  1  0.29628569  0.17070010  0.05644463  1
  O2-  O277  1  0.29654688  0.16817660  0.39305000  1
  O2-  O278  1  0.29338797  0.16781291  0.72696818  1
  O2-  O279  1  0.29290922  0.66576876  0.06890075  1
  O2-  O280  1  0.29402583  0.66544934  0.40393545  1
  O2-  O281  1  0.29143273  0.66413802  0.73603225  1
  O2-  O282  1  0.79951080  0.16824130  0.06181228  1
  O2-  O283  1  0.79348994  0.16901704  0.40086936  1
  O2-  O284  1  0.80222683  0.17059120  0.73130715  1
  O2-  O285  1  0.79505976  0.66141470  0.06243928  1
  O2-  O286  1  0.78889232  0.66823404  0.39869052  1
  O2-  O287  1  0.79199080  0.66725054  0.73845523  1
