# generated using pymatgen
data_Ca2Al2SiO7
_symmetry_space_group_name_H-M   'P 1'
_cell_length_a   15.45557584
_cell_length_b   15.45582574
_cell_length_c   15.28266946
_cell_angle_alpha   90.00043207
_cell_angle_beta   89.99558267
_cell_angle_gamma   90.00779395
_symmetry_Int_Tables_number   1
_chemical_formula_structural   Ca2Al2SiO7
_chemical_formula_sum   'Ca48 Al48 Si24 O168'
_cell_volume   3650.70396809
_cell_formula_units_Z   24
loop_
 _symmetry_equiv_pos_site_id
 _symmetry_equiv_pos_as_xyz
  1  'x, y, z'
loop_
 _atom_type_symbol
 _atom_type_oxidation_number
  Ca2+  2.0
  Al0+  0.0
  Si0+  0.0
  O2-  -2.0
loop_
 _atom_site_type_symbol
 _atom_site_label
 _atom_site_symmetry_multiplicity
 _atom_site_fract_x
 _atom_site_fract_y
 _atom_site_fract_z
 _atom_site_occupancy
  Ca2+  Ca0  1  0.17181163  0.08255249  0.17137140  1
  Ca2+  Ca1  1  0.17427663  0.08600321  0.50247876  1
  Ca2+  Ca2  1  0.17445952  0.09873403  0.83670857  1
  Ca2+  Ca3  1  0.16559849  0.57881896  0.17309032  1
  Ca2+  Ca4  1  0.16789018  0.58242027  0.50218814  1
  Ca2+  Ca5  1  0.16020765  0.56881221  0.83730066  1
  Ca2+  Ca6  1  0.68204491  0.08023563  0.16715131  1
  Ca2+  Ca7  1  0.67206188  0.08601628  0.50208163  1
  Ca2+  Ca8  1  0.67285146  0.07858429  0.84283603  1
  Ca2+  Ca9  1  0.67037169  0.57755402  0.16374864  1
  Ca2+  Ca10  1  0.66558081  0.57407840  0.50014936  1
  Ca2+  Ca11  1  0.67301894  0.57574021  0.84697487  1
  Ca2+  Ca12  1  0.07915020  0.32632682  0.15371686  1
  Ca2+  Ca13  1  0.08464310  0.33152514  0.50311908  1
  Ca2+  Ca14  1  0.07757085  0.32980065  0.83051924  1
  Ca2+  Ca15  1  0.07905180  0.83188321  0.16593853  1
  Ca2+  Ca16  1  0.07792739  0.83375190  0.48897564  1
  Ca2+  Ca17  1  0.06823636  0.83564761  0.83014913  1
  Ca2+  Ca18  1  0.57889071  0.34119002  0.16517980  1
  Ca2+  Ca19  1  0.57892560  0.32722571  0.49135454  1
  Ca2+  Ca20  1  0.58473980  0.32569751  0.82909788  1
  Ca2+  Ca21  1  0.58520151  0.82868286  0.15612304  1
  Ca2+  Ca22  1  0.57895126  0.83078904  0.49589351  1
  Ca2+  Ca23  1  0.59249603  0.82753840  0.83498763  1
  Ca2+  Ca24  1  0.32734389  0.41899766  0.17225214  1
  Ca2+  Ca25  1  0.33005960  0.41851815  0.50037429  1
  Ca2+  Ca26  1  0.31745660  0.40941535  0.83696263  1
  Ca2+  Ca27  1  0.32705146  0.92899875  0.17438587  1
  Ca2+  Ca28  1  0.32433219  0.92380792  0.50315719  1
  Ca2+  Ca29  1  0.33022578  0.93013115  0.83970034  1
  Ca2+  Ca30  1  0.82418260  0.41354940  0.16754009  1
  Ca2+  Ca31  1  0.83125627  0.41400779  0.50365985  1
  Ca2+  Ca32  1  0.83381746  0.41815904  0.84634302  1
  Ca2+  Ca33  1  0.84220471  0.92385159  0.16753556  1
  Ca2+  Ca34  1  0.84304790  0.92064451  0.49889374  1
  Ca2+  Ca35  1  0.83353473  0.92093368  0.84420678  1
  Ca2+  Ca36  1  0.41002047  0.16978522  0.16358792  1
  Ca2+  Ca37  1  0.41748754  0.16663857  0.49596701  1
  Ca2+  Ca38  1  0.42147387  0.16066022  0.82739386  1
  Ca2+  Ca39  1  0.42085822  0.66406337  0.16205193  1
  Ca2+  Ca40  1  0.41454237  0.66448826  0.49069377  1
  Ca2+  Ca41  1  0.42473848  0.66609811  0.83493232  1
  Ca2+  Ca42  1  0.92010253  0.16660676  0.15623444  1
  Ca2+  Ca43  1  0.92088901  0.16933015  0.49719238  1
  Ca2+  Ca44  1  0.92357139  0.17501444  0.82916336  1
  Ca2+  Ca45  1  0.91381200  0.67708450  0.16116394  1
  Ca2+  Ca46  1  0.92530610  0.67899474  0.49148850  1
  Ca2+  Ca47  1  0.90628950  0.67710198  0.83243700  1
  Al0+  Al48  1  0.00384478  -0.00070876  -0.00674456  1
  Al0+  Al49  1  -0.00013259  0.00120718  0.33752467  1
  Al0+  Al50  1  0.00069945  0.00125577  0.65976147  1
  Al0+  Al51  1  -0.00041580  0.50043416  0.00730275  1
  Al0+  Al52  1  -0.00185419  0.49999727  0.33099401  1
  Al0+  Al53  1  -0.00092221  0.50227766  0.66649254  1
  Al0+  Al54  1  0.49853167  0.00081420  0.00862832  1
  Al0+  Al55  1  0.50307777  0.00046573  0.33493187  1
  Al0+  Al56  1  0.50034603  -0.00178889  0.66544162  1
  Al0+  Al57  1  0.49902982  0.50035485  -0.00495050  1
  Al0+  Al58  1  0.49858400  0.49753651  0.33794098  1
  Al0+  Al59  1  0.50099896  0.50008785  0.66806235  1
  Al0+  Al60  1  0.25048663  0.25197926  0.00538054  1
  Al0+  Al61  1  0.25102861  0.25141509  0.33287693  1
  Al0+  Al62  1  0.25068568  0.25213415  0.66978263  1
  Al0+  Al63  1  0.25090925  0.75068934  -0.00474712  1
  Al0+  Al64  1  0.25022389  0.74935701  0.33599863  1
  Al0+  Al65  1  0.25129538  0.75121090  0.67133348  1
  Al0+  Al66  1  0.74786588  0.24924811  0.00428026  1
  Al0+  Al67  1  0.74882680  0.24839930  0.34105898  1
  Al0+  Al68  1  0.74895969  0.24865412  0.65989943  1
  Al0+  Al69  1  0.74830769  0.74753650  -0.00198009  1
  Al0+  Al70  1  0.74996941  0.74953229  0.33067116  1
  Al0+  Al71  1  0.74907416  0.74904935  0.65858092  1
  Al0+  Al72  1  0.92633493  0.32105966  0.98837949  1
  Al0+  Al73  1  0.43009212  0.31925398  0.31926804  1
  Al0+  Al74  1  0.82197571  0.57167052  0.01541062  1
  Al0+  Al75  1  0.92826464  0.32360071  0.65088742  1
  Al0+  Al76  1  0.92832018  0.82088706  0.65118491  1
  Al0+  Al77  1  0.67657968  0.42660869  0.01362570  1
  Al0+  Al78  1  0.07317983  0.67773926  0.31766230  1
  Al0+  Al79  1  0.17875527  0.43043196  0.01521173  1
  Al0+  Al80  1  0.56950023  0.67926237  0.98627623  1
  Al0+  Al81  1  0.67958331  0.43073229  0.34892172  1
  Al0+  Al82  1  0.82433360  0.07018807  0.01133113  1
  Al0+  Al83  1  0.17961329  0.93006885  0.34794330  1
  Al0+  Al84  1  0.93030285  0.81945440  0.98581986  1
  Al0+  Al85  1  0.07340927  0.18129373  0.64941488  1
  Al0+  Al86  1  0.31945765  0.56937726  0.34507939  1
  Al0+  Al87  1  0.17920162  0.43195662  0.68008783  1
  Al0+  Al88  1  0.07317452  0.17906798  0.98558633  1
  Al0+  Al89  1  0.31990394  0.07138155  0.01490706  1
  Al0+  Al90  1  0.57014795  0.17675296  0.65323566  1
  Al0+  Al91  1  0.92956585  0.82245344  0.31549442  1
  Al0+  Al92  1  0.82083156  0.06973810  0.34913280  1
  Al0+  Al93  1  0.67924816  0.92793930  0.01364487  1
  Al0+  Al94  1  0.32266263  0.07370668  0.34992129  1
  Al0+  Al95  1  0.32051217  0.06951175  0.68069106  1
  Si0+  Si96  1  0.42762779  0.82479795  0.98311522  1
  Si0+  Si97  1  0.32160288  0.57294049  0.01404793  1
  Si0+  Si98  1  0.82230146  0.57343596  0.35195528  1
  Si0+  Si99  1  0.07075100  0.18160856  0.31903042  1
  Si0+  Si100  1  0.17473757  0.42765448  0.34995919  1
  Si0+  Si101  1  0.32504607  0.57465140  0.68625968  1
  Si0+  Si102  1  0.56983266  0.67797804  0.64926673  1
  Si0+  Si103  1  0.56940052  0.17748798  0.98774691  1
  Si0+  Si104  1  0.92594893  0.32035131  0.31859377  1
  Si0+  Si105  1  0.67901085  0.42750371  0.68166563  1
  Si0+  Si106  1  0.17620613  0.92745913  0.68536045  1
  Si0+  Si107  1  0.17835618  0.92471784  0.01494950  1
  Si0+  Si108  1  0.42886159  0.82001688  0.65182446  1
  Si0+  Si109  1  0.57397865  0.17701857  0.31396576  1
  Si0+  Si110  1  0.82153881  0.07088789  0.68099950  1
  Si0+  Si111  1  0.07347067  0.67886354  0.65180575  1
  Si0+  Si112  1  0.67964136  0.92757662  0.67988975  1
  Si0+  Si113  1  0.67809088  0.92466060  0.35135092  1
  Si0+  Si114  1  0.56924030  0.67783286  0.31891745  1
  Si0+  Si115  1  0.42906747  0.32269157  0.65072652  1
  Si0+  Si116  1  0.42951989  0.82213996  0.31926697  1
  Si0+  Si117  1  0.42919744  0.32138496  0.98413091  1
  Si0+  Si118  1  0.07469172  0.67659385  0.98258560  1
  Si0+  Si119  1  0.81805186  0.57133918  0.67937712  1
  O2-  O120  1  0.24541429  -0.00454145  0.05822799  1
  O2-  O121  1  0.25152265  0.00140825  0.39997931  1
  O2-  O122  1  0.24242246  -0.00107284  0.72909286  1
  O2-  O123  1  0.24981723  0.50950790  0.05976197  1
  O2-  O124  1  0.24123783  0.49935427  0.39302002  1
  O2-  O125  1  0.25456889  0.50688981  0.72796767  1
  O2-  O126  1  0.75535194  -0.00454716  0.06291184  1
  O2-  O127  1  0.74750087  -0.00754535  0.39557994  1
  O2-  O128  1  0.75197141  -0.00275317  0.72185448  1
  O2-  O129  1  0.75241266  0.49531813  0.06260724  1
  O2-  O130  1  0.75582413  0.50305569  0.39759054  1
  O2-  O131  1  0.75245497  0.49579980  0.72303504  1
  O2-  O132  1  0.00063814  0.25349970  0.27705410  1
  O2-  O133  1  -0.00046518  0.25166553  0.59915906  1
  O2-  O134  1  -0.00230979  0.24897360  0.93745674  1
  O2-  O135  1  0.00029651  0.74838499  0.26718427  1
  O2-  O136  1  0.00888888  0.75101684  0.60741292  1
  O2-  O137  1  0.00438486  0.74373785  0.93805502  1
  O2-  O138  1  0.50152857  0.24216619  0.27047784  1
  O2-  O139  1  0.49691571  0.25318188  0.60693638  1
  O2-  O140  1  0.50026564  0.24970026  0.94342712  1
  O2-  O141  1  0.50183867  0.75237670  0.27703993  1
  O2-  O142  1  0.49491016  0.74482853  0.60752608  1
  O2-  O143  1  0.49723597  0.75670608  0.93849328  1
  O2-  O144  1  0.07405597  0.18019044  0.09975328  1
  O2-  O145  1  0.07136182  0.18374140  0.42413187  1
  O2-  O146  1  0.07261888  0.18354750  0.76260253  1
  O2-  O147  1  0.07915304  0.68036769  0.08765647  1
  O2-  O148  1  0.07161935  0.67822086  0.43198239  1
  O2-  O149  1  0.07114401  0.67785304  0.75735032  1
  O2-  O150  1  0.56756791  0.17694904  0.09243128  1
  O2-  O151  1  0.57401024  0.17892025  0.42004112  1
  O2-  O152  1  0.57043594  0.17711512  0.76684712  1
  O2-  O153  1  0.56516264  0.67764300  0.09948557  1
  O2-  O154  1  0.56740997  0.67881037  0.42486807  1
  O2-  O155  1  0.57192439  0.67846659  0.75396410  1
  O2-  O156  1  0.17694010  0.42642654  0.24463364  1
  O2-  O157  1  0.18205080  0.43451715  0.56687510  1
  O2-  O158  1  0.18074053  0.42957444  0.90176225  1
  O2-  O159  1  0.18137313  0.93168276  0.23415759  1
  O2-  O160  1  0.18029871  0.92291741  0.58015498  1
  O2-  O161  1  0.18107646  0.92094353  0.90927836  1
  O2-  O162  1  0.67909787  0.43319314  0.23638463  1
  O2-  O163  1  0.67603004  0.43128682  0.57660007  1
  O2-  O164  1  0.67475032  0.42789186  0.89932254  1
  O2-  O165  1  0.67535906  0.92402787  0.24637452  1
  O2-  O166  1  0.67796040  0.92673035  0.57481019  1
  O2-  O167  1  0.67881517  0.93094989  0.89905326  1
  O2-  O168  1  0.42937195  0.32323977  0.08915733  1
  O2-  O169  1  0.43248983  0.32051043  0.43263311  1
  O2-  O170  1  0.43138543  0.32397149  0.75659515  1
  O2-  O171  1  0.42651623  0.82280934  0.08868299  1
  O2-  O172  1  0.43166770  0.82018125  0.42501684  1
  O2-  O173  1  0.43171816  0.82042095  0.75665217  1
  O2-  O174  1  0.92766310  0.31832394  0.10239890  1
  O2-  O175  1  0.92644542  0.31931448  0.42384714  1
  O2-  O176  1  0.92582143  0.32364231  0.76406793  1
  O2-  O177  1  0.93229260  0.82033196  0.09818401  1
  O2-  O178  1  0.93049514  0.81971381  0.42953395  1
  O2-  O179  1  0.92365240  0.81834090  0.76425294  1
  O2-  O180  1  0.31960550  0.07270436  0.23644225  1
  O2-  O181  1  0.32172092  0.06603724  0.56809261  1
  O2-  O182  1  0.32245438  0.07055130  0.90143393  1
  O2-  O183  1  0.32267482  0.56687218  0.23228099  1
  O2-  O184  1  0.32723010  0.57534551  0.58070900  1
  O2-  O185  1  0.32226347  0.57067362  0.90815289  1
  O2-  O186  1  0.82101356  0.07114808  0.23636706  1
  O2-  O187  1  0.81926321  0.07027854  0.57581516  1
  O2-  O188  1  0.82042337  0.07076264  0.89718813  1
  O2-  O189  1  0.82002744  0.57446877  0.24697219  1
  O2-  O190  1  0.81362556  0.57220833  0.57430526  1
  O2-  O191  1  0.81788789  0.57290442  0.90071704  1
  O2-  O192  1  0.04187279  0.08958354  0.27394479  1
  O2-  O193  1  0.04771720  0.08218679  0.59678847  1
  O2-  O194  1  0.05341150  0.07987984  0.93078911  1
  O2-  O195  1  0.04651060  0.57780083  0.26629797  1
  O2-  O196  1  0.04487552  0.58758970  0.60331405  1
  O2-  O197  1  0.04920939  0.58180531  0.93992032  1
  O2-  O198  1  0.55457458  0.08091883  0.27088010  1
  O2-  O199  1  0.53960021  0.08058492  0.59797728  1
  O2-  O200  1  0.53906366  0.08615323  0.94002661  1
  O2-  O201  1  0.53603603  0.58761204  0.27342721  1
  O2-  O202  1  0.54414375  0.58482329  0.60256172  1
  O2-  O203  1  0.53529228  0.58509105  0.92737116  1
  O2-  O204  1  0.16279788  0.20820398  0.27171375  1
  O2-  O205  1  0.17180799  0.21304128  0.59753640  1
  O2-  O206  1  0.17060103  0.21513206  0.93416267  1
  O2-  O207  1  0.17258193  0.70511902  0.26593259  1
  O2-  O208  1  0.17031427  0.69986076  0.60952282  1
  O2-  O209  1  0.16791279  0.70103890  0.93339537  1
  O2-  O210  1  0.66666509  0.20817927  0.26986675  1
  O2-  O211  1  0.66490409  0.20718791  0.59594790  1
  O2-  O212  1  0.66119543  0.20349317  0.93944156  1
  O2-  O213  1  0.66216744  0.70150660  0.27274812  1
  O2-  O214  1  0.65841714  0.70923286  0.59771576  1
  O2-  O215  1  0.66465181  0.70799409  0.92810417  1
  O2-  O216  1  0.08289125  0.45635570  0.07150275  1
  O2-  O217  1  0.07996503  0.44995289  0.39542266  1
  O2-  O218  1  0.08240509  0.46370960  0.73416015  1
  O2-  O219  1  0.08450774  0.94879318  0.05931262  1
  O2-  O220  1  0.08258525  0.95876737  0.40241018  1
  O2-  O221  1  0.08043284  0.95102347  0.72732410  1
  O2-  O222  1  0.57891269  0.46157062  0.06482392  1
  O2-  O223  1  0.58507084  0.46463099  0.40558003  1
  O2-  O224  1  0.58777951  0.45756704  0.72955641  1
  O2-  O225  1  0.58265100  0.95739192  0.06934777  1
  O2-  O226  1  0.58514948  0.95142710  0.39944849  1
  O2-  O227  1  0.58830770  0.95481443  0.72791213  1
  O2-  O228  1  0.21559818  0.33764783  0.07172625  1
  O2-  O229  1  0.20558468  0.33623874  0.39692582  1
  O2-  O230  1  0.21195075  0.33696233  0.73588066  1
  O2-  O231  1  0.20644081  0.83200198  0.06188920  1
  O2-  O232  1  0.20920192  0.83218941  0.40202160  1
  O2-  O233  1  0.20424149  0.83495404  0.73357520  1
  O2-  O234  1  0.69851684  0.32843927  0.06914944  1
  O2-  O235  1  0.70806889  0.33409057  0.40381888  1
  O2-  O236  1  0.70271379  0.33321891  0.72545930  1
  O2-  O237  1  0.70004308  0.82719227  0.06273168  1
  O2-  O238  1  0.70071877  0.82993152  0.39771459  1
  O2-  O239  1  0.70633150  0.83373336  0.72458800  1
  O2-  O240  1  0.46452526  0.41543078  0.26606919  1
  O2-  O241  1  0.45593948  0.41677948  0.60500348  1
  O2-  O242  1  0.45538709  0.41187461  0.93354103  1
  O2-  O243  1  0.45660345  0.91444667  0.27261187  1
  O2-  O244  1  0.46183767  0.90850810  0.60158676  1
  O2-  O245  1  0.45388601  0.91904238  0.93868780  1
  O2-  O246  1  0.94680907  0.41457244  0.27359426  1
  O2-  O247  1  0.95559905  0.42301377  0.59807903  1
  O2-  O248  1  0.95433324  0.42146622  0.93893840  1
  O2-  O249  1  0.95959173  0.92200394  0.26636842  1
  O2-  O250  1  0.95556254  0.91802441  0.59766320  1
  O2-  O251  1  0.96164213  0.91454600  0.92819777  1
  O2-  O252  1  0.33236991  0.29273305  0.26454395  1
  O2-  O253  1  0.33554987  0.29879877  0.60541768  1
  O2-  O254  1  0.33808257  0.29085761  0.93754375  1
  O2-  O255  1  0.33867341  0.79316090  0.27214486  1
  O2-  O256  1  0.33524474  0.79595105  0.60573929  1
  O2-  O257  1  0.33566431  0.79853157  0.93312346  1
  O2-  O258  1  0.83436761  0.28833962  0.27398367  1
  O2-  O259  1  0.83015586  0.29457601  0.59677710  1
  O2-  O260  1  0.82627374  0.29538513  0.93627226  1
  O2-  O261  1  0.82916951  0.79521113  0.26547427  1
  O2-  O262  1  0.83385983  0.78606451  0.59446987  1
  O2-  O263  1  0.83318718  0.78835606  0.93209841  1
  O2-  O264  1  0.41440590  0.04100917  0.07254049  1
  O2-  O265  1  0.42321327  0.04660900  0.39917906  1
  O2-  O266  1  0.41665237  0.03340486  0.73402727  1
  O2-  O267  1  0.41370663  0.54298322  0.05972480  1
  O2-  O268  1  0.41309963  0.53528349  0.40399914  1
  O2-  O269  1  0.41894413  0.54736524  0.73195187  1
  O2-  O270  1  0.92437243  0.04363235  0.06159921  1
  O2-  O271  1  0.91654136  0.04092190  0.40542818  1
  O2-  O272  1  0.91494484  0.04525058  0.72546298  1
  O2-  O273  1  0.92068230  0.55196613  0.06975544  1
  O2-  O274  1  0.91654742  0.54835064  0.39742817  1
  O2-  O275  1  0.91201424  0.55211352  0.72508878  1
  O2-  O276  1  0.28994958  0.16716581  0.06961156  1
  O2-  O277  1  0.29341269  0.17232896  0.40203275  1
  O2-  O278  1  0.29591565  0.16838686  0.73320607  1
  O2-  O279  1  0.30302297  0.66943605  0.05691264  1
  O2-  O280  1  0.29458718  0.66646258  0.40157533  1
  O2-  O281  1  0.30317928  0.66903665  0.73270408  1
  O2-  O282  1  0.79152804  0.16560931  0.06715362  1
  O2-  O283  1  0.78647670  0.16361151  0.40668154  1
  O2-  O284  1  0.79050044  0.16271336  0.72620407  1
  O2-  O285  1  0.78562248  0.66674648  0.06907728  1
  O2-  O286  1  0.79336224  0.66634266  0.39840383  1
  O2-  O287  1  0.78320823  0.66177717  0.72589849  1
