# generated using pymatgen
data_Ca2Al2SiO7
_symmetry_space_group_name_H-M   'P 1'
_cell_length_a   15.46304253
_cell_length_b   15.46145986
_cell_length_c   15.28662066
_cell_angle_alpha   89.98958159
_cell_angle_beta   90.01349435
_cell_angle_gamma   89.99390596
_symmetry_Int_Tables_number   1
_chemical_formula_structural   Ca2Al2SiO7
_chemical_formula_sum   'Ca48 Al48 Si24 O168'
_cell_volume   3654.74360292
_cell_formula_units_Z   24
loop_
 _symmetry_equiv_pos_site_id
 _symmetry_equiv_pos_as_xyz
  1  'x, y, z'
loop_
 _atom_type_symbol
 _atom_type_oxidation_number
  Ca2+  2.0
  Al0+  0.0
  Si0+  0.0
  O2-  -2.0
loop_
 _atom_site_type_symbol
 _atom_site_label
 _atom_site_symmetry_multiplicity
 _atom_site_fract_x
 _atom_site_fract_y
 _atom_site_fract_z
 _atom_site_occupancy
  Ca2+  Ca0  1  0.15691874  0.07912246  0.16826513  1
  Ca2+  Ca1  1  0.16622090  0.08490648  0.50319149  1
  Ca2+  Ca2  1  0.15940179  0.07301428  0.84358661  1
  Ca2+  Ca3  1  0.16751013  0.57300132  0.17241206  1
  Ca2+  Ca4  1  0.16339052  0.57893806  0.50003412  1
  Ca2+  Ca5  1  0.16518674  0.57773212  0.84353102  1
  Ca2+  Ca6  1  0.66805066  0.08677435  0.17153559  1
  Ca2+  Ca7  1  0.66764657  0.07303901  0.50681194  1
  Ca2+  Ca8  1  0.67686813  0.08040756  0.83891036  1
  Ca2+  Ca9  1  0.68170220  0.58285065  0.17095239  1
  Ca2+  Ca10  1  0.67252409  0.59101625  0.50290864  1
  Ca2+  Ca11  1  0.67355349  0.58729908  0.84048118  1
  Ca2+  Ca12  1  0.08713384  0.32636846  0.15854652  1
  Ca2+  Ca13  1  0.08721040  0.33171821  0.49350294  1
  Ca2+  Ca14  1  0.07998327  0.33921717  0.83498824  1
  Ca2+  Ca15  1  0.08876442  0.81935550  0.15987060  1
  Ca2+  Ca16  1  0.07706995  0.82256125  0.49580067  1
  Ca2+  Ca17  1  0.08228298  0.82150628  0.82895711  1
  Ca2+  Ca18  1  0.58007224  0.32436142  0.15610773  1
  Ca2+  Ca19  1  0.58195733  0.32444905  0.49198408  1
  Ca2+  Ca20  1  0.57827813  0.33186730  0.83502772  1
  Ca2+  Ca21  1  0.57810788  0.83733579  0.16878517  1
  Ca2+  Ca22  1  0.58312050  0.83522503  0.49510628  1
  Ca2+  Ca23  1  0.58511970  0.82779017  0.82677329  1
  Ca2+  Ca24  1  0.32742160  0.42271857  0.16931939  1
  Ca2+  Ca25  1  0.31922467  0.41827790  0.50351428  1
  Ca2+  Ca26  1  0.32312784  0.42230377  0.84390886  1
  Ca2+  Ca27  1  0.32791351  0.91429255  0.16889028  1
  Ca2+  Ca28  1  0.33524092  0.91514548  0.49800218  1
  Ca2+  Ca29  1  0.32577937  0.91816527  0.84085829  1
  Ca2+  Ca30  1  0.84628320  0.42615156  0.16502202  1
  Ca2+  Ca31  1  0.83536972  0.42405735  0.49844432  1
  Ca2+  Ca32  1  0.83532409  0.42237857  0.84369472  1
  Ca2+  Ca33  1  0.82722584  0.92497782  0.17120228  1
  Ca2+  Ca34  1  0.82449693  0.91915800  0.51052199  1
  Ca2+  Ca35  1  0.83683961  0.92342290  0.83590186  1
  Ca2+  Ca36  1  0.42841624  0.17287306  0.15873318  1
  Ca2+  Ca37  1  0.42303564  0.16780634  0.48963413  1
  Ca2+  Ca38  1  0.41672379  0.17310321  0.83709701  1
  Ca2+  Ca39  1  0.40613663  0.66796719  0.16441440  1
  Ca2+  Ca40  1  0.42094090  0.67162316  0.49259717  1
  Ca2+  Ca41  1  0.42120991  0.66264597  0.82961145  1
  Ca2+  Ca42  1  0.92355849  0.17377766  0.15584510  1
  Ca2+  Ca43  1  0.92010463  0.16689261  0.49539090  1
  Ca2+  Ca44  1  0.91540034  0.16601688  0.83603908  1
  Ca2+  Ca45  1  0.92570148  0.65983571  0.16157257  1
  Ca2+  Ca46  1  0.92390218  0.66827716  0.49611482  1
  Ca2+  Ca47  1  0.92756201  0.66752451  0.82765774  1
  Al0+  Al48  1  -0.00297177  -0.00130841  0.00794442  1
  Al0+  Al49  1  -0.00131680  -0.00070687  0.33205185  1
  Al0+  Al50  1  0.00050244  0.00088931  0.66569232  1
  Al0+  Al51  1  0.00160278  0.49904312  -0.00043519  1
  Al0+  Al52  1  -0.00039327  0.50048567  0.33981512  1
  Al0+  Al53  1  -0.00062378  0.49767934  0.66524862  1
  Al0+  Al54  1  0.49939695  -0.00191010  -0.00579146  1
  Al0+  Al55  1  0.49944514  -0.00050610  0.32851427  1
  Al0+  Al56  1  0.50066675  0.00040643  0.67241072  1
  Al0+  Al57  1  0.50050076  0.50056852  0.00025423  1
  Al0+  Al58  1  0.50073975  0.50130195  0.33648413  1
  Al0+  Al59  1  0.49892832  0.49958420  0.65943143  1
  Al0+  Al60  1  0.25246188  0.24725707  -0.00513404  1
  Al0+  Al61  1  0.25024738  0.24902512  0.33219611  1
  Al0+  Al62  1  0.24944178  0.25227182  0.67133351  1
  Al0+  Al63  1  0.24978168  0.75148818  0.00014465  1
  Al0+  Al64  1  0.24993086  0.75046744  0.33093314  1
  Al0+  Al65  1  0.25213764  0.74977492  0.66207014  1
  Al0+  Al66  1  0.75073304  0.24887445  -0.00438366  1
  Al0+  Al67  1  0.75194243  0.25113598  0.32978793  1
  Al0+  Al68  1  0.74992346  0.25031650  0.66816653  1
  Al0+  Al69  1  0.74920452  0.75116369  0.00603079  1
  Al0+  Al70  1  0.74903610  0.75189955  0.34059106  1
  Al0+  Al71  1  0.74950799  0.75047316  0.66431921  1
  Al0+  Al72  1  0.82022590  0.57070955  0.34899099  1
  Al0+  Al73  1  0.82252776  0.07222677  0.68248282  1
  Al0+  Al74  1  0.17825055  0.93006389  0.01368589  1
  Al0+  Al75  1  0.06874595  0.67966710  0.31838284  1
  Al0+  Al76  1  0.93149672  0.32106864  0.98430957  1
  Al0+  Al77  1  0.07139007  0.17539048  0.98449419  1
  Al0+  Al78  1  0.32299369  0.57194821  0.01369009  1
  Al0+  Al79  1  0.82162225  0.57157707  0.01164007  1
  Al0+  Al80  1  0.57058240  0.67862999  0.65342522  1
  Al0+  Al81  1  0.93010557  0.82288273  0.65224175  1
  Al0+  Al82  1  0.07209082  0.67622136  0.65031995  1
  Al0+  Al83  1  0.57143815  0.17990961  0.32110192  1
  Al0+  Al84  1  0.07104596  0.67971588  0.98757181  1
  Al0+  Al85  1  0.17942370  0.42704300  0.01517265  1
  Al0+  Al86  1  0.18061900  0.42767641  0.34894676  1
  Al0+  Al87  1  0.67767406  0.93287891  0.34715440  1
  Al0+  Al88  1  0.32202944  0.57425393  0.35072546  1
  Al0+  Al89  1  0.67855332  0.92729826  0.68450045  1
  Al0+  Al90  1  0.43012419  0.81934061  0.31860787  1
  Al0+  Al91  1  0.07171436  0.17804282  0.32065930  1
  Al0+  Al92  1  0.57244521  0.17676982  0.98165471  1
  Al0+  Al93  1  0.17830730  0.43006469  0.68349493  1
  Al0+  Al94  1  0.42928001  0.32336661  0.98435531  1
  Al0+  Al95  1  0.81912684  0.07161914  0.01632754  1
  Si0+  Si96  1  0.32157037  0.07262150  0.68133715  1
  Si0+  Si97  1  0.42761584  0.31973053  0.64954484  1
  Si0+  Si98  1  0.67810348  0.42834549  0.01468904  1
  Si0+  Si99  1  0.42797677  0.32292556  0.31801432  1
  Si0+  Si100  1  0.57022862  0.17984742  0.65173142  1
  Si0+  Si101  1  0.42865274  0.82466687  0.65016918  1
  Si0+  Si102  1  0.92516603  0.82080646  0.98634939  1
  Si0+  Si103  1  0.67750523  0.42635406  0.34929036  1
  Si0+  Si104  1  0.17713732  0.92842163  0.34943337  1
  Si0+  Si105  1  0.92890437  0.32228618  0.31756507  1
  Si0+  Si106  1  0.67573082  0.92767886  0.01842106  1
  Si0+  Si107  1  0.57290289  0.68034481  0.98801115  1
  Si0+  Si108  1  0.67659941  0.42822806  0.68030348  1
  Si0+  Si109  1  0.32294687  0.57200144  0.68174076  1
  Si0+  Si110  1  0.92519740  0.82187101  0.31585260  1
  Si0+  Si111  1  0.31973705  0.06913223  0.34593422  1
  Si0+  Si112  1  0.57426971  0.67723788  0.31546010  1
  Si0+  Si113  1  0.32416609  0.07028051  0.01662550  1
  Si0+  Si114  1  0.07177120  0.18002609  0.65298255  1
  Si0+  Si115  1  0.92680597  0.32082713  0.65013370  1
  Si0+  Si116  1  0.81904414  0.56940389  0.68132632  1
  Si0+  Si117  1  0.42828798  0.81982713  0.98363076  1
  Si0+  Si118  1  0.18038513  0.92916151  0.67878617  1
  Si0+  Si119  1  0.82262857  0.07353691  0.35037293  1
  O2-  O120  1  0.25020586  0.00771253  0.06114108  1
  O2-  O121  1  0.24598044  0.00229746  0.39128590  1
  O2-  O122  1  0.25153216  -0.00009393  0.72159470  1
  O2-  O123  1  0.25181883  0.49947291  0.06343987  1
  O2-  O124  1  0.25140174  0.50067744  0.40045984  1
  O2-  O125  1  0.24964458  0.50940814  0.72668023  1
  O2-  O126  1  0.74073118  -0.00009784  0.06178938  1
  O2-  O127  1  0.75291156  0.00654762  0.39471941  1
  O2-  O128  1  0.75251702  -0.00196151  0.73252684  1
  O2-  O129  1  0.74917266  0.49441625  0.05868893  1
  O2-  O130  1  0.74257400  0.49779211  0.39508285  1
  O2-  O131  1  0.74570321  0.50050030  0.72335882  1
  O2-  O132  1  -0.00227576  0.25317176  0.27551278  1
  O2-  O133  1  -0.00097199  0.24931852  0.61048291  1
  O2-  O134  1  0.00331501  0.24970668  0.93198133  1
  O2-  O135  1  -0.00673833  0.75353006  0.27088839  1
  O2-  O136  1  0.00024518  0.74936017  0.60139855  1
  O2-  O137  1  -0.00605499  0.75262508  0.94169080  1
  O2-  O138  1  0.50185663  0.25942367  0.27502978  1
  O2-  O139  1  0.49835953  0.24857564  0.60687848  1
  O2-  O140  1  0.50095192  0.25060918  0.93314763  1
  O2-  O141  1  0.50130184  0.74117929  0.27097576  1
  O2-  O142  1  0.49780491  0.75589678  0.60774592  1
  O2-  O143  1  0.49961157  0.74817224  0.94404790  1
  O2-  O144  1  0.06752689  0.17603227  0.09810764  1
  O2-  O145  1  0.07093999  0.17782948  0.43478282  1
  O2-  O146  1  0.07348495  0.17863247  0.75720985  1
  O2-  O147  1  0.07069719  0.68006172  0.10061638  1
  O2-  O148  1  0.06706308  0.68185250  0.43164481  1
  O2-  O149  1  0.07154045  0.67747831  0.76403054  1
  O2-  O150  1  0.56994810  0.17764306  0.09566265  1
  O2-  O151  1  0.56815129  0.17983088  0.43505369  1
  O2-  O152  1  0.56913855  0.18217641  0.75602694  1
  O2-  O153  1  0.57620422  0.68293960  0.09266373  1
  O2-  O154  1  0.57457878  0.68078477  0.42122178  1
  O2-  O155  1  0.56835281  0.67707237  0.76711923  1
  O2-  O156  1  0.18189491  0.42453453  0.23617758  1
  O2-  O157  1  0.18129171  0.42406674  0.57071800  1
  O2-  O158  1  0.17924031  0.43190717  0.90122188  1
  O2-  O159  1  0.17829801  0.92853468  0.24460164  1
  O2-  O160  1  0.18161485  0.93159035  0.57348207  1
  O2-  O161  1  0.18186785  0.92822431  0.89975049  1
  O2-  O162  1  0.67759634  0.42540360  0.24410624  1
  O2-  O163  1  0.67865012  0.42582124  0.57522391  1
  O2-  O164  1  0.67654863  0.43296576  0.90853758  1
  O2-  O165  1  0.67803874  0.93455779  0.23406676  1
  O2-  O166  1  0.67492195  0.93236060  0.57084360  1
  O2-  O167  1  0.67705624  0.92390916  0.91320079  1
  O2-  O168  1  0.43335825  0.32287874  0.09818286  1
  O2-  O169  1  0.42747709  0.31736838  0.42437536  1
  O2-  O170  1  0.42908712  0.31992239  0.75403665  1
  O2-  O171  1  0.42878393  0.82243262  0.08848500  1
  O2-  O172  1  0.43257957  0.82226267  0.43189404  1
  O2-  O173  1  0.42569212  0.82474805  0.75575965  1
  O2-  O174  1  0.93177885  0.32090905  0.09790245  1
  O2-  O175  1  0.92608555  0.31989205  0.42380402  1
  O2-  O176  1  0.92493480  0.32374625  0.75438056  1
  O2-  O177  1  0.92368648  0.81834467  0.09201119  1
  O2-  O178  1  0.92777851  0.82276228  0.42150367  1
  O2-  O179  1  0.93386511  0.82212339  0.76609184  1
  O2-  O180  1  0.32059946  0.06715488  0.24149109  1
  O2-  O181  1  0.32198647  0.07403762  0.57577646  1
  O2-  O182  1  0.32651133  0.06457503  0.91048706  1
  O2-  O183  1  0.31957742  0.57266626  0.23757760  1
  O2-  O184  1  0.32521009  0.56905403  0.57657084  1
  O2-  O185  1  0.32372963  0.57230944  0.89952184  1
  O2-  O186  1  0.82196954  0.07284661  0.24508380  1
  O2-  O187  1  0.81938221  0.07478026  0.56849720  1
  O2-  O188  1  0.81992899  0.06783631  0.90335229  1
  O2-  O189  1  0.82070939  0.56880349  0.23591154  1
  O2-  O190  1  0.81849762  0.56664700  0.57619595  1
  O2-  O191  1  0.81781077  0.57329329  0.89811838  1
  O2-  O192  1  0.04207208  0.08063054  0.26787765  1
  O2-  O193  1  0.04715715  0.08813545  0.60383186  1
  O2-  O194  1  0.03767461  0.07638914  0.93453045  1
  O2-  O195  1  0.03725318  0.58141175  0.26890760  1
  O2-  O196  1  0.04013670  0.57845847  0.59788492  1
  O2-  O197  1  0.04055642  0.58400881  0.93335298  1
  O2-  O198  1  0.53542621  0.08689179  0.26538395  1
  O2-  O199  1  0.54176729  0.08682852  0.60682567  1
  O2-  O200  1  0.54161560  0.07893000  0.92837688  1
  O2-  O201  1  0.55645692  0.58044055  0.27315763  1
  O2-  O202  1  0.54112122  0.58290524  0.59574945  1
  O2-  O203  1  0.54934732  0.58794676  0.94018757  1
  O2-  O204  1  0.16927873  0.20470481  0.26702627  1
  O2-  O205  1  0.16383606  0.20974504  0.60566910  1
  O2-  O206  1  0.17336980  0.19207619  0.93462182  1
  O2-  O207  1  0.16459695  0.71297501  0.26597547  1
  O2-  O208  1  0.17133624  0.70453937  0.59860992  1
  O2-  O209  1  0.16601782  0.71459894  0.93232578  1
  O2-  O210  1  0.66908537  0.20697825  0.26767197  1
  O2-  O211  1  0.66155350  0.20961028  0.60418928  1
  O2-  O212  1  0.66986065  0.20511388  0.92827798  1
  O2-  O213  1  0.66677428  0.70848336  0.27046912  1
  O2-  O214  1  0.66705804  0.70696596  0.59863811  1
  O2-  O215  1  0.66308693  0.71188373  0.93848328  1
  O2-  O216  1  0.08140016  0.45516888  0.06770318  1
  O2-  O217  1  0.08218285  0.45478085  0.40286101  1
  O2-  O218  1  0.07902599  0.45622217  0.73382975  1
  O2-  O219  1  0.08229036  0.95537212  0.07069620  1
  O2-  O220  1  0.08459874  0.95475162  0.39671366  1
  O2-  O221  1  0.08976347  0.95796569  0.72667874  1
  O2-  O222  1  0.58665003  0.45607596  0.06311663  1
  O2-  O223  1  0.58286599  0.44620833  0.39617957  1
  O2-  O224  1  0.58319177  0.45442303  0.72511952  1
  O2-  O225  1  0.57983527  0.95044974  0.06084847  1
  O2-  O226  1  0.58095761  0.96514276  0.40069318  1
  O2-  O227  1  0.58014851  0.95631740  0.73819806  1
  O2-  O228  1  0.20726171  0.32601755  0.06271483  1
  O2-  O229  1  0.21142690  0.32879080  0.40282722  1
  O2-  O230  1  0.21239517  0.33461583  0.73801807  1
  O2-  O231  1  0.21516193  0.83631100  0.06870367  1
  O2-  O232  1  0.20950613  0.83915819  0.39787874  1
  O2-  O233  1  0.20867118  0.83688697  0.72548676  1
  O2-  O234  1  0.70029347  0.33321132  0.05744272  1
  O2-  O235  1  0.70773901  0.33399247  0.39744233  1
  O2-  O236  1  0.70511016  0.33761486  0.72908734  1
  O2-  O237  1  0.70366385  0.83635826  0.06808921  1
  O2-  O238  1  0.70553517  0.83626206  0.40230252  1
  O2-  O239  1  0.70422978  0.82711661  0.73506043  1
  O2-  O240  1  0.44834728  0.41895993  0.27604340  1
  O2-  O241  1  0.45534146  0.41018860  0.59990793  1
  O2-  O242  1  0.46026102  0.42102281  0.92965282  1
  O2-  O243  1  0.46311459  0.91402343  0.26212662  1
  O2-  O244  1  0.45397057  0.91927716  0.60502049  1
  O2-  O245  1  0.45564450  0.91017898  0.93295980  1
  O2-  O246  1  0.95442567  0.41648764  0.27466926  1
  O2-  O247  1  0.95540708  0.41130753  0.60048736  1
  O2-  O248  1  0.95899147  0.41917424  0.92935450  1
  O2-  O249  1  0.95030852  0.91602489  0.27068078  1
  O2-  O250  1  0.95933127  0.92088412  0.59740062  1
  O2-  O251  1  0.95144361  0.91459454  0.94278839  1
  O2-  O252  1  0.33769010  0.29089956  0.27068150  1
  O2-  O253  1  0.33599865  0.28893061  0.60297880  1
  O2-  O254  1  0.33319486  0.29240567  0.92779257  1
  O2-  O255  1  0.33253649  0.79344882  0.26440533  1
  O2-  O256  1  0.33596985  0.80008129  0.60130902  1
  O2-  O257  1  0.33757025  0.79289042  0.93393782  1
  O2-  O258  1  0.83588079  0.29913862  0.26928529  1
  O2-  O259  1  0.83512640  0.29304794  0.60130371  1
  O2-  O260  1  0.83214617  0.29546912  0.93139160  1
  O2-  O261  1  0.83040698  0.79746643  0.27250875  1
  O2-  O262  1  0.83100609  0.79599959  0.60044224  1
  O2-  O263  1  0.83133074  0.79594906  0.94001473  1
  O2-  O264  1  0.41572771  0.03757529  0.06302218  1
  O2-  O265  1  0.40965426  0.03722016  0.39525432  1
  O2-  O266  1  0.41227832  0.04580935  0.73080152  1
  O2-  O267  1  0.42249761  0.54689193  0.06703102  1
  O2-  O268  1  0.42360561  0.55128663  0.40126496  1
  O2-  O269  1  0.41565601  0.54068420  0.72722760  1
  O2-  O270  1  0.91274099  0.03840348  0.07401172  1
  O2-  O271  1  0.91598431  0.04608820  0.39683215  1
  O2-  O272  1  0.92264564  0.04632255  0.73364220  1
  O2-  O273  1  0.91703497  0.53979135  0.06604844  1
  O2-  O274  1  0.91369853  0.53689896  0.40688466  1
  O2-  O275  1  0.91013365  0.53832750  0.72754117  1
  O2-  O276  1  0.30789828  0.16662395  0.05867012  1
  O2-  O277  1  0.29582661  0.16124537  0.39531253  1
  O2-  O278  1  0.29306698  0.16318301  0.72987769  1
  O2-  O279  1  0.29559518  0.67110384  0.06419604  1
  O2-  O280  1  0.29293806  0.67330794  0.40253114  1
  O2-  O281  1  0.30537859  0.66915376  0.72427134  1
  O2-  O282  1  0.79074545  0.16988045  0.06819290  1
  O2-  O283  1  0.79996285  0.16889626  0.39443197  1
  O2-  O284  1  0.79131767  0.17037147  0.73490873  1
  O2-  O285  1  0.78802638  0.66569726  0.06886307  1
  O2-  O286  1  0.78994933  0.66684392  0.40427196  1
  O2-  O287  1  0.79359591  0.66197679  0.72704396  1
