# generated using pymatgen
data_Ca2Al2SiO7
_symmetry_space_group_name_H-M   'P 1'
_cell_length_a   15.46582007
_cell_length_b   15.46714844
_cell_length_c   15.29012908
_cell_angle_alpha   90.01552082
_cell_angle_beta   90.01142737
_cell_angle_gamma   89.99978311
_symmetry_Int_Tables_number   1
_chemical_formula_structural   Ca2Al2SiO7
_chemical_formula_sum   'Ca48 Al48 Si24 O168'
_cell_volume   3657.58421296
_cell_formula_units_Z   24
loop_
 _symmetry_equiv_pos_site_id
 _symmetry_equiv_pos_as_xyz
  1  'x, y, z'
loop_
 _atom_type_symbol
 _atom_type_oxidation_number
  Ca2+  2.0
  Al0+  0.0
  Si0+  0.0
  O2-  -2.0
loop_
 _atom_site_type_symbol
 _atom_site_label
 _atom_site_symmetry_multiplicity
 _atom_site_fract_x
 _atom_site_fract_y
 _atom_site_fract_z
 _atom_site_occupancy
  Ca2+  Ca0  1  0.16673424  0.07914185  0.17750762  1
  Ca2+  Ca1  1  0.16677708  0.07590336  0.50919430  1
  Ca2+  Ca2  1  0.17601698  0.08913311  0.82793078  1
  Ca2+  Ca3  1  0.17481257  0.57048379  0.16882459  1
  Ca2+  Ca4  1  0.16296813  0.56991074  0.50597775  1
  Ca2+  Ca5  1  0.17086628  0.57297818  0.83683399  1
  Ca2+  Ca6  1  0.67284050  0.09268620  0.17235973  1
  Ca2+  Ca7  1  0.67665619  0.08735404  0.51082717  1
  Ca2+  Ca8  1  0.66147496  0.08770582  0.83128982  1
  Ca2+  Ca9  1  0.66077295  0.57265313  0.17328987  1
  Ca2+  Ca10  1  0.66071684  0.58045770  0.49690798  1
  Ca2+  Ca11  1  0.66734095  0.57573914  0.83924941  1
  Ca2+  Ca12  1  0.08330543  0.33590285  0.16891590  1
  Ca2+  Ca13  1  0.08490682  0.32046035  0.49234634  1
  Ca2+  Ca14  1  0.08504516  0.33358607  0.82227849  1
  Ca2+  Ca15  1  0.08504033  0.83516129  0.16542520  1
  Ca2+  Ca16  1  0.09483953  0.82931293  0.49661038  1
  Ca2+  Ca17  1  0.08902867  0.82416332  0.82172374  1
  Ca2+  Ca18  1  0.57498685  0.33695790  0.16019045  1
  Ca2+  Ca19  1  0.57208744  0.33148922  0.49475582  1
  Ca2+  Ca20  1  0.57391916  0.32848224  0.82917562  1
  Ca2+  Ca21  1  0.58004600  0.82718412  0.16684564  1
  Ca2+  Ca22  1  0.57404532  0.83600227  0.49601637  1
  Ca2+  Ca23  1  0.57848221  0.83096969  0.82104748  1
  Ca2+  Ca24  1  0.32989261  0.41259591  0.17169945  1
  Ca2+  Ca25  1  0.32603928  0.40869843  0.50458988  1
  Ca2+  Ca26  1  0.32594014  0.41158307  0.83842168  1
  Ca2+  Ca27  1  0.32905016  0.91993017  0.17550532  1
  Ca2+  Ca28  1  0.33004240  0.91913940  0.50824096  1
  Ca2+  Ca29  1  0.33772899  0.92340332  0.82691559  1
  Ca2+  Ca30  1  0.82021799  0.40869004  0.17454776  1
  Ca2+  Ca31  1  0.82715500  0.40763284  0.49889414  1
  Ca2+  Ca32  1  0.82541520  0.41479208  0.83852497  1
  Ca2+  Ca33  1  0.82974300  0.92597919  0.17709719  1
  Ca2+  Ca34  1  0.82667129  0.92947424  0.50758341  1
  Ca2+  Ca35  1  0.82804547  0.92366680  0.82960480  1
  Ca2+  Ca36  1  0.42057188  0.18146587  0.16064737  1
  Ca2+  Ca37  1  0.41295166  0.17415021  0.50028640  1
  Ca2+  Ca38  1  0.42189476  0.17647986  0.82331630  1
  Ca2+  Ca39  1  0.41326224  0.66872536  0.16879395  1
  Ca2+  Ca40  1  0.41827312  0.68138240  0.49263474  1
  Ca2+  Ca41  1  0.40819666  0.67254325  0.82803742  1
  Ca2+  Ca42  1  0.92017084  0.16812731  0.17282683  1
  Ca2+  Ca43  1  0.92402354  0.16239133  0.49430139  1
  Ca2+  Ca44  1  0.92377442  0.16683528  0.82559888  1
  Ca2+  Ca45  1  0.91824213  0.66808372  0.16467740  1
  Ca2+  Ca46  1  0.92338901  0.66823650  0.49930232  1
  Ca2+  Ca47  1  0.92496511  0.66825914  0.82387030  1
  Al0+  Al48  1  -0.00270428  0.00036968  -0.00112248  1
  Al0+  Al49  1  0.00026855  -0.00154376  0.33716822  1
  Al0+  Al50  1  -0.00254361  -0.00199222  0.67278493  1
  Al0+  Al51  1  0.00082617  0.50148126  0.00279003  1
  Al0+  Al52  1  -0.00062731  0.50028552  0.33224270  1
  Al0+  Al53  1  -0.00078117  0.50138984  0.66593400  1
  Al0+  Al54  1  0.50048550  -0.00182089  -0.00046061  1
  Al0+  Al55  1  0.50012275  -0.00019849  0.32735856  1
  Al0+  Al56  1  0.50063333  -0.00025394  0.66630662  1
  Al0+  Al57  1  0.49950086  0.50299965  0.00205348  1
  Al0+  Al58  1  0.50039800  0.50111268  0.33192204  1
  Al0+  Al59  1  0.49942429  0.50099910  0.66391141  1
  Al0+  Al60  1  0.24903019  0.24745954  0.00201110  1
  Al0+  Al61  1  0.25061381  0.24822212  0.32805144  1
  Al0+  Al62  1  0.24760922  0.24873487  0.66719796  1
  Al0+  Al63  1  0.24868611  0.74887961  0.00329325  1
  Al0+  Al64  1  0.25057781  0.74918543  0.32996261  1
  Al0+  Al65  1  0.25050235  0.74751734  0.65983856  1
  Al0+  Al66  1  0.75273660  0.24913163  0.00040852  1
  Al0+  Al67  1  0.75218022  0.25138639  0.34072120  1
  Al0+  Al68  1  0.74958248  0.25137631  0.67076399  1
  Al0+  Al69  1  0.75000921  0.75281604  -0.00107431  1
  Al0+  Al70  1  0.75071362  0.74903988  0.32950664  1
  Al0+  Al71  1  0.75166235  0.74928661  0.66992229  1
  Al0+  Al72  1  0.42756822  0.32213437  0.65109147  1
  Al0+  Al73  1  0.57172180  0.67999312  0.31727370  1
  Al0+  Al74  1  0.07048270  0.17669429  0.31853910  1
  Al0+  Al75  1  0.32082630  0.57337145  0.01561072  1
  Al0+  Al76  1  0.67811613  0.43040960  0.34881172  1
  Al0+  Al77  1  0.82073285  0.07368781  0.68525688  1
  Al0+  Al78  1  0.67810662  0.92876838  0.68101478  1
  Al0+  Al79  1  0.17858545  0.42586899  0.01629454  1
  Al0+  Al80  1  0.42905300  0.32015095  0.31936850  1
  Al0+  Al81  1  0.68114719  0.42952709  0.01282734  1
  Al0+  Al82  1  0.18058473  0.92856822  0.34613038  1
  Al0+  Al83  1  0.07111062  0.67889032  0.65195926  1
  Al0+  Al84  1  0.17925553  0.42824831  0.34864579  1
  Al0+  Al85  1  0.17919639  0.42881106  0.67805286  1
  Al0+  Al86  1  0.32092065  0.07135245  0.68087637  1
  Al0+  Al87  1  0.17920525  0.92533187  0.68155440  1
  Al0+  Al88  1  0.57214606  0.17969581  0.65083970  1
  Al0+  Al89  1  0.57282568  0.17896883  0.98558021  1
  Al0+  Al90  1  0.42735544  0.32320222  0.98420399  1
  Al0+  Al91  1  0.06886899  0.17799005  0.65498479  1
  Al0+  Al92  1  0.43026542  0.82034133  0.65364418  1
  Al0+  Al93  1  0.92876770  0.32178766  0.31871765  1
  Al0+  Al94  1  0.42758043  0.82293296  0.31529465  1
  Al0+  Al95  1  0.81931584  0.07059081  0.34763004  1
  Si0+  Si96  1  0.82145018  0.57078076  0.68176495  1
  Si0+  Si97  1  0.67834149  0.92758927  0.01685174  1
  Si0+  Si98  1  0.93025787  0.82003096  0.31874028  1
  Si0+  Si99  1  0.57448579  0.17911191  0.31925228  1
  Si0+  Si100  1  0.32404265  0.07192573  0.34800016  1
  Si0+  Si101  1  0.92697652  0.82067748  0.64974226  1
  Si0+  Si102  1  0.57573341  0.67719315  0.65087789  1
  Si0+  Si103  1  0.67721522  0.43045965  0.68224862  1
  Si0+  Si104  1  0.07166856  0.67734599  0.31555279  1
  Si0+  Si105  1  0.82274578  0.57462364  0.35070214  1
  Si0+  Si106  1  0.93102229  0.32162557  0.98607958  1
  Si0+  Si107  1  0.82173597  0.06931361  0.01766520  1
  Si0+  Si108  1  0.92737249  0.32379776  0.65196185  1
  Si0+  Si109  1  0.32182650  0.57119195  0.35181374  1
  Si0+  Si110  1  0.57306842  0.68063447  0.98372719  1
  Si0+  Si111  1  0.06970041  0.17622928  0.98501725  1
  Si0+  Si112  1  0.06957244  0.68105997  0.98524326  1
  Si0+  Si113  1  0.67764480  0.92639758  0.34785437  1
  Si0+  Si114  1  0.42770154  0.81965659  0.98406749  1
  Si0+  Si115  1  0.92774724  0.82266786  0.98352242  1
  Si0+  Si116  1  0.32230092  0.06957665  0.01569600  1
  Si0+  Si117  1  0.82198717  0.57459263  0.01626856  1
  Si0+  Si118  1  0.17807237  0.93016254  0.01340424  1
  Si0+  Si119  1  0.32270117  0.57106170  0.68010061  1
  O2-  O120  1  0.24846835  0.00042807  0.05703821  1
  O2-  O121  1  0.25654537  0.00161859  0.39111878  1
  O2-  O122  1  0.24870405  -0.00104305  0.73270799  1
  O2-  O123  1  0.25618771  0.49360758  0.06433437  1
  O2-  O124  1  0.25494108  0.50142138  0.39641111  1
  O2-  O125  1  0.25744007  0.49962526  0.72497985  1
  O2-  O126  1  0.74600293  0.00216650  0.05857789  1
  O2-  O127  1  0.74040422  -0.00040882  0.39217122  1
  O2-  O128  1  0.74541080  0.00393514  0.73434806  1
  O2-  O129  1  0.75452479  0.50585519  0.06072155  1
  O2-  O130  1  0.75472940  0.50510290  0.39420166  1
  O2-  O131  1  0.74941591  0.50119944  0.72393771  1
  O2-  O132  1  0.00227826  0.25203396  0.26704630  1
  O2-  O133  1  -0.00650651  0.25246250  0.60948470  1
  O2-  O134  1  0.00647186  0.25533184  0.94448516  1
  O2-  O135  1  0.00111493  0.74984663  0.27405943  1
  O2-  O136  1  0.00070328  0.75784628  0.60497482  1
  O2-  O137  1  -0.00233197  0.75071853  0.94196188  1
  O2-  O138  1  0.50530923  0.24615377  0.27381971  1
  O2-  O139  1  0.49936568  0.25008302  0.60059749  1
  O2-  O140  1  0.50012663  0.25058740  0.93616224  1
  O2-  O141  1  0.50014276  0.75136315  0.26518051  1
  O2-  O142  1  0.50860725  0.74803620  0.60918495  1
  O2-  O143  1  0.49934097  0.74892797  0.94174349  1
  O2-  O144  1  0.06554205  0.16886172  0.08938492  1
  O2-  O145  1  0.06843773  0.17422735  0.43171540  1
  O2-  O146  1  0.06865557  0.18232061  0.76903832  1
  O2-  O147  1  0.06755937  0.68358664  0.09036397  1
  O2-  O148  1  0.07045382  0.67726104  0.42046036  1
  O2-  O149  1  0.06742754  0.67769258  0.76571356  1
  O2-  O150  1  0.57257257  0.17974239  0.09952139  1
  O2-  O151  1  0.57376787  0.17934108  0.42430745  1
  O2-  O152  1  0.57141534  0.18483935  0.76458541  1
  O2-  O153  1  0.57861851  0.68503417  0.08795930  1
  O2-  O154  1  0.57198906  0.68340550  0.43091357  1
  O2-  O155  1  0.57648733  0.67602806  0.75695459  1
  O2-  O156  1  0.17966004  0.43164642  0.23552574  1
  O2-  O157  1  0.17674933  0.42993736  0.56527380  1
  O2-  O158  1  0.17361277  0.43007068  0.90270011  1
  O2-  O159  1  0.17931822  0.93024534  0.23180890  1
  O2-  O160  1  0.18231514  0.92559699  0.56820065  1
  O2-  O161  1  0.17779729  0.92855595  0.90903690  1
  O2-  O162  1  0.67971236  0.43078315  0.23542384  1
  O2-  O163  1  0.67766016  0.43195566  0.57746607  1
  O2-  O164  1  0.68506913  0.43249562  0.89940656  1
  O2-  O165  1  0.68209682  0.92528696  0.24159968  1
  O2-  O166  1  0.68276286  0.92473009  0.56767853  1
  O2-  O167  1  0.68065553  0.92254264  0.91255483  1
  O2-  O168  1  0.42871357  0.32066757  0.09796619  1
  O2-  O169  1  0.42815715  0.31907402  0.43198633  1
  O2-  O170  1  0.42966970  0.32482106  0.76471903  1
  O2-  O171  1  0.42842287  0.82031074  0.08877804  1
  O2-  O172  1  0.42759536  0.82234384  0.42845463  1
  O2-  O173  1  0.42961666  0.81618779  0.76759905  1
  O2-  O174  1  0.92822825  0.31972808  0.09063883  1
  O2-  O175  1  0.92878836  0.32011830  0.43202823  1
  O2-  O176  1  0.92910310  0.32641193  0.75842261  1
  O2-  O177  1  0.92837332  0.82348540  0.08891195  1
  O2-  O178  1  0.92897989  0.81766189  0.42318285  1
  O2-  O179  1  0.92471275  0.81491548  0.75578563  1
  O2-  O180  1  0.32256080  0.06991876  0.24159989  1
  O2-  O181  1  0.31902648  0.07103804  0.56758762  1
  O2-  O182  1  0.32271595  0.06894221  0.91104222  1
  O2-  O183  1  0.31871468  0.57161764  0.24599573  1
  O2-  O184  1  0.32165712  0.57168854  0.57493101  1
  O2-  O185  1  0.31332971  0.58194958  0.90248790  1
  O2-  O186  1  0.81891949  0.06778445  0.23350975  1
  O2-  O187  1  0.82128677  0.07113267  0.57186926  1
  O2-  O188  1  0.82673744  0.06692390  0.91353514  1
  O2-  O189  1  0.82264392  0.57739750  0.24497156  1
  O2-  O190  1  0.82296059  0.57240201  0.57722798  1
  O2-  O191  1  0.82199897  0.57526853  0.91044455  1
  O2-  O192  1  0.03675804  0.07899520  0.26492755  1
  O2-  O193  1  0.03938393  0.07916917  0.60514565  1
  O2-  O194  1  0.03364659  0.08804553  0.93506926  1
  O2-  O195  1  0.04070164  0.58789461  0.26596608  1
  O2-  O196  1  0.03285100  0.58530015  0.59667565  1
  O2-  O197  1  0.04226804  0.58876237  0.93831748  1
  O2-  O198  1  0.55381875  0.08448417  0.27207068  1
  O2-  O199  1  0.55069779  0.07895273  0.60166098  1
  O2-  O200  1  0.54655407  0.07796625  0.93600776  1
  O2-  O201  1  0.54254669  0.58235669  0.26402189  1
  O2-  O202  1  0.54884379  0.58503590  0.60352430  1
  O2-  O203  1  0.54968640  0.58774236  0.93730404  1
  O2-  O204  1  0.16894184  0.20112337  0.26435955  1
  O2-  O205  1  0.16436591  0.20760600  0.60026705  1
  O2-  O206  1  0.16463816  0.19580055  0.94139827  1
  O2-  O207  1  0.16234051  0.70575415  0.26699217  1
  O2-  O208  1  0.16672482  0.70453408  0.59514394  1
  O2-  O209  1  0.16029239  0.71192510  0.93809366  1
  O2-  O210  1  0.66817112  0.20641951  0.27487814  1
  O2-  O211  1  0.67138273  0.21049348  0.60093704  1
  O2-  O212  1  0.67281331  0.20553069  0.93433423  1
  O2-  O213  1  0.67062398  0.70693543  0.26234930  1
  O2-  O214  1  0.67042752  0.69980119  0.60615481  1
  O2-  O215  1  0.66435198  0.71087364  0.93468603  1
  O2-  O216  1  0.08142701  0.46118803  0.06955529  1
  O2-  O217  1  0.08204245  0.46175956  0.39964547  1
  O2-  O218  1  0.08318417  0.46392165  0.73218625  1
  O2-  O219  1  0.08507432  0.95785580  0.05993363  1
  O2-  O220  1  0.08390007  0.95557219  0.40035768  1
  O2-  O221  1  0.07848858  0.94580564  0.73291957  1
  O2-  O222  1  0.58441630  0.46024658  0.06556581  1
  O2-  O223  1  0.58274600  0.46412417  0.40322396  1
  O2-  O224  1  0.58631214  0.46080269  0.73023239  1
  O2-  O225  1  0.58487577  0.94998999  0.06336327  1
  O2-  O226  1  0.58097989  0.94593704  0.38859736  1
  O2-  O227  1  0.57908781  0.95112777  0.73473634  1
  O2-  O228  1  0.19943910  0.32493052  0.06756274  1
  O2-  O229  1  0.20870380  0.32901681  0.39720131  1
  O2-  O230  1  0.20572774  0.33261404  0.73355938  1
  O2-  O231  1  0.20480323  0.83861447  0.06197698  1
  O2-  O232  1  0.20863967  0.82992925  0.39670165  1
  O2-  O233  1  0.21061412  0.82619292  0.73246764  1
  O2-  O234  1  0.71540011  0.33374975  0.06636399  1
  O2-  O235  1  0.71045768  0.33598175  0.40521722  1
  O2-  O236  1  0.70598965  0.34048652  0.73184849  1
  O2-  O237  1  0.71168218  0.83790902  0.06621920  1
  O2-  O238  1  0.70864661  0.83447925  0.39317573  1
  O2-  O239  1  0.71132141  0.83104088  0.73632843  1
  O2-  O240  1  0.45904251  0.41730294  0.26706694  1
  O2-  O241  1  0.45603254  0.42095004  0.59850213  1
  O2-  O242  1  0.45312625  0.42402903  0.93486593  1
  O2-  O243  1  0.45490064  0.92098384  0.25961235  1
  O2-  O244  1  0.45775035  0.91682075  0.59954667  1
  O2-  O245  1  0.45576441  0.91139232  0.93730216  1
  O2-  O246  1  0.95218339  0.42179764  0.26556064  1
  O2-  O247  1  0.95196538  0.41675138  0.60532280  1
  O2-  O248  1  0.95249460  0.41639741  0.94041888  1
  O2-  O249  1  0.95911972  0.91060754  0.26952989  1
  O2-  O250  1  0.94498331  0.91673357  0.60823312  1
  O2-  O251  1  0.95610144  0.91377552  0.93573359  1
  O2-  O252  1  0.33474896  0.28778848  0.26201385  1
  O2-  O253  1  0.32923088  0.29162575  0.60039652  1
  O2-  O254  1  0.32769963  0.29205930  0.93448762  1
  O2-  O255  1  0.33001762  0.79118611  0.26070909  1
  O2-  O256  1  0.33662760  0.78621607  0.59685594  1
  O2-  O257  1  0.33519992  0.79071344  0.93869374  1
  O2-  O258  1  0.83060266  0.28909633  0.26641444  1
  O2-  O259  1  0.83234429  0.30124134  0.60893576  1
  O2-  O260  1  0.84173473  0.28936617  0.93623065  1
  O2-  O261  1  0.83972323  0.79210126  0.26779913  1
  O2-  O262  1  0.83642612  0.78745096  0.60201575  1
  O2-  O263  1  0.83608890  0.79529901  0.93557060  1
  O2-  O264  1  0.41278264  0.03832517  0.06379274  1
  O2-  O265  1  0.41907647  0.04845545  0.39174922  1
  O2-  O266  1  0.41855523  0.04196979  0.73488483  1
  O2-  O267  1  0.42290095  0.55764216  0.06514559  1
  O2-  O268  1  0.41676810  0.55035578  0.39532868  1
  O2-  O269  1  0.41798731  0.55193817  0.72675190  1
  O2-  O270  1  0.91108905  0.03506255  0.06719474  1
  O2-  O271  1  0.91333925  0.03340179  0.40114614  1
  O2-  O272  1  0.91629926  0.03985602  0.74150627  1
  O2-  O273  1  0.91607601  0.55162689  0.06206095  1
  O2-  O274  1  0.91684205  0.55094624  0.39596243  1
  O2-  O275  1  0.91171573  0.54174112  0.73217221  1
  O2-  O276  1  0.29541224  0.16083436  0.06414901  1
  O2-  O277  1  0.29768130  0.16495710  0.39280762  1
  O2-  O278  1  0.28876093  0.16754455  0.73717384  1
  O2-  O279  1  0.28349317  0.66809194  0.07324782  1
  O2-  O280  1  0.29358800  0.66508999  0.39535244  1
  O2-  O281  1  0.29216180  0.66273678  0.72692949  1
  O2-  O282  1  0.79766393  0.16226679  0.06416164  1
  O2-  O283  1  0.79440881  0.16674102  0.40338652  1
  O2-  O284  1  0.79616433  0.17335162  0.73876874  1
  O2-  O285  1  0.79693298  0.66923807  0.06125270  1
  O2-  O286  1  0.79572283  0.66772966  0.39774220  1
  O2-  O287  1  0.79584663  0.66178160  0.73247685  1
