# generated using pymatgen
data_Ca2Al2SiO7
_symmetry_space_group_name_H-M   'P 1'
_cell_length_a   15.45878253
_cell_length_b   15.45840126
_cell_length_c   15.28467954
_cell_angle_alpha   89.99941343
_cell_angle_beta   90.00043698
_cell_angle_gamma   90.01353045
_symmetry_Int_Tables_number   1
_chemical_formula_structural   Ca2Al2SiO7
_chemical_formula_sum   'Ca48 Al48 Si24 O168'
_cell_volume   3652.55016697
_cell_formula_units_Z   24
loop_
 _symmetry_equiv_pos_site_id
 _symmetry_equiv_pos_as_xyz
  1  'x, y, z'
loop_
 _atom_type_symbol
 _atom_type_oxidation_number
  Ca2+  2.0
  Al0+  0.0
  Si0+  0.0
  O2-  -2.0
loop_
 _atom_site_type_symbol
 _atom_site_label
 _atom_site_symmetry_multiplicity
 _atom_site_fract_x
 _atom_site_fract_y
 _atom_site_fract_z
 _atom_site_occupancy
  Ca2+  Ca0  1  0.17037451  0.07195994  0.17443387  1
  Ca2+  Ca1  1  0.16714047  0.07425314  0.50007684  1
  Ca2+  Ca2  1  0.15958335  0.06859491  0.83777363  1
  Ca2+  Ca3  1  0.17039288  0.57921296  0.17490518  1
  Ca2+  Ca4  1  0.17372354  0.58462688  0.50274035  1
  Ca2+  Ca5  1  0.16592230  0.59175254  0.83473215  1
  Ca2+  Ca6  1  0.66911946  0.07888339  0.17198496  1
  Ca2+  Ca7  1  0.67429954  0.08465671  0.49838608  1
  Ca2+  Ca8  1  0.67815497  0.07885520  0.84281996  1
  Ca2+  Ca9  1  0.67194429  0.57966592  0.17350746  1
  Ca2+  Ca10  1  0.66245917  0.57710674  0.49822705  1
  Ca2+  Ca11  1  0.67829768  0.58168033  0.84172130  1
  Ca2+  Ca12  1  0.08137389  0.33387318  0.16653825  1
  Ca2+  Ca13  1  0.07121877  0.33720705  0.49243928  1
  Ca2+  Ca14  1  0.07488948  0.32742863  0.82595431  1
  Ca2+  Ca15  1  0.08101180  0.83231981  0.15742923  1
  Ca2+  Ca16  1  0.08524855  0.83702012  0.50137999  1
  Ca2+  Ca17  1  0.07636103  0.83193711  0.82746641  1
  Ca2+  Ca18  1  0.58171631  0.32212587  0.16384340  1
  Ca2+  Ca19  1  0.58365371  0.32728906  0.48742020  1
  Ca2+  Ca20  1  0.58180254  0.32731483  0.83590742  1
  Ca2+  Ca21  1  0.58795305  0.83481868  0.16481758  1
  Ca2+  Ca22  1  0.58368409  0.82658134  0.48762528  1
  Ca2+  Ca23  1  0.58534760  0.83586704  0.83248861  1
  Ca2+  Ca24  1  0.32931773  0.41824275  0.17516245  1
  Ca2+  Ca25  1  0.33043098  0.42758452  0.50139307  1
  Ca2+  Ca26  1  0.33487001  0.42153785  0.83742482  1
  Ca2+  Ca27  1  0.32156064  0.91865898  0.17428387  1
  Ca2+  Ca28  1  0.32421357  0.91882578  0.49878770  1
  Ca2+  Ca29  1  0.31889090  0.91201818  0.83725124  1
  Ca2+  Ca30  1  0.83217133  0.42300845  0.17458572  1
  Ca2+  Ca31  1  0.82895808  0.40720262  0.50043192  1
  Ca2+  Ca32  1  0.83896868  0.42286952  0.83703075  1
  Ca2+  Ca33  1  0.82687140  0.92501720  0.17012098  1
  Ca2+  Ca34  1  0.83407341  0.92710905  0.50437271  1
  Ca2+  Ca35  1  0.83626631  0.92221328  0.84278235  1
  Ca2+  Ca36  1  0.42613654  0.16417078  0.15976439  1
  Ca2+  Ca37  1  0.42271948  0.16342251  0.48750853  1
  Ca2+  Ca38  1  0.42254025  0.16786324  0.83468341  1
  Ca2+  Ca39  1  0.42259360  0.66089662  0.16882540  1
  Ca2+  Ca40  1  0.41671910  0.66365733  0.49247001  1
  Ca2+  Ca41  1  0.41745893  0.66695341  0.82820251  1
  Ca2+  Ca42  1  0.90503680  0.17027952  0.16766331  1
  Ca2+  Ca43  1  0.90843639  0.17271085  0.49444286  1
  Ca2+  Ca44  1  0.90981150  0.16760328  0.82691613  1
  Ca2+  Ca45  1  0.92276484  0.67398512  0.15418032  1
  Ca2+  Ca46  1  0.92262134  0.67532396  0.49684469  1
  Ca2+  Ca47  1  0.92433467  0.67799594  0.82971336  1
  Al0+  Al48  1  -0.00074289  0.00133390  0.00683033  1
  Al0+  Al49  1  -0.00094770  0.00167308  0.33958626  1
  Al0+  Al50  1  0.00003243  0.00099873  0.67045941  1
  Al0+  Al51  1  0.00240968  0.50033070  0.00007841  1
  Al0+  Al52  1  -0.00024471  0.50178223  0.33186923  1
  Al0+  Al53  1  -0.00016421  0.49945815  0.65809221  1
  Al0+  Al54  1  0.50058236  -0.00054170  -0.00504289  1
  Al0+  Al55  1  0.49950443  -0.00234914  0.33445076  1
  Al0+  Al56  1  0.50025779  -0.00039879  0.66564599  1
  Al0+  Al57  1  0.49974274  0.49998601  -0.00459466  1
  Al0+  Al58  1  0.50153965  0.50018946  0.33508526  1
  Al0+  Al59  1  0.49923672  0.49854799  0.67218147  1
  Al0+  Al60  1  0.24941204  0.25165198  -0.00680931  1
  Al0+  Al61  1  0.24688259  0.25041176  0.34125651  1
  Al0+  Al62  1  0.25129146  0.25168666  0.66645903  1
  Al0+  Al63  1  0.25243276  0.74775115  0.00243988  1
  Al0+  Al64  1  0.25026010  0.74989602  0.33878186  1
  Al0+  Al65  1  0.25198004  0.74958975  0.67078850  1
  Al0+  Al66  1  0.74806469  0.25086255  -0.00285398  1
  Al0+  Al67  1  0.74861249  0.25220386  0.33029526  1
  Al0+  Al68  1  0.74777111  0.24864641  0.66868398  1
  Al0+  Al69  1  0.75162563  0.74977113  0.00288796  1
  Al0+  Al70  1  0.75042467  0.74981374  0.33130320  1
  Al0+  Al71  1  0.75002089  0.74846006  0.66165172  1
  Al0+  Al72  1  0.92942703  0.32114283  0.31753313  1
  Al0+  Al73  1  0.32119060  0.56912024  0.34724249  1
  Al0+  Al74  1  0.67718170  0.92804385  0.01432977  1
  Al0+  Al75  1  0.81813437  0.07228481  0.34933437  1
  Al0+  Al76  1  0.56929593  0.17754065  0.31962137  1
  Al0+  Al77  1  0.17705481  0.92805533  0.34911745  1
  Al0+  Al78  1  0.81830518  0.07004361  0.68136449  1
  Al0+  Al79  1  0.07297266  0.68052941  0.64916794  1
  Al0+  Al80  1  0.18151995  0.93146072  0.68243020  1
  Al0+  Al81  1  0.42733834  0.32186179  0.98443489  1
  Al0+  Al82  1  0.07347709  0.67815590  0.98601936  1
  Al0+  Al83  1  0.32003865  0.56903631  0.68355313  1
  Al0+  Al84  1  0.82346749  0.56960425  0.01232386  1
  Al0+  Al85  1  0.17985295  0.92783517  0.01390882  1
  Al0+  Al86  1  0.82137303  0.07387559  0.01669023  1
  Al0+  Al87  1  0.68136410  0.43088353  0.34501320  1
  Al0+  Al88  1  0.32219814  0.07166907  0.34551704  1
  Al0+  Al89  1  0.92922617  0.82284694  0.98688453  1
  Al0+  Al90  1  0.57202293  0.17703607  0.98236759  1
  Al0+  Al91  1  0.92809445  0.82353007  0.64993606  1
  Al0+  Al92  1  0.67857533  0.92638949  0.34894429  1
  Al0+  Al93  1  0.57157145  0.67778802  0.31884532  1
  Al0+  Al94  1  0.92834114  0.31906213  0.65283071  1
  Al0+  Al95  1  0.17515314  0.42815617  0.34888300  1
  Si0+  Si96  1  0.32065332  0.07324411  0.01272849  1
  Si0+  Si97  1  0.92927034  0.32160909  0.98605449  1
  Si0+  Si98  1  0.07392832  0.17746931  0.65024132  1
  Si0+  Si99  1  0.82188391  0.57150676  0.67968104  1
  Si0+  Si100  1  0.42937629  0.32284330  0.64986036  1
  Si0+  Si101  1  0.32304666  0.56996974  0.01584066  1
  Si0+  Si102  1  0.67705939  0.43009891  0.01606225  1
  Si0+  Si103  1  0.82328763  0.57360744  0.35103274  1
  Si0+  Si104  1  0.67924759  0.42887829  0.68325709  1
  Si0+  Si105  1  0.57181360  0.67846517  0.98456762  1
  Si0+  Si106  1  0.07178658  0.68110932  0.31804835  1
  Si0+  Si107  1  0.67710653  0.92495364  0.68208415  1
  Si0+  Si108  1  0.32552138  0.07454433  0.68481287  1
  Si0+  Si109  1  0.17963114  0.42754567  0.01314259  1
  Si0+  Si110  1  0.42719109  0.82010109  0.31590962  1
  Si0+  Si111  1  0.57097753  0.67706639  0.65270053  1
  Si0+  Si112  1  0.43010217  0.82035212  0.65213168  1
  Si0+  Si113  1  0.07162391  0.17946425  0.98618373  1
  Si0+  Si114  1  0.42897362  0.82008427  0.98512409  1
  Si0+  Si115  1  0.07237589  0.17725491  0.31677518  1
  Si0+  Si116  1  0.17599579  0.42798703  0.68464501  1
  Si0+  Si117  1  0.42602053  0.32180475  0.31995654  1
  Si0+  Si118  1  0.92932463  0.82330434  0.31780843  1
  Si0+  Si119  1  0.56857408  0.18006723  0.65027550  1
  O2-  O120  1  0.25434357  0.00376855  0.05846697  1
  O2-  O121  1  0.24912999  0.00157217  0.39666881  1
  O2-  O122  1  0.25424997  0.00901055  0.72931966  1
  O2-  O123  1  0.25134831  0.49845339  0.05483917  1
  O2-  O124  1  0.24873369  0.49855859  0.39840000  1
  O2-  O125  1  0.24335426  0.49673708  0.73134935  1
  O2-  O126  1  0.74791232  0.00153895  0.06326903  1
  O2-  O127  1  0.74884352  -0.00164721  0.40064434  1
  O2-  O128  1  0.74814622  -0.00962867  0.72650962  1
  O2-  O129  1  0.74844988  0.49563949  0.05972565  1
  O2-  O130  1  0.75552027  0.50413561  0.39574651  1
  O2-  O131  1  0.75151795  0.49968453  0.72324866  1
  O2-  O132  1  0.00463965  0.24658708  0.27098503  1
  O2-  O133  1  0.00519150  0.24641843  0.60671339  1
  O2-  O134  1  -0.00381576  0.24665412  0.94417640  1
  O2-  O135  1  0.00193837  0.75307671  0.27632043  1
  O2-  O136  1  0.00147542  0.75298288  0.59878781  1
  O2-  O137  1  0.00313793  0.75216124  0.93703055  1
  O2-  O138  1  0.48848043  0.24791801  0.27537408  1
  O2-  O139  1  0.49425717  0.24710704  0.60731907  1
  O2-  O140  1  0.49865869  0.24938550  0.93360514  1
  O2-  O141  1  0.49787242  0.75322316  0.27137732  1
  O2-  O142  1  0.50361751  0.75136439  0.61099937  1
  O2-  O143  1  0.50336150  0.75203360  0.94241079  1
  O2-  O144  1  0.07812623  0.18362772  0.09067123  1
  O2-  O145  1  0.07147263  0.17719594  0.42229427  1
  O2-  O146  1  0.07388117  0.17938531  0.75652255  1
  O2-  O147  1  0.07327318  0.67706114  0.09989844  1
  O2-  O148  1  0.07106467  0.68057369  0.42294975  1
  O2-  O149  1  0.07046417  0.68146536  0.76275901  1
  O2-  O150  1  0.57014257  0.17810250  0.09570537  1
  O2-  O151  1  0.56936713  0.18191961  0.43348572  1
  O2-  O152  1  0.56824636  0.18193268  0.75507044  1
  O2-  O153  1  0.56864567  0.67399506  0.08913125  1
  O2-  O154  1  0.56844264  0.67727033  0.43257779  1
  O2-  O155  1  0.57104094  0.67665809  0.75818198  1
  O2-  O156  1  0.17635350  0.43040493  0.23445388  1
  O2-  O157  1  0.17887498  0.42766383  0.57965851  1
  O2-  O158  1  0.17853742  0.42668079  0.90818494  1
  O2-  O159  1  0.17852527  0.92695827  0.23530185  1
  O2-  O160  1  0.18487088  0.93258415  0.56985656  1
  O2-  O161  1  0.18116092  0.92820910  0.90065344  1
  O2-  O162  1  0.68228704  0.43248082  0.23206910  1
  O2-  O163  1  0.67687416  0.42869655  0.57829627  1
  O2-  O164  1  0.67727657  0.43287871  0.90964832  1
  O2-  O165  1  0.68088145  0.92616436  0.23577704  1
  O2-  O166  1  0.67386850  0.92604591  0.57698619  1
  O2-  O167  1  0.67756567  0.92820112  0.90010016  1
  O2-  O168  1  0.42635733  0.32226400  0.09782606  1
  O2-  O169  1  0.43103958  0.32328943  0.42597677  1
  O2-  O170  1  0.43217880  0.32440128  0.75476797  1
  O2-  O171  1  0.42629085  0.81786229  0.08973167  1
  O2-  O172  1  0.42664094  0.81820267  0.42187113  1
  O2-  O173  1  0.43134789  0.81958436  0.75769996  1
  O2-  O174  1  0.93135522  0.32402225  0.09079881  1
  O2-  O175  1  0.92836518  0.31870336  0.43071155  1
  O2-  O176  1  0.92907685  0.31927712  0.76670451  1
  O2-  O177  1  0.93077949  0.82054318  0.10075119  1
  O2-  O178  1  0.92888551  0.82124235  0.42292808  1
  O2-  O179  1  0.92643056  0.82169969  0.76336826  1
  O2-  O180  1  0.32092910  0.06962255  0.23148990  1
  O2-  O181  1  0.32844645  0.07273833  0.57968720  1
  O2-  O182  1  0.31759948  0.07193308  0.90676380  1
  O2-  O183  1  0.32044916  0.56796121  0.23316517  1
  O2-  O184  1  0.32448185  0.56633837  0.57123314  1
  O2-  O185  1  0.32490195  0.57030508  0.91077870  1
  O2-  O186  1  0.81702484  0.07169819  0.23623807  1
  O2-  O187  1  0.81386176  0.07436404  0.56895920  1
  O2-  O188  1  0.82100466  0.07427761  0.90265875  1
  O2-  O189  1  0.82295340  0.57223201  0.24523938  1
  O2-  O190  1  0.81838096  0.57221300  0.57484254  1
  O2-  O191  1  0.82165431  0.56697843  0.89841048  1
  O2-  O192  1  0.04671763  0.08309617  0.27149100  1
  O2-  O193  1  0.04898635  0.08397753  0.60562119  1
  O2-  O194  1  0.04573700  0.08659046  0.94075683  1
  O2-  O195  1  0.04357325  0.58965471  0.27001583  1
  O2-  O196  1  0.04534120  0.58194143  0.59623647  1
  O2-  O197  1  0.04465016  0.57974264  0.93212128  1
  O2-  O198  1  0.54216528  0.07938615  0.26708331  1
  O2-  O199  1  0.54485162  0.08625589  0.60452770  1
  O2-  O200  1  0.54321195  0.07959093  0.92632295  1
  O2-  O201  1  0.53851968  0.58202719  0.26356817  1
  O2-  O202  1  0.53919079  0.58524430  0.60739312  1
  O2-  O203  1  0.54129529  0.58884809  0.93348803  1
  O2-  O204  1  0.16671822  0.20292947  0.27118832  1
  O2-  O205  1  0.16877897  0.20165610  0.60547287  1
  O2-  O206  1  0.15982384  0.21007630  0.93278532  1
  O2-  O207  1  0.16501328  0.70702112  0.27229980  1
  O2-  O208  1  0.17333981  0.70855377  0.59998294  1
  O2-  O209  1  0.17400906  0.70298297  0.93532669  1
  O2-  O210  1  0.66217641  0.21587591  0.26466556  1
  O2-  O211  1  0.65866444  0.21323605  0.60361511  1
  O2-  O212  1  0.66843331  0.21075285  0.92669675  1
  O2-  O213  1  0.66917597  0.70526656  0.26469636  1
  O2-  O214  1  0.66298381  0.69904277  0.60346331  1
  O2-  O215  1  0.66429092  0.70374073  0.93732493  1
  O2-  O216  1  0.08895342  0.45523419  0.06230833  1
  O2-  O217  1  0.07795384  0.46029553  0.40167490  1
  O2-  O218  1  0.08044409  0.45167620  0.72785035  1
  O2-  O219  1  0.08495439  0.95919424  0.06904192  1
  O2-  O220  1  0.08051082  0.95717275  0.40423058  1
  O2-  O221  1  0.08469097  0.96116642  0.73669890  1
  O2-  O222  1  0.58419274  0.45927947  0.06081463  1
  O2-  O223  1  0.58611404  0.46175176  0.40185007  1
  O2-  O224  1  0.58903663  0.45846894  0.73282079  1
  O2-  O225  1  0.57632291  0.95330948  0.06447008  1
  O2-  O226  1  0.57854017  0.94963342  0.40009331  1
  O2-  O227  1  0.58351667  0.95283129  0.72839541  1
  O2-  O228  1  0.20745567  0.33578135  0.06073422  1
  O2-  O229  1  0.19681217  0.32977695  0.40390418  1
  O2-  O230  1  0.20260676  0.33385738  0.73073384  1
  O2-  O231  1  0.21411999  0.83207671  0.06746011  1
  O2-  O232  1  0.20850308  0.83181998  0.40383232  1
  O2-  O233  1  0.21671353  0.83625579  0.73613700  1
  O2-  O234  1  0.69898005  0.33498456  0.05846955  1
  O2-  O235  1  0.71201783  0.33574311  0.40122174  1
  O2-  O236  1  0.70730971  0.33794132  0.73182619  1
  O2-  O237  1  0.70287176  0.82905671  0.06662865  1
  O2-  O238  1  0.70626731  0.82694595  0.40074273  1
  O2-  O239  1  0.69793741  0.82872318  0.72558562  1
  O2-  O240  1  0.45745201  0.41299656  0.27271189  1
  O2-  O241  1  0.46319016  0.41319230  0.60319889  1
  O2-  O242  1  0.45865409  0.41925922  0.92860736  1
  O2-  O243  1  0.45034649  0.91376022  0.26966771  1
  O2-  O244  1  0.45432154  0.91335440  0.60486217  1
  O2-  O245  1  0.45159286  0.91183186  0.93484844  1
  O2-  O246  1  0.95936953  0.41913512  0.26434687  1
  O2-  O247  1  0.95494906  0.41530356  0.59659334  1
  O2-  O248  1  0.96242445  0.41100176  0.93662074  1
  O2-  O249  1  0.95625543  0.91633953  0.27306194  1
  O2-  O250  1  0.95681019  0.92307596  0.59974488  1
  O2-  O251  1  0.95673369  0.92286537  0.93653318  1
  O2-  O252  1  0.32870340  0.30400490  0.27881886  1
  O2-  O253  1  0.33463487  0.30256978  0.60513470  1
  O2-  O254  1  0.32971006  0.29544072  0.92689699  1
  O2-  O255  1  0.33406127  0.79124682  0.26973242  1
  O2-  O256  1  0.34018156  0.78923725  0.60463071  1
  O2-  O257  1  0.33998781  0.78609697  0.93531263  1
  O2-  O258  1  0.83333660  0.29122930  0.26247163  1
  O2-  O259  1  0.83052986  0.28717982  0.60131692  1
  O2-  O260  1  0.83587926  0.30038960  0.93862467  1
  O2-  O261  1  0.83846942  0.79343650  0.27032728  1
  O2-  O262  1  0.82991603  0.79279511  0.59622409  1
  O2-  O263  1  0.83098137  0.79235634  0.93380637  1
  O2-  O264  1  0.41567894  0.04911882  0.05481570  1
  O2-  O265  1  0.41840111  0.04094438  0.40129665  1
  O2-  O266  1  0.41833462  0.04537303  0.73168051  1
  O2-  O267  1  0.41512220  0.54110851  0.06217564  1
  O2-  O268  1  0.41875972  0.54058266  0.40141389  1
  O2-  O269  1  0.41598338  0.53539401  0.73948010  1
  O2-  O270  1  0.91955765  0.04941823  0.07110847  1
  O2-  O271  1  0.91726049  0.04764805  0.40214305  1
  O2-  O272  1  0.91742370  0.04738932  0.73365663  1
  O2-  O273  1  0.91923242  0.53796403  0.06738812  1
  O2-  O274  1  0.91692623  0.54941864  0.39609403  1
  O2-  O275  1  0.91396612  0.54209118  0.72509665  1
  O2-  O276  1  0.29455983  0.16746317  0.05646995  1
  O2-  O277  1  0.29754184  0.16961790  0.40143637  1
  O2-  O278  1  0.30441014  0.17072499  0.72812091  1
  O2-  O279  1  0.29739024  0.66097117  0.06495480  1
  O2-  O280  1  0.29403499  0.66687669  0.40134693  1
  O2-  O281  1  0.29392257  0.66646337  0.73795466  1
  O2-  O282  1  0.79237972  0.17398947  0.06606140  1
  O2-  O283  1  0.78622697  0.17034721  0.40036660  1
  O2-  O284  1  0.78217572  0.16506830  0.73678621  1
  O2-  O285  1  0.79263770  0.66491020  0.06711002  1
  O2-  O286  1  0.79601148  0.66620831  0.39696816  1
  O2-  O287  1  0.79167953  0.66247630  0.72798184  1
