# generated using pymatgen
data_Ca2Al2SiO7
_symmetry_space_group_name_H-M   'P 1'
_cell_length_a   15.46360227
_cell_length_b   15.46091284
_cell_length_c   15.28664601
_cell_angle_alpha   90.00209363
_cell_angle_beta   89.99095255
_cell_angle_gamma   90.00601061
_symmetry_Int_Tables_number   1
_chemical_formula_structural   Ca2Al2SiO7
_chemical_formula_sum   'Ca48 Al48 Si24 O168'
_cell_volume   3654.75276694
_cell_formula_units_Z   24
loop_
 _symmetry_equiv_pos_site_id
 _symmetry_equiv_pos_as_xyz
  1  'x, y, z'
loop_
 _atom_type_symbol
 _atom_type_oxidation_number
  Ca2+  2.0
  Al0+  0.0
  Si0+  0.0
  O2-  -2.0
loop_
 _atom_site_type_symbol
 _atom_site_label
 _atom_site_symmetry_multiplicity
 _atom_site_fract_x
 _atom_site_fract_y
 _atom_site_fract_z
 _atom_site_occupancy
  Ca2+  Ca0  1  0.17712607  0.08418829  0.16849273  1
  Ca2+  Ca1  1  0.18133196  0.07682520  0.50684370  1
  Ca2+  Ca2  1  0.17950338  0.08053602  0.83703871  1
  Ca2+  Ca3  1  0.17118313  0.58867144  0.16947290  1
  Ca2+  Ca4  1  0.17021004  0.58368829  0.50491136  1
  Ca2+  Ca5  1  0.18083520  0.58486647  0.83607184  1
  Ca2+  Ca6  1  0.66878743  0.07779317  0.17415419  1
  Ca2+  Ca7  1  0.66670165  0.08067345  0.49912311  1
  Ca2+  Ca8  1  0.66194634  0.08595597  0.83740965  1
  Ca2+  Ca9  1  0.66386020  0.57552329  0.17207730  1
  Ca2+  Ca10  1  0.66013094  0.57090104  0.50215461  1
  Ca2+  Ca11  1  0.65586098  0.57103081  0.84025309  1
  Ca2+  Ca12  1  0.07877614  0.32499910  0.16021409  1
  Ca2+  Ca13  1  0.08200513  0.33218757  0.49303982  1
  Ca2+  Ca14  1  0.08761397  0.32549368  0.83282435  1
  Ca2+  Ca15  1  0.07468659  0.83013206  0.16382282  1
  Ca2+  Ca16  1  0.08280088  0.83186644  0.49824259  1
  Ca2+  Ca17  1  0.07377669  0.84225331  0.82694328  1
  Ca2+  Ca18  1  0.58427528  0.33142805  0.16319216  1
  Ca2+  Ca19  1  0.57758300  0.33278752  0.50012783  1
  Ca2+  Ca20  1  0.58416936  0.32478824  0.82606468  1
  Ca2+  Ca21  1  0.57775078  0.83283763  0.16067339  1
  Ca2+  Ca22  1  0.57152542  0.83839726  0.49446050  1
  Ca2+  Ca23  1  0.56988494  0.82697206  0.83174894  1
  Ca2+  Ca24  1  0.33880466  0.42400516  0.16974990  1
  Ca2+  Ca25  1  0.34259434  0.42191661  0.50738313  1
  Ca2+  Ca26  1  0.34664021  0.42859418  0.83466043  1
  Ca2+  Ca27  1  0.34660714  0.92789631  0.17022213  1
  Ca2+  Ca28  1  0.33560075  0.92392930  0.50863888  1
  Ca2+  Ca29  1  0.34067307  0.92371837  0.83585245  1
  Ca2+  Ca30  1  0.81822549  0.42065133  0.17587840  1
  Ca2+  Ca31  1  0.82142959  0.42171988  0.50252129  1
  Ca2+  Ca32  1  0.81907790  0.41596596  0.83873319  1
  Ca2+  Ca33  1  0.82702399  0.91931952  0.17439354  1
  Ca2+  Ca34  1  0.82904267  0.91664261  0.50154709  1
  Ca2+  Ca35  1  0.83469152  0.91253818  0.83730420  1
  Ca2+  Ca36  1  0.41902632  0.16975180  0.16084072  1
  Ca2+  Ca37  1  0.41334561  0.17419221  0.49522339  1
  Ca2+  Ca38  1  0.42567305  0.16663364  0.82521734  1
  Ca2+  Ca39  1  0.42161542  0.67946904  0.15774704  1
  Ca2+  Ca40  1  0.40858032  0.67936793  0.49703674  1
  Ca2+  Ca41  1  0.41329126  0.67041392  0.83074738  1
  Ca2+  Ca42  1  0.92228594  0.16065118  0.15973865  1
  Ca2+  Ca43  1  0.91702901  0.16466818  0.49534495  1
  Ca2+  Ca44  1  0.92612448  0.16399032  0.83088069  1
  Ca2+  Ca45  1  0.91940935  0.66472085  0.16355278  1
  Ca2+  Ca46  1  0.92295561  0.66664223  0.49260013  1
  Ca2+  Ca47  1  0.91578877  0.67988576  0.82816683  1
  Al0+  Al48  1  0.00204456  0.00062014  -0.00738843  1
  Al0+  Al49  1  0.00177107  -0.00105858  0.33564700  1
  Al0+  Al50  1  -0.00042713  0.00012451  0.66337427  1
  Al0+  Al51  1  -0.00063015  0.49984516  -0.00245201  1
  Al0+  Al52  1  0.00059872  0.49903024  0.33051683  1
  Al0+  Al53  1  -0.00112541  0.50013811  0.66947087  1
  Al0+  Al54  1  0.50097584  0.00106869  -0.00266647  1
  Al0+  Al55  1  0.50077798  0.00349103  0.33792379  1
  Al0+  Al56  1  0.50389764  -0.00158080  0.66350439  1
  Al0+  Al57  1  0.49906093  0.50046429  0.00943264  1
  Al0+  Al58  1  0.49789404  0.50085840  0.33385703  1
  Al0+  Al59  1  0.50111419  0.49790024  0.67226993  1
  Al0+  Al60  1  0.24903964  0.25001414  -0.00072349  1
  Al0+  Al61  1  0.24988294  0.25125370  0.33132600  1
  Al0+  Al62  1  0.25038505  0.24943450  0.66634177  1
  Al0+  Al63  1  0.24716101  0.75167011  0.00200067  1
  Al0+  Al64  1  0.24885944  0.75116879  0.32259508  1
  Al0+  Al65  1  0.24734444  0.74920660  0.67103830  1
  Al0+  Al66  1  0.75014133  0.25025534  0.00167476  1
  Al0+  Al67  1  0.74972369  0.25089412  0.34124661  1
  Al0+  Al68  1  0.75157502  0.24940231  0.66662809  1
  Al0+  Al69  1  0.74956208  0.74850487  -0.00788429  1
  Al0+  Al70  1  0.74982979  0.74967115  0.34168547  1
  Al0+  Al71  1  0.75110633  0.75037592  0.66123804  1
  Al0+  Al72  1  0.31966205  0.56987402  0.67860201  1
  Al0+  Al73  1  0.17825484  0.92946145  0.68136137  1
  Al0+  Al74  1  0.57182308  0.18031455  0.98882880  1
  Al0+  Al75  1  0.32435824  0.07102497  0.68265368  1
  Al0+  Al76  1  0.42944358  0.32036085  0.65317182  1
  Al0+  Al77  1  0.67782973  0.92816586  0.34831463  1
  Al0+  Al78  1  0.06973396  0.67793311  0.31879194  1
  Al0+  Al79  1  0.82393356  0.07049681  0.34750805  1
  Al0+  Al80  1  0.56991512  0.67688894  0.98621711  1
  Al0+  Al81  1  0.67932749  0.42815580  0.01550874  1
  Al0+  Al82  1  0.43027948  0.82374925  0.31955570  1
  Al0+  Al83  1  0.07197935  0.17982485  0.98517480  1
  Al0+  Al84  1  0.67557608  0.42994734  0.35159835  1
  Al0+  Al85  1  0.42750763  0.82234949  0.98487175  1
  Al0+  Al86  1  0.92864905  0.82188406  0.64883227  1
  Al0+  Al87  1  0.68110659  0.42949100  0.68278943  1
  Al0+  Al88  1  0.32216843  0.07006620  0.01428183  1
  Al0+  Al89  1  0.42811665  0.32209650  0.31771229  1
  Al0+  Al90  1  0.32011975  0.07266930  0.34626161  1
  Al0+  Al91  1  0.42770269  0.81846942  0.65299178  1
  Al0+  Al92  1  0.92978672  0.81951006  0.98769899  1
  Al0+  Al93  1  0.82386063  0.57083509  0.34803032  1
  Al0+  Al94  1  0.57417118  0.17742345  0.64893689  1
  Al0+  Al95  1  0.31934563  0.57247015  0.01713652  1
  Si0+  Si96  1  0.92740073  0.32196656  0.98341342  1
  Si0+  Si97  1  0.82218158  0.57322575  0.01479465  1
  Si0+  Si98  1  0.17582573  0.42795965  0.01751286  1
  Si0+  Si99  1  0.17424025  0.42650006  0.68293368  1
  Si0+  Si100  1  0.57123028  0.67650682  0.64989509  1
  Si0+  Si101  1  0.82089669  0.07001237  0.68322946  1
  Si0+  Si102  1  0.57300515  0.18059441  0.31652961  1
  Si0+  Si103  1  0.82322055  0.57315480  0.68507618  1
  Si0+  Si104  1  0.92864454  0.32007786  0.31926964  1
  Si0+  Si105  1  0.07108756  0.17975359  0.64944523  1
  Si0+  Si106  1  0.31825891  0.57261921  0.34707698  1
  Si0+  Si107  1  0.17886330  0.92662180  0.34817286  1
  Si0+  Si108  1  0.57203893  0.67815144  0.31928172  1
  Si0+  Si109  1  0.07038633  0.67662004  0.65091257  1
  Si0+  Si110  1  0.82293316  0.06969701  0.01161941  1
  Si0+  Si111  1  0.17457277  0.92993375  0.01824398  1
  Si0+  Si112  1  0.92694092  0.82239651  0.31769457  1
  Si0+  Si113  1  0.68042438  0.92813790  0.01149531  1
  Si0+  Si114  1  0.68017276  0.92669097  0.68394571  1
  Si0+  Si115  1  0.07061709  0.17841516  0.31899536  1
  Si0+  Si116  1  0.07215451  0.67563471  0.98084964  1
  Si0+  Si117  1  0.93009970  0.32136752  0.65162278  1
  Si0+  Si118  1  0.17921769  0.42914154  0.34618258  1
  Si0+  Si119  1  0.42762564  0.32216129  0.98537359  1
  O2-  O120  1  0.24931440  -0.00729436  0.06156392  1
  O2-  O121  1  0.24955262  -0.00657015  0.39132621  1
  O2-  O122  1  0.25410049  -0.00327769  0.73244777  1
  O2-  O123  1  0.24302597  0.49744728  0.06272859  1
  O2-  O124  1  0.24943169  0.49969862  0.38962224  1
  O2-  O125  1  0.24661431  0.49218044  0.72494008  1
  O2-  O126  1  0.75196018  -0.00074583  0.05349623  1
  O2-  O127  1  0.75304522  -0.00196814  0.39793758  1
  O2-  O128  1  0.75003253  -0.00039350  0.72628113  1
  O2-  O129  1  0.75381703  0.50478326  0.05950225  1
  O2-  O130  1  0.74760230  0.50398008  0.39894239  1
  O2-  O131  1  0.75283928  0.50709012  0.73008313  1
  O2-  O132  1  -0.00575500  0.24400800  0.27649397  1
  O2-  O133  1  0.00401357  0.25462067  0.60715644  1
  O2-  O134  1  -0.00199771  0.25566618  0.93826728  1
  O2-  O135  1  -0.00858994  0.74993898  0.27315762  1
  O2-  O136  1  0.00272690  0.74542445  0.60537068  1
  O2-  O137  1  0.00394455  0.74532632  0.93831809  1
  O2-  O138  1  0.50455295  0.24912540  0.27162174  1
  O2-  O139  1  0.49723071  0.24554293  0.60098574  1
  O2-  O140  1  0.49619067  0.25348160  0.94190497  1
  O2-  O141  1  0.50830436  0.75126226  0.27481379  1
  O2-  O142  1  0.50202645  0.74396027  0.60470902  1
  O2-  O143  1  0.49468940  0.74529072  0.93582109  1
  O2-  O144  1  0.06859981  0.17991022  0.09878973  1
  O2-  O145  1  0.07139514  0.18229377  0.42407971  1
  O2-  O146  1  0.06879548  0.18023825  0.75465487  1
  O2-  O147  1  0.06934673  0.67417423  0.08660423  1
  O2-  O148  1  0.07177388  0.67799854  0.43181305  1
  O2-  O149  1  0.06742866  0.67387144  0.75624532  1
  O2-  O150  1  0.57411131  0.17966665  0.10180475  1
  O2-  O151  1  0.57261811  0.18103485  0.42175585  1
  O2-  O152  1  0.57621540  0.18109118  0.76299614  1
  O2-  O153  1  0.57245762  0.68062336  0.10006693  1
  O2-  O154  1  0.56654172  0.67525919  0.42480530  1
  O2-  O155  1  0.57089694  0.67795109  0.75550511  1
  O2-  O156  1  0.17847191  0.42819808  0.24127072  1
  O2-  O157  1  0.16831836  0.42887846  0.57725828  1
  O2-  O158  1  0.17437486  0.42838270  0.91199880  1
  O2-  O159  1  0.17386398  0.92969084  0.24266356  1
  O2-  O160  1  0.17802231  0.93205467  0.56733822  1
  O2-  O161  1  0.16946939  0.93436907  0.91312052  1
  O2-  O162  1  0.67797802  0.42920010  0.23783720  1
  O2-  O163  1  0.68251670  0.43053584  0.56999042  1
  O2-  O164  1  0.68195516  0.42648959  0.90243467  1
  O2-  O165  1  0.67938550  0.92994607  0.23370255  1
  O2-  O166  1  0.68181064  0.92609465  0.57913463  1
  O2-  O167  1  0.68190058  0.92914531  0.90634515  1
  O2-  O168  1  0.42768798  0.32004476  0.09136656  1
  O2-  O169  1  0.42557593  0.32195840  0.43031839  1
  O2-  O170  1  0.43257947  0.32265224  0.76677922  1
  O2-  O171  1  0.43394894  0.82452215  0.09857799  1
  O2-  O172  1  0.42655012  0.82022159  0.43275290  1
  O2-  O173  1  0.42968742  0.81779817  0.76576826  1
  O2-  O174  1  0.92795496  0.31987993  0.08918552  1
  O2-  O175  1  0.93361033  0.32141210  0.42455877  1
  O2-  O176  1  0.93077058  0.31873742  0.75684058  1
  O2-  O177  1  0.92985363  0.82008215  0.10081108  1
  O2-  O178  1  0.93217744  0.82459032  0.42287184  1
  O2-  O179  1  0.92951500  0.82164453  0.76223998  1
  O2-  O180  1  0.31786994  0.07391340  0.23286311  1
  O2-  O181  1  0.31977754  0.07231276  0.56885225  1
  O2-  O182  1  0.32213517  0.07072959  0.90168292  1
  O2-  O183  1  0.31629360  0.57153379  0.24212963  1
  O2-  O184  1  0.31636120  0.57052983  0.56500111  1
  O2-  O185  1  0.31883840  0.56963854  0.90390171  1
  O2-  O186  1  0.82588340  0.06896220  0.23319011  1
  O2-  O187  1  0.82244335  0.06982708  0.57835661  1
  O2-  O188  1  0.82372760  0.06978161  0.90642270  1
  O2-  O189  1  0.82535404  0.56634264  0.23414198  1
  O2-  O190  1  0.82684187  0.56918043  0.57984900  1
  O2-  O191  1  0.82332161  0.57137494  0.90921366  1
  O2-  O192  1  0.04735918  0.08504958  0.27242631  1
  O2-  O193  1  0.03755852  0.09081674  0.60105919  1
  O2-  O194  1  0.03831068  0.08656005  0.92764035  1
  O2-  O195  1  0.04203980  0.58066697  0.26296227  1
  O2-  O196  1  0.04432163  0.58253380  0.60425992  1
  O2-  O197  1  0.04808583  0.58175165  0.93426134  1
  O2-  O198  1  0.54735447  0.08675505  0.27147002  1
  O2-  O199  1  0.55377799  0.07666734  0.59886804  1
  O2-  O200  1  0.54346661  0.08441446  0.93291148  1
  O2-  O201  1  0.54181704  0.58681863  0.27116617  1
  O2-  O202  1  0.54571188  0.58218466  0.60652551  1
  O2-  O203  1  0.54076118  0.57710048  0.93678347  1
  O2-  O204  1  0.15889242  0.21268716  0.26904351  1
  O2-  O205  1  0.16335427  0.20460327  0.60205107  1
  O2-  O206  1  0.16697314  0.21237607  0.92919631  1
  O2-  O207  1  0.16286901  0.71139184  0.25943472  1
  O2-  O208  1  0.16385553  0.70139299  0.60493594  1
  O2-  O209  1  0.16605470  0.70106261  0.93674237  1
  O2-  O210  1  0.66835990  0.20544447  0.27265173  1
  O2-  O211  1  0.67231938  0.20961454  0.59712525  1
  O2-  O212  1  0.66903520  0.20971588  0.93420356  1
  O2-  O213  1  0.66902791  0.69726414  0.27744687  1
  O2-  O214  1  0.66506939  0.70112811  0.60411171  1
  O2-  O215  1  0.66670074  0.70431387  0.92975960  1
  O2-  O216  1  0.08057290  0.45137852  0.06277066  1
  O2-  O217  1  0.08791429  0.45634304  0.39475622  1
  O2-  O218  1  0.08235906  0.45368206  0.73276085  1
  O2-  O219  1  0.08344898  0.96332188  0.06608797  1
  O2-  O220  1  0.08669576  0.95320581  0.39674969  1
  O2-  O221  1  0.08050377  0.96421490  0.73318989  1
  O2-  O222  1  0.58387824  0.45694511  0.07180336  1
  O2-  O223  1  0.57725252  0.46054325  0.40402295  1
  O2-  O224  1  0.58508387  0.45793924  0.73835272  1
  O2-  O225  1  0.59005996  0.95775980  0.05980555  1
  O2-  O226  1  0.58260991  0.96159726  0.40436222  1
  O2-  O227  1  0.58841207  0.95290004  0.73151160  1
  O2-  O228  1  0.20062261  0.33408333  0.06344867  1
  O2-  O229  1  0.20506955  0.33756141  0.39489681  1
  O2-  O230  1  0.19616335  0.33150789  0.72692234  1
  O2-  O231  1  0.19063002  0.83327354  0.06109561  1
  O2-  O232  1  0.20311992  0.83167458  0.39130311  1
  O2-  O233  1  0.19608410  0.82881431  0.73303422  1
  O2-  O234  1  0.71431669  0.33283223  0.07077158  1
  O2-  O235  1  0.70657037  0.33313511  0.40508743  1
  O2-  O236  1  0.71798452  0.33373932  0.73522872  1
  O2-  O237  1  0.70888898  0.83607575  0.05778336  1
  O2-  O238  1  0.70004507  0.82969978  0.40386523  1
  O2-  O239  1  0.71070573  0.83490591  0.73011867  1
  O2-  O240  1  0.45681762  0.42017214  0.26504862  1
  O2-  O241  1  0.46168217  0.41866973  0.60080383  1
  O2-  O242  1  0.45427786  0.41665797  0.94362538  1
  O2-  O243  1  0.46132353  0.92177629  0.26852287  1
  O2-  O244  1  0.46083275  0.91434377  0.59951139  1
  O2-  O245  1  0.46287901  0.91765103  0.93070040  1
  O2-  O246  1  0.96207514  0.40804960  0.26854409  1
  O2-  O247  1  0.95476210  0.41466640  0.60556177  1
  O2-  O248  1  0.94989147  0.41609627  0.93689781  1
  O2-  O249  1  0.95740264  0.91474812  0.27025105  1
  O2-  O250  1  0.96004492  0.91839754  0.59527156  1
  O2-  O251  1  0.96036133  0.91524553  0.93121068  1
  O2-  O252  1  0.33118015  0.29157806  0.26319559  1
  O2-  O253  1  0.32780108  0.29961820  0.60138287  1
  O2-  O254  1  0.33319135  0.30051906  0.94027066  1
  O2-  O255  1  0.33556566  0.79219547  0.26269710  1
  O2-  O256  1  0.32973022  0.78769951  0.60124507  1
  O2-  O257  1  0.32558714  0.80035115  0.93733442  1
  O2-  O258  1  0.83447697  0.29699327  0.27487802  1
  O2-  O259  1  0.84089416  0.28913674  0.60278931  1
  O2-  O260  1  0.83594659  0.29219555  0.93614732  1
  O2-  O261  1  0.83042982  0.80260602  0.27572534  1
  O2-  O262  1  0.83221345  0.79222535  0.59434621  1
  O2-  O263  1  0.83487644  0.79016847  0.92932346  1
  O2-  O264  1  0.41972457  0.04026663  0.06808288  1
  O2-  O265  1  0.41721639  0.04823566  0.40010783  1
  O2-  O266  1  0.42472570  0.04345335  0.73164719  1
  O2-  O267  1  0.41404564  0.54136579  0.07431333  1
  O2-  O268  1  0.40995393  0.54693370  0.39444729  1
  O2-  O269  1  0.41548799  0.54016154  0.73471429  1
  O2-  O270  1  0.91485688  0.04129801  0.05845546  1
  O2-  O271  1  0.92285690  0.04429569  0.40175191  1
  O2-  O272  1  0.91292507  0.04155385  0.72987986  1
  O2-  O273  1  0.91678711  0.54803252  0.05982649  1
  O2-  O274  1  0.92085399  0.53618673  0.40133388  1
  O2-  O275  1  0.91576667  0.54596117  0.73323651  1
  O2-  O276  1  0.28754265  0.16683652  0.06670373  1
  O2-  O277  1  0.28275341  0.16749426  0.39995745  1
  O2-  O278  1  0.29280875  0.16966352  0.73408312  1
  O2-  O279  1  0.28799857  0.66974325  0.07057053  1
  O2-  O280  1  0.28671784  0.66453236  0.39170837  1
  O2-  O281  1  0.28592711  0.66348354  0.73615609  1
  O2-  O282  1  0.79747344  0.16156789  0.05979129  1
  O2-  O283  1  0.79805800  0.16873422  0.40187420  1
  O2-  O284  1  0.79572959  0.16235806  0.73095559  1
  O2-  O285  1  0.79751462  0.66750488  0.05964775  1
  O2-  O286  1  0.80560186  0.67119328  0.39999433  1
  O2-  O287  1  0.79956468  0.66895015  0.72693275  1
