# generated using pymatgen
data_Ca2Al2SiO7
_symmetry_space_group_name_H-M   'P 1'
_cell_length_a   15.45551212
_cell_length_b   15.45578882
_cell_length_c   15.28215861
_cell_angle_alpha   89.98790432
_cell_angle_beta   89.99470334
_cell_angle_gamma   89.99436356
_symmetry_Int_Tables_number   1
_chemical_formula_structural   Ca2Al2SiO7
_chemical_formula_sum   'Ca48 Al48 Si24 O168'
_cell_volume   3650.55809638
_cell_formula_units_Z   24
loop_
 _symmetry_equiv_pos_site_id
 _symmetry_equiv_pos_as_xyz
  1  'x, y, z'
loop_
 _atom_type_symbol
 _atom_type_oxidation_number
  Ca2+  2.0
  Al0+  0.0
  Si0+  0.0
  O2-  -2.0
loop_
 _atom_site_type_symbol
 _atom_site_label
 _atom_site_symmetry_multiplicity
 _atom_site_fract_x
 _atom_site_fract_y
 _atom_site_fract_z
 _atom_site_occupancy
  Ca2+  Ca0  1  0.16951857  0.07704198  0.17512993  1
  Ca2+  Ca1  1  0.17724839  0.07837789  0.50157803  1
  Ca2+  Ca2  1  0.17433758  0.08795792  0.83794347  1
  Ca2+  Ca3  1  0.18064356  0.59226163  0.16711899  1
  Ca2+  Ca4  1  0.17334929  0.58544138  0.50388183  1
  Ca2+  Ca5  1  0.16749758  0.58658714  0.84071071  1
  Ca2+  Ca6  1  0.66206794  0.07075816  0.16441515  1
  Ca2+  Ca7  1  0.66482773  0.07945232  0.50706011  1
  Ca2+  Ca8  1  0.67299608  0.08579336  0.84205595  1
  Ca2+  Ca9  1  0.67606176  0.59907569  0.17074467  1
  Ca2+  Ca10  1  0.66974404  0.58648428  0.49790454  1
  Ca2+  Ca11  1  0.66911991  0.58037845  0.84472442  1
  Ca2+  Ca12  1  0.08368506  0.32455160  0.16135296  1
  Ca2+  Ca13  1  0.07756156  0.33286017  0.49943938  1
  Ca2+  Ca14  1  0.07663362  0.32775655  0.83132266  1
  Ca2+  Ca15  1  0.07613564  0.83353608  0.15615271  1
  Ca2+  Ca16  1  0.08433951  0.83283416  0.49849393  1
  Ca2+  Ca17  1  0.07913947  0.82224876  0.83357377  1
  Ca2+  Ca18  1  0.57771756  0.32706926  0.16336472  1
  Ca2+  Ca19  1  0.57409258  0.32429735  0.49776558  1
  Ca2+  Ca20  1  0.58177119  0.32204418  0.82696431  1
  Ca2+  Ca21  1  0.58238225  0.82917253  0.15861793  1
  Ca2+  Ca22  1  0.57912508  0.83375092  0.49496942  1
  Ca2+  Ca23  1  0.57663673  0.83487686  0.83639185  1
  Ca2+  Ca24  1  0.33855858  0.42786138  0.17195082  1
  Ca2+  Ca25  1  0.34375325  0.41983316  0.50160637  1
  Ca2+  Ca26  1  0.33598903  0.42309420  0.83889847  1
  Ca2+  Ca27  1  0.32871614  0.91949381  0.17331182  1
  Ca2+  Ca28  1  0.33519313  0.92513239  0.50543837  1
  Ca2+  Ca29  1  0.33937110  0.91576728  0.83486695  1
  Ca2+  Ca30  1  0.83133717  0.43058027  0.16908379  1
  Ca2+  Ca31  1  0.83437972  0.41990619  0.50514042  1
  Ca2+  Ca32  1  0.83492945  0.41964679  0.83855811  1
  Ca2+  Ca33  1  0.82133651  0.91063866  0.16650810  1
  Ca2+  Ca34  1  0.82294259  0.92199424  0.50444578  1
  Ca2+  Ca35  1  0.82739262  0.92474586  0.84421691  1
  Ca2+  Ca36  1  0.41599023  0.17004491  0.16220237  1
  Ca2+  Ca37  1  0.40912347  0.17250843  0.49755353  1
  Ca2+  Ca38  1  0.43028138  0.16536074  0.82400948  1
  Ca2+  Ca39  1  0.42469160  0.66878393  0.15778607  1
  Ca2+  Ca40  1  0.42230823  0.67182184  0.49231000  1
  Ca2+  Ca41  1  0.41484597  0.67799121  0.83396052  1
  Ca2+  Ca42  1  0.92299694  0.16286756  0.15575852  1
  Ca2+  Ca43  1  0.90827860  0.17147369  0.50077310  1
  Ca2+  Ca44  1  0.91771126  0.16353264  0.82756187  1
  Ca2+  Ca45  1  0.91937149  0.67093273  0.15541166  1
  Ca2+  Ca46  1  0.92424379  0.66265104  0.49470173  1
  Ca2+  Ca47  1  0.92169821  0.66792478  0.83324495  1
  Al0+  Al48  1  0.00175237  0.00108425  -0.00748130  1
  Al0+  Al49  1  -0.00078964  -0.00002403  0.33855194  1
  Al0+  Al50  1  0.00029263  -0.00296262  0.66935555  1
  Al0+  Al51  1  0.00054443  0.49731411  0.00294428  1
  Al0+  Al52  1  0.00048748  0.50042275  0.33467184  1
  Al0+  Al53  1  0.00219435  0.49922969  0.65939815  1
  Al0+  Al54  1  0.50029476  0.00198566  -0.00278775  1
  Al0+  Al55  1  0.50025263  0.00073587  0.34090670  1
  Al0+  Al56  1  0.49929148  -0.00246879  0.66357895  1
  Al0+  Al57  1  0.49927267  0.50035153  0.00121416  1
  Al0+  Al58  1  0.50243459  0.49898461  0.32953496  1
  Al0+  Al59  1  0.50176277  0.49991761  0.66622897  1
  Al0+  Al60  1  0.24786754  0.25145673  -0.00353621  1
  Al0+  Al61  1  0.24813258  0.25130716  0.33179013  1
  Al0+  Al62  1  0.24887656  0.25054447  0.66850818  1
  Al0+  Al63  1  0.24971427  0.75046034  -0.00231534  1
  Al0+  Al64  1  0.24951294  0.74871724  0.34172944  1
  Al0+  Al65  1  0.25067245  0.74962705  0.65861131  1
  Al0+  Al66  1  0.74972771  0.25150785  0.00354757  1
  Al0+  Al67  1  0.74901779  0.25221714  0.32911934  1
  Al0+  Al68  1  0.75014916  0.25051235  0.66160139  1
  Al0+  Al69  1  0.74935320  0.75071300  -0.00234658  1
  Al0+  Al70  1  0.75161136  0.75125190  0.34209783  1
  Al0+  Al71  1  0.75173631  0.75000338  0.66867792  1
  Al0+  Al72  1  0.43062710  0.81896099  0.65018595  1
  Al0+  Al73  1  0.06926333  0.67956134  0.65069540  1
  Al0+  Al74  1  0.42809088  0.31969603  0.31764561  1
  Al0+  Al75  1  0.32039911  0.07233938  0.34724122  1
  Al0+  Al76  1  0.67959780  0.92956506  0.34824801  1
  Al0+  Al77  1  0.82061118  0.57049592  0.01186392  1
  Al0+  Al78  1  0.82111188  0.57046016  0.34848699  1
  Al0+  Al79  1  0.42773136  0.82222057  0.98757160  1
  Al0+  Al80  1  0.92676343  0.82207313  0.98495287  1
  Al0+  Al81  1  0.17628778  0.92752420  0.34865558  1
  Al0+  Al82  1  0.42749464  0.32196318  0.65288736  1
  Al0+  Al83  1  0.93034361  0.31898304  0.65316105  1
  Al0+  Al84  1  0.07096304  0.67749186  0.98782844  1
  Al0+  Al85  1  0.57168147  0.68180844  0.32063776  1
  Al0+  Al86  1  0.07143384  0.17791507  0.98612137  1
  Al0+  Al87  1  0.32365016  0.56921896  0.34794744  1
  Al0+  Al88  1  0.57210401  0.67768504  0.98521971  1
  Al0+  Al89  1  0.82348557  0.07278213  0.01489418  1
  Al0+  Al90  1  0.32003591  0.57185447  0.01219868  1
  Al0+  Al91  1  0.57009262  0.18060247  0.98797713  1
  Al0+  Al92  1  0.31981164  0.07088490  0.68293398  1
  Al0+  Al93  1  0.81932233  0.07130555  0.67998097  1
  Al0+  Al94  1  0.67785109  0.93018467  0.01404959  1
  Al0+  Al95  1  0.57133134  0.17815361  0.65071057  1
  Si0+  Si96  1  0.92807951  0.32115369  0.98574996  1
  Si0+  Si97  1  0.17803555  0.42831514  0.35100025  1
  Si0+  Si98  1  0.67714495  0.92621911  0.68543955  1
  Si0+  Si99  1  0.06795116  0.17956742  0.32020663  1
  Si0+  Si100  1  0.17909208  0.92546952  0.68625243  1
  Si0+  Si101  1  0.17726317  0.43006185  0.68192377  1
  Si0+  Si102  1  0.32169249  0.57080618  0.68124963  1
  Si0+  Si103  1  0.07209024  0.67783050  0.31760919  1
  Si0+  Si104  1  0.42681310  0.32258424  0.98344990  1
  Si0+  Si105  1  0.93077353  0.82073875  0.32079424  1
  Si0+  Si106  1  0.92677372  0.82235287  0.64776648  1
  Si0+  Si107  1  0.57502667  0.67657632  0.65001808  1
  Si0+  Si108  1  0.67892574  0.42569717  0.35155296  1
  Si0+  Si109  1  0.82381350  0.56965084  0.68139464  1
  Si0+  Si110  1  0.82227690  0.07409691  0.34873849  1
  Si0+  Si111  1  0.92773053  0.32337703  0.31623822  1
  Si0+  Si112  1  0.17811983  0.42649663  0.01757994  1
  Si0+  Si113  1  0.07267701  0.17514259  0.64890092  1
  Si0+  Si114  1  0.32088103  0.07284095  0.01309720  1
  Si0+  Si115  1  0.67630418  0.42767757  0.01793340  1
  Si0+  Si116  1  0.42673965  0.82285428  0.31817901  1
  Si0+  Si117  1  0.18005095  0.92955997  0.01174242  1
  Si0+  Si118  1  0.57292041  0.17592150  0.31497192  1
  Si0+  Si119  1  0.67984969  0.43028848  0.68076577  1
  O2-  O120  1  0.25013561  0.00138480  0.05478023  1
  O2-  O121  1  0.25246377  -0.00397888  0.39717258  1
  O2-  O122  1  0.24443099  -0.00300078  0.73125594  1
  O2-  O123  1  0.24591111  0.49657788  0.06028905  1
  O2-  O124  1  0.24863154  0.49463459  0.39569646  1
  O2-  O125  1  0.25235582  0.49745043  0.72299380  1
  O2-  O126  1  0.75290282  -0.00037670  0.06507152  1
  O2-  O127  1  0.75016615  0.00959992  0.39289129  1
  O2-  O128  1  0.74474244  -0.00274551  0.72714113  1
  O2-  O129  1  0.74150737  0.50092351  0.06053192  1
  O2-  O130  1  0.74803112  0.49438860  0.39583553  1
  O2-  O131  1  0.74992166  0.50219506  0.72380569  1
  O2-  O132  1  -0.00461433  0.24852857  0.27598157  1
  O2-  O133  1  0.00080820  0.24073292  0.60445058  1
  O2-  O134  1  -0.00797946  0.24839635  0.94119048  1
  O2-  O135  1  0.00358004  0.75186325  0.27740498  1
  O2-  O136  1  -0.00552878  0.75334334  0.60241258  1
  O2-  O137  1  -0.00389357  0.74576838  0.93700070  1
  O2-  O138  1  0.50070833  0.24214157  0.27217590  1
  O2-  O139  1  0.49446743  0.24596277  0.60171663  1
  O2-  O140  1  0.49572169  0.25479765  0.93980027  1
  O2-  O141  1  0.49492140  0.75429359  0.27354657  1
  O2-  O142  1  0.50770747  0.74578464  0.60542698  1
  O2-  O143  1  0.49935319  0.74944323  0.93694633  1
  O2-  O144  1  0.07423806  0.18010774  0.09985999  1
  O2-  O145  1  0.06705039  0.18160550  0.42511468  1
  O2-  O146  1  0.07306264  0.17882339  0.75446689  1
  O2-  O147  1  0.07244889  0.68190726  0.10171250  1
  O2-  O148  1  0.06921388  0.67523335  0.42283103  1
  O2-  O149  1  0.06766521  0.67804810  0.76354753  1
  O2-  O150  1  0.56583463  0.18053092  0.10123980  1
  O2-  O151  1  0.57729699  0.17884242  0.42017617  1
  O2-  O152  1  0.57341161  0.18233874  0.76440794  1
  O2-  O153  1  0.57115843  0.67962999  0.09899964  1
  O2-  O154  1  0.57077246  0.68333319  0.43421984  1
  O2-  O155  1  0.57509476  0.67406853  0.75518106  1
  O2-  O156  1  0.17588136  0.42833961  0.24555302  1
  O2-  O157  1  0.17390509  0.43227360  0.57690435  1
  O2-  O158  1  0.17801031  0.42450628  0.91182325  1
  O2-  O159  1  0.17276216  0.93059129  0.23452235  1
  O2-  O160  1  0.18012183  0.92684683  0.58057373  1
  O2-  O161  1  0.18151465  0.92920179  0.90686460  1
  O2-  O162  1  0.68200623  0.42161480  0.24626534  1
  O2-  O163  1  0.68024300  0.43204720  0.57570641  1
  O2-  O164  1  0.67864544  0.42590582  0.91188795  1
  O2-  O165  1  0.68043650  0.92744860  0.23557901  1
  O2-  O166  1  0.68037281  0.92420339  0.57944255  1
  O2-  O167  1  0.67647896  0.93373920  0.90072760  1
  O2-  O168  1  0.42583816  0.32075530  0.08925428  1
  O2-  O169  1  0.42986014  0.31895460  0.43055886  1
  O2-  O170  1  0.43203326  0.32527447  0.76632879  1
  O2-  O171  1  0.42509000  0.82253727  0.10125920  1
  O2-  O172  1  0.42891322  0.82074672  0.42386954  1
  O2-  O173  1  0.42902398  0.81687698  0.76306538  1
  O2-  O174  1  0.93194873  0.32280922  0.09158735  1
  O2-  O175  1  0.92853505  0.32378303  0.42144704  1
  O2-  O176  1  0.93301666  0.32206649  0.76597532  1
  O2-  O177  1  0.92956104  0.82180323  0.09951670  1
  O2-  O178  1  0.93196546  0.81928784  0.42603764  1
  O2-  O179  1  0.92625597  0.82062622  0.75290537  1
  O2-  O180  1  0.31701192  0.07283444  0.23290799  1
  O2-  O181  1  0.31627165  0.07125722  0.57002397  1
  O2-  O182  1  0.31967335  0.07406304  0.90815248  1
  O2-  O183  1  0.32123484  0.57038840  0.23488413  1
  O2-  O184  1  0.32150490  0.56916333  0.57605564  1
  O2-  O185  1  0.31779511  0.56987626  0.89859443  1
  O2-  O186  1  0.82701223  0.07211198  0.24377128  1
  O2-  O187  1  0.81711374  0.06996369  0.56624996  1
  O2-  O188  1  0.82080531  0.07368877  0.90121974  1
  O2-  O189  1  0.82226222  0.57052859  0.23558403  1
  O2-  O190  1  0.82357960  0.56781046  0.57615458  1
  O2-  O191  1  0.82268035  0.56478193  0.89833858  1
  O2-  O192  1  0.04122114  0.08676413  0.27372967  1
  O2-  O193  1  0.05128016  0.07933900  0.60603946  1
  O2-  O194  1  0.04803743  0.08267728  0.92755948  1
  O2-  O195  1  0.04233153  0.58647707  0.27054934  1
  O2-  O196  1  0.03841304  0.58433885  0.59375553  1
  O2-  O197  1  0.04675183  0.57676455  0.93741974  1
  O2-  O198  1  0.54882255  0.08062509  0.27234410  1
  O2-  O199  1  0.54819489  0.07802123  0.60083160  1
  O2-  O200  1  0.53930827  0.08625583  0.93127794  1
  O2-  O201  1  0.54764420  0.58323717  0.26809886  1
  O2-  O202  1  0.54853530  0.58362495  0.60300905  1
  O2-  O203  1  0.54475393  0.57803937  0.93328390  1
  O2-  O204  1  0.15814923  0.20916576  0.27064044  1
  O2-  O205  1  0.16402811  0.20653924  0.60218889  1
  O2-  O206  1  0.16504844  0.21468595  0.92889644  1
  O2-  O207  1  0.16623586  0.70293332  0.27417811  1
  O2-  O208  1  0.16504580  0.70983306  0.59520946  1
  O2-  O209  1  0.16642418  0.70961057  0.93185064  1
  O2-  O210  1  0.66522850  0.20522262  0.26708089  1
  O2-  O211  1  0.66672762  0.21201154  0.59498076  1
  O2-  O212  1  0.66740980  0.21264315  0.93590063  1
  O2-  O213  1  0.66992018  0.71523282  0.27117895  1
  O2-  O214  1  0.67022346  0.70057808  0.60539223  1
  O2-  O215  1  0.66993902  0.70313592  0.93104558  1
  O2-  O216  1  0.08448595  0.44809639  0.06511590  1
  O2-  O217  1  0.08534695  0.45655257  0.39840598  1
  O2-  O218  1  0.08718018  0.46280313  0.73030440  1
  O2-  O219  1  0.08817031  0.95778780  0.05844939  1
  O2-  O220  1  0.08036438  0.96030774  0.40577511  1
  O2-  O221  1  0.08329749  0.94553911  0.73000300  1
  O2-  O222  1  0.58115354  0.44761050  0.06262230  1
  O2-  O223  1  0.58588090  0.45264162  0.39672789  1
  O2-  O224  1  0.58863272  0.45731472  0.73039483  1
  O2-  O225  1  0.58037062  0.96276009  0.06829762  1
  O2-  O226  1  0.58316313  0.95632211  0.40436490  1
  O2-  O227  1  0.58203529  0.94814889  0.72792020  1
  O2-  O228  1  0.20605645  0.33363355  0.06544721  1
  O2-  O229  1  0.19975103  0.33393426  0.39682745  1
  O2-  O230  1  0.19907137  0.33686719  0.72931035  1
  O2-  O231  1  0.20706614  0.83869969  0.06121631  1
  O2-  O232  1  0.19853602  0.82844357  0.40246339  1
  O2-  O233  1  0.20928051  0.83177107  0.72943613  1
  O2-  O234  1  0.70594923  0.33712692  0.06803324  1
  O2-  O235  1  0.70598066  0.33253293  0.39892599  1
  O2-  O236  1  0.70987375  0.33902207  0.72742702  1
  O2-  O237  1  0.70446976  0.83073014  0.06591616  1
  O2-  O238  1  0.71635177  0.83771916  0.40758607  1
  O2-  O239  1  0.70505168  0.83279114  0.73155272  1
  O2-  O240  1  0.46269904  0.41468279  0.26255651  1
  O2-  O241  1  0.46079552  0.41931951  0.59926664  1
  O2-  O242  1  0.45138448  0.41653005  0.93865589  1
  O2-  O243  1  0.45066331  0.91845589  0.27588580  1
  O2-  O244  1  0.45943714  0.91521118  0.59527243  1
  O2-  O245  1  0.45634028  0.91964767  0.93282157  1
  O2-  O246  1  0.96046244  0.41376830  0.26881832  1
  O2-  O247  1  0.96558102  0.41259998  0.59526685  1
  O2-  O248  1  0.95916066  0.41194933  0.93700036  1
  O2-  O249  1  0.95593375  0.91393158  0.27468262  1
  O2-  O250  1  0.95364908  0.91578414  0.60135814  1
  O2-  O251  1  0.95933235  0.91749073  0.92934642  1
  O2-  O252  1  0.32963516  0.29306745  0.26408729  1
  O2-  O253  1  0.32637302  0.29952233  0.60224184  1
  O2-  O254  1  0.33301124  0.29895918  0.93737627  1
  O2-  O255  1  0.33094020  0.79798784  0.27632628  1
  O2-  O256  1  0.33567422  0.78716318  0.59414761  1
  O2-  O257  1  0.33135917  0.79219718  0.93122190  1
  O2-  O258  1  0.83477220  0.30105647  0.26891998  1
  O2-  O259  1  0.83433827  0.29249809  0.59570128  1
  O2-  O260  1  0.83262792  0.30276795  0.94164206  1
  O2-  O261  1  0.83951388  0.78984400  0.27535409  1
  O2-  O262  1  0.83266098  0.79673621  0.60212193  1
  O2-  O263  1  0.82914846  0.79667868  0.93070985  1
  O2-  O264  1  0.41212204  0.04641450  0.06091566  1
  O2-  O265  1  0.41934700  0.05077826  0.40131370  1
  O2-  O266  1  0.41762542  0.03831994  0.73345628  1
  O2-  O267  1  0.41641312  0.54130490  0.06724041  1
  O2-  O268  1  0.42054292  0.53729498  0.40069374  1
  O2-  O269  1  0.41449775  0.54517689  0.72810756  1
  O2-  O270  1  0.92509754  0.04696152  0.06291760  1
  O2-  O271  1  0.91346785  0.04670201  0.39899146  1
  O2-  O272  1  0.91806314  0.04261687  0.73157143  1
  O2-  O273  1  0.91575400  0.53596435  0.06813961  1
  O2-  O274  1  0.91771439  0.53753364  0.40242889  1
  O2-  O275  1  0.91491405  0.53690994  0.72657620  1
  O2-  O276  1  0.29113774  0.16500678  0.05940680  1
  O2-  O277  1  0.28521218  0.16926220  0.39993069  1
  O2-  O278  1  0.28975270  0.16860031  0.73648661  1
  O2-  O279  1  0.28766904  0.66770994  0.06721634  1
  O2-  O280  1  0.29242857  0.66430067  0.40451213  1
  O2-  O281  1  0.28965476  0.66229263  0.72586138  1
  O2-  O282  1  0.79744835  0.17195966  0.06813946  1
  O2-  O283  1  0.79970466  0.17054399  0.39104300  1
  O2-  O284  1  0.79185611  0.17034090  0.73106245  1
  O2-  O285  1  0.79459958  0.66852023  0.06491182  1
  O2-  O286  1  0.79084254  0.66482815  0.40651837  1
  O2-  O287  1  0.80103501  0.66351264  0.72671445  1
