# generated using pymatgen
data_Ca2Al2SiO7
_symmetry_space_group_name_H-M   'P 1'
_cell_length_a   15.46279646
_cell_length_b   15.46375593
_cell_length_c   15.28738332
_cell_angle_alpha   90.01987996
_cell_angle_beta   89.99648260
_cell_angle_gamma   90.02095110
_symmetry_Int_Tables_number   1
_chemical_formula_structural   Ca2Al2SiO7
_chemical_formula_sum   'Ca48 Al48 Si24 O168'
_cell_volume   3655.41024810
_cell_formula_units_Z   24
loop_
 _symmetry_equiv_pos_site_id
 _symmetry_equiv_pos_as_xyz
  1  'x, y, z'
loop_
 _atom_type_symbol
 _atom_type_oxidation_number
  Ca2+  2.0
  Al0+  0.0
  Si0+  0.0
  O2-  -2.0
loop_
 _atom_site_type_symbol
 _atom_site_label
 _atom_site_symmetry_multiplicity
 _atom_site_fract_x
 _atom_site_fract_y
 _atom_site_fract_z
 _atom_site_occupancy
  Ca2+  Ca0  1  0.17027022  0.07659529  0.16739121  1
  Ca2+  Ca1  1  0.16857638  0.07588820  0.49455870  1
  Ca2+  Ca2  1  0.17156142  0.07815153  0.84622174  1
  Ca2+  Ca3  1  0.15645463  0.58039193  0.16609273  1
  Ca2+  Ca4  1  0.17162568  0.57860189  0.51041879  1
  Ca2+  Ca5  1  0.16537120  0.57797643  0.83871275  1
  Ca2+  Ca6  1  0.67846390  0.07022288  0.16941917  1
  Ca2+  Ca7  1  0.67417189  0.07144881  0.49806201  1
  Ca2+  Ca8  1  0.67416171  0.07080910  0.84059869  1
  Ca2+  Ca9  1  0.66188053  0.57477140  0.17247868  1
  Ca2+  Ca10  1  0.66817235  0.58461800  0.50070922  1
  Ca2+  Ca11  1  0.67554360  0.58304054  0.83649862  1
  Ca2+  Ca12  1  0.07765495  0.32628346  0.15846284  1
  Ca2+  Ca13  1  0.07866372  0.33376939  0.49343042  1
  Ca2+  Ca14  1  0.09486772  0.32795281  0.83234087  1
  Ca2+  Ca15  1  0.07772845  0.83867600  0.15824253  1
  Ca2+  Ca16  1  0.07264028  0.83511867  0.49208066  1
  Ca2+  Ca17  1  0.07033131  0.83986046  0.83315917  1
  Ca2+  Ca18  1  0.58619898  0.33367907  0.16043540  1
  Ca2+  Ca19  1  0.58459349  0.33155330  0.49000649  1
  Ca2+  Ca20  1  0.58660622  0.33160330  0.83333264  1
  Ca2+  Ca21  1  0.58231863  0.84157732  0.16708949  1
  Ca2+  Ca22  1  0.57661522  0.83339716  0.49098629  1
  Ca2+  Ca23  1  0.57880356  0.84162315  0.82534035  1
  Ca2+  Ca24  1  0.32553789  0.41802462  0.16712138  1
  Ca2+  Ca25  1  0.32712980  0.42723891  0.50904956  1
  Ca2+  Ca26  1  0.32433763  0.42467344  0.83621726  1
  Ca2+  Ca27  1  0.32238985  0.92131255  0.17454830  1
  Ca2+  Ca28  1  0.33460272  0.91310575  0.49953020  1
  Ca2+  Ca29  1  0.32864024  0.91991954  0.84247229  1
  Ca2+  Ca30  1  0.82434973  0.41414562  0.17423214  1
  Ca2+  Ca31  1  0.83134610  0.42251490  0.50193169  1
  Ca2+  Ca32  1  0.83116931  0.42585146  0.83855209  1
  Ca2+  Ca33  1  0.83695214  0.92260216  0.17374299  1
  Ca2+  Ca34  1  0.82306814  0.90296658  0.50145578  1
  Ca2+  Ca35  1  0.82629413  0.91286968  0.84144133  1
  Ca2+  Ca36  1  0.41259515  0.16176092  0.16238616  1
  Ca2+  Ca37  1  0.41770837  0.16661089  0.49303753  1
  Ca2+  Ca38  1  0.41617243  0.16463419  0.83061092  1
  Ca2+  Ca39  1  0.42326199  0.67270204  0.16844386  1
  Ca2+  Ca40  1  0.41907664  0.67603629  0.49273109  1
  Ca2+  Ca41  1  0.41835179  0.67332040  0.82527578  1
  Ca2+  Ca42  1  0.91317848  0.16710907  0.16018920  1
  Ca2+  Ca43  1  0.91360458  0.17404961  0.49022405  1
  Ca2+  Ca44  1  0.92170994  0.16151017  0.83632953  1
  Ca2+  Ca45  1  0.92150601  0.68218537  0.16040286  1
  Ca2+  Ca46  1  0.91202468  0.67392430  0.49771588  1
  Ca2+  Ca47  1  0.91897991  0.67448097  0.83140693  1
  Al0+  Al48  1  0.00062236  0.00294882  -0.00362600  1
  Al0+  Al49  1  0.00348444  0.00288163  0.33831152  1
  Al0+  Al50  1  -0.00012814  0.00167973  0.65912825  1
  Al0+  Al51  1  -0.00069002  0.50168467  0.00120916  1
  Al0+  Al52  1  -0.00288050  0.49764878  0.32936328  1
  Al0+  Al53  1  -0.00159162  0.49778516  0.67486960  1
  Al0+  Al54  1  0.50259745  0.00276464  0.00408300  1
  Al0+  Al55  1  0.50097945  0.00170013  0.33539461  1
  Al0+  Al56  1  0.50106692  0.00055758  0.66443541  1
  Al0+  Al57  1  0.49917660  0.50069323  0.00041512  1
  Al0+  Al58  1  0.49835763  0.49900058  0.33383138  1
  Al0+  Al59  1  0.49859259  0.49825620  0.67022828  1
  Al0+  Al60  1  0.24985616  0.25434690  0.00224617  1
  Al0+  Al61  1  0.24990813  0.25023224  0.33706180  1
  Al0+  Al62  1  0.25117043  0.24864198  0.66584119  1
  Al0+  Al63  1  0.25245965  0.74880553  -0.00026863  1
  Al0+  Al64  1  0.25053870  0.74867658  0.33273734  1
  Al0+  Al65  1  0.24950152  0.75088196  0.66716026  1
  Al0+  Al66  1  0.74818348  0.24982529  0.00227468  1
  Al0+  Al67  1  0.74810775  0.25055311  0.33655109  1
  Al0+  Al68  1  0.75137658  0.24727170  0.66537910  1
  Al0+  Al69  1  0.74754616  0.74773361  0.00024771  1
  Al0+  Al70  1  0.75152662  0.74729811  0.32692827  1
  Al0+  Al71  1  0.74851979  0.74787901  0.67235629  1
  Al0+  Al72  1  0.17953601  0.92756153  0.01226138  1
  Al0+  Al73  1  0.81932059  0.57038375  0.68088886  1
  Al0+  Al74  1  0.92854606  0.82281771  0.98495011  1
  Al0+  Al75  1  0.82206425  0.06942726  0.01273320  1
  Al0+  Al76  1  0.32186204  0.07306153  0.01272116  1
  Al0+  Al77  1  0.17813960  0.43164888  0.01558945  1
  Al0+  Al78  1  0.42885894  0.82337772  0.31601645  1
  Al0+  Al79  1  0.57115298  0.67771620  0.31833947  1
  Al0+  Al80  1  0.07330137  0.67821469  0.98405793  1
  Al0+  Al81  1  0.82335503  0.07179979  0.34876862  1
  Al0+  Al82  1  0.92760045  0.31966202  0.31940793  1
  Al0+  Al83  1  0.42821722  0.82165431  0.65375826  1
  Al0+  Al84  1  0.68214532  0.92596486  0.34877708  1
  Al0+  Al85  1  0.32146020  0.07150748  0.34984333  1
  Al0+  Al86  1  0.32163067  0.57420782  0.68218482  1
  Al0+  Al87  1  0.93108238  0.82196860  0.32054745  1
  Al0+  Al88  1  0.67733317  0.42992768  0.34754329  1
  Al0+  Al89  1  0.07154555  0.18198176  0.98629723  1
  Al0+  Al90  1  0.67962363  0.43102611  0.01241198  1
  Al0+  Al91  1  0.67993980  0.93009807  0.67924920  1
  Al0+  Al92  1  0.17901699  0.42796643  0.68150349  1
  Al0+  Al93  1  0.17923372  0.92592473  0.34993170  1
  Al0+  Al94  1  0.67875193  0.92558701  0.01501092  1
  Al0+  Al95  1  0.92787981  0.81980277  0.65206688  1
  Si0+  Si96  1  0.32345023  0.57254166  0.01891856  1
  Si0+  Si97  1  0.82266325  0.56992480  0.34898511  1
  Si0+  Si98  1  0.32092199  0.06935481  0.68074573  1
  Si0+  Si99  1  0.43240759  0.82297619  0.98582671  1
  Si0+  Si100  1  0.92518128  0.32179762  0.98236653  1
  Si0+  Si101  1  0.92851358  0.32089031  0.65251321  1
  Si0+  Si102  1  0.17649070  0.92980193  0.68083396  1
  Si0+  Si103  1  0.07405620  0.18049454  0.31619040  1
  Si0+  Si104  1  0.57062184  0.18032976  0.31694637  1
  Si0+  Si105  1  0.07352135  0.17985459  0.64892241  1
  Si0+  Si106  1  0.07039386  0.67604002  0.65166152  1
  Si0+  Si107  1  0.42910015  0.32286586  0.98358793  1
  Si0+  Si108  1  0.42902715  0.31992289  0.65112708  1
  Si0+  Si109  1  0.82239709  0.57244520  0.01973322  1
  Si0+  Si110  1  0.42768789  0.32070721  0.31804146  1
  Si0+  Si111  1  0.57103020  0.67569167  0.65202590  1
  Si0+  Si112  1  0.17721570  0.43016234  0.34746108  1
  Si0+  Si113  1  0.56917398  0.67585676  0.98321371  1
  Si0+  Si114  1  0.32073820  0.56960924  0.34765071  1
  Si0+  Si115  1  0.57080570  0.18004400  0.98388494  1
  Si0+  Si116  1  0.67758539  0.42405615  0.68262750  1
  Si0+  Si117  1  0.57160366  0.17968964  0.65031599  1
  Si0+  Si118  1  0.82355794  0.07356249  0.68341863  1
  Si0+  Si119  1  0.07281312  0.67598465  0.31943662  1
  O2-  O120  1  0.25206155  -0.00061911  0.06166368  1
  O2-  O121  1  0.25459362  -0.00475999  0.40052131  1
  O2-  O122  1  0.25065148  -0.00176753  0.72259842  1
  O2-  O123  1  0.24878225  0.50989747  0.06304538  1
  O2-  O124  1  0.24510341  0.50333311  0.38982582  1
  O2-  O125  1  0.24761120  0.50351871  0.73102879  1
  O2-  O126  1  0.75817763  -0.00960286  0.06232701  1
  O2-  O127  1  0.75846270  -0.00638371  0.39974375  1
  O2-  O128  1  0.75884846  0.00057142  0.72541115  1
  O2-  O129  1  0.75465987  0.50214996  0.06266257  1
  O2-  O130  1  0.75096388  0.50451558  0.39436175  1
  O2-  O131  1  0.74383713  0.49466604  0.72608365  1
  O2-  O132  1  -0.00016583  0.24334815  0.27261238  1
  O2-  O133  1  0.00112869  0.25138839  0.60980878  1
  O2-  O134  1  -0.00337720  0.25639510  0.93704224  1
  O2-  O135  1  0.01008599  0.75030746  0.27653554  1
  O2-  O136  1  0.00359138  0.74521739  0.60556250  1
  O2-  O137  1  0.00263220  0.75194662  0.93450367  1
  O2-  O138  1  0.49673344  0.24904818  0.27475474  1
  O2-  O139  1  0.50388027  0.25410303  0.60755581  1
  O2-  O140  1  0.49785204  0.24956318  0.94089983  1
  O2-  O141  1  0.50478025  0.75444936  0.26670614  1
  O2-  O142  1  0.50045239  0.74300221  0.60926992  1
  O2-  O143  1  0.50403518  0.75284361  0.94205407  1
  O2-  O144  1  0.07309222  0.18481062  0.09885197  1
  O2-  O145  1  0.07727949  0.18654015  0.42236596  1
  O2-  O146  1  0.07614095  0.17937857  0.75382765  1
  O2-  O147  1  0.06909778  0.67704983  0.09787829  1
  O2-  O148  1  0.07101880  0.67107320  0.42522133  1
  O2-  O149  1  0.06906367  0.67680322  0.75669476  1
  O2-  O150  1  0.57110355  0.18252774  0.08857346  1
  O2-  O151  1  0.57005381  0.18394574  0.42271762  1
  O2-  O152  1  0.57012176  0.18069459  0.75555727  1
  O2-  O153  1  0.56436541  0.66899045  0.08753540  1
  O2-  O154  1  0.56632119  0.67432422  0.43223943  1
  O2-  O155  1  0.57037969  0.67550371  0.75791839  1
  O2-  O156  1  0.17876621  0.42983378  0.24261204  1
  O2-  O157  1  0.18072048  0.42817854  0.56711738  1
  O2-  O158  1  0.18385832  0.42917696  0.90284540  1
  O2-  O159  1  0.17878230  0.92770852  0.23672528  1
  O2-  O160  1  0.17588253  0.93169044  0.57608819  1
  O2-  O161  1  0.18186844  0.93031838  0.89769945  1
  O2-  O162  1  0.67698204  0.43003216  0.23461414  1
  O2-  O163  1  0.67814743  0.42198033  0.57728561  1
  O2-  O164  1  0.68009652  0.43240699  0.89879816  1
  O2-  O165  1  0.68222630  0.92987977  0.23583152  1
  O2-  O166  1  0.67848961  0.93125019  0.56664814  1
  O2-  O167  1  0.67475531  0.93114385  0.90096729  1
  O2-  O168  1  0.43053283  0.32497309  0.08875761  1
  O2-  O169  1  0.42846234  0.32099147  0.42356059  1
  O2-  O170  1  0.42781520  0.31739817  0.75615182  1
  O2-  O171  1  0.43274968  0.82213769  0.09042634  1
  O2-  O172  1  0.42881722  0.81888385  0.42998934  1
  O2-  O173  1  0.43100037  0.82466308  0.76735632  1
  O2-  O174  1  0.92417955  0.31911319  0.08791727  1
  O2-  O175  1  0.93189273  0.32284765  0.43326740  1
  O2-  O176  1  0.92451740  0.31867049  0.75716139  1
  O2-  O177  1  0.93003178  0.82204187  0.09850656  1
  O2-  O178  1  0.92947224  0.81568442  0.43406065  1
  O2-  O179  1  0.92879654  0.82130399  0.76467449  1
  O2-  O180  1  0.31662717  0.07637106  0.23701603  1
  O2-  O181  1  0.32079220  0.07199567  0.57616001  1
  O2-  O182  1  0.32262495  0.07096008  0.89810198  1
  O2-  O183  1  0.32269276  0.56591880  0.24272821  1
  O2-  O184  1  0.32132853  0.57022891  0.56806753  1
  O2-  O185  1  0.32747109  0.56883561  0.91355038  1
  O2-  O186  1  0.81987414  0.07368574  0.23565056  1
  O2-  O187  1  0.82057300  0.08045911  0.57854009  1
  O2-  O188  1  0.81742228  0.07245113  0.89866254  1
  O2-  O189  1  0.82524681  0.56549794  0.24394032  1
  O2-  O190  1  0.81878992  0.56823075  0.56771539  1
  O2-  O191  1  0.82011842  0.57117406  0.91362640  1
  O2-  O192  1  0.05655000  0.08424547  0.27480289  1
  O2-  O193  1  0.04581026  0.08950633  0.59890444  1
  O2-  O194  1  0.04271698  0.08682038  0.92803059  1
  O2-  O195  1  0.04132493  0.58492202  0.27066119  1
  O2-  O196  1  0.04437715  0.58086797  0.60780439  1
  O2-  O197  1  0.04250260  0.57938113  0.93127022  1
  O2-  O198  1  0.54550973  0.08833034  0.27017811  1
  O2-  O199  1  0.53908043  0.09067570  0.60126147  1
  O2-  O200  1  0.54337486  0.08862054  0.93471149  1
  O2-  O201  1  0.53454172  0.58071547  0.26482885  1
  O2-  O202  1  0.54871348  0.57990847  0.60756375  1
  O2-  O203  1  0.53566167  0.58696237  0.93230074  1
  O2-  O204  1  0.16517124  0.21375717  0.26957291  1
  O2-  O205  1  0.16476673  0.20892768  0.60034342  1
  O2-  O206  1  0.16815793  0.21596390  0.93146872  1
  O2-  O207  1  0.16841940  0.69276103  0.27458050  1
  O2-  O208  1  0.16515172  0.69956264  0.60661347  1
  O2-  O209  1  0.17531213  0.69846422  0.93400915  1
  O2-  O210  1  0.66017118  0.21318111  0.26958294  1
  O2-  O211  1  0.66416239  0.20512288  0.60287314  1
  O2-  O212  1  0.66052533  0.21189029  0.93386566  1
  O2-  O213  1  0.67151303  0.69491585  0.26582050  1
  O2-  O214  1  0.66435319  0.70168055  0.60685195  1
  O2-  O215  1  0.66346767  0.69615468  0.93783946  1
  O2-  O216  1  0.07987242  0.45722355  0.06875084  1
  O2-  O217  1  0.08431147  0.45563566  0.39393245  1
  O2-  O218  1  0.07994324  0.44844313  0.73509145  1
  O2-  O219  1  0.08164129  0.95830938  0.06253508  1
  O2-  O220  1  0.08422265  0.96009961  0.40696385  1
  O2-  O221  1  0.08552679  0.96283688  0.72679402  1
  O2-  O222  1  0.58260160  0.46154114  0.06540631  1
  O2-  O223  1  0.57984784  0.45813937  0.40193138  1
  O2-  O224  1  0.58249442  0.44479022  0.72762765  1
  O2-  O225  1  0.58498117  0.96418875  0.06968124  1
  O2-  O226  1  0.58436067  0.95953773  0.40036169  1
  O2-  O227  1  0.58482897  0.96742104  0.73332547  1
  O2-  O228  1  0.21431761  0.33823222  0.07151054  1
  O2-  O229  1  0.20795679  0.34036529  0.39651321  1
  O2-  O230  1  0.21421847  0.33050826  0.73306360  1
  O2-  O231  1  0.20673614  0.82889888  0.06446314  1
  O2-  O232  1  0.20354041  0.82548592  0.40171024  1
  O2-  O233  1  0.20002736  0.83696691  0.72680200  1
  O2-  O234  1  0.70643538  0.33379308  0.06596493  1
  O2-  O235  1  0.70820100  0.33468910  0.40314793  1
  O2-  O236  1  0.70608324  0.33111019  0.72907125  1
  O2-  O237  1  0.69290229  0.82305665  0.06288584  1
  O2-  O238  1  0.70676615  0.82467815  0.39848293  1
  O2-  O239  1  0.70414527  0.83260576  0.73365841  1
  O2-  O240  1  0.45570824  0.41147713  0.26961455  1
  O2-  O241  1  0.45224981  0.41376660  0.60499019  1
  O2-  O242  1  0.46082394  0.41287156  0.93429855  1
  O2-  O243  1  0.45346741  0.92416677  0.26680020  1
  O2-  O244  1  0.46124579  0.91743710  0.59901088  1
  O2-  O245  1  0.46009592  0.91566947  0.93902208  1
  O2-  O246  1  0.95911767  0.41466786  0.26282433  1
  O2-  O247  1  0.95503160  0.41353533  0.60604405  1
  O2-  O248  1  0.94808477  0.41740060  0.94010321  1
  O2-  O249  1  0.95984989  0.92141555  0.27191486  1
  O2-  O250  1  0.95668542  0.91720696  0.59785593  1
  O2-  O251  1  0.95487021  0.92120127  0.93022309  1
  O2-  O252  1  0.33489957  0.29422490  0.27155141  1
  O2-  O253  1  0.33927047  0.28807803  0.60142949  1
  O2-  O254  1  0.33738959  0.29693613  0.93581293  1
  O2-  O255  1  0.33119904  0.78945953  0.26395088  1
  O2-  O256  1  0.33018601  0.79443203  0.60003445  1
  O2-  O257  1  0.34070793  0.79491349  0.93807902  1
  O2-  O258  1  0.82937429  0.29152039  0.26784452  1
  O2-  O259  1  0.83731958  0.29181388  0.60309406  1
  O2-  O260  1  0.83230734  0.29385084  0.93509115  1
  O2-  O261  1  0.83687415  0.78914451  0.26414274  1
  O2-  O262  1  0.83083382  0.78414214  0.60157306  1
  O2-  O263  1  0.82893280  0.79080053  0.93416853  1
  O2-  O264  1  0.42084656  0.04929997  0.06479198  1
  O2-  O265  1  0.42180929  0.05016235  0.40165381  1
  O2-  O266  1  0.41342407  0.04376238  0.72757158  1
  O2-  O267  1  0.41302060  0.53726627  0.06692607  1
  O2-  O268  1  0.40886901  0.53540098  0.39774422  1
  O2-  O269  1  0.41896282  0.54215476  0.73643028  1
  O2-  O270  1  0.92285057  0.05182125  0.06320156  1
  O2-  O271  1  0.92508381  0.05749975  0.39916738  1
  O2-  O272  1  0.91999332  0.05189351  0.72475086  1
  O2-  O273  1  0.91604699  0.54907512  0.06485194  1
  O2-  O274  1  0.91429912  0.53928000  0.39753155  1
  O2-  O275  1  0.91353961  0.53835229  0.73821932  1
  O2-  O276  1  0.29515092  0.17188375  0.06425071  1
  O2-  O277  1  0.28935556  0.16947779  0.40523840  1
  O2-  O278  1  0.29307254  0.16129378  0.72801959  1
  O2-  O279  1  0.30592258  0.66791800  0.06320342  1
  O2-  O280  1  0.29764393  0.66210524  0.39485320  1
  O2-  O281  1  0.29656870  0.67326028  0.73506553  1
  O2-  O282  1  0.78650572  0.16568926  0.06564767  1
  O2-  O283  1  0.78581994  0.16721302  0.40363126  1
  O2-  O284  1  0.79379424  0.16517588  0.73214670  1
  O2-  O285  1  0.79407172  0.66476123  0.06528171  1
  O2-  O286  1  0.79893524  0.66388661  0.39395093  1
  O2-  O287  1  0.78666285  0.66364769  0.73962591  1
