# generated using pymatgen
data_Ca2Al2SiO7
_symmetry_space_group_name_H-M   'P 1'
_cell_length_a   15.45954123
_cell_length_b   15.45948174
_cell_length_c   15.28544971
_cell_angle_alpha   90.00366300
_cell_angle_beta   89.99813475
_cell_angle_gamma   89.98544652
_symmetry_Int_Tables_number   1
_chemical_formula_structural   Ca2Al2SiO7
_chemical_formula_sum   'Ca48 Al48 Si24 O168'
_cell_volume   3653.16878449
_cell_formula_units_Z   24
loop_
 _symmetry_equiv_pos_site_id
 _symmetry_equiv_pos_as_xyz
  1  'x, y, z'
loop_
 _atom_type_symbol
 _atom_type_oxidation_number
  Ca2+  2.0
  Al0+  0.0
  Si0+  0.0
  O2-  -2.0
loop_
 _atom_site_type_symbol
 _atom_site_label
 _atom_site_symmetry_multiplicity
 _atom_site_fract_x
 _atom_site_fract_y
 _atom_site_fract_z
 _atom_site_occupancy
  Ca2+  Ca0  1  0.17344943  0.07547437  0.16939364  1
  Ca2+  Ca1  1  0.16865982  0.08198992  0.50009985  1
  Ca2+  Ca2  1  0.16535641  0.08351607  0.84404579  1
  Ca2+  Ca3  1  0.16178867  0.57680443  0.17812971  1
  Ca2+  Ca4  1  0.15556236  0.57198584  0.49944416  1
  Ca2+  Ca5  1  0.16220256  0.57350807  0.83465161  1
  Ca2+  Ca6  1  0.66868020  0.07882262  0.17402910  1
  Ca2+  Ca7  1  0.67938396  0.09109338  0.50033373  1
  Ca2+  Ca8  1  0.67798756  0.07738614  0.83907590  1
  Ca2+  Ca9  1  0.66945450  0.58680525  0.17187811  1
  Ca2+  Ca10  1  0.67144989  0.58728945  0.49803244  1
  Ca2+  Ca11  1  0.66725317  0.58419953  0.84168547  1
  Ca2+  Ca12  1  0.07542665  0.32967799  0.16145065  1
  Ca2+  Ca13  1  0.07848765  0.33230959  0.49631832  1
  Ca2+  Ca14  1  0.07744656  0.32130627  0.82815545  1
  Ca2+  Ca15  1  0.08416406  0.83443892  0.16338512  1
  Ca2+  Ca16  1  0.08038465  0.82997905  0.49327774  1
  Ca2+  Ca17  1  0.07156966  0.84509746  0.83294867  1
  Ca2+  Ca18  1  0.57806219  0.32336732  0.16373834  1
  Ca2+  Ca19  1  0.58092244  0.32612088  0.49185083  1
  Ca2+  Ca20  1  0.57437385  0.33458023  0.83407752  1
  Ca2+  Ca21  1  0.57560146  0.83030120  0.15936358  1
  Ca2+  Ca22  1  0.57575197  0.82917169  0.48774479  1
  Ca2+  Ca23  1  0.58282200  0.83669926  0.83812584  1
  Ca2+  Ca24  1  0.32758290  0.41511948  0.17185258  1
  Ca2+  Ca25  1  0.31654452  0.41423185  0.50350860  1
  Ca2+  Ca26  1  0.32752219  0.41271230  0.83991790  1
  Ca2+  Ca27  1  0.32927610  0.91893620  0.17354270  1
  Ca2+  Ca28  1  0.33090620  0.91562984  0.49575714  1
  Ca2+  Ca29  1  0.32447245  0.92459346  0.84883016  1
  Ca2+  Ca30  1  0.83955222  0.42078454  0.17638405  1
  Ca2+  Ca31  1  0.84301607  0.42074710  0.50055496  1
  Ca2+  Ca32  1  0.83870112  0.41440745  0.83587730  1
  Ca2+  Ca33  1  0.83010014  0.91905407  0.16921841  1
  Ca2+  Ca34  1  0.84047413  0.93109071  0.50391604  1
  Ca2+  Ca35  1  0.83556866  0.91853357  0.84129505  1
  Ca2+  Ca36  1  0.41407244  0.16392850  0.16317936  1
  Ca2+  Ca37  1  0.42393844  0.16184133  0.49038076  1
  Ca2+  Ca38  1  0.41168632  0.16717669  0.83713531  1
  Ca2+  Ca39  1  0.42333531  0.67932973  0.16161373  1
  Ca2+  Ca40  1  0.42269632  0.67318183  0.48705491  1
  Ca2+  Ca41  1  0.42063338  0.67222019  0.83543641  1
  Ca2+  Ca42  1  0.91941628  0.17496032  0.16105638  1
  Ca2+  Ca43  1  0.91701921  0.17311607  0.49533935  1
  Ca2+  Ca44  1  0.92870749  0.16762301  0.82491444  1
  Ca2+  Ca45  1  0.92130628  0.66882672  0.16561336  1
  Ca2+  Ca46  1  0.91865938  0.67219520  0.49256752  1
  Ca2+  Ca47  1  0.91581298  0.68157448  0.83246020  1
  Al0+  Al48  1  0.00092173  0.00039326  -0.00065164  1
  Al0+  Al49  1  0.00026960  0.00103361  0.34082774  1
  Al0+  Al50  1  0.00122822  0.00142968  0.66164987  1
  Al0+  Al51  1  -0.00082117  0.50065064  -0.00390013  1
  Al0+  Al52  1  -0.00222513  0.50134907  0.33458324  1
  Al0+  Al53  1  -0.00037954  0.50031417  0.67296554  1
  Al0+  Al54  1  0.50195666  -0.00025066  0.00146715  1
  Al0+  Al55  1  0.49991529  0.00006932  0.32962991  1
  Al0+  Al56  1  0.50010725  -0.00079861  0.66699598  1
  Al0+  Al57  1  0.50096398  0.49872386  -0.00612798  1
  Al0+  Al58  1  0.50004890  0.49904576  0.33098324  1
  Al0+  Al59  1  0.50044688  0.50087751  0.66565852  1
  Al0+  Al60  1  0.24945839  0.25048607  -0.00224554  1
  Al0+  Al61  1  0.24883089  0.24854882  0.34244003  1
  Al0+  Al62  1  0.24965912  0.25041183  0.66761152  1
  Al0+  Al63  1  0.25160563  0.74714794  -0.00236063  1
  Al0+  Al64  1  0.24900399  0.74858210  0.33022844  1
  Al0+  Al65  1  0.25135839  0.74978623  0.66830660  1
  Al0+  Al66  1  0.74798517  0.25252289  -0.00301724  1
  Al0+  Al67  1  0.74832083  0.25101095  0.32799812  1
  Al0+  Al68  1  0.74972628  0.25081497  0.67076564  1
  Al0+  Al69  1  0.75192866  0.74904807  -0.00204017  1
  Al0+  Al70  1  0.75067662  0.74967667  0.33579568  1
  Al0+  Al71  1  0.74881994  0.75031517  0.66224465  1
  Al0+  Al72  1  0.81990958  0.07326457  0.34524865  1
  Al0+  Al73  1  0.57083206  0.17966537  0.32005931  1
  Al0+  Al74  1  0.93080588  0.32011423  0.32029224  1
  Al0+  Al75  1  0.92681834  0.32352816  0.98444129  1
  Al0+  Al76  1  0.93177767  0.81972361  0.99005284  1
  Al0+  Al77  1  0.92801217  0.82142873  0.65162231  1
  Al0+  Al78  1  0.57381976  0.67719143  0.31788273  1
  Al0+  Al79  1  0.42836898  0.82100387  0.31729750  1
  Al0+  Al80  1  0.17854722  0.92598167  0.35040843  1
  Al0+  Al81  1  0.17877443  0.42895131  0.68386242  1
  Al0+  Al82  1  0.82180854  0.07106149  0.68137876  1
  Al0+  Al83  1  0.32050840  0.07254182  0.01488309  1
  Al0+  Al84  1  0.81952913  0.57108998  0.34698735  1
  Al0+  Al85  1  0.42980564  0.31894869  0.98791403  1
  Al0+  Al86  1  0.92765315  0.32139866  0.65017271  1
  Al0+  Al87  1  0.07333990  0.17884533  0.64775351  1
  Al0+  Al88  1  0.17694880  0.92628668  0.01464408  1
  Al0+  Al89  1  0.42786292  0.82332206  0.98275308  1
  Al0+  Al90  1  0.06932480  0.17994748  0.98765161  1
  Al0+  Al91  1  0.68194446  0.92816904  0.01381317  1
  Al0+  Al92  1  0.32218008  0.06974859  0.35002337  1
  Al0+  Al93  1  0.06846672  0.67958281  0.32170669  1
  Al0+  Al94  1  0.57148959  0.68022404  0.98379487  1
  Al0+  Al95  1  0.17778073  0.42925971  0.34575528  1
  Si0+  Si96  1  0.07423823  0.67545391  0.98269476  1
  Si0+  Si97  1  0.32312404  0.57084618  0.34817256  1
  Si0+  Si98  1  0.32420155  0.57160681  0.68439815  1
  Si0+  Si99  1  0.92860216  0.82527034  0.31761029  1
  Si0+  Si100  1  0.67740148  0.92766728  0.68241392  1
  Si0+  Si101  1  0.82033371  0.56896021  0.01438287  1
  Si0+  Si102  1  0.42900663  0.82094409  0.65168336  1
  Si0+  Si103  1  0.18069935  0.92803582  0.68158757  1
  Si0+  Si104  1  0.57043747  0.67772003  0.64971919  1
  Si0+  Si105  1  0.67641869  0.42782949  0.34918089  1
  Si0+  Si106  1  0.67642219  0.42873827  0.01533293  1
  Si0+  Si107  1  0.17909094  0.43156214  0.01519822  1
  Si0+  Si108  1  0.42923198  0.32258111  0.65128529  1
  Si0+  Si109  1  0.07225935  0.67889459  0.65200294  1
  Si0+  Si110  1  0.67690621  0.42991173  0.68285151  1
  Si0+  Si111  1  0.32388297  0.56927015  0.01457922  1
  Si0+  Si112  1  0.81931174  0.57273137  0.68359434  1
  Si0+  Si113  1  0.42482091  0.32091985  0.31941300  1
  Si0+  Si114  1  0.32371600  0.06967922  0.68217274  1
  Si0+  Si115  1  0.57362187  0.17583602  0.98114337  1
  Si0+  Si116  1  0.82233774  0.07402031  0.01614114  1
  Si0+  Si117  1  0.07364764  0.17654305  0.31667960  1
  Si0+  Si118  1  0.67874936  0.92823895  0.34959797  1
  Si0+  Si119  1  0.56925540  0.17929024  0.65383468  1
  O2-  O120  1  0.25327705  -0.00501547  0.06288218  1
  O2-  O121  1  0.25034785  -0.00173589  0.40142073  1
  O2-  O122  1  0.25035706  0.00085258  0.72304706  1
  O2-  O123  1  0.24816860  0.50400734  0.05805870  1
  O2-  O124  1  0.25461338  0.50248002  0.39328923  1
  O2-  O125  1  0.25513246  0.50365648  0.72938885  1
  O2-  O126  1  0.75282365  0.00636834  0.06055450  1
  O2-  O127  1  0.74719244  -0.00318252  0.39427690  1
  O2-  O128  1  0.74963070  -0.00733753  0.72638819  1
  O2-  O129  1  0.75280726  0.49429201  0.05610684  1
  O2-  O130  1  0.74294296  0.49808316  0.39453583  1
  O2-  O131  1  0.74918761  0.50006984  0.72497241  1
  O2-  O132  1  0.00402366  0.24465626  0.27328669  1
  O2-  O133  1  -0.00031572  0.25042234  0.59924750  1
  O2-  O134  1  -0.00564847  0.24782326  0.93544179  1
  O2-  O135  1  -0.00133940  0.75793600  0.27397654  1
  O2-  O136  1  0.00398759  0.74711042  0.60708419  1
  O2-  O137  1  0.01174519  0.75099067  0.94105865  1
  O2-  O138  1  0.49210211  0.25120405  0.27538337  1
  O2-  O139  1  0.49806329  0.24955892  0.60981164  1
  O2-  O140  1  0.50209653  0.24292570  0.93842398  1
  O2-  O141  1  0.50250524  0.74977815  0.26952800  1
  O2-  O142  1  0.49950859  0.74929407  0.60935717  1
  O2-  O143  1  0.50113919  0.75253554  0.93157011  1
  O2-  O144  1  0.06957002  0.18267510  0.10123474  1
  O2-  O145  1  0.07325830  0.17859766  0.42230152  1
  O2-  O146  1  0.07416158  0.17856752  0.76135993  1
  O2-  O147  1  0.06995600  0.66827210  0.08779674  1
  O2-  O148  1  0.06455811  0.67804056  0.43511909  1
  O2-  O149  1  0.07209634  0.67979562  0.75771931  1
  O2-  O150  1  0.57749642  0.17898606  0.08638887  1
  O2-  O151  1  0.57163190  0.18332129  0.43409911  1
  O2-  O152  1  0.56714771  0.17957070  0.75870972  1
  O2-  O153  1  0.57027638  0.67896785  0.09658128  1
  O2-  O154  1  0.57103953  0.67862157  0.43253479  1
  O2-  O155  1  0.57101340  0.67533858  0.75439698  1
  O2-  O156  1  0.17920746  0.43039549  0.23234135  1
  O2-  O157  1  0.17926832  0.43181665  0.57075142  1
  O2-  O158  1  0.18070344  0.43322782  0.90995024  1
  O2-  O159  1  0.17808263  0.92694493  0.23731377  1
  O2-  O160  1  0.18430933  0.92375124  0.57694708  1
  O2-  O161  1  0.17619983  0.92987190  0.90015341  1
  O2-  O162  1  0.67643310  0.42715490  0.24372962  1
  O2-  O163  1  0.67174376  0.43134641  0.57813912  1
  O2-  O164  1  0.67371826  0.43114623  0.90982177  1
  O2-  O165  1  0.68105443  0.92816316  0.24408951  1
  O2-  O166  1  0.67302315  0.92965615  0.57715838  1
  O2-  O167  1  0.68550048  0.92956349  0.90000982  1
  O2-  O168  1  0.43183936  0.32078530  0.10071454  1
  O2-  O169  1  0.42764846  0.32214832  0.42550886  1
  O2-  O170  1  0.43124797  0.32377895  0.75640122  1
  O2-  O171  1  0.42811730  0.82027131  0.09550583  1
  O2-  O172  1  0.43062641  0.81858692  0.43231299  1
  O2-  O173  1  0.42942240  0.82111677  0.75620192  1
  O2-  O174  1  0.93032984  0.32657275  0.09801481  1
  O2-  O175  1  0.93157048  0.32078710  0.43320311  1
  O2-  O176  1  0.92862463  0.31932335  0.76346909  1
  O2-  O177  1  0.92920370  0.81571392  0.10269890  1
  O2-  O178  1  0.92851834  0.82301502  0.42352039  1
  O2-  O179  1  0.92738716  0.81949297  0.76505553  1
  O2-  O180  1  0.32030369  0.07235996  0.23713627  1
  O2-  O181  1  0.32905132  0.06669607  0.57759046  1
  O2-  O182  1  0.31705055  0.07313074  0.90023734  1
  O2-  O183  1  0.32355153  0.56791505  0.24258766  1
  O2-  O184  1  0.32718580  0.57054355  0.57908802  1
  O2-  O185  1  0.32405684  0.56592619  0.90908533  1
  O2-  O186  1  0.81833851  0.07279226  0.23226891  1
  O2-  O187  1  0.81714651  0.07315736  0.56830121  1
  O2-  O188  1  0.82120132  0.07221873  0.91020275  1
  O2-  O189  1  0.82119652  0.56886809  0.23383125  1
  O2-  O190  1  0.81824310  0.57371977  0.57863815  1
  O2-  O191  1  0.81880273  0.56965070  0.90880605  1
  O2-  O192  1  0.04800319  0.08196669  0.27392095  1
  O2-  O193  1  0.04706747  0.08040204  0.59501542  1
  O2-  O194  1  0.04424962  0.08137258  0.93324434  1
  O2-  O195  1  0.03272458  0.58588801  0.26535554  1
  O2-  O196  1  0.04459281  0.58495799  0.60859654  1
  O2-  O197  1  0.03971527  0.58661222  0.93158367  1
  O2-  O198  1  0.54489681  0.08294733  0.26592498  1
  O2-  O199  1  0.54165349  0.08751675  0.60590656  1
  O2-  O200  1  0.55127406  0.08238184  0.93441685  1
  O2-  O201  1  0.54778354  0.57746817  0.26676264  1
  O2-  O202  1  0.54245068  0.58613582  0.60149653  1
  O2-  O203  1  0.54078321  0.58270891  0.92896516  1
  O2-  O204  1  0.16773691  0.20402805  0.27368494  1
  O2-  O205  1  0.17276963  0.20834749  0.59682504  1
  O2-  O206  1  0.16546577  0.21242473  0.93241642  1
  O2-  O207  1  0.16642548  0.70148689  0.26728228  1
  O2-  O208  1  0.16708290  0.70244021  0.60704153  1
  O2-  O209  1  0.17024776  0.68998061  0.93813344  1
  O2-  O210  1  0.66310396  0.21463398  0.26124219  1
  O2-  O211  1  0.66056563  0.20957166  0.60761005  1
  O2-  O212  1  0.66497301  0.20598075  0.93225687  1
  O2-  O213  1  0.67351156  0.70373083  0.26768108  1
  O2-  O214  1  0.66188337  0.70479260  0.60160843  1
  O2-  O215  1  0.66987582  0.70779377  0.92998679  1
  O2-  O216  1  0.08623498  0.45979479  0.06032281  1
  O2-  O217  1  0.08394727  0.46556507  0.40129208  1
  O2-  O218  1  0.08362103  0.46189444  0.74013159  1
  O2-  O219  1  0.07937891  0.95626086  0.06843748  1
  O2-  O220  1  0.08053616  0.95375003  0.40517270  1
  O2-  O221  1  0.08769581  0.95574013  0.72576463  1
  O2-  O222  1  0.58651465  0.46083969  0.06335551  1
  O2-  O223  1  0.58194607  0.45065007  0.39669402  1
  O2-  O224  1  0.58576402  0.46040619  0.73188041  1
  O2-  O225  1  0.58446474  0.95570803  0.06663791  1
  O2-  O226  1  0.58477741  0.95348267  0.39445712  1
  O2-  O227  1  0.58528688  0.95735291  0.73081971  1
  O2-  O228  1  0.20910258  0.34056082  0.06120154  1
  O2-  O229  1  0.20713410  0.33462015  0.40408934  1
  O2-  O230  1  0.21241055  0.33275355  0.73732950  1
  O2-  O231  1  0.19933220  0.82359286  0.06171722  1
  O2-  O232  1  0.20725779  0.82650707  0.40274783  1
  O2-  O233  1  0.20842843  0.83652264  0.73039820  1
  O2-  O234  1  0.69746742  0.33455666  0.06123413  1
  O2-  O235  1  0.70363396  0.33514558  0.39579312  1
  O2-  O236  1  0.70203518  0.33843349  0.73206832  1
  O2-  O237  1  0.71560575  0.83222372  0.06706549  1
  O2-  O238  1  0.70266820  0.83470931  0.39707965  1
  O2-  O239  1  0.69935958  0.83191949  0.72596039  1
  O2-  O240  1  0.45052990  0.41388185  0.27246883  1
  O2-  O241  1  0.45951047  0.41348697  0.60343027  1
  O2-  O242  1  0.46414379  0.41239758  0.92893539  1
  O2-  O243  1  0.45545767  0.91900038  0.26516421  1
  O2-  O244  1  0.45814863  0.91241269  0.60410057  1
  O2-  O245  1  0.45739036  0.92193246  0.93027664  1
  O2-  O246  1  0.96263744  0.41634278  0.26699347  1
  O2-  O247  1  0.95570213  0.42301410  0.60327102  1
  O2-  O248  1  0.95836095  0.42042958  0.92971437  1
  O2-  O249  1  0.95215014  0.91976499  0.27334034  1
  O2-  O250  1  0.95930756  0.91685794  0.59753399  1
  O2-  O251  1  0.95723162  0.91690102  0.93419478  1
  O2-  O252  1  0.33040324  0.29658398  0.27535908  1
  O2-  O253  1  0.33671766  0.29724541  0.60566754  1
  O2-  O254  1  0.33391609  0.29091919  0.93104121  1
  O2-  O255  1  0.33113463  0.79075046  0.26482341  1
  O2-  O256  1  0.33713099  0.79284217  0.60440758  1
  O2-  O257  1  0.33029552  0.79139821  0.92835956  1
  O2-  O258  1  0.83356343  0.29311480  0.26615004  1
  O2-  O259  1  0.82630965  0.29626673  0.60102396  1
  O2-  O260  1  0.82499682  0.30424993  0.93472195  1
  O2-  O261  1  0.83506701  0.79737199  0.27379655  1
  O2-  O262  1  0.83164853  0.79028917  0.59715737  1
  O2-  O263  1  0.83899592  0.78310565  0.93211758  1
  O2-  O264  1  0.42270436  0.05237607  0.06233638  1
  O2-  O265  1  0.42190151  0.04126929  0.40221113  1
  O2-  O266  1  0.41442582  0.04011667  0.73178695  1
  O2-  O267  1  0.41380052  0.53528452  0.06116534  1
  O2-  O268  1  0.41696633  0.54578529  0.39565308  1
  O2-  O269  1  0.41765544  0.54479629  0.73122519  1
  O2-  O270  1  0.91518836  0.04770007  0.06164637  1
  O2-  O271  1  0.91543338  0.04496630  0.40250563  1
  O2-  O272  1  0.91997994  0.04084180  0.73224997  1
  O2-  O273  1  0.91360929  0.54362334  0.06058125  1
  O2-  O274  1  0.91355104  0.53773201  0.40419791  1
  O2-  O275  1  0.91105296  0.54817382  0.73250137  1
  O2-  O276  1  0.28991318  0.17078315  0.06742188  1
  O2-  O277  1  0.29611134  0.16788018  0.40630214  1
  O2-  O278  1  0.29990313  0.16393108  0.72624855  1
  O2-  O279  1  0.30245443  0.66306265  0.05973610  1
  O2-  O280  1  0.29809279  0.66406465  0.39424839  1
  O2-  O281  1  0.29911090  0.66572817  0.73057178  1
  O2-  O282  1  0.79657423  0.16927385  0.05898656  1
  O2-  O283  1  0.78397483  0.16878304  0.39911777  1
  O2-  O284  1  0.78698095  0.16597814  0.73692491  1
  O2-  O285  1  0.79014523  0.65908612  0.06238308  1
  O2-  O286  1  0.79109901  0.66757629  0.40426430  1
  O2-  O287  1  0.78764219  0.66416977  0.73043466  1
