# generated using pymatgen
data_Ca2Al2SiO7
_symmetry_space_group_name_H-M   'P 1'
_cell_length_a   15.45679531
_cell_length_b   15.45695164
_cell_length_c   15.28329348
_cell_angle_alpha   90.00636554
_cell_angle_beta   90.00246497
_cell_angle_gamma   89.99943287
_symmetry_Int_Tables_number   1
_chemical_formula_structural   Ca2Al2SiO7
_chemical_formula_sum   'Ca48 Al48 Si24 O168'
_cell_volume   3651.40708132
_cell_formula_units_Z   24
loop_
 _symmetry_equiv_pos_site_id
 _symmetry_equiv_pos_as_xyz
  1  'x, y, z'
loop_
 _atom_type_symbol
 _atom_type_oxidation_number
  Ca2+  2.0
  Al0+  0.0
  Si0+  0.0
  O2-  -2.0
loop_
 _atom_site_type_symbol
 _atom_site_label
 _atom_site_symmetry_multiplicity
 _atom_site_fract_x
 _atom_site_fract_y
 _atom_site_fract_z
 _atom_site_occupancy
  Ca2+  Ca0  1  0.16568010  0.07916267  0.16760363  1
  Ca2+  Ca1  1  0.16270983  0.07361203  0.50018951  1
  Ca2+  Ca2  1  0.17389488  0.07641723  0.84448198  1
  Ca2+  Ca3  1  0.16379423  0.56757675  0.16846959  1
  Ca2+  Ca4  1  0.17290383  0.57603557  0.50516827  1
  Ca2+  Ca5  1  0.17720939  0.57921361  0.84031964  1
  Ca2+  Ca6  1  0.67064976  0.07963905  0.17249308  1
  Ca2+  Ca7  1  0.67090404  0.08143675  0.49891724  1
  Ca2+  Ca8  1  0.66465092  0.08457063  0.84088931  1
  Ca2+  Ca9  1  0.67259537  0.58794536  0.16692612  1
  Ca2+  Ca10  1  0.66807816  0.58356236  0.50096346  1
  Ca2+  Ca11  1  0.66704225  0.57361341  0.84319413  1
  Ca2+  Ca12  1  0.08317403  0.32512071  0.15607893  1
  Ca2+  Ca13  1  0.08515035  0.32571367  0.48815842  1
  Ca2+  Ca14  1  0.08542315  0.33201293  0.83731890  1
  Ca2+  Ca15  1  0.07809575  0.83859216  0.15897872  1
  Ca2+  Ca16  1  0.08732124  0.83460475  0.49547185  1
  Ca2+  Ca17  1  0.08122923  0.84153824  0.83255789  1
  Ca2+  Ca18  1  0.57867153  0.32742470  0.15307351  1
  Ca2+  Ca19  1  0.57787313  0.34194015  0.50220191  1
  Ca2+  Ca20  1  0.58017891  0.33519719  0.83239411  1
  Ca2+  Ca21  1  0.58566357  0.82571627  0.15772029  1
  Ca2+  Ca22  1  0.57704675  0.82951179  0.49064482  1
  Ca2+  Ca23  1  0.56808869  0.82888468  0.83391201  1
  Ca2+  Ca24  1  0.32251307  0.40451463  0.16525112  1
  Ca2+  Ca25  1  0.33169476  0.42050004  0.50585394  1
  Ca2+  Ca26  1  0.33725178  0.41767220  0.83988522  1
  Ca2+  Ca27  1  0.32797089  0.91894271  0.16568502  1
  Ca2+  Ca28  1  0.32282851  0.91130294  0.50748451  1
  Ca2+  Ca29  1  0.32776543  0.91587628  0.84360185  1
  Ca2+  Ca30  1  0.83324773  0.42442265  0.16614548  1
  Ca2+  Ca31  1  0.82689222  0.42377710  0.50457976  1
  Ca2+  Ca32  1  0.82384152  0.41882057  0.84622861  1
  Ca2+  Ca33  1  0.82957545  0.92064113  0.17348334  1
  Ca2+  Ca34  1  0.82752773  0.92156874  0.49547765  1
  Ca2+  Ca35  1  0.83294662  0.91695192  0.84091042  1
  Ca2+  Ca36  1  0.42149873  0.16776602  0.15400747  1
  Ca2+  Ca37  1  0.41430697  0.17477390  0.49922170  1
  Ca2+  Ca38  1  0.41428250  0.17624596  0.83804106  1
  Ca2+  Ca39  1  0.42961913  0.67352051  0.15846823  1
  Ca2+  Ca40  1  0.41885963  0.66803787  0.49725531  1
  Ca2+  Ca41  1  0.41425363  0.67181147  0.82930627  1
  Ca2+  Ca42  1  0.92653868  0.16716005  0.15871513  1
  Ca2+  Ca43  1  0.92172726  0.16731539  0.49017639  1
  Ca2+  Ca44  1  0.92182629  0.17317521  0.83708637  1
  Ca2+  Ca45  1  0.91105475  0.67063148  0.15755743  1
  Ca2+  Ca46  1  0.91610038  0.66713337  0.49323177  1
  Ca2+  Ca47  1  0.91550529  0.66866767  0.83845276  1
  Al0+  Al48  1  -0.00013497  -0.00028847  -0.00630080  1
  Al0+  Al49  1  0.00081805  0.00063518  0.33734125  1
  Al0+  Al50  1  -0.00142283  0.00004584  0.66844651  1
  Al0+  Al51  1  0.00023286  0.50138928  0.00210175  1
  Al0+  Al52  1  -0.00046705  0.49984247  0.34321379  1
  Al0+  Al53  1  -0.00070963  0.50033655  0.66539491  1
  Al0+  Al54  1  0.49965234  -0.00084433  -0.00352041  1
  Al0+  Al55  1  0.49750425  0.00192615  0.33796612  1
  Al0+  Al56  1  0.49985386  0.00023990  0.66040460  1
  Al0+  Al57  1  0.50164485  0.49980139  -0.00016220  1
  Al0+  Al58  1  0.49934489  0.50212311  0.32647563  1
  Al0+  Al59  1  0.50060324  0.49971258  0.66923947  1
  Al0+  Al60  1  0.25196973  0.24764390  -0.00113102  1
  Al0+  Al61  1  0.24817180  0.24849475  0.33435291  1
  Al0+  Al62  1  0.24995812  0.24732860  0.66016186  1
  Al0+  Al63  1  0.24867492  0.74927900  0.00398155  1
  Al0+  Al64  1  0.24998307  0.74913260  0.33431526  1
  Al0+  Al65  1  0.24827676  0.74826106  0.67035510  1
  Al0+  Al66  1  0.75128619  0.25024619  -0.00231682  1
  Al0+  Al67  1  0.74898718  0.25233952  0.33801670  1
  Al0+  Al68  1  0.75134504  0.24982984  0.66803788  1
  Al0+  Al69  1  0.75073286  0.74989237  -0.00811537  1
  Al0+  Al70  1  0.74950009  0.74968576  0.33934580  1
  Al0+  Al71  1  0.75115284  0.75194237  0.66570391  1
  Al0+  Al72  1  0.31968515  0.56856701  0.67977568  1
  Al0+  Al73  1  0.93016424  0.82109761  0.98736619  1
  Al0+  Al74  1  0.81994594  0.57088380  0.34825165  1
  Al0+  Al75  1  0.57252499  0.67866294  0.98281110  1
  Al0+  Al76  1  0.67702312  0.92843846  0.34728807  1
  Al0+  Al77  1  0.18128366  0.42923107  0.01131971  1
  Al0+  Al78  1  0.18042643  0.92869764  0.34739757  1
  Al0+  Al79  1  0.43001329  0.32121560  0.65186075  1
  Al0+  Al80  1  0.82132332  0.07268770  0.34663223  1
  Al0+  Al81  1  0.42708427  0.82009455  0.98664309  1
  Al0+  Al82  1  0.42702932  0.82034069  0.65148264  1
  Al0+  Al83  1  0.06905118  0.17868448  0.31862367  1
  Al0+  Al84  1  0.17956187  0.92995183  0.68170442  1
  Al0+  Al85  1  0.07234815  0.17837647  0.98348729  1
  Al0+  Al86  1  0.57349103  0.17749401  0.98657055  1
  Al0+  Al87  1  0.93029491  0.32368114  0.98623821  1
  Al0+  Al88  1  0.42884471  0.32105758  0.98643736  1
  Al0+  Al89  1  0.32238320  0.06976054  0.01477112  1
  Al0+  Al90  1  0.67771133  0.42708045  0.01712578  1
  Al0+  Al91  1  0.57145878  0.68135434  0.31912859  1
  Al0+  Al92  1  0.18001816  0.42765522  0.34776689  1
  Al0+  Al93  1  0.17693175  0.92805072  0.01603667  1
  Al0+  Al94  1  0.81972874  0.57207324  0.01419149  1
  Al0+  Al95  1  0.68110779  0.43040570  0.68079880  1
  Si0+  Si96  1  0.57511218  0.17825032  0.64676419  1
  Si0+  Si97  1  0.81998833  0.06981530  0.68347200  1
  Si0+  Si98  1  0.67982423  0.92962492  0.01093160  1
  Si0+  Si99  1  0.82399917  0.57435722  0.68491362  1
  Si0+  Si100  1  0.92673665  0.32439838  0.31856715  1
  Si0+  Si101  1  0.07255702  0.67662156  0.98458472  1
  Si0+  Si102  1  0.32419726  0.57353223  0.01896103  1
  Si0+  Si103  1  0.17715381  0.42480111  0.68187613  1
  Si0+  Si104  1  0.92861453  0.82257473  0.64810998  1
  Si0+  Si105  1  0.06891883  0.17865552  0.64980255  1
  Si0+  Si106  1  0.07217535  0.67659925  0.32006641  1
  Si0+  Si107  1  0.67477143  0.42839703  0.34999307  1
  Si0+  Si108  1  0.57165210  0.17862011  0.32038957  1
  Si0+  Si109  1  0.82169682  0.07125369  0.01274826  1
  Si0+  Si110  1  0.92822144  0.32129839  0.65022186  1
  Si0+  Si111  1  0.32248932  0.57090486  0.34855406  1
  Si0+  Si112  1  0.32225706  0.07305936  0.35280434  1
  Si0+  Si113  1  0.57199783  0.67924202  0.64921717  1
  Si0+  Si114  1  0.93116925  0.81896114  0.32107581  1
  Si0+  Si115  1  0.67766286  0.92911401  0.68226812  1
  Si0+  Si116  1  0.32352036  0.07295264  0.68289633  1
  Si0+  Si117  1  0.06986634  0.67867604  0.65105495  1
  Si0+  Si118  1  0.42929146  0.32045963  0.31869235  1
  Si0+  Si119  1  0.42561566  0.82376090  0.31701173  1
  O2-  O120  1  0.24937544  -0.00073510  0.06577653  1
  O2-  O121  1  0.25732189  0.00015712  0.39598291  1
  O2-  O122  1  0.25774421  0.00136230  0.72613119  1
  O2-  O123  1  0.25738416  0.50153037  0.06110888  1
  O2-  O124  1  0.25447766  0.50228350  0.39439468  1
  O2-  O125  1  0.24743114  0.49096427  0.72578707  1
  O2-  O126  1  0.74886522  0.00197375  0.05405458  1
  O2-  O127  1  0.74653727  0.00351343  0.39766726  1
  O2-  O128  1  0.74685526  0.00122681  0.72575892  1
  O2-  O129  1  0.74879886  0.50051617  0.06627330  1
  O2-  O130  1  0.74504025  0.49584104  0.39401189  1
  O2-  O131  1  0.75543389  0.50569207  0.72680713  1
  O2-  O132  1  -0.00668172  0.25386839  0.27490088  1
  O2-  O133  1  0.00247716  0.25418127  0.60706106  1
  O2-  O134  1  0.00315591  0.25363094  0.93364910  1
  O2-  O135  1  0.00134591  0.74774059  0.27803762  1
  O2-  O136  1  -0.00170998  0.74942265  0.60748487  1
  O2-  O137  1  0.00737538  0.74900817  0.94027578  1
  O2-  O138  1  0.50180107  0.25021223  0.27848984  1
  O2-  O139  1  0.50518324  0.24672569  0.60358014  1
  O2-  O140  1  0.50439006  0.25229089  0.93679574  1
  O2-  O141  1  0.49949621  0.76000943  0.27456661  1
  O2-  O142  1  0.50421078  0.74837825  0.60369899  1
  O2-  O143  1  0.49419710  0.74465484  0.93436102  1
  O2-  O144  1  0.06880081  0.17711852  0.09716278  1
  O2-  O145  1  0.06778784  0.17973592  0.43277951  1
  O2-  O146  1  0.06790329  0.17840578  0.75421725  1
  O2-  O147  1  0.07041777  0.67489278  0.09038827  1
  O2-  O148  1  0.07165067  0.67816574  0.42570581  1
  O2-  O149  1  0.06831563  0.67698666  0.75564283  1
  O2-  O150  1  0.57328665  0.17583396  0.10087577  1
  O2-  O151  1  0.57077928  0.17908459  0.42571866  1
  O2-  O152  1  0.57826127  0.17720243  0.75155489  1
  O2-  O153  1  0.57505304  0.68448431  0.09670323  1
  O2-  O154  1  0.56833518  0.67999498  0.43280496  1
  O2-  O155  1  0.57229320  0.68134041  0.75412186  1
  O2-  O156  1  0.17989705  0.42701875  0.23505121  1
  O2-  O157  1  0.17681311  0.42697805  0.57593286  1
  O2-  O158  1  0.18188611  0.43286493  0.89786138  1
  O2-  O159  1  0.17842862  0.92886701  0.23542278  1
  O2-  O160  1  0.17801796  0.93165143  0.56810906  1
  O2-  O161  1  0.17740089  0.93030533  0.90224951  1
  O2-  O162  1  0.67421810  0.42569207  0.24542887  1
  O2-  O163  1  0.68296711  0.43263525  0.56685068  1
  O2-  O164  1  0.68037624  0.42722776  0.90325271  1
  O2-  O165  1  0.68021432  0.92851190  0.23356738  1
  O2-  O166  1  0.68042108  0.92940123  0.57717127  1
  O2-  O167  1  0.68185721  0.93103190  0.90533391  1
  O2-  O168  1  0.42814412  0.31666702  0.10067587  1
  O2-  O169  1  0.43040313  0.32146539  0.42427876  1
  O2-  O170  1  0.42931744  0.31991705  0.76371845  1
  O2-  O171  1  0.43105428  0.82072502  0.10052318  1
  O2-  O172  1  0.42369441  0.81969440  0.42298936  1
  O2-  O173  1  0.42736803  0.81929843  0.76385893  1
  O2-  O174  1  0.93122433  0.32162898  0.10000599  1
  O2-  O175  1  0.92874964  0.32321174  0.42511490  1
  O2-  O176  1  0.92779753  0.32030711  0.75468362  1
  O2-  O177  1  0.92795769  0.82184653  0.10089059  1
  O2-  O178  1  0.93281584  0.81776268  0.42680181  1
  O2-  O179  1  0.92731636  0.82410638  0.75283322  1
  O2-  O180  1  0.32409929  0.07488747  0.24792279  1
  O2-  O181  1  0.32038906  0.07461227  0.57688390  1
  O2-  O182  1  0.32172715  0.06915955  0.90083268  1
  O2-  O183  1  0.32128128  0.57096849  0.24360316  1
  O2-  O184  1  0.31726111  0.56778861  0.56609614  1
  O2-  O185  1  0.32071131  0.57526620  0.91298179  1
  O2-  O186  1  0.82138166  0.07010428  0.23325242  1
  O2-  O187  1  0.82086575  0.06869975  0.57834982  1
  O2-  O188  1  0.82163484  0.06871708  0.90704085  1
  O2-  O189  1  0.82154396  0.57299949  0.23619157  1
  O2-  O190  1  0.82481011  0.57405000  0.57899185  1
  O2-  O191  1  0.81884055  0.57176507  0.90030993  1
  O2-  O192  1  0.03750962  0.08169239  0.26658351  1
  O2-  O193  1  0.03413914  0.08832207  0.60261033  1
  O2-  O194  1  0.03842598  0.08330809  0.92740381  1
  O2-  O195  1  0.04347116  0.58386807  0.27579225  1
  O2-  O196  1  0.04294553  0.58639725  0.60161067  1
  O2-  O197  1  0.04364408  0.58613005  0.93435566  1
  O2-  O198  1  0.54441342  0.08616410  0.27398567  1
  O2-  O199  1  0.54996564  0.08479627  0.59928312  1
  O2-  O200  1  0.54414303  0.08072478  0.93089090  1
  O2-  O201  1  0.53998907  0.58606330  0.26303156  1
  O2-  O202  1  0.54583133  0.58561222  0.60390359  1
  O2-  O203  1  0.54960522  0.57819207  0.93372737  1
  O2-  O204  1  0.16642108  0.20921058  0.26695452  1
  O2-  O205  1  0.16174902  0.20050853  0.60100011  1
  O2-  O206  1  0.17051793  0.20492778  0.93063700  1
  O2-  O207  1  0.16428489  0.70206094  0.27284619  1
  O2-  O208  1  0.16082302  0.70699492  0.60263847  1
  O2-  O209  1  0.16721416  0.69859556  0.93964396  1
  O2-  O210  1  0.66492716  0.20423678  0.27497459  1
  O2-  O211  1  0.66873726  0.20565534  0.60014575  1
  O2-  O212  1  0.67207105  0.20195436  0.93221611  1
  O2-  O213  1  0.66952313  0.71161948  0.26819513  1
  O2-  O214  1  0.66688295  0.70554991  0.60390702  1
  O2-  O215  1  0.66693337  0.71228051  0.92579274  1
  O2-  O216  1  0.08603304  0.46196185  0.06682372  1
  O2-  O217  1  0.08505301  0.45825928  0.40541679  1
  O2-  O218  1  0.08301025  0.45219205  0.72584200  1
  O2-  O219  1  0.07730018  0.95855036  0.06575006  1
  O2-  O220  1  0.08516139  0.96123948  0.40369135  1
  O2-  O221  1  0.08220574  0.96260025  0.73317422  1
  O2-  O222  1  0.57835172  0.45250885  0.06926894  1
  O2-  O223  1  0.58148830  0.45837632  0.39537124  1
  O2-  O224  1  0.58449832  0.45905252  0.73387574  1
  O2-  O225  1  0.58824657  0.95433851  0.05883224  1
  O2-  O226  1  0.57814400  0.95484932  0.40131266  1
  O2-  O227  1  0.58443400  0.95570044  0.72677654  1
  O2-  O228  1  0.21023817  0.33217399  0.06504656  1
  O2-  O229  1  0.21147450  0.33173675  0.40309500  1
  O2-  O230  1  0.19977678  0.32897755  0.72340105  1
  O2-  O231  1  0.20030752  0.82826778  0.06881046  1
  O2-  O232  1  0.20839894  0.83040687  0.40174225  1
  O2-  O233  1  0.20400649  0.83153149  0.73346793  1
  O2-  O234  1  0.70795756  0.32803088  0.06849633  1
  O2-  O235  1  0.69784646  0.33533869  0.39942915  1
  O2-  O236  1  0.71210755  0.33288289  0.73232012  1
  O2-  O237  1  0.71165009  0.83888374  0.05671475  1
  O2-  O238  1  0.71013029  0.83388485  0.40525338  1
  O2-  O239  1  0.70851529  0.83788142  0.72879233  1
  O2-  O240  1  0.45357752  0.41231741  0.27083071  1
  O2-  O241  1  0.46222023  0.41780034  0.59691423  1
  O2-  O242  1  0.45181585  0.42104728  0.93559115  1
  O2-  O243  1  0.44497069  0.92084680  0.27640145  1
  O2-  O244  1  0.45521806  0.91785156  0.59645660  1
  O2-  O245  1  0.45965660  0.91550865  0.93076998  1
  O2-  O246  1  0.95442056  0.41841515  0.27582333  1
  O2-  O247  1  0.95134489  0.41542552  0.60372355  1
  O2-  O248  1  0.95725373  0.42212550  0.93249790  1
  O2-  O249  1  0.95892669  0.91104986  0.27530967  1
  O2-  O250  1  0.95809377  0.91419435  0.60085096  1
  O2-  O251  1  0.95850170  0.91580298  0.92800224  1
  O2-  O252  1  0.33768226  0.28970961  0.27385224  1
  O2-  O253  1  0.33341278  0.28985842  0.59515339  1
  O2-  O254  1  0.33287879  0.29010215  0.93037699  1
  O2-  O255  1  0.33390880  0.79333467  0.26993566  1
  O2-  O256  1  0.33016601  0.78586537  0.59906603  1
  O2-  O257  1  0.32656995  0.79495054  0.93631897  1
  O2-  O258  1  0.83069811  0.30331058  0.27609598  1
  O2-  O259  1  0.83810898  0.28941940  0.60129823  1
  O2-  O260  1  0.83419337  0.29109655  0.93115809  1
  O2-  O261  1  0.83836367  0.79213507  0.27639312  1
  O2-  O262  1  0.83624826  0.79570642  0.60004706  1
  O2-  O263  1  0.83693784  0.78898994  0.92728459  1
  O2-  O264  1  0.42083927  0.03969037  0.06804633  1
  O2-  O265  1  0.41654827  0.05369869  0.40090681  1
  O2-  O266  1  0.42001083  0.05226913  0.72392524  1
  O2-  O267  1  0.41894409  0.55161321  0.06278675  1
  O2-  O268  1  0.41615864  0.54433163  0.39464903  1
  O2-  O269  1  0.41667819  0.54187982  0.73337137  1
  O2-  O270  1  0.91223772  0.03981976  0.05921860  1
  O2-  O271  1  0.91636447  0.03911687  0.40389046  1
  O2-  O272  1  0.91004772  0.03832089  0.73148848  1
  O2-  O273  1  0.91903579  0.54738369  0.06695300  1
  O2-  O274  1  0.91510427  0.54119270  0.40726795  1
  O2-  O275  1  0.91843824  0.54900989  0.72925792  1
  O2-  O276  1  0.29571997  0.16804949  0.06806453  1
  O2-  O277  1  0.29090652  0.16428576  0.40103692  1
  O2-  O278  1  0.29333566  0.16578548  0.72793886  1
  O2-  O279  1  0.29583378  0.66508205  0.06742336  1
  O2-  O280  1  0.29635339  0.66397117  0.39604930  1
  O2-  O281  1  0.28402654  0.66222276  0.73583511  1
  O2-  O282  1  0.79752762  0.16296590  0.06054883  1
  O2-  O283  1  0.79526525  0.17142549  0.40230700  1
  O2-  O284  1  0.79526609  0.16256912  0.72973800  1
  O2-  O285  1  0.79010420  0.67188400  0.06472654  1
  O2-  O286  1  0.78933286  0.66584747  0.40619913  1
  O2-  O287  1  0.80042823  0.66995810  0.72775954  1
