# generated using pymatgen
data_Ca2Al2SiO7
_symmetry_space_group_name_H-M   'P 1'
_cell_length_a   15.48025514
_cell_length_b   15.47454308
_cell_length_c   15.29818272
_cell_angle_alpha   90.00573801
_cell_angle_beta   90.00868801
_cell_angle_gamma   90.00061434
_symmetry_Int_Tables_number   1
_chemical_formula_structural   Ca2Al2SiO7
_chemical_formula_sum   'Ca48 Al48 Si24 O168'
_cell_volume   3664.67769905
_cell_formula_units_Z   24
loop_
 _symmetry_equiv_pos_site_id
 _symmetry_equiv_pos_as_xyz
  1  'x, y, z'
loop_
 _atom_type_symbol
 _atom_type_oxidation_number
  Ca2+  2.0
  Al0+  0.0
  Si0+  0.0
  O2-  -2.0
loop_
 _atom_site_type_symbol
 _atom_site_label
 _atom_site_symmetry_multiplicity
 _atom_site_fract_x
 _atom_site_fract_y
 _atom_site_fract_z
 _atom_site_occupancy
  Ca2+  Ca0  1  0.17483419  0.07560277  0.16753063  1
  Ca2+  Ca1  1  0.16684900  0.07567146  0.50134308  1
  Ca2+  Ca2  1  0.16463016  0.07729579  0.84043967  1
  Ca2+  Ca3  1  0.17851751  0.58133281  0.17217995  1
  Ca2+  Ca4  1  0.17980601  0.58308405  0.50276917  1
  Ca2+  Ca5  1  0.17742123  0.57247173  0.83921311  1
  Ca2+  Ca6  1  0.66328826  0.07372292  0.17563846  1
  Ca2+  Ca7  1  0.66239544  0.07831051  0.49581482  1
  Ca2+  Ca8  1  0.67132296  0.07757128  0.84262594  1
  Ca2+  Ca9  1  0.66564776  0.58506532  0.17443029  1
  Ca2+  Ca10  1  0.66342895  0.58850907  0.50333319  1
  Ca2+  Ca11  1  0.66598126  0.58945076  0.83514702  1
  Ca2+  Ca12  1  0.08377246  0.32963151  0.15848757  1
  Ca2+  Ca13  1  0.08587762  0.33079352  0.49599071  1
  Ca2+  Ca14  1  0.10003580  0.32314709  0.83115341  1
  Ca2+  Ca15  1  0.09327658  0.83213020  0.16565843  1
  Ca2+  Ca16  1  0.08377199  0.83228690  0.48747779  1
  Ca2+  Ca17  1  0.08629939  0.83937814  0.82903083  1
  Ca2+  Ca18  1  0.56970142  0.32420869  0.16875979  1
  Ca2+  Ca19  1  0.57552304  0.32524139  0.48798405  1
  Ca2+  Ca20  1  0.57377634  0.33353674  0.83327242  1
  Ca2+  Ca21  1  0.57037281  0.83920749  0.16634541  1
  Ca2+  Ca22  1  0.57566569  0.82313147  0.48922930  1
  Ca2+  Ca23  1  0.57330593  0.83312286  0.83294805  1
  Ca2+  Ca24  1  0.34093081  0.42457699  0.16949960  1
  Ca2+  Ca25  1  0.33714166  0.42757418  0.50284729  1
  Ca2+  Ca26  1  0.32945294  0.42577105  0.84084056  1
  Ca2+  Ca27  1  0.33227482  0.92244064  0.17637055  1
  Ca2+  Ca28  1  0.32633344  0.91629387  0.49667792  1
  Ca2+  Ca29  1  0.32242845  0.92156792  0.84458178  1
  Ca2+  Ca30  1  0.83318786  0.41486317  0.17485955  1
  Ca2+  Ca31  1  0.83336887  0.41389585  0.49919922  1
  Ca2+  Ca32  1  0.82819673  0.41787431  0.83768031  1
  Ca2+  Ca33  1  0.82015918  0.90792689  0.17325060  1
  Ca2+  Ca34  1  0.82642099  0.90549701  0.49671505  1
  Ca2+  Ca35  1  0.82479825  0.91750930  0.84137834  1
  Ca2+  Ca36  1  0.40360740  0.17305426  0.16202028  1
  Ca2+  Ca37  1  0.41723142  0.17268380  0.48686706  1
  Ca2+  Ca38  1  0.40105178  0.17391870  0.83741814  1
  Ca2+  Ca39  1  0.40789933  0.67848558  0.16605344  1
  Ca2+  Ca40  1  0.42083588  0.66608214  0.49033017  1
  Ca2+  Ca41  1  0.41079558  0.67014863  0.83206082  1
  Ca2+  Ca42  1  0.92422045  0.16927684  0.16387727  1
  Ca2+  Ca43  1  0.92512168  0.17245317  0.49392615  1
  Ca2+  Ca44  1  0.93273506  0.16485341  0.82955590  1
  Ca2+  Ca45  1  0.92631506  0.67212257  0.17213429  1
  Ca2+  Ca46  1  0.92986968  0.67219727  0.48851010  1
  Ca2+  Ca47  1  0.92156711  0.66920658  0.83109170  1
  Al0+  Al48  1  -0.00170909  0.00103207  -0.00041691  1
  Al0+  Al49  1  -0.00424315  0.00139446  0.33196040  1
  Al0+  Al50  1  -0.00247970  0.00303354  0.66399307  1
  Al0+  Al51  1  -0.00239574  0.50152757  0.00109645  1
  Al0+  Al52  1  -0.00070319  0.50058209  0.32665384  1
  Al0+  Al53  1  -0.00235800  0.50088736  0.67101248  1
  Al0+  Al54  1  0.50082822  -0.00069533  -0.00009561  1
  Al0+  Al55  1  0.50261178  -0.00239079  0.34000157  1
  Al0+  Al56  1  0.50051951  0.00033417  0.66745309  1
  Al0+  Al57  1  0.50316510  0.49879590  -0.00081144  1
  Al0+  Al58  1  0.50208724  0.49607127  0.33155264  1
  Al0+  Al59  1  0.50228234  0.50030719  0.66828288  1
  Al0+  Al60  1  0.24762492  0.24976767  -0.00347548  1
  Al0+  Al61  1  0.24854657  0.25022539  0.33220541  1
  Al0+  Al62  1  0.24988441  0.24957609  0.65957434  1
  Al0+  Al63  1  0.24940710  0.74709984  -0.00247220  1
  Al0+  Al64  1  0.25161267  0.74730132  0.33512013  1
  Al0+  Al65  1  0.24909413  0.75194543  0.67330633  1
  Al0+  Al66  1  0.75062156  0.25111067  -0.00074838  1
  Al0+  Al67  1  0.74988200  0.24998025  0.32716840  1
  Al0+  Al68  1  0.75044052  0.25045616  0.66900728  1
  Al0+  Al69  1  0.75155520  0.74986760  0.00261401  1
  Al0+  Al70  1  0.75325063  0.74775183  0.33285677  1
  Al0+  Al71  1  0.74863016  0.74978758  0.66616135  1
  Al0+  Al72  1  0.57044280  0.17681532  0.31997291  1
  Al0+  Al73  1  0.07103934  0.18005297  0.65006407  1
  Al0+  Al74  1  0.93068472  0.32038066  0.32026466  1
  Al0+  Al75  1  0.42727078  0.82176116  0.98546939  1
  Al0+  Al76  1  0.42624561  0.31887745  0.31865742  1
  Al0+  Al77  1  0.07397314  0.68011576  0.31867126  1
  Al0+  Al78  1  0.32167427  0.07280027  0.34903032  1
  Al0+  Al79  1  0.67969605  0.92933508  0.01366651  1
  Al0+  Al80  1  0.32365514  0.56957602  0.01688314  1
  Al0+  Al81  1  0.17808466  0.42858569  0.67957591  1
  Al0+  Al82  1  0.57221957  0.67648132  0.31886931  1
  Al0+  Al83  1  0.56970074  0.68075022  0.65422100  1
  Al0+  Al84  1  0.17659387  0.92770985  0.01409320  1
  Al0+  Al85  1  0.17791032  0.92904277  0.34720761  1
  Al0+  Al86  1  0.42949026  0.81941505  0.32042030  1
  Al0+  Al87  1  0.42983819  0.32076994  0.98451894  1
  Al0+  Al88  1  0.92971821  0.82291897  0.31836300  1
  Al0+  Al89  1  0.68026534  0.92678770  0.34950493  1
  Al0+  Al90  1  0.06883807  0.18050100  0.98569561  1
  Al0+  Al91  1  0.17833657  0.42857145  0.01527903  1
  Al0+  Al92  1  0.17688901  0.93172143  0.67922804  1
  Al0+  Al93  1  0.32051997  0.07040377  0.01286152  1
  Al0+  Al94  1  0.32288769  0.56817885  0.34701673  1
  Al0+  Al95  1  0.32426555  0.57145291  0.68235369  1
  Si0+  Si96  1  0.07012112  0.67906325  0.65461584  1
  Si0+  Si97  1  0.57368318  0.17759861  0.98235169  1
  Si0+  Si98  1  0.42609976  0.82362647  0.65055002  1
  Si0+  Si99  1  0.82031647  0.57144072  0.01708728  1
  Si0+  Si100  1  0.82239211  0.56947978  0.34995880  1
  Si0+  Si101  1  0.81978529  0.57285708  0.68235027  1
  Si0+  Si102  1  0.07057574  0.67782413  0.98219960  1
  Si0+  Si103  1  0.32368398  0.07220659  0.68183242  1
  Si0+  Si104  1  0.57413595  0.67962272  0.98411575  1
  Si0+  Si105  1  0.92636118  0.32466557  0.98068882  1
  Si0+  Si106  1  0.92540794  0.32321744  0.65114181  1
  Si0+  Si107  1  0.82141483  0.07298640  0.01687574  1
  Si0+  Si108  1  0.81914970  0.07297266  0.68207613  1
  Si0+  Si109  1  0.68015327  0.42799982  0.68208886  1
  Si0+  Si110  1  0.68145724  0.42814624  0.34879459  1
  Si0+  Si111  1  0.43096115  0.31986497  0.65209532  1
  Si0+  Si112  1  0.68015950  0.92803907  0.68266404  1
  Si0+  Si113  1  0.92836714  0.82132809  0.65338798  1
  Si0+  Si114  1  0.81981645  0.07513968  0.35106322  1
  Si0+  Si115  1  0.92852135  0.81931534  0.98402867  1
  Si0+  Si116  1  0.07244392  0.17674870  0.31465421  1
  Si0+  Si117  1  0.17464533  0.42884215  0.34816459  1
  Si0+  Si118  1  0.68020806  0.42743561  0.01694360  1
  Si0+  Si119  1  0.57477129  0.17895388  0.65307266  1
  O2-  O120  1  0.25424239  -0.00649593  0.06274040  1
  O2-  O121  1  0.24832298  0.00175966  0.39899494  1
  O2-  O122  1  0.25456553  0.00364382  0.72492775  1
  O2-  O123  1  0.25217515  0.49692257  0.06657624  1
  O2-  O124  1  0.24720697  0.49320184  0.39241297  1
  O2-  O125  1  0.25103466  0.49924394  0.72990701  1
  O2-  O126  1  0.75027431  0.00770774  0.06043958  1
  O2-  O127  1  0.75533966  0.00251528  0.39626402  1
  O2-  O128  1  0.74871906  0.00152091  0.72486069  1
  O2-  O129  1  0.75110194  0.49873269  0.05828602  1
  O2-  O130  1  0.74973473  0.50081370  0.39321104  1
  O2-  O131  1  0.74940174  0.50105361  0.72449004  1
  O2-  O132  1  0.00609565  0.24879039  0.27223531  1
  O2-  O133  1  -0.00111912  0.26007178  0.60766071  1
  O2-  O134  1  -0.00332383  0.25845699  0.93678864  1
  O2-  O135  1  0.00880635  0.75915350  0.26835951  1
  O2-  O136  1  0.00384046  0.75493572  0.61259456  1
  O2-  O137  1  0.00336118  0.75363516  0.94000615  1
  O2-  O138  1  0.49017311  0.23858772  0.26976736  1
  O2-  O139  1  0.50000356  0.24584160  0.61194497  1
  O2-  O140  1  0.50263835  0.24328084  0.93665947  1
  O2-  O141  1  0.50115033  0.74772231  0.26830066  1
  O2-  O142  1  0.49165263  0.75090427  0.60821527  1
  O2-  O143  1  0.50210944  0.74468299  0.94028605  1
  O2-  O144  1  0.06351601  0.18033526  0.09813427  1
  O2-  O145  1  0.07006272  0.17728647  0.42064384  1
  O2-  O146  1  0.06787240  0.17783963  0.76290633  1
  O2-  O147  1  0.06734528  0.67531247  0.08658962  1
  O2-  O148  1  0.07029954  0.67703761  0.43313178  1
  O2-  O149  1  0.06475063  0.67814983  0.75974590  1
  O2-  O150  1  0.57947654  0.18095811  0.08685657  1
  O2-  O151  1  0.57343254  0.18349695  0.43447858  1
  O2-  O152  1  0.58057372  0.18112455  0.75785045  1
  O2-  O153  1  0.57955927  0.68114881  0.08866696  1
  O2-  O154  1  0.57059339  0.67793992  0.43300563  1
  O2-  O155  1  0.57643830  0.68545462  0.76707020  1
  O2-  O156  1  0.17137830  0.43176124  0.24311881  1
  O2-  O157  1  0.17696006  0.43136116  0.56608289  1
  O2-  O158  1  0.18008043  0.43118375  0.90137371  1
  O2-  O159  1  0.17953154  0.93063880  0.23419391  1
  O2-  O160  1  0.17400818  0.93140657  0.56685135  1
  O2-  O161  1  0.17460752  0.93250192  0.89995392  1
  O2-  O162  1  0.68489715  0.42817807  0.24385935  1
  O2-  O163  1  0.68225392  0.42509969  0.57749906  1
  O2-  O164  1  0.68190313  0.42685686  0.91112098  1
  O2-  O165  1  0.68269065  0.92648385  0.23670947  1
  O2-  O166  1  0.68250702  0.92647807  0.57825496  1
  O2-  O167  1  0.68389054  0.92935697  0.89935242  1
  O2-  O168  1  0.43314976  0.32133370  0.09660582  1
  O2-  O169  1  0.43232963  0.32225978  0.43299932  1
  O2-  O170  1  0.43249732  0.31981962  0.75729939  1
  O2-  O171  1  0.42832858  0.82362828  0.09767332  1
  O2-  O172  1  0.42975420  0.81756219  0.43447750  1
  O2-  O173  1  0.42962183  0.82637377  0.75618248  1
  O2-  O174  1  0.92346723  0.32370546  0.08591635  1
  O2-  O175  1  0.93013520  0.31961503  0.43387470  1
  O2-  O176  1  0.91753457  0.32016674  0.75604700  1
  O2-  O177  1  0.92434105  0.81552183  0.08795155  1
  O2-  O178  1  0.92807590  0.81634316  0.43277843  1
  O2-  O179  1  0.92516876  0.81909742  0.75889910  1
  O2-  O180  1  0.31913257  0.07317434  0.23591489  1
  O2-  O181  1  0.32621565  0.07165466  0.57676435  1
  O2-  O182  1  0.31654594  0.07013666  0.89845594  1
  O2-  O183  1  0.32337338  0.56786281  0.23462203  1
  O2-  O184  1  0.32582056  0.56953521  0.56880471  1
  O2-  O185  1  0.32182946  0.56935492  0.90291998  1
  O2-  O186  1  0.81665595  0.07867472  0.24580873  1
  O2-  O187  1  0.81743143  0.07618459  0.57774167  1
  O2-  O188  1  0.82056166  0.07105331  0.91038901  1
  O2-  O189  1  0.82240521  0.56736826  0.24485190  1
  O2-  O190  1  0.82061127  0.57392794  0.57791431  1
  O2-  O191  1  0.81916068  0.57252897  0.91121191  1
  O2-  O192  1  0.04167020  0.08557438  0.26810621  1
  O2-  O193  1  0.03206278  0.08647054  0.59497261  1
  O2-  O194  1  0.03264118  0.08490981  0.93015844  1
  O2-  O195  1  0.03451326  0.58680508  0.26319353  1
  O2-  O196  1  0.03603979  0.58933517  0.60720922  1
  O2-  O197  1  0.03371814  0.58893211  0.93351368  1
  O2-  O198  1  0.55672381  0.07369699  0.27539346  1
  O2-  O199  1  0.55159223  0.08481143  0.60822690  1
  O2-  O200  1  0.55350350  0.08293654  0.93654461  1
  O2-  O201  1  0.55000768  0.57631213  0.26840657  1
  O2-  O202  1  0.54823103  0.58037418  0.60302855  1
  O2-  O203  1  0.55473710  0.58377030  0.93935745  1
  O2-  O204  1  0.16590571  0.20022735  0.26954471  1
  O2-  O205  1  0.16737157  0.20667818  0.59378449  1
  O2-  O206  1  0.16439880  0.20835808  0.92826593  1
  O2-  O207  1  0.17283140  0.70130749  0.26608762  1
  O2-  O208  1  0.16409744  0.70225509  0.61062202  1
  O2-  O209  1  0.16237277  0.69996676  0.93311714  1
  O2-  O210  1  0.66385179  0.21478496  0.26387390  1
  O2-  O211  1  0.66462405  0.21086835  0.60434502  1
  O2-  O212  1  0.66655866  0.20798757  0.93421230  1
  O2-  O213  1  0.67267672  0.70088302  0.26980992  1
  O2-  O214  1  0.66639449  0.71258338  0.59951848  1
  O2-  O215  1  0.66704695  0.70906260  0.93599511  1
  O2-  O216  1  0.07788314  0.45675251  0.06423008  1
  O2-  O217  1  0.08192536  0.45789519  0.39486889  1
  O2-  O218  1  0.07840602  0.45415935  0.73284706  1
  O2-  O219  1  0.07828999  0.95816925  0.06550784  1
  O2-  O220  1  0.07636959  0.95547442  0.39681372  1
  O2-  O221  1  0.07890738  0.96306375  0.73182308  1
  O2-  O222  1  0.58940118  0.45483307  0.06398687  1
  O2-  O223  1  0.59000959  0.45276662  0.39764433  1
  O2-  O224  1  0.58949655  0.45489467  0.73147201  1
  O2-  O225  1  0.58292230  0.95648611  0.06628177  1
  O2-  O226  1  0.58602451  0.95519872  0.40898313  1
  O2-  O227  1  0.58748018  0.95466902  0.72898836  1
  O2-  O228  1  0.20049939  0.32807434  0.06374259  1
  O2-  O229  1  0.19483851  0.33314382  0.39162511  1
  O2-  O230  1  0.20755094  0.32842431  0.72817096  1
  O2-  O231  1  0.19686481  0.82533284  0.05896856  1
  O2-  O232  1  0.20614011  0.83014449  0.39983815  1
  O2-  O233  1  0.20222664  0.83451086  0.73484375  1
  O2-  O234  1  0.70970400  0.33632396  0.06409492  1
  O2-  O235  1  0.71370503  0.33771105  0.39680377  1
  O2-  O236  1  0.71069946  0.33821902  0.73291522  1
  O2-  O237  1  0.71720242  0.83503597  0.06643327  1
  O2-  O238  1  0.71668118  0.83075121  0.40346836  1
  O2-  O239  1  0.71269482  0.83822451  0.73137113  1
  O2-  O240  1  0.46660423  0.41198885  0.26441811  1
  O2-  O241  1  0.46360276  0.41064456  0.60614337  1
  O2-  O242  1  0.46741571  0.41538404  0.92894626  1
  O2-  O243  1  0.46020817  0.91799684  0.27068856  1
  O2-  O244  1  0.45641954  0.91608481  0.60453458  1
  O2-  O245  1  0.46138926  0.91717578  0.92941269  1
  O2-  O246  1  0.95549912  0.41691027  0.26414119  1
  O2-  O247  1  0.94410521  0.41992783  0.60858165  1
  O2-  O248  1  0.94640360  0.42050875  0.93638479  1
  O2-  O249  1  0.94095082  0.92536507  0.26903078  1
  O2-  O250  1  0.94818339  0.91490918  0.60739401  1
  O2-  O251  1  0.95018524  0.91320583  0.93750441  1
  O2-  O252  1  0.32559623  0.30067293  0.26686767  1
  O2-  O253  1  0.33984179  0.29571924  0.60285903  1
  O2-  O254  1  0.33332903  0.29085227  0.92967006  1
  O2-  O255  1  0.33204428  0.79100210  0.26761521  1
  O2-  O256  1  0.33029500  0.80204423  0.60821800  1
  O2-  O257  1  0.33124232  0.79008855  0.92936584  1
  O2-  O258  1  0.83555596  0.28910033  0.26411148  1
  O2-  O259  1  0.83379503  0.29224488  0.60268605  1
  O2-  O260  1  0.83290001  0.29722166  0.93374139  1
  O2-  O261  1  0.83638415  0.78265462  0.26372659  1
  O2-  O262  1  0.83864891  0.78763053  0.60571078  1
  O2-  O263  1  0.83919250  0.78509225  0.93346804  1
  O2-  O264  1  0.42249817  0.05234414  0.06078493  1
  O2-  O265  1  0.42032077  0.04591726  0.40265965  1
  O2-  O266  1  0.41815931  0.04984365  0.72907918  1
  O2-  O267  1  0.42397473  0.54265871  0.06551060  1
  O2-  O268  1  0.41942932  0.53408956  0.40063323  1
  O2-  O269  1  0.42277534  0.54246658  0.73566722  1
  O2-  O270  1  0.91302009  0.04504030  0.06320037  1
  O2-  O271  1  0.91471150  0.05443479  0.39628004  1
  O2-  O272  1  0.90998807  0.04356020  0.73000996  1
  O2-  O273  1  0.91164547  0.54524095  0.06472082  1
  O2-  O274  1  0.91301170  0.53793874  0.39787765  1
  O2-  O275  1  0.90996600  0.54599514  0.73366609  1
  O2-  O276  1  0.28713756  0.16741875  0.06368475  1
  O2-  O277  1  0.29376585  0.17264752  0.40137789  1
  O2-  O278  1  0.29694047  0.16680162  0.72447730  1
  O2-  O279  1  0.29206620  0.66789929  0.06615450  1
  O2-  O280  1  0.29220661  0.66352048  0.40322368  1
  O2-  O281  1  0.29597065  0.66998698  0.73455063  1
  O2-  O282  1  0.79995920  0.16872743  0.05994242  1
  O2-  O283  1  0.78916093  0.16708555  0.39878750  1
  O2-  O284  1  0.79106459  0.16355828  0.73254329  1
  O2-  O285  1  0.79111910  0.66176748  0.06498738  1
  O2-  O286  1  0.79748710  0.66084422  0.39893628  1
  O2-  O287  1  0.78957777  0.66337032  0.73228831  1
