# generated using pymatgen
data_Ca2Al2SiO7
_symmetry_space_group_name_H-M   'P 1'
_cell_length_a   15.46238102
_cell_length_b   15.46337371
_cell_length_c   15.28712158
_cell_angle_alpha   89.99836907
_cell_angle_beta   89.98342923
_cell_angle_gamma   89.99338693
_symmetry_Int_Tables_number   1
_chemical_formula_structural   Ca2Al2SiO7
_chemical_formula_sum   'Ca48 Al48 Si24 O168'
_cell_volume   3655.15939852
_cell_formula_units_Z   24
loop_
 _symmetry_equiv_pos_site_id
 _symmetry_equiv_pos_as_xyz
  1  'x, y, z'
loop_
 _atom_type_symbol
 _atom_type_oxidation_number
  Ca2+  2.0
  Al0+  0.0
  Si0+  0.0
  O2-  -2.0
loop_
 _atom_site_type_symbol
 _atom_site_label
 _atom_site_symmetry_multiplicity
 _atom_site_fract_x
 _atom_site_fract_y
 _atom_site_fract_z
 _atom_site_occupancy
  Ca2+  Ca0  1  0.17800771  0.07098254  0.17350629  1
  Ca2+  Ca1  1  0.16972426  0.08016659  0.50124184  1
  Ca2+  Ca2  1  0.17095049  0.08288490  0.84006725  1
  Ca2+  Ca3  1  0.16953236  0.59470447  0.16832994  1
  Ca2+  Ca4  1  0.16736085  0.58672480  0.50087558  1
  Ca2+  Ca5  1  0.17259150  0.58469809  0.84082711  1
  Ca2+  Ca6  1  0.67210726  0.07536089  0.17068434  1
  Ca2+  Ca7  1  0.66291301  0.07519164  0.49866344  1
  Ca2+  Ca8  1  0.67448314  0.08003318  0.84175935  1
  Ca2+  Ca9  1  0.67369600  0.58409468  0.16968037  1
  Ca2+  Ca10  1  0.67545169  0.58619039  0.50507658  1
  Ca2+  Ca11  1  0.67152648  0.58492827  0.84017836  1
  Ca2+  Ca12  1  0.08131611  0.32998267  0.16398187  1
  Ca2+  Ca13  1  0.07931142  0.32944887  0.50088013  1
  Ca2+  Ca14  1  0.07578975  0.32594172  0.82350828  1
  Ca2+  Ca15  1  0.08172541  0.82485765  0.16178706  1
  Ca2+  Ca16  1  0.07767354  0.82927185  0.49266265  1
  Ca2+  Ca17  1  0.07225325  0.82793665  0.83440750  1
  Ca2+  Ca18  1  0.58427162  0.34005738  0.16548454  1
  Ca2+  Ca19  1  0.57454455  0.33676328  0.49299819  1
  Ca2+  Ca20  1  0.58137586  0.33550147  0.83027260  1
  Ca2+  Ca21  1  0.57716617  0.83233978  0.16125079  1
  Ca2+  Ca22  1  0.57734661  0.83122020  0.49565052  1
  Ca2+  Ca23  1  0.57488464  0.82217432  0.82929541  1
  Ca2+  Ca24  1  0.33565334  0.42598738  0.16916909  1
  Ca2+  Ca25  1  0.33664382  0.41310920  0.50433485  1
  Ca2+  Ca26  1  0.33367444  0.42123947  0.83948170  1
  Ca2+  Ca27  1  0.33720859  0.92169653  0.17695966  1
  Ca2+  Ca28  1  0.33059415  0.91085325  0.50090885  1
  Ca2+  Ca29  1  0.33650018  0.91756408  0.84079055  1
  Ca2+  Ca30  1  0.82039027  0.42805674  0.17183497  1
  Ca2+  Ca31  1  0.83293837  0.42810932  0.50535580  1
  Ca2+  Ca32  1  0.83039948  0.42747461  0.84106101  1
  Ca2+  Ca33  1  0.83119161  0.91582655  0.16806746  1
  Ca2+  Ca34  1  0.82603532  0.90802509  0.50424601  1
  Ca2+  Ca35  1  0.83876799  0.91791937  0.83968147  1
  Ca2+  Ca36  1  0.41131732  0.16796690  0.16640897  1
  Ca2+  Ca37  1  0.41200376  0.17719286  0.49282846  1
  Ca2+  Ca38  1  0.41554591  0.17203026  0.82921296  1
  Ca2+  Ca39  1  0.41993899  0.67931753  0.15474215  1
  Ca2+  Ca40  1  0.42415900  0.67537000  0.49515371  1
  Ca2+  Ca41  1  0.42765752  0.66686263  0.83096541  1
  Ca2+  Ca42  1  0.91419674  0.16570237  0.15947417  1
  Ca2+  Ca43  1  0.91981826  0.17139911  0.50013602  1
  Ca2+  Ca44  1  0.92040965  0.17117108  0.82430683  1
  Ca2+  Ca45  1  0.92335613  0.66443705  0.15948462  1
  Ca2+  Ca46  1  0.91652738  0.66534017  0.49549923  1
  Ca2+  Ca47  1  0.91020568  0.67227179  0.83067220  1
  Al0+  Al48  1  0.00195482  0.00044240  0.00164802  1
  Al0+  Al49  1  0.00189198  0.00077735  0.33603869  1
  Al0+  Al50  1  0.00128412  -0.00255304  0.65910240  1
  Al0+  Al51  1  0.00019605  0.49700666  -0.00064019  1
  Al0+  Al52  1  0.00117159  0.49935303  0.33215700  1
  Al0+  Al53  1  0.00042283  0.49919050  0.66941631  1
  Al0+  Al54  1  0.50087448  0.00364659  -0.00040371  1
  Al0+  Al55  1  0.50214007  0.00399050  0.33840915  1
  Al0+  Al56  1  0.49881959  -0.00017984  0.66646379  1
  Al0+  Al57  1  0.49637829  0.49987234  0.00366444  1
  Al0+  Al58  1  0.49982780  0.50012380  0.33166293  1
  Al0+  Al59  1  0.50096722  0.49991867  0.65913560  1
  Al0+  Al60  1  0.24985321  0.24839093  0.00431473  1
  Al0+  Al61  1  0.24981880  0.25093896  0.33091065  1
  Al0+  Al62  1  0.24996550  0.24858739  0.66136703  1
  Al0+  Al63  1  0.24718273  0.75057090  -0.00464247  1
  Al0+  Al64  1  0.24957008  0.75118345  0.33121177  1
  Al0+  Al65  1  0.24936433  0.75079233  0.66759480  1
  Al0+  Al66  1  0.74875662  0.24932061  0.00684500  1
  Al0+  Al67  1  0.74879288  0.25123004  0.33694596  1
  Al0+  Al68  1  0.74976219  0.24938277  0.66195475  1
  Al0+  Al69  1  0.74933236  0.75047278  -0.00232739  1
  Al0+  Al70  1  0.75072896  0.75156681  0.34035124  1
  Al0+  Al71  1  0.74929138  0.74920762  0.66524194  1
  Al0+  Al72  1  0.32102285  0.07232125  0.35090776  1
  Al0+  Al73  1  0.82244191  0.57022681  0.34936680  1
  Al0+  Al74  1  0.42735788  0.82221235  0.65085635  1
  Al0+  Al75  1  0.43112844  0.82197512  0.32012881  1
  Al0+  Al76  1  0.07138682  0.17765220  0.65085403  1
  Al0+  Al77  1  0.56996947  0.67676536  0.98653833  1
  Al0+  Al78  1  0.17998342  0.92712432  0.35009978  1
  Al0+  Al79  1  0.92940771  0.81920560  0.65208049  1
  Al0+  Al80  1  0.06945828  0.67882399  0.32019726  1
  Al0+  Al81  1  0.82212087  0.57372876  0.01498018  1
  Al0+  Al82  1  0.43097263  0.31936048  0.65516037  1
  Al0+  Al83  1  0.67693667  0.42945260  0.35154460  1
  Al0+  Al84  1  0.07066192  0.67512683  0.98317951  1
  Al0+  Al85  1  0.57113100  0.67893633  0.64981834  1
  Al0+  Al86  1  0.92893811  0.82152711  0.98709941  1
  Al0+  Al87  1  0.67718812  0.42897481  0.01392340  1
  Al0+  Al88  1  0.31794642  0.57198271  0.01234775  1
  Al0+  Al89  1  0.82097320  0.57063141  0.68305288  1
  Al0+  Al90  1  0.82298604  0.07021086  0.01097583  1
  Al0+  Al91  1  0.92761422  0.32274406  0.65179152  1
  Al0+  Al92  1  0.42849321  0.82510645  0.98617414  1
  Al0+  Al93  1  0.42847737  0.32192516  0.31582394  1
  Al0+  Al94  1  0.68054660  0.93018318  0.34696181  1
  Al0+  Al95  1  0.32241060  0.07102210  0.01332022  1
  Si0+  Si96  1  0.92879484  0.31994164  0.31699941  1
  Si0+  Si97  1  0.07123720  0.18035955  0.98692993  1
  Si0+  Si98  1  0.17944190  0.42848348  0.34864379  1
  Si0+  Si99  1  0.32150785  0.57076452  0.67974923  1
  Si0+  Si100  1  0.31948086  0.07148062  0.68250566  1
  Si0+  Si101  1  0.57268958  0.18020472  0.98575187  1
  Si0+  Si102  1  0.92652411  0.82346408  0.31712973  1
  Si0+  Si103  1  0.17857797  0.92886783  0.01541279  1
  Si0+  Si104  1  0.57336239  0.17953832  0.31471296  1
  Si0+  Si105  1  0.17799356  0.42559525  0.01638226  1
  Si0+  Si106  1  0.67650604  0.42688632  0.68236019  1
  Si0+  Si107  1  0.57365944  0.67920085  0.31627339  1
  Si0+  Si108  1  0.07258764  0.67708884  0.65105819  1
  Si0+  Si109  1  0.32017892  0.57173165  0.34795413  1
  Si0+  Si110  1  0.67807589  0.92951308  0.68354210  1
  Si0+  Si111  1  0.67795383  0.92886820  0.01407304  1
  Si0+  Si112  1  0.07050838  0.17848642  0.31565097  1
  Si0+  Si113  1  0.82185980  0.07000885  0.67962582  1
  Si0+  Si114  1  0.17765939  0.92795740  0.68410656  1
  Si0+  Si115  1  0.18053814  0.42711126  0.68104901  1
  Si0+  Si116  1  0.57358925  0.17602045  0.65013472  1
  Si0+  Si117  1  0.92663273  0.31854458  0.98689540  1
  Si0+  Si118  1  0.42753796  0.31953108  0.98626565  1
  Si0+  Si119  1  0.82398114  0.07359149  0.35173654  1
  O2-  O120  1  0.25483247  -0.01025338  0.05856868  1
  O2-  O121  1  0.25256029  -0.00219833  0.40229439  1
  O2-  O122  1  0.25055191  -0.00149145  0.72515655  1
  O2-  O123  1  0.24035077  0.49999169  0.06020047  1
  O2-  O124  1  0.25100143  0.49876403  0.39104073  1
  O2-  O125  1  0.25072430  0.49901870  0.72242049  1
  O2-  O126  1  0.75179565  -0.00706973  0.05753133  1
  O2-  O127  1  0.75832714  0.00206114  0.39530991  1
  O2-  O128  1  0.75021472  0.00089605  0.72410304  1
  O2-  O129  1  0.74663757  0.50400694  0.06293270  1
  O2-  O130  1  0.74831795  0.50143874  0.40135870  1
  O2-  O131  1  0.74672327  0.49330800  0.72680567  1
  O2-  O132  1  -0.00409569  0.24555445  0.27282390  1
  O2-  O133  1  -0.00144787  0.24942515  0.60134742  1
  O2-  O134  1  -0.00104617  0.24900926  0.94377725  1
  O2-  O135  1  -0.00575517  0.75355304  0.27443585  1
  O2-  O136  1  0.00182244  0.74236605  0.60606518  1
  O2-  O137  1  -0.00559302  0.74395251  0.93524930  1
  O2-  O138  1  0.50503880  0.24861621  0.27002078  1
  O2-  O139  1  0.50627699  0.24639803  0.60731684  1
  O2-  O140  1  0.50075998  0.25082297  0.94395253  1
  O2-  O141  1  0.50519453  0.74790943  0.27218701  1
  O2-  O142  1  0.49921289  0.75125218  0.60027920  1
  O2-  O143  1  0.49768610  0.74978438  0.93724969  1
  O2-  O144  1  0.07115129  0.18244669  0.09199290  1
  O2-  O145  1  0.07047759  0.18082839  0.42051146  1
  O2-  O146  1  0.07178082  0.17959879  0.76525948  1
  O2-  O147  1  0.07117575  0.67878419  0.09677471  1
  O2-  O148  1  0.06917520  0.67797587  0.43361457  1
  O2-  O149  1  0.07485995  0.67889814  0.75618199  1
  O2-  O150  1  0.57406441  0.17859473  0.09020201  1
  O2-  O151  1  0.57360742  0.18004713  0.42048321  1
  O2-  O152  1  0.57405765  0.17518317  0.75616515  1
  O2-  O153  1  0.56894972  0.67875714  0.10022788  1
  O2-  O154  1  0.57175408  0.67999040  0.42192241  1
  O2-  O155  1  0.56890031  0.67794720  0.76338781  1
  O2-  O156  1  0.17868660  0.42666470  0.24362003  1
  O2-  O157  1  0.18103792  0.42655844  0.57582606  1
  O2-  O158  1  0.18229764  0.41936061  0.91076028  1
  O2-  O159  1  0.17921970  0.92922846  0.23647564  1
  O2-  O160  1  0.17767908  0.92700943  0.57938324  1
  O2-  O161  1  0.17482063  0.93490104  0.90955488  1
  O2-  O162  1  0.67991214  0.42984435  0.23810937  1
  O2-  O163  1  0.67585830  0.42769815  0.57724511  1
  O2-  O164  1  0.68028427  0.42401441  0.90013609  1
  O2-  O165  1  0.68172451  0.93194294  0.23371740  1
  O2-  O166  1  0.67792548  0.93206602  0.57834389  1
  O2-  O167  1  0.67576850  0.93399650  0.90835405  1
  O2-  O168  1  0.42527423  0.31762337  0.09084372  1
  O2-  O169  1  0.42720273  0.31941388  0.42914826  1
  O2-  O170  1  0.42934374  0.31784712  0.76878147  1
  O2-  O171  1  0.43218048  0.82630717  0.09994529  1
  O2-  O172  1  0.43122972  0.81736852  0.43305188  1
  O2-  O173  1  0.42858005  0.82253347  0.76421154  1
  O2-  O174  1  0.92879141  0.31593325  0.09216329  1
  O2-  O175  1  0.93224490  0.31932657  0.42184518  1
  O2-  O176  1  0.92940470  0.31948459  0.76595297  1
  O2-  O177  1  0.93302760  0.82641847  0.10037591  1
  O2-  O178  1  0.92788099  0.82304648  0.42294709  1
  O2-  O179  1  0.93152391  0.82291834  0.76483993  1
  O2-  O180  1  0.31783308  0.07184795  0.23709535  1
  O2-  O181  1  0.31810745  0.07393370  0.57807233  1
  O2-  O182  1  0.31772269  0.07694509  0.89987333  1
  O2-  O183  1  0.31814686  0.57126303  0.24295623  1
  O2-  O184  1  0.31879599  0.57022363  0.57446040  1
  O2-  O185  1  0.31954977  0.56580191  0.89871543  1
  O2-  O186  1  0.82320859  0.07441049  0.24589730  1
  O2-  O187  1  0.82041733  0.06956192  0.57462421  1
  O2-  O188  1  0.82136501  0.07286941  0.89752171  1
  O2-  O189  1  0.82368710  0.56884031  0.23602456  1
  O2-  O190  1  0.82226892  0.56956814  0.57017264  1
  O2-  O191  1  0.82195499  0.56954823  0.90122822  1
  O2-  O192  1  0.04581524  0.08539114  0.26901540  1
  O2-  O193  1  0.04372590  0.08087007  0.59587870  1
  O2-  O194  1  0.04577111  0.08866882  0.93922186  1
  O2-  O195  1  0.04309026  0.58094562  0.26573138  1
  O2-  O196  1  0.05217989  0.58144013  0.60747885  1
  O2-  O197  1  0.05158710  0.57280211  0.93331957  1
  O2-  O198  1  0.54755290  0.08624898  0.26868177  1
  O2-  O199  1  0.54532487  0.08370928  0.60377425  1
  O2-  O200  1  0.54561886  0.08996451  0.93490489  1
  O2-  O201  1  0.54838395  0.58530970  0.27204913  1
  O2-  O202  1  0.54300917  0.58178509  0.59476309  1
  O2-  O203  1  0.53791105  0.57880854  0.93335209  1
  O2-  O204  1  0.15996528  0.21171313  0.26749824  1
  O2-  O205  1  0.16736552  0.20925313  0.59570215  1
  O2-  O206  1  0.16223939  0.21084499  0.93878815  1
  O2-  O207  1  0.16551916  0.71068498  0.26594273  1
  O2-  O208  1  0.16512835  0.70535867  0.60418043  1
  O2-  O209  1  0.16703685  0.70671929  0.92749963  1
  O2-  O210  1  0.66813517  0.20390005  0.26931086  1
  O2-  O211  1  0.66707690  0.19710003  0.60225564  1
  O2-  O212  1  0.66409740  0.20877187  0.93694927  1
  O2-  O213  1  0.66814832  0.70659758  0.27339378  1
  O2-  O214  1  0.66812488  0.70969018  0.59707555  1
  O2-  O215  1  0.66821915  0.70406044  0.93326060  1
  O2-  O216  1  0.08205275  0.44272217  0.06053879  1
  O2-  O217  1  0.08845217  0.45660479  0.39716424  1
  O2-  O218  1  0.08908311  0.45263615  0.73024717  1
  O2-  O219  1  0.08984482  0.96342571  0.06559451  1
  O2-  O220  1  0.08135346  0.95760517  0.40292311  1
  O2-  O221  1  0.08596881  0.95883746  0.73021906  1
  O2-  O222  1  0.57713961  0.45105006  0.06540531  1
  O2-  O223  1  0.57622364  0.45488669  0.40119793  1
  O2-  O224  1  0.58214263  0.45327879  0.72748494  1
  O2-  O225  1  0.58793169  0.96227023  0.06254359  1
  O2-  O226  1  0.58719354  0.96537202  0.40466700  1
  O2-  O227  1  0.58652297  0.95885347  0.73110344  1
  O2-  O228  1  0.20928908  0.33544123  0.06694272  1
  O2-  O229  1  0.20719059  0.33713828  0.39661808  1
  O2-  O230  1  0.20981485  0.33536482  0.72847769  1
  O2-  O231  1  0.19446817  0.83238846  0.05734340  1
  O2-  O232  1  0.20757236  0.82859966  0.40369107  1
  O2-  O233  1  0.20437489  0.83610666  0.73254696  1
  O2-  O234  1  0.70822825  0.33247390  0.07029416  1
  O2-  O235  1  0.70393104  0.32988243  0.40306306  1
  O2-  O236  1  0.69853766  0.33044861  0.72568509  1
  O2-  O237  1  0.69813626  0.83463108  0.05956122  1
  O2-  O238  1  0.70844297  0.83504768  0.40530935  1
  O2-  O239  1  0.70639173  0.83796064  0.72947303  1
  O2-  O240  1  0.45663869  0.41989971  0.26276122  1
  O2-  O241  1  0.45721151  0.41504753  0.59800496  1
  O2-  O242  1  0.45177647  0.41181496  0.93900040  1
  O2-  O243  1  0.46122809  0.92120685  0.27157353  1
  O2-  O244  1  0.45436056  0.92169978  0.59969049  1
  O2-  O245  1  0.45850474  0.92348090  0.93263534  1
  O2-  O246  1  0.96244537  0.40912158  0.26882713  1
  O2-  O247  1  0.96139985  0.41934164  0.59880628  1
  O2-  O248  1  0.95367778  0.40963834  0.93859060  1
  O2-  O249  1  0.95166897  0.91865358  0.27367778  1
  O2-  O250  1  0.96026195  0.91384820  0.59502951  1
  O2-  O251  1  0.96360626  0.91921542  0.93294907  1
  O2-  O252  1  0.33147472  0.29063423  0.26232715  1
  O2-  O253  1  0.33554074  0.28826308  0.59933109  1
  O2-  O254  1  0.33651084  0.28797653  0.93838453  1
  O2-  O255  1  0.33434757  0.79157168  0.26710791  1
  O2-  O256  1  0.32817255  0.79315601  0.60008240  1
  O2-  O257  1  0.32819855  0.80210976  0.93595528  1
  O2-  O258  1  0.83553166  0.29385709  0.27193791  1
  O2-  O259  1  0.82990676  0.29494721  0.59744997  1
  O2-  O260  1  0.83571493  0.28811867  0.94027005  1
  O2-  O261  1  0.83171574  0.80016758  0.27329889  1
  O2-  O262  1  0.83231621  0.79096533  0.59934769  1
  O2-  O263  1  0.82847512  0.80235828  0.93447477  1
  O2-  O264  1  0.42145758  0.04945424  0.06618382  1
  O2-  O265  1  0.42177719  0.05356241  0.40143841  1
  O2-  O266  1  0.41302421  0.04716293  0.72920414  1
  O2-  O267  1  0.41136362  0.53829880  0.06979368  1
  O2-  O268  1  0.41235035  0.54498056  0.39447050  1
  O2-  O269  1  0.41357459  0.54095684  0.72511911  1
  O2-  O270  1  0.91991304  0.04441428  0.06700941  1
  O2-  O271  1  0.91906605  0.05296192  0.39622879  1
  O2-  O272  1  0.91466005  0.04147718  0.72475320  1
  O2-  O273  1  0.92053875  0.54079674  0.06596585  1
  O2-  O274  1  0.92036570  0.53671015  0.40159977  1
  O2-  O275  1  0.91896859  0.54110787  0.73607829  1
  O2-  O276  1  0.28540192  0.16438496  0.07006424  1
  O2-  O277  1  0.28607633  0.17043486  0.40158237  1
  O2-  O278  1  0.28893048  0.16293540  0.73030540  1
  O2-  O279  1  0.28919657  0.66986567  0.06512564  1
  O2-  O280  1  0.28943871  0.66167836  0.39649536  1
  O2-  O281  1  0.29294160  0.66186811  0.72807015  1
  O2-  O282  1  0.78887143  0.16329389  0.06936750  1
  O2-  O283  1  0.79523267  0.16574980  0.39876185  1
  O2-  O284  1  0.79561013  0.16327234  0.72605396  1
  O2-  O285  1  0.79806990  0.67381324  0.06623856  1
  O2-  O286  1  0.79813382  0.66976673  0.40166104  1
  O2-  O287  1  0.78811692  0.66773269  0.73497124  1
