# generated using pymatgen
data_Ca2Al2SiO7
_symmetry_space_group_name_H-M   'P 1'
_cell_length_a   15.45552376
_cell_length_b   15.45529940
_cell_length_c   15.28232608
_cell_angle_alpha   89.99560996
_cell_angle_beta   89.99693821
_cell_angle_gamma   89.98700598
_symmetry_Int_Tables_number   1
_chemical_formula_structural   Ca2Al2SiO7
_chemical_formula_sum   'Ca48 Al48 Si24 O168'
_cell_volume   3650.48525739
_cell_formula_units_Z   24
loop_
 _symmetry_equiv_pos_site_id
 _symmetry_equiv_pos_as_xyz
  1  'x, y, z'
loop_
 _atom_type_symbol
 _atom_type_oxidation_number
  Ca2+  2.0
  Al0+  0.0
  Si0+  0.0
  O2-  -2.0
loop_
 _atom_site_type_symbol
 _atom_site_label
 _atom_site_symmetry_multiplicity
 _atom_site_fract_x
 _atom_site_fract_y
 _atom_site_fract_z
 _atom_site_occupancy
  Ca2+  Ca0  1  0.16940094  0.07783204  0.17694282  1
  Ca2+  Ca1  1  0.17277059  0.08025233  0.49851291  1
  Ca2+  Ca2  1  0.16631382  0.08673753  0.83858394  1
  Ca2+  Ca3  1  0.16212900  0.57912893  0.16703367  1
  Ca2+  Ca4  1  0.17856128  0.57601479  0.51160329  1
  Ca2+  Ca5  1  0.16463532  0.57082167  0.83685002  1
  Ca2+  Ca6  1  0.66940306  0.08793779  0.17425785  1
  Ca2+  Ca7  1  0.67015363  0.08503771  0.50735100  1
  Ca2+  Ca8  1  0.66783718  0.08503280  0.83226491  1
  Ca2+  Ca9  1  0.67167384  0.58475818  0.16991396  1
  Ca2+  Ca10  1  0.66666617  0.58452223  0.50959300  1
  Ca2+  Ca11  1  0.67723965  0.58815266  0.83399370  1
  Ca2+  Ca12  1  0.08077948  0.32797290  0.16130431  1
  Ca2+  Ca13  1  0.07225672  0.34043770  0.49945262  1
  Ca2+  Ca14  1  0.08499737  0.33416825  0.82968776  1
  Ca2+  Ca15  1  0.07981003  0.83050198  0.15779370  1
  Ca2+  Ca16  1  0.08020221  0.83601850  0.49786853  1
  Ca2+  Ca17  1  0.06962704  0.82709411  0.83014028  1
  Ca2+  Ca18  1  0.57778480  0.32087523  0.16651770  1
  Ca2+  Ca19  1  0.57399447  0.32596172  0.49439010  1
  Ca2+  Ca20  1  0.58133854  0.32330193  0.82358648  1
  Ca2+  Ca21  1  0.57781004  0.83430305  0.16953776  1
  Ca2+  Ca22  1  0.58694735  0.82303946  0.49767634  1
  Ca2+  Ca23  1  0.58622223  0.82905513  0.82381868  1
  Ca2+  Ca24  1  0.32688375  0.41037759  0.17076337  1
  Ca2+  Ca25  1  0.33344321  0.41512147  0.51091171  1
  Ca2+  Ca26  1  0.32836057  0.41643150  0.83294109  1
  Ca2+  Ca27  1  0.32618971  0.92079376  0.18094766  1
  Ca2+  Ca28  1  0.33514001  0.91672598  0.49776395  1
  Ca2+  Ca29  1  0.33242281  0.91924222  0.83674238  1
  Ca2+  Ca30  1  0.83664636  0.42177765  0.17064683  1
  Ca2+  Ca31  1  0.83401972  0.41951065  0.50904264  1
  Ca2+  Ca32  1  0.84286452  0.42891422  0.83400077  1
  Ca2+  Ca33  1  0.83548977  0.92414637  0.17291956  1
  Ca2+  Ca34  1  0.82845823  0.93010676  0.51083090  1
  Ca2+  Ca35  1  0.83075018  0.91449664  0.83101156  1
  Ca2+  Ca36  1  0.42341457  0.16145239  0.16525508  1
  Ca2+  Ca37  1  0.42424657  0.17206974  0.49387654  1
  Ca2+  Ca38  1  0.42738580  0.17219690  0.82517792  1
  Ca2+  Ca39  1  0.41980208  0.67132496  0.16924589  1
  Ca2+  Ca40  1  0.42760308  0.66523027  0.49410837  1
  Ca2+  Ca41  1  0.42244661  0.66445481  0.82340414  1
  Ca2+  Ca42  1  0.91903646  0.17011559  0.16421346  1
  Ca2+  Ca43  1  0.90619319  0.17660474  0.49659922  1
  Ca2+  Ca44  1  0.92325189  0.17146634  0.82422626  1
  Ca2+  Ca45  1  0.92257843  0.67437941  0.15413693  1
  Ca2+  Ca46  1  0.91102291  0.67384924  0.50107633  1
  Ca2+  Ca47  1  0.91128782  0.67233251  0.82847859  1
  Al0+  Al48  1  -0.00107427  0.00072868  -0.00751855  1
  Al0+  Al49  1  -0.00124408  0.00098965  0.34303263  1
  Al0+  Al50  1  0.00008309  -0.00034337  0.66626788  1
  Al0+  Al51  1  0.00174611  0.50081785  0.00784311  1
  Al0+  Al52  1  -0.00071934  0.50102177  0.33034615  1
  Al0+  Al53  1  0.00182358  0.50004885  0.66994234  1
  Al0+  Al54  1  0.50106690  0.00025681  -0.00358193  1
  Al0+  Al55  1  0.50021219  -0.00257602  0.33125630  1
  Al0+  Al56  1  0.49967409  -0.00160439  0.66781112  1
  Al0+  Al57  1  0.49974307  0.50073595  0.00229992  1
  Al0+  Al58  1  0.50105630  0.49830515  0.32278311  1
  Al0+  Al59  1  0.50032062  0.49992093  0.66504758  1
  Al0+  Al60  1  0.25047755  0.25074618  0.00152856  1
  Al0+  Al61  1  0.24735748  0.24864155  0.33653758  1
  Al0+  Al62  1  0.24951486  0.24794203  0.66740022  1
  Al0+  Al63  1  0.24950064  0.74949111  -0.00410472  1
  Al0+  Al64  1  0.24936935  0.74713320  0.33465742  1
  Al0+  Al65  1  0.24973629  0.75002202  0.67204178  1
  Al0+  Al66  1  0.74909312  0.25058889  -0.00356426  1
  Al0+  Al67  1  0.74944831  0.25429671  0.32805852  1
  Al0+  Al68  1  0.75268996  0.24950484  0.66508952  1
  Al0+  Al69  1  0.74789793  0.75189282  0.00423534  1
  Al0+  Al70  1  0.75254836  0.75042749  0.32825061  1
  Al0+  Al71  1  0.74984812  0.75190886  0.66484012  1
  Al0+  Al72  1  0.57080114  0.17790875  0.31873661  1
  Al0+  Al73  1  0.42486638  0.32020855  0.31697851  1
  Al0+  Al74  1  0.07182351  0.67714003  0.98349273  1
  Al0+  Al75  1  0.42766851  0.81916255  0.31945856  1
  Al0+  Al76  1  0.32305458  0.07120543  0.34900376  1
  Al0+  Al77  1  0.67878075  0.93021100  0.68127913  1
  Al0+  Al78  1  0.57042850  0.68040668  0.65552265  1
  Al0+  Al79  1  0.92914125  0.82038076  0.65036827  1
  Al0+  Al80  1  0.32443930  0.57156883  0.68123651  1
  Al0+  Al81  1  0.42832011  0.32018619  0.65306493  1
  Al0+  Al82  1  0.82208067  0.07388778  0.68415050  1
  Al0+  Al83  1  0.57126975  0.17871102  0.98369847  1
  Al0+  Al84  1  0.93233577  0.32183108  0.65477777  1
  Al0+  Al85  1  0.81939271  0.57141922  0.01550755  1
  Al0+  Al86  1  0.17963182  0.42765552  0.68167917  1
  Al0+  Al87  1  0.18112553  0.42912086  0.01722467  1
  Al0+  Al88  1  0.57217769  0.17696930  0.65077905  1
  Al0+  Al89  1  0.92654060  0.82145324  0.98445196  1
  Al0+  Al90  1  0.81967010  0.57116971  0.67812244  1
  Al0+  Al91  1  0.07158526  0.17983166  0.98837574  1
  Al0+  Al92  1  0.81855914  0.07366392  0.34597945  1
  Al0+  Al93  1  0.17802016  0.92567744  0.34879051  1
  Al0+  Al94  1  0.92899012  0.32295910  0.31836340  1
  Al0+  Al95  1  0.57439187  0.67774496  0.31567424  1
  Si0+  Si96  1  0.32400659  0.57429436  0.01950338  1
  Si0+  Si97  1  0.32194012  0.56845577  0.34635139  1
  Si0+  Si98  1  0.07049877  0.67888852  0.31960661  1
  Si0+  Si99  1  0.67910508  0.43171554  0.34708374  1
  Si0+  Si100  1  0.67752493  0.93023294  0.01741142  1
  Si0+  Si101  1  0.42787307  0.32244477  0.98315267  1
  Si0+  Si102  1  0.42913282  0.82106110  0.98480940  1
  Si0+  Si103  1  0.17753633  0.92779909  0.68515444  1
  Si0+  Si104  1  0.42431041  0.82242082  0.65117788  1
  Si0+  Si105  1  0.17845877  0.92954221  0.01223058  1
  Si0+  Si106  1  0.82184527  0.57180183  0.34841406  1
  Si0+  Si107  1  0.32035463  0.06934540  0.68327945  1
  Si0+  Si108  1  0.56987086  0.67915266  0.98512708  1
  Si0+  Si109  1  0.07333686  0.17568270  0.64772895  1
  Si0+  Si110  1  0.32154003  0.06912495  0.01378516  1
  Si0+  Si111  1  0.92855014  0.32256135  0.98423581  1
  Si0+  Si112  1  0.07250821  0.67838364  0.64955668  1
  Si0+  Si113  1  0.93120939  0.82286707  0.31949755  1
  Si0+  Si114  1  0.67797237  0.42714610  0.68161795  1
  Si0+  Si115  1  0.82127440  0.07202635  0.01418111  1
  Si0+  Si116  1  0.06949964  0.17719072  0.31907048  1
  Si0+  Si117  1  0.67892675  0.92596398  0.34895270  1
  Si0+  Si118  1  0.67653492  0.42649853  0.01781861  1
  Si0+  Si119  1  0.17721639  0.42909917  0.34826612  1
  O2-  O120  1  0.24887536  -0.00011431  0.05615956  1
  O2-  O121  1  0.25255491  -0.00390077  0.39781475  1
  O2-  O122  1  0.24901989  -0.00123495  0.72700482  1
  O2-  O123  1  0.25555768  0.50509634  0.06379662  1
  O2-  O124  1  0.25474769  0.49370980  0.38876148  1
  O2-  O125  1  0.25279689  0.49917119  0.73109233  1
  O2-  O126  1  0.74950845  0.00164704  0.05753633  1
  O2-  O127  1  0.74203960  0.00027072  0.39153652  1
  O2-  O128  1  0.74831413  0.00335306  0.73406084  1
  O2-  O129  1  0.74604132  0.49494649  0.06234343  1
  O2-  O130  1  0.74786377  0.50458222  0.39043199  1
  O2-  O131  1  0.74689549  0.49549455  0.72671744  1
  O2-  O132  1  0.00198408  0.24606377  0.27323144  1
  O2-  O133  1  0.00398839  0.24496220  0.60570119  1
  O2-  O134  1  -0.00233781  0.25428600  0.94063439  1
  O2-  O135  1  0.00332290  0.75351408  0.27724877  1
  O2-  O136  1  0.00499011  0.74681653  0.60276797  1
  O2-  O137  1  -0.00442030  0.74568567  0.93527766  1
  O2-  O138  1  0.49306037  0.24388832  0.26771619  1
  O2-  O139  1  0.50066020  0.24966816  0.60221894  1
  O2-  O140  1  0.49930434  0.25669666  0.93931318  1
  O2-  O141  1  0.50173784  0.75032863  0.26703452  1
  O2-  O142  1  0.49197828  0.75158833  0.60956053  1
  O2-  O143  1  0.49684385  0.74747368  0.94265044  1
  O2-  O144  1  0.06969573  0.17788395  0.10157110  1
  O2-  O145  1  0.06978062  0.17834268  0.42432230  1
  O2-  O146  1  0.07375768  0.17599815  0.75388084  1
  O2-  O147  1  0.07208846  0.68214003  0.09804875  1
  O2-  O148  1  0.06831853  0.67588113  0.42439398  1
  O2-  O149  1  0.07138525  0.68002478  0.75487337  1
  O2-  O150  1  0.56931626  0.17606643  0.09658475  1
  O2-  O151  1  0.57284458  0.18248113  0.43149084  1
  O2-  O152  1  0.56849397  0.17832311  0.76492217  1
  O2-  O153  1  0.56956525  0.68114171  0.09004769  1
  O2-  O154  1  0.57523436  0.67722943  0.42906973  1
  O2-  O155  1  0.57087390  0.68297313  0.76921659  1
  O2-  O156  1  0.17542809  0.43186842  0.24306503  1
  O2-  O157  1  0.17845562  0.43120003  0.56751056  1
  O2-  O158  1  0.18366258  0.42739516  0.90473158  1
  O2-  O159  1  0.17593018  0.92740785  0.23425979  1
  O2-  O160  1  0.17836055  0.92690244  0.58026395  1
  O2-  O161  1  0.18133621  0.93089877  0.90714106  1
  O2-  O162  1  0.68201302  0.43215277  0.24170543  1
  O2-  O163  1  0.67879247  0.42955734  0.57572792  1
  O2-  O164  1  0.67492532  0.42745758  0.91248075  1
  O2-  O165  1  0.68324481  0.92384339  0.24270652  1
  O2-  O166  1  0.68106035  0.92822537  0.56777545  1
  O2-  O167  1  0.67489314  0.92837359  0.91289651  1
  O2-  O168  1  0.42725891  0.31954410  0.08870448  1
  O2-  O169  1  0.42819813  0.32371001  0.42996077  1
  O2-  O170  1  0.42887656  0.31737160  0.76713441  1
  O2-  O171  1  0.42942827  0.82259281  0.08956764  1
  O2-  O172  1  0.42654323  0.81411637  0.43257404  1
  O2-  O173  1  0.42444115  0.82299771  0.75754463  1
  O2-  O174  1  0.92854154  0.31995501  0.09020225  1
  O2-  O175  1  0.93072338  0.32744519  0.43112934  1
  O2-  O176  1  0.93548741  0.32322123  0.76797914  1
  O2-  O177  1  0.93064286  0.82422509  0.09892538  1
  O2-  O178  1  0.92964822  0.82027923  0.42424354  1
  O2-  O179  1  0.92970887  0.81815438  0.76326870  1
  O2-  O180  1  0.31865436  0.06995344  0.23443527  1
  O2-  O181  1  0.31992385  0.06856858  0.57865535  1
  O2-  O182  1  0.32180773  0.06651722  0.90842851  1
  O2-  O183  1  0.31779695  0.57081111  0.24110838  1
  O2-  O184  1  0.32281593  0.57252967  0.56704431  1
  O2-  O185  1  0.32689838  0.57407025  0.91447576  1
  O2-  O186  1  0.82146413  0.06982804  0.23188544  1
  O2-  O187  1  0.82090242  0.07331195  0.57036231  1
  O2-  O188  1  0.82092623  0.07213202  0.90978970  1
  O2-  O189  1  0.82283253  0.57075288  0.24321621  1
  O2-  O190  1  0.81837248  0.57035708  0.56458577  1
  O2-  O191  1  0.81731262  0.57206413  0.90243761  1
  O2-  O192  1  0.04280576  0.08302309  0.27410741  1
  O2-  O193  1  0.04976406  0.08175682  0.60256148  1
  O2-  O194  1  0.04234291  0.08502726  0.93049261  1
  O2-  O195  1  0.03814291  0.59002093  0.26869240  1
  O2-  O196  1  0.04774178  0.58471736  0.60423400  1
  O2-  O197  1  0.04669898  0.57617921  0.93608853  1
  O2-  O198  1  0.55050787  0.07685532  0.26722072  1
  O2-  O199  1  0.54242723  0.07802404  0.60065890  1
  O2-  O200  1  0.53771113  0.08297577  0.92946538  1
  O2-  O201  1  0.54534147  0.58137658  0.25938389  1
  O2-  O202  1  0.54414426  0.58332882  0.60071958  1
  O2-  O203  1  0.54592960  0.58569518  0.93939827  1
  O2-  O204  1  0.16310347  0.20156875  0.27260955  1
  O2-  O205  1  0.16700545  0.20038468  0.60238225  1
  O2-  O206  1  0.16885938  0.20899614  0.93425608  1
  O2-  O207  1  0.16297150  0.70178319  0.27166563  1
  O2-  O208  1  0.16683962  0.70563706  0.60515695  1
  O2-  O209  1  0.16940155  0.70700142  0.92976582  1
  O2-  O210  1  0.66555449  0.21472174  0.26234066  1
  O2-  O211  1  0.67158795  0.20368273  0.60103200  1
  O2-  O212  1  0.66851578  0.20765063  0.93034894  1
  O2-  O213  1  0.67244713  0.70789470  0.26147744  1
  O2-  O214  1  0.66427495  0.71410154  0.59862935  1
  O2-  O215  1  0.66093416  0.71056784  0.93936037  1
  O2-  O216  1  0.08518681  0.45849433  0.07401885  1
  O2-  O217  1  0.08755466  0.46496731  0.39534899  1
  O2-  O218  1  0.08356565  0.45956060  0.73746928  1
  O2-  O219  1  0.08573692  0.95736574  0.05799555  1
  O2-  O220  1  0.08225124  0.95717597  0.40536209  1
  O2-  O221  1  0.08632602  0.95669561  0.73244492  1
  O2-  O222  1  0.58331132  0.45335112  0.06503753  1
  O2-  O223  1  0.58567534  0.45778532  0.39193557  1
  O2-  O224  1  0.58495317  0.45222678  0.72851056  1
  O2-  O225  1  0.58562295  0.96000040  0.06466280  1
  O2-  O226  1  0.58251081  0.94174357  0.39110866  1
  O2-  O227  1  0.57856426  0.95270856  0.73534114  1
  O2-  O228  1  0.21285787  0.33220433  0.07224834  1
  O2-  O229  1  0.19536787  0.33509463  0.39437969  1
  O2-  O230  1  0.20490192  0.32782046  0.73397588  1
  O2-  O231  1  0.20597921  0.83699632  0.05875971  1
  O2-  O232  1  0.20414427  0.82638993  0.40183751  1
  O2-  O233  1  0.20443179  0.83667209  0.73452516  1
  O2-  O234  1  0.70290103  0.33244996  0.06358297  1
  O2-  O235  1  0.70906704  0.34124486  0.39472696  1
  O2-  O236  1  0.70376936  0.33401224  0.72753160  1
  O2-  O237  1  0.70359830  0.83920077  0.06732852  1
  O2-  O238  1  0.71134559  0.83385008  0.39475208  1
  O2-  O239  1  0.71168266  0.83333434  0.73562723  1
  O2-  O240  1  0.45632920  0.41581355  0.25967858  1
  O2-  O241  1  0.45427738  0.41909839  0.60081767  1
  O2-  O242  1  0.45012731  0.41843138  0.94063760  1
  O2-  O243  1  0.45284320  0.91755706  0.26435652  1
  O2-  O244  1  0.45039264  0.91524594  0.60532035  1
  O2-  O245  1  0.45963447  0.91120608  0.93550164  1
  O2-  O246  1  0.96304814  0.41818742  0.26256670  1
  O2-  O247  1  0.96436333  0.41804939  0.59927592  1
  O2-  O248  1  0.95553598  0.41705781  0.94255620  1
  O2-  O249  1  0.95807951  0.91585442  0.27406887  1
  O2-  O250  1  0.96110353  0.91730605  0.59802224  1
  O2-  O251  1  0.95742215  0.91750993  0.92912054  1
  O2-  O252  1  0.32357531  0.29586528  0.26749196  1
  O2-  O253  1  0.32969896  0.29089960  0.60125760  1
  O2-  O254  1  0.33572152  0.29344243  0.93710978  1
  O2-  O255  1  0.32964716  0.78765467  0.26510895  1
  O2-  O256  1  0.32955769  0.79995425  0.60658573  1
  O2-  O257  1  0.33656127  0.79751800  0.93691557  1
  O2-  O258  1  0.83333605  0.29546113  0.26185215  1
  O2-  O259  1  0.83515155  0.29467408  0.60015061  1
  O2-  O260  1  0.83486542  0.29924589  0.93837024  1
  O2-  O261  1  0.84110573  0.79456518  0.26903459  1
  O2-  O262  1  0.83440148  0.78758990  0.59528621  1
  O2-  O263  1  0.82607487  0.79483002  0.93537763  1
  O2-  O264  1  0.41270731  0.03780110  0.06065851  1
  O2-  O265  1  0.42223351  0.04346848  0.40042933  1
  O2-  O266  1  0.41109598  0.04030838  0.73247283  1
  O2-  O267  1  0.41808535  0.55015508  0.06650427  1
  O2-  O268  1  0.41686789  0.54445396  0.38865369  1
  O2-  O269  1  0.42260511  0.54400079  0.73572428  1
  O2-  O270  1  0.91352546  0.04248213  0.06076323  1
  O2-  O271  1  0.91303195  0.04294205  0.40309410  1
  O2-  O272  1  0.92139346  0.04349466  0.73462259  1
  O2-  O273  1  0.91609487  0.54316916  0.07103118  1
  O2-  O274  1  0.91299971  0.54153015  0.39551410  1
  O2-  O275  1  0.91622135  0.54185228  0.73275720  1
  O2-  O276  1  0.29662595  0.16160220  0.06011691  1
  O2-  O277  1  0.29037149  0.16799059  0.40365582  1
  O2-  O278  1  0.29184564  0.16019516  0.73230563  1
  O2-  O279  1  0.29649062  0.66878266  0.06409600  1
  O2-  O280  1  0.29101353  0.65785730  0.39589808  1
  O2-  O281  1  0.29750931  0.67044976  0.73529892  1
  O2-  O282  1  0.79431630  0.16487357  0.06083064  1
  O2-  O283  1  0.79006272  0.17256120  0.39608104  1
  O2-  O284  1  0.79747910  0.17330535  0.73724855  1
  O2-  O285  1  0.78656810  0.66770338  0.07066776  1
  O2-  O286  1  0.79764396  0.66598241  0.39285223  1
  O2-  O287  1  0.78622235  0.66628228  0.73251582  1
