# generated using pymatgen
data_Ca2Al2SiO7
_symmetry_space_group_name_H-M   'P 1'
_cell_length_a   15.46009810
_cell_length_b   15.46168158
_cell_length_c   15.28459334
_cell_angle_alpha   90.03089626
_cell_angle_beta   90.01502127
_cell_angle_gamma   89.99846255
_symmetry_Int_Tables_number   1
_chemical_formula_structural   Ca2Al2SiO7
_chemical_formula_sum   'Ca48 Al48 Si24 O168'
_cell_volume   3653.61498996
_cell_formula_units_Z   24
loop_
 _symmetry_equiv_pos_site_id
 _symmetry_equiv_pos_as_xyz
  1  'x, y, z'
loop_
 _atom_type_symbol
 _atom_type_oxidation_number
  Ca2+  2.0
  Al0+  0.0
  Si0+  0.0
  O2-  -2.0
loop_
 _atom_site_type_symbol
 _atom_site_label
 _atom_site_symmetry_multiplicity
 _atom_site_fract_x
 _atom_site_fract_y
 _atom_site_fract_z
 _atom_site_occupancy
  Ca2+  Ca0  1  0.16376551  0.07067513  0.16860310  1
  Ca2+  Ca1  1  0.16787591  0.07149628  0.50840682  1
  Ca2+  Ca2  1  0.17077513  0.07465439  0.83224068  1
  Ca2+  Ca3  1  0.16746460  0.57637873  0.16762534  1
  Ca2+  Ca4  1  0.15800331  0.57899661  0.50387167  1
  Ca2+  Ca5  1  0.16639301  0.57641178  0.83875716  1
  Ca2+  Ca6  1  0.66737747  0.08023738  0.17000182  1
  Ca2+  Ca7  1  0.66942398  0.06962200  0.50612926  1
  Ca2+  Ca8  1  0.66578450  0.08237124  0.83474825  1
  Ca2+  Ca9  1  0.66719968  0.57650138  0.16573019  1
  Ca2+  Ca10  1  0.67040019  0.58226879  0.51187234  1
  Ca2+  Ca11  1  0.66339513  0.57449037  0.83482749  1
  Ca2+  Ca12  1  0.08265159  0.33652128  0.16017999  1
  Ca2+  Ca13  1  0.08243093  0.33920343  0.49834641  1
  Ca2+  Ca14  1  0.07608004  0.34405467  0.82557937  1
  Ca2+  Ca15  1  0.07973094  0.83465439  0.15801587  1
  Ca2+  Ca16  1  0.08335769  0.82815076  0.49222249  1
  Ca2+  Ca17  1  0.07741307  0.83321864  0.82419544  1
  Ca2+  Ca18  1  0.57918172  0.32575812  0.15093816  1
  Ca2+  Ca19  1  0.57530680  0.33680031  0.50187963  1
  Ca2+  Ca20  1  0.57385101  0.33736122  0.82846105  1
  Ca2+  Ca21  1  0.57619156  0.83463925  0.15938388  1
  Ca2+  Ca22  1  0.59094850  0.83089124  0.49857670  1
  Ca2+  Ca23  1  0.57702231  0.82855543  0.82532012  1
  Ca2+  Ca24  1  0.32787736  0.41794646  0.16590047  1
  Ca2+  Ca25  1  0.32117741  0.41593178  0.50957645  1
  Ca2+  Ca26  1  0.32780399  0.41963605  0.84086390  1
  Ca2+  Ca27  1  0.32149772  0.90899205  0.16747740  1
  Ca2+  Ca28  1  0.32167909  0.92236769  0.50952143  1
  Ca2+  Ca29  1  0.32273688  0.91231553  0.83850092  1
  Ca2+  Ca30  1  0.82988696  0.41245649  0.16515534  1
  Ca2+  Ca31  1  0.82779265  0.41957860  0.51182572  1
  Ca2+  Ca32  1  0.82500706  0.40862886  0.83927443  1
  Ca2+  Ca33  1  0.83123446  0.91154449  0.17222678  1
  Ca2+  Ca34  1  0.82855209  0.90497404  0.50481146  1
  Ca2+  Ca35  1  0.83061516  0.90803770  0.83573225  1
  Ca2+  Ca36  1  0.42485538  0.17158418  0.15533066  1
  Ca2+  Ca37  1  0.40606020  0.17046356  0.50382483  1
  Ca2+  Ca38  1  0.41561977  0.17563839  0.82924789  1
  Ca2+  Ca39  1  0.41396474  0.66998005  0.15906124  1
  Ca2+  Ca40  1  0.42494065  0.66423319  0.50247005  1
  Ca2+  Ca41  1  0.41753137  0.66547049  0.83258226  1
  Ca2+  Ca42  1  0.92054424  0.17157601  0.15832204  1
  Ca2+  Ca43  1  0.91388067  0.17394913  0.50340949  1
  Ca2+  Ca44  1  0.91880127  0.17812328  0.83151248  1
  Ca2+  Ca45  1  0.92440332  0.67688852  0.16570954  1
  Ca2+  Ca46  1  0.92960316  0.67604442  0.49965419  1
  Ca2+  Ca47  1  0.92434202  0.67501284  0.82549597  1
  Al0+  Al48  1  -0.00183991  0.00114333  -0.00125184  1
  Al0+  Al49  1  -0.00125630  0.00380200  0.33515859  1
  Al0+  Al50  1  -0.00245426  0.00350354  0.66645864  1
  Al0+  Al51  1  -0.00188759  0.50147568  0.00146774  1
  Al0+  Al52  1  -0.00163996  0.50225896  0.33168798  1
  Al0+  Al53  1  -0.00222956  0.50357742  0.66206033  1
  Al0+  Al54  1  0.49976973  -0.00174634  -0.00869753  1
  Al0+  Al55  1  0.50212511  0.00122072  0.33756001  1
  Al0+  Al56  1  0.50146124  0.00236042  0.67323558  1
  Al0+  Al57  1  0.50089224  0.49909038  0.00670377  1
  Al0+  Al58  1  0.49900506  0.49991413  0.33125776  1
  Al0+  Al59  1  0.49979366  0.49915641  0.66043821  1
  Al0+  Al60  1  0.25096107  0.24693190  0.00077885  1
  Al0+  Al61  1  0.24887833  0.25246816  0.33444289  1
  Al0+  Al62  1  0.24854478  0.25032861  0.67037482  1
  Al0+  Al63  1  0.25011912  0.74824822  0.00398466  1
  Al0+  Al64  1  0.25277939  0.74727612  0.33523322  1
  Al0+  Al65  1  0.25194330  0.74879320  0.66493732  1
  Al0+  Al66  1  0.75215774  0.24699665  -0.00164447  1
  Al0+  Al67  1  0.74827050  0.24907499  0.33458318  1
  Al0+  Al68  1  0.74792750  0.24857328  0.66488906  1
  Al0+  Al69  1  0.75073268  0.74851298  -0.00121666  1
  Al0+  Al70  1  0.75097388  0.74775530  0.33135989  1
  Al0+  Al71  1  0.75007236  0.74881197  0.66550434  1
  Al0+  Al72  1  0.42856505  0.32194526  0.98501093  1
  Al0+  Al73  1  0.92976637  0.82386097  0.65183620  1
  Al0+  Al74  1  0.42734979  0.81890020  0.98690161  1
  Al0+  Al75  1  0.32162080  0.57028018  0.01544109  1
  Al0+  Al76  1  0.17691628  0.43236828  0.67935311  1
  Al0+  Al77  1  0.32087919  0.07224758  0.68317650  1
  Al0+  Al78  1  0.92912999  0.82213979  0.98557071  1
  Al0+  Al79  1  0.57265390  0.17733496  0.98323428  1
  Al0+  Al80  1  0.17844644  0.93050247  0.01294342  1
  Al0+  Al81  1  0.17651850  0.42664141  0.01444614  1
  Al0+  Al82  1  0.07409308  0.67857554  0.31490704  1
  Al0+  Al83  1  0.68182687  0.92706326  0.68243077  1
  Al0+  Al84  1  0.93242161  0.32177803  0.98779724  1
  Al0+  Al85  1  0.42780115  0.31992378  0.65193245  1
  Al0+  Al86  1  0.56919422  0.68016674  0.65427901  1
  Al0+  Al87  1  0.92747243  0.32186619  0.65296592  1
  Al0+  Al88  1  0.17852139  0.92833424  0.34624342  1
  Al0+  Al89  1  0.17776319  0.92638344  0.68120255  1
  Al0+  Al90  1  0.68121610  0.42751136  0.01349937  1
  Al0+  Al91  1  0.67837473  0.42867961  0.67930718  1
  Al0+  Al92  1  0.17923877  0.43113514  0.34816135  1
  Al0+  Al93  1  0.93036603  0.82254327  0.31743659  1
  Al0+  Al94  1  0.68070387  0.92900587  0.34528160  1
  Al0+  Al95  1  0.07429536  0.68049796  0.65234092  1
  Si0+  Si96  1  0.32563917  0.57162927  0.35337806  1
  Si0+  Si97  1  0.82195872  0.07526540  0.35118654  1
  Si0+  Si98  1  0.07278227  0.17670752  0.98373273  1
  Si0+  Si99  1  0.57065161  0.17948467  0.31911675  1
  Si0+  Si100  1  0.32451076  0.57081024  0.68158396  1
  Si0+  Si101  1  0.82176668  0.57415297  0.01872155  1
  Si0+  Si102  1  0.07168725  0.18024706  0.64923018  1
  Si0+  Si103  1  0.67841306  0.92695705  0.01368285  1
  Si0+  Si104  1  0.42883042  0.82516936  0.64944120  1
  Si0+  Si105  1  0.82058998  0.57112680  0.68426516  1
  Si0+  Si106  1  0.81997225  0.06941401  0.01546286  1
  Si0+  Si107  1  0.81886946  0.56955744  0.34900123  1
  Si0+  Si108  1  0.42798723  0.32073884  0.31739248  1
  Si0+  Si109  1  0.57191826  0.17686332  0.64644273  1
  Si0+  Si110  1  0.57293174  0.67741311  0.98480218  1
  Si0+  Si111  1  0.92692328  0.32113347  0.31883798  1
  Si0+  Si112  1  0.82124153  0.07416217  0.68561752  1
  Si0+  Si113  1  0.32228876  0.07250042  0.34794879  1
  Si0+  Si114  1  0.32460708  0.07019134  0.01708979  1
  Si0+  Si115  1  0.07169246  0.18104138  0.31875479  1
  Si0+  Si116  1  0.57217094  0.67763986  0.31667252  1
  Si0+  Si117  1  0.67809841  0.42749873  0.34845616  1
  Si0+  Si118  1  0.07175498  0.67895982  0.98404756  1
  Si0+  Si119  1  0.43191007  0.82223128  0.32088896  1
  O2-  O120  1  0.25473146  0.00308337  0.06219679  1
  O2-  O121  1  0.25414320  0.00316304  0.39127828  1
  O2-  O122  1  0.25338533  -0.00499523  0.73128786  1
  O2-  O123  1  0.25074117  0.49635502  0.06494075  1
  O2-  O124  1  0.25343708  0.50596052  0.39563655  1
  O2-  O125  1  0.25099464  0.50749706  0.72506660  1
  O2-  O126  1  0.74910426  -0.00236901  0.05713883  1
  O2-  O127  1  0.75923682  -0.00019901  0.39247469  1
  O2-  O128  1  0.75792408  0.00021001  0.72931821  1
  O2-  O129  1  0.75536967  0.50203345  0.06254391  1
  O2-  O130  1  0.74817234  0.49797088  0.39166902  1
  O2-  O131  1  0.75518038  0.49936223  0.72826970  1
  O2-  O132  1  -0.00059720  0.25156216  0.27704996  1
  O2-  O133  1  0.00420519  0.25048271  0.60419563  1
  O2-  O134  1  0.01428037  0.25513277  0.94120333  1
  O2-  O135  1  0.00873205  0.75803558  0.26593446  1
  O2-  O136  1  0.00930377  0.75982329  0.60293211  1
  O2-  O137  1  0.00538439  0.74965618  0.94009703  1
  O2-  O138  1  0.50018335  0.25036170  0.27628019  1
  O2-  O139  1  0.50089821  0.24380473  0.60260390  1
  O2-  O140  1  0.50171143  0.25099767  0.93491597  1
  O2-  O141  1  0.50171028  0.75005941  0.27695850  1
  O2-  O142  1  0.49879450  0.75778043  0.60435437  1
  O2-  O143  1  0.50270578  0.74438684  0.94152258  1
  O2-  O144  1  0.06698501  0.17256902  0.08994218  1
  O2-  O145  1  0.07247661  0.18181799  0.42350185  1
  O2-  O146  1  0.07017092  0.17965517  0.75467816  1
  O2-  O147  1  0.06997693  0.67981725  0.08983358  1
  O2-  O148  1  0.06976151  0.67703514  0.42801230  1
  O2-  O149  1  0.07038058  0.67736491  0.76588903  1
  O2-  O150  1  0.57178668  0.17724849  0.09834718  1
  O2-  O151  1  0.57241874  0.18020531  0.42360694  1
  O2-  O152  1  0.57449142  0.17893223  0.75147645  1
  O2-  O153  1  0.57545187  0.68076739  0.09106635  1
  O2-  O154  1  0.57265058  0.67512428  0.42157696  1
  O2-  O155  1  0.56645738  0.67885535  0.76711995  1
  O2-  O156  1  0.18184543  0.42805736  0.23547802  1
  O2-  O157  1  0.17818494  0.43243454  0.56575557  1
  O2-  O158  1  0.17382026  0.43170411  0.90126780  1
  O2-  O159  1  0.17928003  0.93067628  0.23284461  1
  O2-  O160  1  0.17912600  0.92891232  0.56707526  1
  O2-  O161  1  0.17748158  0.93172701  0.90060126  1
  O2-  O162  1  0.67968267  0.42621209  0.24336535  1
  O2-  O163  1  0.67934922  0.43199624  0.56519691  1
  O2-  O164  1  0.68106475  0.42930175  0.90088125  1
  O2-  O165  1  0.67729250  0.93282238  0.23189575  1
  O2-  O166  1  0.68315987  0.92773923  0.56869403  1
  O2-  O167  1  0.68060247  0.92546604  0.90909789  1
  O2-  O168  1  0.43110849  0.31876233  0.09977193  1
  O2-  O169  1  0.42815142  0.32042358  0.42240394  1
  O2-  O170  1  0.42963305  0.32199041  0.76418882  1
  O2-  O171  1  0.43076173  0.81994744  0.10104558  1
  O2-  O172  1  0.43478266  0.82265291  0.42568545  1
  O2-  O173  1  0.42889785  0.82236584  0.75490303  1
  O2-  O174  1  0.92986267  0.31677162  0.10175275  1
  O2-  O175  1  0.92431232  0.31959112  0.42376900  1
  O2-  O176  1  0.92718589  0.31939774  0.76583330  1
  O2-  O177  1  0.92812407  0.82182976  0.09877554  1
  O2-  O178  1  0.92779389  0.81799857  0.43025578  1
  O2-  O179  1  0.92861767  0.81890186  0.76550044  1
  O2-  O180  1  0.32365142  0.07238212  0.24245625  1
  O2-  O181  1  0.31673655  0.07084194  0.56841328  1
  O2-  O182  1  0.32354717  0.06896648  0.91214694  1
  O2-  O183  1  0.33162389  0.56918466  0.24830465  1
  O2-  O184  1  0.32780191  0.56699266  0.57577041  1
  O2-  O185  1  0.32116650  0.57085449  0.90196286  1
  O2-  O186  1  0.81834734  0.08258821  0.24574273  1
  O2-  O187  1  0.81737420  0.07854623  0.57982329  1
  O2-  O188  1  0.82092235  0.07041710  0.91093281  1
  O2-  O189  1  0.81651471  0.56822549  0.24377916  1
  O2-  O190  1  0.81783850  0.56967106  0.57799593  1
  O2-  O191  1  0.82010905  0.57668027  0.91369846  1
  O2-  O192  1  0.04351114  0.08994309  0.26967363  1
  O2-  O193  1  0.04277736  0.08816534  0.60087242  1
  O2-  O194  1  0.03513831  0.08917279  0.93395306  1
  O2-  O195  1  0.03607083  0.58265303  0.26133054  1
  O2-  O196  1  0.03626788  0.58655852  0.59514771  1
  O2-  O197  1  0.04258322  0.58643433  0.93845217  1
  O2-  O198  1  0.54337414  0.08733543  0.27138127  1
  O2-  O199  1  0.54794946  0.08187546  0.60158096  1
  O2-  O200  1  0.54562834  0.07981566  0.92910620  1
  O2-  O201  1  0.54294551  0.58596008  0.26836623  1
  O2-  O202  1  0.53707389  0.58609168  0.59499632  1
  O2-  O203  1  0.54868399  0.58275337  0.94199534  1
  O2-  O204  1  0.16281771  0.20939042  0.26984753  1
  O2-  O205  1  0.16487668  0.20473704  0.60271164  1
  O2-  O206  1  0.17005590  0.18893909  0.94268186  1
  O2-  O207  1  0.17742462  0.69648501  0.26772303  1
  O2-  O208  1  0.17528938  0.69826528  0.59921168  1
  O2-  O209  1  0.16631445  0.70105676  0.94053357  1
  O2-  O210  1  0.66249028  0.20746001  0.27055369  1
  O2-  O211  1  0.66396459  0.20452464  0.59803960  1
  O2-  O212  1  0.67220980  0.20221403  0.93267911  1
  O2-  O213  1  0.66337298  0.70362825  0.26791882  1
  O2-  O214  1  0.66582771  0.70872607  0.59876394  1
  O2-  O215  1  0.66521107  0.70382271  0.93743166  1
  O2-  O216  1  0.07825382  0.45733506  0.06851517  1
  O2-  O217  1  0.07979630  0.45918192  0.39823179  1
  O2-  O218  1  0.07912314  0.46302741  0.73048586  1
  O2-  O219  1  0.08231882  0.96531006  0.06691953  1
  O2-  O220  1  0.08221601  0.96173672  0.39920111  1
  O2-  O221  1  0.07917454  0.95917958  0.73122240  1
  O2-  O222  1  0.58659707  0.45804870  0.07176449  1
  O2-  O223  1  0.58508757  0.45547898  0.39300281  1
  O2-  O224  1  0.58240733  0.46350738  0.73076519  1
  O2-  O225  1  0.58565745  0.95520143  0.05921508  1
  O2-  O226  1  0.58650906  0.96318570  0.40267679  1
  O2-  O227  1  0.58530703  0.95780965  0.73569386  1
  O2-  O228  1  0.20075861  0.32551716  0.06539023  1
  O2-  O229  1  0.21031396  0.33412227  0.40240522  1
  O2-  O230  1  0.20463327  0.33517932  0.73165376  1
  O2-  O231  1  0.20882293  0.83417979  0.06762012  1
  O2-  O232  1  0.21026616  0.83140375  0.39838166  1
  O2-  O233  1  0.20497269  0.82682552  0.73238918  1
  O2-  O234  1  0.71455929  0.33085724  0.06770767  1
  O2-  O235  1  0.70487381  0.33555851  0.39606355  1
  O2-  O236  1  0.70611141  0.33076635  0.73045628  1
  O2-  O237  1  0.70566568  0.83511939  0.06214667  1
  O2-  O238  1  0.70737394  0.82987863  0.39659798  1
  O2-  O239  1  0.71039422  0.82984173  0.73595513  1
  O2-  O240  1  0.45604642  0.41275226  0.27068554  1
  O2-  O241  1  0.46175053  0.41372616  0.59370937  1
  O2-  O242  1  0.45781891  0.42149474  0.93607761  1
  O2-  O243  1  0.46119387  0.91395823  0.27343806  1
  O2-  O244  1  0.45369801  0.92005362  0.60625114  1
  O2-  O245  1  0.45753084  0.91327669  0.93017225  1
  O2-  O246  1  0.95172054  0.41331770  0.27186786  1
  O2-  O247  1  0.95393803  0.41886869  0.59814910  1
  O2-  O248  1  0.95172525  0.42145666  0.93557641  1
  O2-  O249  1  0.94721124  0.92656648  0.27049189  1
  O2-  O250  1  0.94402197  0.92688591  0.60310632  1
  O2-  O251  1  0.95585488  0.91978166  0.93272920  1
  O2-  O252  1  0.33637568  0.29258830  0.27016666  1
  O2-  O253  1  0.33080253  0.28769592  0.59810767  1
  O2-  O254  1  0.32922721  0.29380392  0.93411413  1
  O2-  O255  1  0.34013061  0.79453210  0.27358316  1
  O2-  O256  1  0.33640022  0.79810444  0.60174894  1
  O2-  O257  1  0.33114751  0.78735468  0.93346374  1
  O2-  O258  1  0.83494186  0.29081506  0.27167770  1
  O2-  O259  1  0.83205911  0.28718492  0.59723092  1
  O2-  O260  1  0.83890425  0.28287161  0.93386354  1
  O2-  O261  1  0.83309443  0.78658562  0.26399354  1
  O2-  O262  1  0.83403526  0.78602704  0.59896031  1
  O2-  O263  1  0.83239253  0.78932356  0.93329392  1
  O2-  O264  1  0.41884357  0.04274180  0.06195440  1
  O2-  O265  1  0.41572092  0.04866113  0.39565475  1
  O2-  O266  1  0.42190330  0.05368033  0.73337494  1
  O2-  O267  1  0.42032264  0.54598469  0.07143106  1
  O2-  O268  1  0.41868261  0.54202167  0.40032531  1
  O2-  O269  1  0.41571807  0.53973715  0.72849502  1
  O2-  O270  1  0.91101300  0.04223274  0.06521977  1
  O2-  O271  1  0.91745952  0.05910813  0.39607425  1
  O2-  O272  1  0.91698701  0.05739811  0.72978364  1
  O2-  O273  1  0.91486958  0.54998031  0.06608663  1
  O2-  O274  1  0.91018847  0.54163103  0.39624614  1
  O2-  O275  1  0.91477279  0.54878522  0.72875843  1
  O2-  O276  1  0.30177026  0.16407953  0.06440348  1
  O2-  O277  1  0.29488628  0.16588235  0.39371598  1
  O2-  O278  1  0.28746296  0.16790655  0.73794889  1
  O2-  O279  1  0.29181356  0.66710958  0.07205732  1
  O2-  O280  1  0.30644118  0.66670674  0.39864086  1
  O2-  O281  1  0.30698396  0.66712335  0.72447558  1
  O2-  O282  1  0.79182389  0.15974134  0.06645073  1
  O2-  O283  1  0.78830287  0.16544687  0.40123429  1
  O2-  O284  1  0.78841550  0.16480147  0.73355565  1
  O2-  O285  1  0.79083620  0.66540455  0.06824871  1
  O2-  O286  1  0.78859285  0.66002165  0.39680156  1
  O2-  O287  1  0.79075450  0.66255021  0.73104336  1
