# generated using pymatgen
data_Ca2Al2SiO7
_symmetry_space_group_name_H-M   'P 1'
_cell_length_a   15.46942131
_cell_length_b   15.46583522
_cell_length_c   15.29036192
_cell_angle_alpha   89.98728673
_cell_angle_beta   89.99526885
_cell_angle_gamma   90.01390521
_symmetry_Int_Tables_number   1
_chemical_formula_structural   Ca2Al2SiO7
_chemical_formula_sum   'Ca48 Al48 Si24 O168'
_cell_volume   3658.18097187
_cell_formula_units_Z   24
loop_
 _symmetry_equiv_pos_site_id
 _symmetry_equiv_pos_as_xyz
  1  'x, y, z'
loop_
 _atom_type_symbol
 _atom_type_oxidation_number
  Ca2+  2.0
  Al0+  0.0
  Si0+  0.0
  O2-  -2.0
loop_
 _atom_site_type_symbol
 _atom_site_label
 _atom_site_symmetry_multiplicity
 _atom_site_fract_x
 _atom_site_fract_y
 _atom_site_fract_z
 _atom_site_occupancy
  Ca2+  Ca0  1  0.17270273  0.07933033  0.17163845  1
  Ca2+  Ca1  1  0.17267620  0.07573431  0.50349629  1
  Ca2+  Ca2  1  0.18257304  0.08980143  0.83504762  1
  Ca2+  Ca3  1  0.17944605  0.58355675  0.17306484  1
  Ca2+  Ca4  1  0.17537296  0.58862528  0.50568987  1
  Ca2+  Ca5  1  0.17629827  0.58372668  0.83310911  1
  Ca2+  Ca6  1  0.67022512  0.07899052  0.16901775  1
  Ca2+  Ca7  1  0.66844186  0.07630296  0.50886883  1
  Ca2+  Ca8  1  0.66336440  0.07871791  0.83877503  1
  Ca2+  Ca9  1  0.65866749  0.57633150  0.17120129  1
  Ca2+  Ca10  1  0.66977350  0.58453004  0.50525507  1
  Ca2+  Ca11  1  0.67058212  0.57549069  0.83713075  1
  Ca2+  Ca12  1  0.07805557  0.33176813  0.16458576  1
  Ca2+  Ca13  1  0.07559994  0.33356999  0.50127026  1
  Ca2+  Ca14  1  0.07454522  0.33256784  0.82584419  1
  Ca2+  Ca15  1  0.08928816  0.83189024  0.16718573  1
  Ca2+  Ca16  1  0.08801092  0.82290332  0.49290345  1
  Ca2+  Ca17  1  0.08152381  0.82555890  0.82458250  1
  Ca2+  Ca18  1  0.57553564  0.32857360  0.15744595  1
  Ca2+  Ca19  1  0.57426190  0.32710581  0.49949213  1
  Ca2+  Ca20  1  0.57901910  0.32210908  0.83101798  1
  Ca2+  Ca21  1  0.59472373  0.82852201  0.16624575  1
  Ca2+  Ca22  1  0.58195371  0.83336784  0.49767737  1
  Ca2+  Ca23  1  0.58054531  0.83825939  0.82618453  1
  Ca2+  Ca24  1  0.34643885  0.42499467  0.17032488  1
  Ca2+  Ca25  1  0.34190443  0.42514467  0.50427607  1
  Ca2+  Ca26  1  0.34949847  0.42708775  0.83606430  1
  Ca2+  Ca27  1  0.33149141  0.92588932  0.16869954  1
  Ca2+  Ca28  1  0.32999390  0.91430746  0.50749932  1
  Ca2+  Ca29  1  0.34430400  0.93073473  0.83101922  1
  Ca2+  Ca30  1  0.82163685  0.41327823  0.16748328  1
  Ca2+  Ca31  1  0.83290234  0.42168940  0.51067442  1
  Ca2+  Ca32  1  0.82927937  0.41708731  0.83413522  1
  Ca2+  Ca33  1  0.82293865  0.92631181  0.17324728  1
  Ca2+  Ca34  1  0.82106595  0.92428326  0.50665394  1
  Ca2+  Ca35  1  0.82009253  0.92659584  0.83798156  1
  Ca2+  Ca36  1  0.41959118  0.17737740  0.15344596  1
  Ca2+  Ca37  1  0.41660914  0.17354921  0.49965508  1
  Ca2+  Ca38  1  0.42499394  0.16859821  0.82296731  1
  Ca2+  Ca39  1  0.41712547  0.66494932  0.16637686  1
  Ca2+  Ca40  1  0.41641643  0.67025597  0.49458122  1
  Ca2+  Ca41  1  0.41346852  0.67193837  0.82624357  1
  Ca2+  Ca42  1  0.91450970  0.15673195  0.16263549  1
  Ca2+  Ca43  1  0.90572236  0.16761338  0.49961708  1
  Ca2+  Ca44  1  0.91042139  0.16833268  0.82627893  1
  Ca2+  Ca45  1  0.92538383  0.66874507  0.16315691  1
  Ca2+  Ca46  1  0.92884981  0.66177629  0.49591332  1
  Ca2+  Ca47  1  0.92272248  0.66515273  0.82133014  1
  Al0+  Al48  1  0.00012842  -0.00175550  -0.00061151  1
  Al0+  Al49  1  0.00097657  0.00058674  0.34118530  1
  Al0+  Al50  1  -0.00119782  -0.00217461  0.66943987  1
  Al0+  Al51  1  0.00349961  0.50006019  -0.00059509  1
  Al0+  Al52  1  0.00139150  0.49925911  0.32518165  1
  Al0+  Al53  1  0.00102047  0.49895946  0.66265147  1
  Al0+  Al54  1  0.49891206  -0.00197201  0.00794978  1
  Al0+  Al55  1  0.50026431  0.00162656  0.33543898  1
  Al0+  Al56  1  0.49770243  -0.00177297  0.66269384  1
  Al0+  Al57  1  0.50252051  0.50210398  0.00420691  1
  Al0+  Al58  1  0.50037678  0.50120942  0.33194694  1
  Al0+  Al59  1  0.50119423  0.49984872  0.66879929  1
  Al0+  Al60  1  0.24740607  0.25417831  -0.00044888  1
  Al0+  Al61  1  0.24596840  0.25327689  0.32840802  1
  Al0+  Al62  1  0.24697869  0.25079603  0.66508603  1
  Al0+  Al63  1  0.25112620  0.74783672  0.00231224  1
  Al0+  Al64  1  0.25131049  0.74949591  0.33369163  1
  Al0+  Al65  1  0.25052168  0.74779920  0.66404213  1
  Al0+  Al66  1  0.74915289  0.25123442  0.00426935  1
  Al0+  Al67  1  0.74766700  0.25241535  0.33584931  1
  Al0+  Al68  1  0.74929678  0.25023358  0.66013729  1
  Al0+  Al69  1  0.75348244  0.75013720  0.00072281  1
  Al0+  Al70  1  0.75133361  0.75022725  0.33170768  1
  Al0+  Al71  1  0.75158130  0.74992454  0.67524112  1
  Al0+  Al72  1  0.32050300  0.07352639  0.01259825  1
  Al0+  Al73  1  0.57012173  0.17701510  0.65053433  1
  Al0+  Al74  1  0.43018657  0.81900777  0.65413011  1
  Al0+  Al75  1  0.82306685  0.56979912  0.67833294  1
  Al0+  Al76  1  0.42692294  0.32288394  0.65157337  1
  Al0+  Al77  1  0.57180115  0.68147167  0.32071979  1
  Al0+  Al78  1  0.32028423  0.56957860  0.01443484  1
  Al0+  Al79  1  0.67663594  0.92923914  0.68279993  1
  Al0+  Al80  1  0.06997071  0.67977026  0.65253441  1
  Al0+  Al81  1  0.68128846  0.43137163  0.01371207  1
  Al0+  Al82  1  0.67758477  0.92647708  0.35092052  1
  Al0+  Al83  1  0.67705426  0.92675137  0.01697032  1
  Al0+  Al84  1  0.42847150  0.31994188  0.31890726  1
  Al0+  Al85  1  0.07299635  0.67893914  0.31635386  1
  Al0+  Al86  1  0.31833179  0.07186805  0.67714526  1
  Al0+  Al87  1  0.82055931  0.07291139  0.68285064  1
  Al0+  Al88  1  0.56947829  0.17709859  0.98619124  1
  Al0+  Al89  1  0.82133784  0.07140574  0.01445755  1
  Al0+  Al90  1  0.32165201  0.56978421  0.68022244  1
  Al0+  Al91  1  0.92897964  0.31842337  0.65393006  1
  Al0+  Al92  1  0.81970020  0.07253533  0.35042399  1
  Al0+  Al93  1  0.42760699  0.32391740  0.98390697  1
  Al0+  Al94  1  0.18202610  0.92970273  0.34653307  1
  Al0+  Al95  1  0.32067104  0.56782243  0.34826944  1
  Si0+  Si96  1  0.92688583  0.82211446  0.64942316  1
  Si0+  Si97  1  0.06840545  0.17837865  0.31802741  1
  Si0+  Si98  1  0.07207796  0.17482458  0.64948509  1
  Si0+  Si99  1  0.57224411  0.17854471  0.31565614  1
  Si0+  Si100  1  0.57351958  0.67965479  0.98511732  1
  Si0+  Si101  1  0.92671006  0.32139058  0.31674519  1
  Si0+  Si102  1  0.17435247  0.42758872  0.35114291  1
  Si0+  Si103  1  0.17827775  0.92557945  0.68302226  1
  Si0+  Si104  1  0.32078155  0.07647903  0.34816899  1
  Si0+  Si105  1  0.17734431  0.42828724  0.68267689  1
  Si0+  Si106  1  0.17856341  0.92802085  0.01405904  1
  Si0+  Si107  1  0.67793577  0.42782875  0.68280470  1
  Si0+  Si108  1  0.42780163  0.81874073  0.98656105  1
  Si0+  Si109  1  0.67896520  0.43126462  0.35004245  1
  Si0+  Si110  1  0.17389581  0.42881318  0.01847294  1
  Si0+  Si111  1  0.07073858  0.17717504  0.98521669  1
  Si0+  Si112  1  0.82603476  0.57202496  0.01715651  1
  Si0+  Si113  1  0.93072689  0.82249348  0.31643106  1
  Si0+  Si114  1  0.92963245  0.82087139  0.98330066  1
  Si0+  Si115  1  0.82371139  0.56970748  0.34554363  1
  Si0+  Si116  1  0.42738586  0.82374927  0.31550294  1
  Si0+  Si117  1  0.07211215  0.67997968  0.98337861  1
  Si0+  Si118  1  0.57478817  0.67745043  0.65353681  1
  Si0+  Si119  1  0.92916690  0.32118980  0.98636994  1
  O2-  O120  1  0.24396848  -0.00037066  0.05818794  1
  O2-  O121  1  0.25927611  0.00156430  0.39282098  1
  O2-  O122  1  0.24316305  -0.00212368  0.72634360  1
  O2-  O123  1  0.24922229  0.49097318  0.06048552  1
  O2-  O124  1  0.24453426  0.49433322  0.39459667  1
  O2-  O125  1  0.25143428  0.49072237  0.72733818  1
  O2-  O126  1  0.74744582  0.00179304  0.06429936  1
  O2-  O127  1  0.74606139  0.00232365  0.39930121  1
  O2-  O128  1  0.74583977  0.00422901  0.73247410  1
  O2-  O129  1  0.75567878  0.50642200  0.06259282  1
  O2-  O130  1  0.75218075  0.50101593  0.39031000  1
  O2-  O131  1  0.74744598  0.49696313  0.72581939  1
  O2-  O132  1  -0.00620250  0.24615960  0.27531146  1
  O2-  O133  1  -0.00106490  0.23949049  0.60598600  1
  O2-  O134  1  -0.00236323  0.24728996  0.94472975  1
  O2-  O135  1  -0.00069365  0.75452153  0.26901878  1
  O2-  O136  1  -0.00414637  0.75419674  0.60430332  1
  O2-  O137  1  -0.00035013  0.74856388  0.94072427  1
  O2-  O138  1  0.49807658  0.24118512  0.27165187  1
  O2-  O139  1  0.49661729  0.24890763  0.60175298  1
  O2-  O140  1  0.49304307  0.24502018  0.93607501  1
  O2-  O141  1  0.50082251  0.75944495  0.27192574  1
  O2-  O142  1  0.50631004  0.74531170  0.60870125  1
  O2-  O143  1  0.50431509  0.75289545  0.94481698  1
  O2-  O144  1  0.07051400  0.17698159  0.09064657  1
  O2-  O145  1  0.07121577  0.18076754  0.42257882  1
  O2-  O146  1  0.07453579  0.17824383  0.75529017  1
  O2-  O147  1  0.07202051  0.68137054  0.08844238  1
  O2-  O148  1  0.07063665  0.67759821  0.42906645  1
  O2-  O149  1  0.06954294  0.68092097  0.76633034  1
  O2-  O150  1  0.56933713  0.18009541  0.10010728  1
  O2-  O151  1  0.57405775  0.18184335  0.42088771  1
  O2-  O152  1  0.57021136  0.17767606  0.76425822  1
  O2-  O153  1  0.57277868  0.67887827  0.09033791  1
  O2-  O154  1  0.57098853  0.67867018  0.43360573  1
  O2-  O155  1  0.57337680  0.67653271  0.75944239  1
  O2-  O156  1  0.17093016  0.42817034  0.24552454  1
  O2-  O157  1  0.17382635  0.43063934  0.57725395  1
  O2-  O158  1  0.16140832  0.43335720  0.91404731  1
  O2-  O159  1  0.18192650  0.93289387  0.23282599  1
  O2-  O160  1  0.18011337  0.92497048  0.57731821  1
  O2-  O161  1  0.17785140  0.92620812  0.90882949  1
  O2-  O162  1  0.68068927  0.43093301  0.24473502  1
  O2-  O163  1  0.67809506  0.43071942  0.57678230  1
  O2-  O164  1  0.68483777  0.43322200  0.90088497  1
  O2-  O165  1  0.68242569  0.92533553  0.23754812  1
  O2-  O166  1  0.67933851  0.92659222  0.56953256  1
  O2-  O167  1  0.67878908  0.92424806  0.90396412  1
  O2-  O168  1  0.43153118  0.32356070  0.09786650  1
  O2-  O169  1  0.43052360  0.32008943  0.43173891  1
  O2-  O170  1  0.43085693  0.32334751  0.76477907  1
  O2-  O171  1  0.42230114  0.81576109  0.09137854  1
  O2-  O172  1  0.42439967  0.82018774  0.42088455  1
  O2-  O173  1  0.42886801  0.81811641  0.76780370  1
  O2-  O174  1  0.93227785  0.32418714  0.09168074  1
  O2-  O175  1  0.92887448  0.32524629  0.42134447  1
  O2-  O176  1  0.93242112  0.32124468  0.76739582  1
  O2-  O177  1  0.93143681  0.81959374  0.08837978  1
  O2-  O178  1  0.93205934  0.81882622  0.42165442  1
  O2-  O179  1  0.93021423  0.81994534  0.75541319  1
  O2-  O180  1  0.31575739  0.07701526  0.24227462  1
  O2-  O181  1  0.31496161  0.07071824  0.56411004  1
  O2-  O182  1  0.31982748  0.07148983  0.89959580  1
  O2-  O183  1  0.31980853  0.56683878  0.23486979  1
  O2-  O184  1  0.31990691  0.57115089  0.56739569  1
  O2-  O185  1  0.31715399  0.57301121  0.90148695  1
  O2-  O186  1  0.82058205  0.07115299  0.23671791  1
  O2-  O187  1  0.82002956  0.06961693  0.56956945  1
  O2-  O188  1  0.82432593  0.06995542  0.90171458  1
  O2-  O189  1  0.82454473  0.56620163  0.24028940  1
  O2-  O190  1  0.82311664  0.56792649  0.56474805  1
  O2-  O191  1  0.82782936  0.57005296  0.91169701  1
  O2-  O192  1  0.04341951  0.08538232  0.27111015  1
  O2-  O193  1  0.05171308  0.07872227  0.60639174  1
  O2-  O194  1  0.04715707  0.08449864  0.93782801  1
  O2-  O195  1  0.04064864  0.58335131  0.26004791  1
  O2-  O196  1  0.03900892  0.58420346  0.59747611  1
  O2-  O197  1  0.04551902  0.58729710  0.93731182  1
  O2-  O198  1  0.55400361  0.08190722  0.27293914  1
  O2-  O199  1  0.54032703  0.08013631  0.59633709  1
  O2-  O200  1  0.54367415  0.07568156  0.93827021  1
  O2-  O201  1  0.53730647  0.58636930  0.26495855  1
  O2-  O202  1  0.55105242  0.58361758  0.60765842  1
  O2-  O203  1  0.54356383  0.58910354  0.93760939  1
  O2-  O204  1  0.15735153  0.20983834  0.26618644  1
  O2-  O205  1  0.16227052  0.20524150  0.59944668  1
  O2-  O206  1  0.16065635  0.20825737  0.93600644  1
  O2-  O207  1  0.16918900  0.71154375  0.26262290  1
  O2-  O208  1  0.16538444  0.71138334  0.59775765  1
  O2-  O209  1  0.16337253  0.71004414  0.93629013  1
  O2-  O210  1  0.66387536  0.21175130  0.26926770  1
  O2-  O211  1  0.66674441  0.20778460  0.59556266  1
  O2-  O212  1  0.66795980  0.21103342  0.93594457  1
  O2-  O213  1  0.67007781  0.70583377  0.26459827  1
  O2-  O214  1  0.66956432  0.70192261  0.60922791  1
  O2-  O215  1  0.66777298  0.70213652  0.93946199  1
  O2-  O216  1  0.08419413  0.46099046  0.07041080  1
  O2-  O217  1  0.08045456  0.45509335  0.39590525  1
  O2-  O218  1  0.08674192  0.46077378  0.73105267  1
  O2-  O219  1  0.08487514  0.95097427  0.06120896  1
  O2-  O220  1  0.08740963  0.96094233  0.40325154  1
  O2-  O221  1  0.08319198  0.94591073  0.72805337  1
  O2-  O222  1  0.58733100  0.46497380  0.07103791  1
  O2-  O223  1  0.58920781  0.46270800  0.39738375  1
  O2-  O224  1  0.58639480  0.45435707  0.73163201  1
  O2-  O225  1  0.57824804  0.94807512  0.07160726  1
  O2-  O226  1  0.57613254  0.94975536  0.40000319  1
  O2-  O227  1  0.57644449  0.95443113  0.73263549  1
  O2-  O228  1  0.19108459  0.33285918  0.06261635  1
  O2-  O229  1  0.19642676  0.33263465  0.39555856  1
  O2-  O230  1  0.19354360  0.33230526  0.72711429  1
  O2-  O231  1  0.20790972  0.83596536  0.06170972  1
  O2-  O232  1  0.21051387  0.83264456  0.39994476  1
  O2-  O233  1  0.20716082  0.83347909  0.72963632  1
  O2-  O234  1  0.71306315  0.33711816  0.07155455  1
  O2-  O235  1  0.70599724  0.34013008  0.39809354  1
  O2-  O236  1  0.70605885  0.33494841  0.72703074  1
  O2-  O237  1  0.71190852  0.82875769  0.06875542  1
  O2-  O238  1  0.70931579  0.82781700  0.40208238  1
  O2-  O239  1  0.70648292  0.83181067  0.73781864  1
  O2-  O240  1  0.46576241  0.41501863  0.26615294  1
  O2-  O241  1  0.45964306  0.42102671  0.59930436  1
  O2-  O242  1  0.46493329  0.42130201  0.93443614  1
  O2-  O243  1  0.44609165  0.92069882  0.27275058  1
  O2-  O244  1  0.45551887  0.91448943  0.59643353  1
  O2-  O245  1  0.45162220  0.91263637  0.94222964  1
  O2-  O246  1  0.95860233  0.40986698  0.26472141  1
  O2-  O247  1  0.96515676  0.41232690  0.59697353  1
  O2-  O248  1  0.96041468  0.41239619  0.93867744  1
  O2-  O249  1  0.95881724  0.91662755  0.27255601  1
  O2-  O250  1  0.95133507  0.91607046  0.60395291  1
  O2-  O251  1  0.95911803  0.91152418  0.93474715  1
  O2-  O252  1  0.32868886  0.29762470  0.26583027  1
  O2-  O253  1  0.32644310  0.29846301  0.60055239  1
  O2-  O254  1  0.32354670  0.30912647  0.93740931  1
  O2-  O255  1  0.33638759  0.79280831  0.26717027  1
  O2-  O256  1  0.33498805  0.78611060  0.59849919  1
  O2-  O257  1  0.33835613  0.78545326  0.93726547  1
  O2-  O258  1  0.83291620  0.29821555  0.27090958  1
  O2-  O259  1  0.83272381  0.29585748  0.59589309  1
  O2-  O260  1  0.83665093  0.29741656  0.94022291  1
  O2-  O261  1  0.83823057  0.79503535  0.26905162  1
  O2-  O262  1  0.83301745  0.79465200  0.60614552  1
  O2-  O263  1  0.83842275  0.79297887  0.93500308  1
  O2-  O264  1  0.41303325  0.03982951  0.07150407  1
  O2-  O265  1  0.41727730  0.05947250  0.38988148  1
  O2-  O266  1  0.41335156  0.03773303  0.73083246  1
  O2-  O267  1  0.41794680  0.54377103  0.06831285  1
  O2-  O268  1  0.41733641  0.53688628  0.40126838  1
  O2-  O269  1  0.41956250  0.54395000  0.73492971  1
  O2-  O270  1  0.92031222  0.03955832  0.06694878  1
  O2-  O271  1  0.91872491  0.04633069  0.40255496  1
  O2-  O272  1  0.92021996  0.04458433  0.73465568  1
  O2-  O273  1  0.91937665  0.54458274  0.06326070  1
  O2-  O274  1  0.91548835  0.53893451  0.39128682  1
  O2-  O275  1  0.91864361  0.53609062  0.73282296  1
  O2-  O276  1  0.28870123  0.17077530  0.06504846  1
  O2-  O277  1  0.28648952  0.16762051  0.39346208  1
  O2-  O278  1  0.28681765  0.16797358  0.73238314  1
  O2-  O279  1  0.28478555  0.66412133  0.07033399  1
  O2-  O280  1  0.29061272  0.66544902  0.39930238  1
  O2-  O281  1  0.28546253  0.66477392  0.73459328  1
  O2-  O282  1  0.79881772  0.17106867  0.06728149  1
  O2-  O283  1  0.79396851  0.17348684  0.39977262  1
  O2-  O284  1  0.79783797  0.17506206  0.72980085  1
  O2-  O285  1  0.80414173  0.66663279  0.06168182  1
  O2-  O286  1  0.79932068  0.66237881  0.39113609  1
  O2-  O287  1  0.79655544  0.66508422  0.73645793  1
