# generated using pymatgen
data_Ca2Al2SiO7
_symmetry_space_group_name_H-M   'P 1'
_cell_length_a   15.45505057
_cell_length_b   15.45485584
_cell_length_c   15.28127729
_cell_angle_alpha   89.99991104
_cell_angle_beta   90.00448869
_cell_angle_gamma   90.00794664
_symmetry_Int_Tables_number   1
_chemical_formula_structural   Ca2Al2SiO7
_chemical_formula_sum   'Ca48 Al48 Si24 O168'
_cell_volume   3650.01828151
_cell_formula_units_Z   24
loop_
 _symmetry_equiv_pos_site_id
 _symmetry_equiv_pos_as_xyz
  1  'x, y, z'
loop_
 _atom_type_symbol
 _atom_type_oxidation_number
  Ca2+  2.0
  Al0+  0.0
  Si0+  0.0
  O2-  -2.0
loop_
 _atom_site_type_symbol
 _atom_site_label
 _atom_site_symmetry_multiplicity
 _atom_site_fract_x
 _atom_site_fract_y
 _atom_site_fract_z
 _atom_site_occupancy
  Ca2+  Ca0  1  0.17810318  0.08809896  0.17413913  1
  Ca2+  Ca1  1  0.17462759  0.08690856  0.50665215  1
  Ca2+  Ca2  1  0.17541362  0.08358441  0.83280305  1
  Ca2+  Ca3  1  0.17042176  0.57676849  0.17081359  1
  Ca2+  Ca4  1  0.17032159  0.57966448  0.49834561  1
  Ca2+  Ca5  1  0.17077167  0.58066012  0.84562635  1
  Ca2+  Ca6  1  0.66558180  0.08545261  0.16845399  1
  Ca2+  Ca7  1  0.66700269  0.07745325  0.50926610  1
  Ca2+  Ca8  1  0.65796027  0.07958245  0.83565879  1
  Ca2+  Ca9  1  0.67123729  0.57028012  0.17632561  1
  Ca2+  Ca10  1  0.66652962  0.57335730  0.50303358  1
  Ca2+  Ca11  1  0.66208490  0.57180595  0.83482010  1
  Ca2+  Ca12  1  0.08523038  0.33979627  0.16821240  1
  Ca2+  Ca13  1  0.08471492  0.32315208  0.48897250  1
  Ca2+  Ca14  1  0.08518689  0.33087680  0.82831006  1
  Ca2+  Ca15  1  0.07893209  0.82505000  0.16302726  1
  Ca2+  Ca16  1  0.07408487  0.84055972  0.49533656  1
  Ca2+  Ca17  1  0.08210957  0.83101489  0.82606961  1
  Ca2+  Ca18  1  0.57967844  0.33549467  0.16283588  1
  Ca2+  Ca19  1  0.58167741  0.33148279  0.49546468  1
  Ca2+  Ca20  1  0.58592331  0.32527467  0.82727124  1
  Ca2+  Ca21  1  0.57491805  0.83050843  0.16674887  1
  Ca2+  Ca22  1  0.58171481  0.82852844  0.49613909  1
  Ca2+  Ca23  1  0.58311965  0.82491857  0.82197870  1
  Ca2+  Ca24  1  0.32598023  0.42433879  0.17647613  1
  Ca2+  Ca25  1  0.33319548  0.41439352  0.49524238  1
  Ca2+  Ca26  1  0.32621976  0.42413392  0.84283601  1
  Ca2+  Ca27  1  0.33703414  0.92738270  0.17404853  1
  Ca2+  Ca28  1  0.33177989  0.92772165  0.50574961  1
  Ca2+  Ca29  1  0.33196013  0.92803644  0.83358961  1
  Ca2+  Ca30  1  0.82438142  0.41656284  0.17801115  1
  Ca2+  Ca31  1  0.82710731  0.41533205  0.49963285  1
  Ca2+  Ca32  1  0.81986430  0.41079292  0.83707695  1
  Ca2+  Ca33  1  0.83262571  0.91563720  0.17286228  1
  Ca2+  Ca34  1  0.83213914  0.91309639  0.50766111  1
  Ca2+  Ca35  1  0.83003721  0.91281840  0.82825280  1
  Ca2+  Ca36  1  0.41577079  0.17217625  0.16449458  1
  Ca2+  Ca37  1  0.41814352  0.16749769  0.49365342  1
  Ca2+  Ca38  1  0.42178543  0.16283742  0.82961973  1
  Ca2+  Ca39  1  0.40263998  0.67089285  0.16602425  1
  Ca2+  Ca40  1  0.42066137  0.67043246  0.49215555  1
  Ca2+  Ca41  1  0.42021544  0.66460243  0.82738347  1
  Ca2+  Ca42  1  0.92439438  0.17358673  0.16943278  1
  Ca2+  Ca43  1  0.93142545  0.16873823  0.49192801  1
  Ca2+  Ca44  1  0.92574680  0.16898046  0.82478920  1
  Ca2+  Ca45  1  0.91881028  0.66403206  0.16602812  1
  Ca2+  Ca46  1  0.91062182  0.67680075  0.49345014  1
  Ca2+  Ca47  1  0.92438687  0.67015365  0.82824611  1
  Al0+  Al48  1  -0.00204995  0.00118017  -0.00123524  1
  Al0+  Al49  1  -0.00017808  -0.00035395  0.32147683  1
  Al0+  Al50  1  0.00110983  0.00021849  0.66376184  1
  Al0+  Al51  1  -0.00176278  0.50104835  -0.00430254  1
  Al0+  Al52  1  -0.00145067  0.50012862  0.33962688  1
  Al0+  Al53  1  -0.00023016  0.50167899  0.66650222  1
  Al0+  Al54  1  0.49975303  -0.00063386  0.00060428  1
  Al0+  Al55  1  0.50028345  -0.00246510  0.33306896  1
  Al0+  Al56  1  0.50101745  0.00002983  0.67087531  1
  Al0+  Al57  1  0.49902766  0.50124677  0.00738572  1
  Al0+  Al58  1  0.50095277  0.49841168  0.33638782  1
  Al0+  Al59  1  0.50101680  0.49978769  0.66681296  1
  Al0+  Al60  1  0.24994104  0.25014801  0.00549318  1
  Al0+  Al61  1  0.25453154  0.24926121  0.33301619  1
  Al0+  Al62  1  0.25093490  0.25198433  0.66845422  1
  Al0+  Al63  1  0.24749962  0.75254141  -0.00385019  1
  Al0+  Al64  1  0.24929074  0.75143139  0.33309424  1
  Al0+  Al65  1  0.24981870  0.75046972  0.66961319  1
  Al0+  Al66  1  0.74964346  0.24758911  -0.00011269  1
  Al0+  Al67  1  0.75319521  0.24635006  0.33522999  1
  Al0+  Al68  1  0.74931536  0.25015238  0.66638268  1
  Al0+  Al69  1  0.74801569  0.75128223  -0.00083786  1
  Al0+  Al70  1  0.74902624  0.74898136  0.32959830  1
  Al0+  Al71  1  0.75085375  0.74872546  0.66444939  1
  Al0+  Al72  1  0.67982084  0.42718390  0.01404847  1
  Al0+  Al73  1  0.17947902  0.42859587  0.35011475  1
  Al0+  Al74  1  0.06914364  0.68001218  0.98612591  1
  Al0+  Al75  1  0.43204351  0.32115183  0.31923707  1
  Al0+  Al76  1  0.68018882  0.92798530  0.67949277  1
  Al0+  Al77  1  0.07204996  0.18148324  0.65428584  1
  Al0+  Al78  1  0.32202354  0.06974003  0.34747914  1
  Al0+  Al79  1  0.82095444  0.57228788  0.34895147  1
  Al0+  Al80  1  0.56992654  0.18033647  0.98619173  1
  Al0+  Al81  1  0.32093397  0.57404371  0.01458073  1
  Al0+  Al82  1  0.17691339  0.92887167  0.68102239  1
  Al0+  Al83  1  0.93173414  0.81890280  0.65329464  1
  Al0+  Al84  1  0.57031224  0.67755579  0.65291025  1
  Al0+  Al85  1  0.32180223  0.07347936  0.68261703  1
  Al0+  Al86  1  0.42844598  0.82048195  0.32071991  1
  Al0+  Al87  1  0.67939865  0.42866201  0.68184039  1
  Al0+  Al88  1  0.67909752  0.42500721  0.35021723  1
  Al0+  Al89  1  0.07411645  0.17995198  0.31596279  1
  Al0+  Al90  1  0.92914633  0.32200479  0.31928249  1
  Al0+  Al91  1  0.32139234  0.06880194  0.01579204  1
  Al0+  Al92  1  0.92718825  0.82015797  0.31759157  1
  Al0+  Al93  1  0.57067467  0.17775838  0.65297589  1
  Al0+  Al94  1  0.17660094  0.42898889  0.01445470  1
  Al0+  Al95  1  0.32106872  0.57409741  0.35037999  1
  Si0+  Si96  1  0.17800491  0.43034884  0.68123059  1
  Si0+  Si97  1  0.82237800  0.57250013  0.68530588  1
  Si0+  Si98  1  0.32096292  0.57129261  0.68085070  1
  Si0+  Si99  1  0.07494031  0.67629197  0.64820101  1
  Si0+  Si100  1  0.67934829  0.92811691  0.01573947  1
  Si0+  Si101  1  0.82013860  0.57334950  0.01439567  1
  Si0+  Si102  1  0.07223733  0.67754665  0.31797957  1
  Si0+  Si103  1  0.92724631  0.32366719  0.65071457  1
  Si0+  Si104  1  0.42752681  0.82156388  0.65120829  1
  Si0+  Si105  1  0.17606846  0.92903728  0.34705101  1
  Si0+  Si106  1  0.82220779  0.07193848  0.68237076  1
  Si0+  Si107  1  0.67977557  0.92925762  0.34702492  1
  Si0+  Si108  1  0.42859606  0.32256935  0.65124489  1
  Si0+  Si109  1  0.57066773  0.67768635  0.31532121  1
  Si0+  Si110  1  0.57134507  0.67888604  0.98565660  1
  Si0+  Si111  1  0.82331194  0.06851310  0.34778730  1
  Si0+  Si112  1  0.92557525  0.82398629  0.98090974  1
  Si0+  Si113  1  0.92830382  0.32004289  0.98443452  1
  Si0+  Si114  1  0.42930281  0.82159738  0.98340204  1
  Si0+  Si115  1  0.42728038  0.32364673  0.98426033  1
  Si0+  Si116  1  0.57321157  0.17564259  0.31801187  1
  Si0+  Si117  1  0.82210177  0.07044592  0.01544811  1
  Si0+  Si118  1  0.17500773  0.92947072  0.01719046  1
  Si0+  Si119  1  0.07238350  0.17877654  0.98410193  1
  O2-  O120  1  0.24337935  -0.00265372  0.06245152  1
  O2-  O121  1  0.24431073  -0.00269056  0.39204524  1
  O2-  O122  1  0.24924698  0.00061312  0.73130873  1
  O2-  O123  1  0.24993559  0.50043622  0.06267160  1
  O2-  O124  1  0.25065961  0.50120691  0.40142968  1
  O2-  O125  1  0.24656717  0.50382872  0.72302886  1
  O2-  O126  1  0.75138930  -0.00169322  0.05717288  1
  O2-  O127  1  0.75245471  -0.00231909  0.38985299  1
  O2-  O128  1  0.75175705  0.00539615  0.72819808  1
  O2-  O129  1  0.75290658  0.50399804  0.05900683  1
  O2-  O130  1  0.75123345  0.49804521  0.39876204  1
  O2-  O131  1  0.75612163  0.50136105  0.72966624  1
  O2-  O132  1  0.00509431  0.25573696  0.26632206  1
  O2-  O133  1  -0.00216513  0.25659117  0.60805616  1
  O2-  O134  1  0.00348105  0.25267336  0.94240936  1
  O2-  O135  1  0.00100552  0.74410213  0.27317357  1
  O2-  O136  1  0.00752899  0.74641076  0.60488395  1
  O2-  O137  1  -0.00491776  0.75560301  0.93862970  1
  O2-  O138  1  0.50930214  0.24810189  0.27338280  1
  O2-  O139  1  0.49540173  0.25148842  0.60764807  1
  O2-  O140  1  0.49641055  0.25602441  0.93853804  1
  O2-  O141  1  0.49734541  0.74151050  0.27056420  1
  O2-  O142  1  0.49619788  0.75307696  0.60697467  1
  O2-  O143  1  0.49693686  0.74643642  0.94264519  1
  O2-  O144  1  0.06988894  0.17551305  0.08846873  1
  O2-  O145  1  0.07104791  0.17724726  0.42972265  1
  O2-  O146  1  0.07071889  0.18439608  0.76831736  1
  O2-  O147  1  0.06653979  0.68130253  0.09900229  1
  O2-  O148  1  0.07392763  0.68133966  0.42355477  1
  O2-  O149  1  0.07314243  0.67456701  0.75408669  1
  O2-  O150  1  0.57115685  0.17949823  0.09910905  1
  O2-  O151  1  0.57132842  0.17223720  0.42357047  1
  O2-  O152  1  0.57022219  0.17921294  0.76639584  1
  O2-  O153  1  0.57656957  0.68334742  0.09011398  1
  O2-  O154  1  0.57263767  0.68235410  0.42094049  1
  O2-  O155  1  0.56687619  0.67735541  0.76700193  1
  O2-  O156  1  0.18030870  0.43183461  0.23666850  1
  O2-  O157  1  0.17801744  0.42946601  0.57682051  1
  O2-  O158  1  0.17810236  0.42995098  0.89975415  1
  O2-  O159  1  0.17750127  0.92916196  0.24108899  1
  O2-  O160  1  0.17727951  0.92963295  0.56753852  1
  O2-  O161  1  0.17465396  0.93119731  0.91161745  1
  O2-  O162  1  0.68033370  0.42621246  0.23611519  1
  O2-  O163  1  0.67963980  0.42901884  0.56963810  1
  O2-  O164  1  0.68089040  0.42724564  0.90057382  1
  O2-  O165  1  0.67938463  0.93128055  0.24124800  1
  O2-  O166  1  0.68193384  0.92822973  0.56633035  1
  O2-  O167  1  0.67957187  0.92613055  0.91077341  1
  O2-  O168  1  0.42893015  0.32213446  0.08951326  1
  O2-  O169  1  0.43236979  0.31809027  0.43262262  1
  O2-  O170  1  0.42881905  0.32488923  0.75715715  1
  O2-  O171  1  0.43198400  0.82333505  0.08855677  1
  O2-  O172  1  0.43389301  0.82307025  0.43353531  1
  O2-  O173  1  0.42863484  0.81895605  0.75747214  1
  O2-  O174  1  0.92614248  0.31839267  0.08890214  1
  O2-  O175  1  0.92757961  0.31501773  0.43273810  1
  O2-  O176  1  0.92797767  0.32229075  0.75721411  1
  O2-  O177  1  0.92400877  0.82446073  0.08629009  1
  O2-  O178  1  0.92730627  0.82228838  0.43050165  1
  O2-  O179  1  0.93131812  0.81589470  0.76676101  1
  O2-  O180  1  0.32396401  0.06709880  0.23410844  1
  O2-  O181  1  0.32173419  0.07269521  0.56924922  1
  O2-  O182  1  0.32179552  0.06711285  0.90283726  1
  O2-  O183  1  0.31630964  0.57496595  0.23702602  1
  O2-  O184  1  0.32125833  0.57177593  0.57635335  1
  O2-  O185  1  0.32124819  0.57216854  0.90000539  1
  O2-  O186  1  0.82133854  0.06822822  0.24211698  1
  O2-  O187  1  0.82175798  0.07006156  0.57678095  1
  O2-  O188  1  0.82453290  0.07045390  0.91049125  1
  O2-  O189  1  0.81714836  0.57349918  0.23463990  1
  O2-  O190  1  0.82197153  0.57315628  0.58027951  1
  O2-  O191  1  0.81799232  0.57419369  0.90862859  1
  O2-  O192  1  0.03991567  0.08479344  0.25895440  1
  O2-  O193  1  0.04109624  0.08561998  0.60023182  1
  O2-  O194  1  0.04008568  0.08813878  0.93591563  1
  O2-  O195  1  0.04747405  0.58330249  0.27394489  1
  O2-  O196  1  0.04833806  0.58282418  0.60237890  1
  O2-  O197  1  0.03813107  0.58442346  0.92828949  1
  O2-  O198  1  0.54432578  0.08357089  0.26999109  1
  O2-  O199  1  0.54350251  0.07935815  0.60070623  1
  O2-  O200  1  0.53871026  0.08228683  0.93381381  1
  O2-  O201  1  0.55129623  0.58194826  0.27273752  1
  O2-  O202  1  0.53849753  0.58217048  0.59819789  1
  O2-  O203  1  0.54561236  0.58536291  0.94019454  1
  O2-  O204  1  0.17330924  0.20572657  0.26525208  1
  O2-  O205  1  0.16851784  0.21283642  0.60115139  1
  O2-  O206  1  0.16534968  0.20475098  0.93801787  1
  O2-  O207  1  0.16382939  0.70632316  0.26942222  1
  O2-  O208  1  0.16977540  0.69979158  0.60449480  1
  O2-  O209  1  0.16512477  0.71089901  0.92932228  1
  O2-  O210  1  0.66924411  0.19515003  0.27459740  1
  O2-  O211  1  0.66831360  0.20681167  0.59987385  1
  O2-  O212  1  0.66808550  0.20704537  0.93193703  1
  O2-  O213  1  0.66082688  0.71008031  0.26587166  1
  O2-  O214  1  0.66644195  0.70836819  0.59974016  1
  O2-  O215  1  0.66129464  0.71044415  0.93548895  1
  O2-  O216  1  0.07689335  0.45801684  0.06390912  1
  O2-  O217  1  0.08043384  0.45309580  0.40346018  1
  O2-  O218  1  0.08485177  0.45511661  0.72869095  1
  O2-  O219  1  0.08009410  0.95334291  0.06178822  1
  O2-  O220  1  0.08101847  0.95526803  0.38968516  1
  O2-  O221  1  0.07880407  0.95740178  0.73520225  1
  O2-  O222  1  0.58354881  0.45690331  0.06791714  1
  O2-  O223  1  0.58149191  0.45404166  0.40318702  1
  O2-  O224  1  0.58332697  0.46203704  0.73640952  1
  O2-  O225  1  0.58846071  0.95741735  0.06380190  1
  O2-  O226  1  0.58957145  0.95820250  0.39580726  1
  O2-  O227  1  0.58398265  0.95521627  0.73615329  1
  O2-  O228  1  0.20117329  0.33028866  0.06706920  1
  O2-  O229  1  0.21253397  0.33088876  0.40151956  1
  O2-  O230  1  0.20795495  0.34035222  0.73107502  1
  O2-  O231  1  0.20033949  0.83537118  0.06118514  1
  O2-  O232  1  0.19889354  0.83554191  0.39335935  1
  O2-  O233  1  0.20481594  0.82996811  0.73560182  1
  O2-  O234  1  0.71267414  0.33095984  0.06667301  1
  O2-  O235  1  0.70816304  0.32578394  0.40164636  1
  O2-  O236  1  0.71042051  0.33156025  0.73630148  1
  O2-  O237  1  0.70659405  0.83677830  0.06487651  1
  O2-  O238  1  0.70564606  0.83654237  0.39215168  1
  O2-  O239  1  0.71409225  0.83231496  0.73487233  1
  O2-  O240  1  0.45987151  0.41883257  0.26528478  1
  O2-  O241  1  0.45688403  0.41455564  0.60405408  1
  O2-  O242  1  0.45137593  0.41908055  0.94028109  1
  O2-  O243  1  0.46691224  0.91357491  0.26308126  1
  O2-  O244  1  0.45423575  0.91533553  0.60751647  1
  O2-  O245  1  0.46333538  0.91069273  0.93475960  1
  O2-  O246  1  0.94996046  0.42357640  0.26959896  1
  O2-  O247  1  0.95016162  0.41861096  0.60691490  1
  O2-  O248  1  0.95037921  0.41268670  0.93562060  1
  O2-  O249  1  0.95763507  0.91448947  0.25876895  1
  O2-  O250  1  0.95802705  0.91661351  0.59931402  1
  O2-  O251  1  0.95013065  0.91828279  0.93521948  1
  O2-  O252  1  0.33746710  0.28828085  0.26363495  1
  O2-  O253  1  0.33447737  0.29927007  0.60570129  1
  O2-  O254  1  0.33292851  0.29735800  0.93910416  1
  O2-  O255  1  0.33045011  0.79592379  0.26563845  1
  O2-  O256  1  0.33369767  0.79633860  0.60605505  1
  O2-  O257  1  0.33598844  0.79966688  0.93651522  1
  O2-  O258  1  0.83299393  0.28565347  0.26449742  1
  O2-  O259  1  0.83424808  0.29722412  0.60536333  1
  O2-  O260  1  0.83921448  0.28537769  0.93497914  1
  O2-  O261  1  0.83044561  0.79108395  0.26178412  1
  O2-  O262  1  0.83566500  0.78733614  0.59902868  1
  O2-  O263  1  0.83140677  0.79762284  0.93542995  1
  O2-  O264  1  0.41687996  0.03372957  0.06944896  1
  O2-  O265  1  0.41771490  0.03453969  0.40101135  1
  O2-  O266  1  0.41895469  0.04228919  0.73696976  1
  O2-  O267  1  0.41963228  0.55160358  0.06879939  1
  O2-  O268  1  0.42068587  0.54719611  0.40052809  1
  O2-  O269  1  0.41140091  0.54036136  0.72941445  1
  O2-  O270  1  0.91326224  0.04307404  0.06471763  1
  O2-  O271  1  0.91567035  0.03879458  0.39227639  1
  O2-  O272  1  0.91460106  0.04368991  0.72969774  1
  O2-  O273  1  0.91425609  0.54882786  0.05825624  1
  O2-  O274  1  0.91966676  0.55130352  0.40370286  1
  O2-  O275  1  0.91764588  0.54930722  0.73084139  1
  O2-  O276  1  0.29353941  0.16645082  0.06805428  1
  O2-  O277  1  0.29531533  0.16644495  0.40118885  1
  O2-  O278  1  0.29271521  0.17175342  0.73678779  1
  O2-  O279  1  0.29088798  0.67371368  0.06378516  1
  O2-  O280  1  0.29286631  0.67328357  0.40309430  1
  O2-  O281  1  0.29740933  0.66373544  0.72951624  1
  O2-  O282  1  0.79180463  0.16047089  0.06434852  1
  O2-  O283  1  0.79771911  0.15887554  0.39787450  1
  O2-  O284  1  0.79973893  0.16627492  0.72845344  1
  O2-  O285  1  0.79487531  0.66754852  0.06006648  1
  O2-  O286  1  0.78826819  0.67077590  0.40060945  1
  O2-  O287  1  0.79423874  0.66463840  0.73263067  1
