# generated using pymatgen
data_Ca2Al2SiO7
_symmetry_space_group_name_H-M   'P 1'
_cell_length_a   15.45548898
_cell_length_b   15.45574992
_cell_length_c   15.28218729
_cell_angle_alpha   90.00945578
_cell_angle_beta   90.01036722
_cell_angle_gamma   89.98831798
_symmetry_Int_Tables_number   1
_chemical_formula_structural   Ca2Al2SiO7
_chemical_formula_sum   'Ca48 Al48 Si24 O168'
_cell_volume   3650.55022302
_cell_formula_units_Z   24
loop_
 _symmetry_equiv_pos_site_id
 _symmetry_equiv_pos_as_xyz
  1  'x, y, z'
loop_
 _atom_type_symbol
 _atom_type_oxidation_number
  Ca2+  2.0
  Al0+  0.0
  Si0+  0.0
  O2-  -2.0
loop_
 _atom_site_type_symbol
 _atom_site_label
 _atom_site_symmetry_multiplicity
 _atom_site_fract_x
 _atom_site_fract_y
 _atom_site_fract_z
 _atom_site_occupancy
  Ca2+  Ca0  1  0.17494046  0.07623671  0.17183719  1
  Ca2+  Ca1  1  0.17276805  0.07714262  0.50504136  1
  Ca2+  Ca2  1  0.16246202  0.07554096  0.83890309  1
  Ca2+  Ca3  1  0.16949605  0.57706945  0.16966186  1
  Ca2+  Ca4  1  0.16869762  0.57605776  0.50660521  1
  Ca2+  Ca5  1  0.16606241  0.57030126  0.83936869  1
  Ca2+  Ca6  1  0.65391675  0.07976310  0.16855082  1
  Ca2+  Ca7  1  0.67284420  0.08565634  0.50545327  1
  Ca2+  Ca8  1  0.67290924  0.07935288  0.84011832  1
  Ca2+  Ca9  1  0.66651854  0.58135157  0.17568071  1
  Ca2+  Ca10  1  0.65894023  0.57633781  0.50214235  1
  Ca2+  Ca11  1  0.65868044  0.58518345  0.83460458  1
  Ca2+  Ca12  1  0.07873163  0.32987792  0.15791065  1
  Ca2+  Ca13  1  0.07926724  0.32932125  0.49595059  1
  Ca2+  Ca14  1  0.09175448  0.32154124  0.82853706  1
  Ca2+  Ca15  1  0.08614651  0.83815977  0.16357945  1
  Ca2+  Ca16  1  0.08018490  0.84434760  0.50027413  1
  Ca2+  Ca17  1  0.08038203  0.84108458  0.82425987  1
  Ca2+  Ca18  1  0.58274953  0.32265579  0.16152176  1
  Ca2+  Ca19  1  0.59154761  0.32954171  0.49268095  1
  Ca2+  Ca20  1  0.57962088  0.33347634  0.83138302  1
  Ca2+  Ca21  1  0.57304556  0.82902558  0.15658656  1
  Ca2+  Ca22  1  0.57314540  0.82468475  0.49162420  1
  Ca2+  Ca23  1  0.57675926  0.82820463  0.82780298  1
  Ca2+  Ca24  1  0.33162398  0.40947865  0.16493844  1
  Ca2+  Ca25  1  0.32918730  0.41914006  0.50883014  1
  Ca2+  Ca26  1  0.32639173  0.41296173  0.83963154  1
  Ca2+  Ca27  1  0.32886884  0.91432569  0.17465266  1
  Ca2+  Ca28  1  0.33040210  0.91485413  0.50143838  1
  Ca2+  Ca29  1  0.32697698  0.90970504  0.83861976  1
  Ca2+  Ca30  1  0.82783621  0.42236206  0.17976093  1
  Ca2+  Ca31  1  0.82467329  0.41812820  0.49978749  1
  Ca2+  Ca32  1  0.82575287  0.41861170  0.83418462  1
  Ca2+  Ca33  1  0.82304476  0.91834433  0.16690789  1
  Ca2+  Ca34  1  0.83374730  0.92249951  0.50940671  1
  Ca2+  Ca35  1  0.83102022  0.91952589  0.83564022  1
  Ca2+  Ca36  1  0.42325402  0.16643218  0.16303905  1
  Ca2+  Ca37  1  0.42171604  0.16653442  0.49221883  1
  Ca2+  Ca38  1  0.41956091  0.16947978  0.83640818  1
  Ca2+  Ca39  1  0.42625558  0.67446916  0.16139356  1
  Ca2+  Ca40  1  0.42290071  0.67506692  0.49642296  1
  Ca2+  Ca41  1  0.42400990  0.67696678  0.82863206  1
  Ca2+  Ca42  1  0.92183635  0.17453431  0.16336645  1
  Ca2+  Ca43  1  0.92130537  0.16851676  0.49803613  1
  Ca2+  Ca44  1  0.92870308  0.15976577  0.82685409  1
  Ca2+  Ca45  1  0.91553000  0.66461800  0.16609638  1
  Ca2+  Ca46  1  0.91596945  0.66892711  0.49768938  1
  Ca2+  Ca47  1  0.91908510  0.67636203  0.82778501  1
  Al0+  Al48  1  -0.00055253  0.00138959  0.00363661  1
  Al0+  Al49  1  -0.00016261  -0.00025380  0.33360210  1
  Al0+  Al50  1  0.00178287  0.00187217  0.66440385  1
  Al0+  Al51  1  -0.00092694  0.50053066  0.00322891  1
  Al0+  Al52  1  -0.00228556  0.50107359  0.33379159  1
  Al0+  Al53  1  -0.00225270  0.49916995  0.67215900  1
  Al0+  Al54  1  0.50005549  0.00038761  -0.00554143  1
  Al0+  Al55  1  0.49798960  0.00057821  0.33157415  1
  Al0+  Al56  1  0.50003402  0.00130430  0.66314213  1
  Al0+  Al57  1  0.49966716  0.50010670  -0.00532034  1
  Al0+  Al58  1  0.49806094  0.49957158  0.33391177  1
  Al0+  Al59  1  0.49929942  0.49973906  0.66852314  1
  Al0+  Al60  1  0.24843261  0.24861142  -0.00146362  1
  Al0+  Al61  1  0.24996209  0.24664656  0.33760710  1
  Al0+  Al62  1  0.25118257  0.24792404  0.66491721  1
  Al0+  Al63  1  0.24950523  0.74682826  0.00153051  1
  Al0+  Al64  1  0.24687743  0.74810213  0.33500976  1
  Al0+  Al65  1  0.25009423  0.74922605  0.66728907  1
  Al0+  Al66  1  0.75216846  0.25192674  -0.00288714  1
  Al0+  Al67  1  0.75105845  0.25038820  0.32680141  1
  Al0+  Al68  1  0.75217785  0.25150286  0.67774744  1
  Al0+  Al69  1  0.75120092  0.75145174  0.00095837  1
  Al0+  Al70  1  0.75236165  0.75021514  0.33389668  1
  Al0+  Al71  1  0.75084428  0.74939680  0.65780074  1
  Al0+  Al72  1  0.57385474  0.68022539  0.98444629  1
  Al0+  Al73  1  0.67907583  0.93053790  0.01189875  1
  Al0+  Al74  1  0.06832401  0.17983164  0.98734380  1
  Al0+  Al75  1  0.18221865  0.93091198  0.68064247  1
  Al0+  Al76  1  0.17865750  0.92764750  0.01379701  1
  Al0+  Al77  1  0.07194000  0.17972022  0.65077395  1
  Al0+  Al78  1  0.42674952  0.82314863  0.64939329  1
  Al0+  Al79  1  0.57393567  0.17794640  0.98217681  1
  Al0+  Al80  1  0.93137507  0.82144812  0.65341776  1
  Al0+  Al81  1  0.57142977  0.18039810  0.32180960  1
  Al0+  Al82  1  0.42603159  0.82152417  0.98436955  1
  Al0+  Al83  1  0.82143960  0.07041383  0.67990938  1
  Al0+  Al84  1  0.42719539  0.81999596  0.31698545  1
  Al0+  Al85  1  0.82186544  0.57315088  0.35026557  1
  Al0+  Al86  1  0.57085012  0.67765318  0.64897173  1
  Al0+  Al87  1  0.42913452  0.32024371  0.98521010  1
  Al0+  Al88  1  0.57213815  0.67781157  0.31716842  1
  Al0+  Al89  1  0.17822477  0.92756820  0.35019324  1
  Al0+  Al90  1  0.67800664  0.42878914  0.34597501  1
  Al0+  Al91  1  0.17831677  0.42764419  0.67974889  1
  Al0+  Al92  1  0.67868453  0.43043734  0.68274665  1
  Al0+  Al93  1  0.17947010  0.42741955  0.01509511  1
  Al0+  Al94  1  0.32286065  0.07080503  0.34948454  1
  Al0+  Al95  1  0.93090209  0.32111489  0.32054522  1
  Si0+  Si96  1  0.92880791  0.32566418  0.98098937  1
  Si0+  Si97  1  0.07265641  0.17746758  0.31596722  1
  Si0+  Si98  1  0.07083342  0.67680550  0.98631542  1
  Si0+  Si99  1  0.32242346  0.57021144  0.01791574  1
  Si0+  Si100  1  0.31963875  0.57009421  0.34836302  1
  Si0+  Si101  1  0.06937940  0.67800285  0.31827029  1
  Si0+  Si102  1  0.82073970  0.07098066  0.34647368  1
  Si0+  Si103  1  0.67770427  0.92744818  0.68005593  1
  Si0+  Si104  1  0.32119169  0.57115940  0.68491260  1
  Si0+  Si105  1  0.17782546  0.42808957  0.34736203  1
  Si0+  Si106  1  0.82226573  0.07349540  0.01850365  1
  Si0+  Si107  1  0.42963684  0.31965552  0.65161288  1
  Si0+  Si108  1  0.92943098  0.82388055  0.31656103  1
  Si0+  Si109  1  0.42434311  0.32285825  0.31938711  1
  Si0+  Si110  1  0.82017634  0.57152528  0.01493276  1
  Si0+  Si111  1  0.32565306  0.07300162  0.68566490  1
  Si0+  Si112  1  0.82166693  0.57464956  0.68521873  1
  Si0+  Si113  1  0.67871740  0.92927606  0.34742542  1
  Si0+  Si114  1  0.92681464  0.32289955  0.65112504  1
  Si0+  Si115  1  0.57413312  0.18138756  0.65309346  1
  Si0+  Si116  1  0.07120884  0.67499744  0.65182704  1
  Si0+  Si117  1  0.67786962  0.42907142  0.01531969  1
  Si0+  Si118  1  0.93117710  0.82058657  0.98711447  1
  Si0+  Si119  1  0.32190632  0.07152823  0.01541235  1
  O2-  O120  1  0.25788905  -0.00226166  0.05923989  1
  O2-  O121  1  0.25158596  -0.00188971  0.39942734  1
  O2-  O122  1  0.25972738  0.00128586  0.72929264  1
  O2-  O123  1  0.25517295  0.49999941  0.06349228  1
  O2-  O124  1  0.25220400  0.49478509  0.39029244  1
  O2-  O125  1  0.25074027  0.50342500  0.72820395  1
  O2-  O126  1  0.74775497  0.01056884  0.06187384  1
  O2-  O127  1  0.74963945  0.00071941  0.38966106  1
  O2-  O128  1  0.74649658  -0.00447422  0.72551337  1
  O2-  O129  1  0.74841428  0.50111066  0.05638336  1
  O2-  O130  1  0.74575847  0.50424138  0.39791388  1
  O2-  O131  1  0.75026534  0.50880337  0.72946949  1
  O2-  O132  1  0.00750918  0.24948705  0.27194035  1
  O2-  O133  1  -0.00143493  0.25742862  0.60662667  1
  O2-  O134  1  -0.00438934  0.25518765  0.93746111  1
  O2-  O135  1  0.00016877  0.75140516  0.27612303  1
  O2-  O136  1  0.00549042  0.74583219  0.60645660  1
  O2-  O137  1  0.00601588  0.75360943  0.94468104  1
  O2-  O138  1  0.49585463  0.25588474  0.27772214  1
  O2-  O139  1  0.50287791  0.25130932  0.60918066  1
  O2-  O140  1  0.50308115  0.25146677  0.93280639  1
  O2-  O141  1  0.50235336  0.75141791  0.26694625  1
  O2-  O142  1  0.50095236  0.75247945  0.60084264  1
  O2-  O143  1  0.50180560  0.75261564  0.93576634  1
  O2-  O144  1  0.06548924  0.18175342  0.10053027  1
  O2-  O145  1  0.07078669  0.17827761  0.42157116  1
  O2-  O146  1  0.07043115  0.17906861  0.76404433  1
  O2-  O147  1  0.06752383  0.67366923  0.09156662  1
  O2-  O148  1  0.06884955  0.67390550  0.42314797  1
  O2-  O149  1  0.06822456  0.67363416  0.75772296  1
  O2-  O150  1  0.57254901  0.18003823  0.09592063  1
  O2-  O151  1  0.57444619  0.18238577  0.43546372  1
  O2-  O152  1  0.57311262  0.18231607  0.75777200  1
  O2-  O153  1  0.57449918  0.68030471  0.09782518  1
  O2-  O154  1  0.56838644  0.67812834  0.43039918  1
  O2-  O155  1  0.56921882  0.67956389  0.76259693  1
  O2-  O156  1  0.17754096  0.42994351  0.24224869  1
  O2-  O157  1  0.18048186  0.42998758  0.56584801  1
  O2-  O158  1  0.17896202  0.42990078  0.90213337  1
  O2-  O159  1  0.17705795  0.92975309  0.23628599  1
  O2-  O160  1  0.18059562  0.93403121  0.56809153  1
  O2-  O161  1  0.17454369  0.93025700  0.90082634  1
  O2-  O162  1  0.68098452  0.42743466  0.23218808  1
  O2-  O163  1  0.68091156  0.42623431  0.57000830  1
  O2-  O164  1  0.68007823  0.42930753  0.91011997  1
  O2-  O165  1  0.68079996  0.92995714  0.24211687  1
  O2-  O166  1  0.67909905  0.93125021  0.57407258  1
  O2-  O167  1  0.68611380  0.92828772  0.89894498  1
  O2-  O168  1  0.43026373  0.31893189  0.09913289  1
  O2-  O169  1  0.42171299  0.32258055  0.42525490  1
  O2-  O170  1  0.42862626  0.31825975  0.75639775  1
  O2-  O171  1  0.42531112  0.81856279  0.09789093  1
  O2-  O172  1  0.42804117  0.81760678  0.43036048  1
  O2-  O173  1  0.42657559  0.82127408  0.76285159  1
  O2-  O174  1  0.92994288  0.32672416  0.08685020  1
  O2-  O175  1  0.93208443  0.31889531  0.43372777  1
  O2-  O176  1  0.92665005  0.32248656  0.75673467  1
  O2-  O177  1  0.92991287  0.81831754  0.09246583  1
  O2-  O178  1  0.93016763  0.82708717  0.42138082  1
  O2-  O179  1  0.93212053  0.82039704  0.76717349  1
  O2-  O180  1  0.32042938  0.07417412  0.23591509  1
  O2-  O181  1  0.32492345  0.07600002  0.58027089  1
  O2-  O182  1  0.31837534  0.07376993  0.90978712  1
  O2-  O183  1  0.31683057  0.57076801  0.24339765  1
  O2-  O184  1  0.32028763  0.56826134  0.57866340  1
  O2-  O185  1  0.31823412  0.57076169  0.91252287  1
  O2-  O186  1  0.82314660  0.06843644  0.24146273  1
  O2-  O187  1  0.81858625  0.07148931  0.56608624  1
  O2-  O188  1  0.82591445  0.06888862  0.91304511  1
  O2-  O189  1  0.82483219  0.56992179  0.23612383  1
  O2-  O190  1  0.82595434  0.57213131  0.58030274  1
  O2-  O191  1  0.82322251  0.57137408  0.90995882  1
  O2-  O192  1  0.04232596  0.08523886  0.26992069  1
  O2-  O193  1  0.03654205  0.08629918  0.59485662  1
  O2-  O194  1  0.03449767  0.08347617  0.93359381  1
  O2-  O195  1  0.03915873  0.58801914  0.26781112  1
  O2-  O196  1  0.04228798  0.58213734  0.60492272  1
  O2-  O197  1  0.03649226  0.58782771  0.93682017  1
  O2-  O198  1  0.53984847  0.08471817  0.26682497  1
  O2-  O199  1  0.54940188  0.08908712  0.60519127  1
  O2-  O200  1  0.54682317  0.08036857  0.92783878  1
  O2-  O201  1  0.54164050  0.57871448  0.26597915  1
  O2-  O202  1  0.53823143  0.57886583  0.59832956  1
  O2-  O203  1  0.54546628  0.58180419  0.93221214  1
  O2-  O204  1  0.16753585  0.20062206  0.27209225  1
  O2-  O205  1  0.16881520  0.20948085  0.59664366  1
  O2-  O206  1  0.16430190  0.20889212  0.93254546  1
  O2-  O207  1  0.16093464  0.70325466  0.26938910  1
  O2-  O208  1  0.16614647  0.69574480  0.60747352  1
  O2-  O209  1  0.16428266  0.69634008  0.94018941  1
  O2-  O210  1  0.66629824  0.20885713  0.26331145  1
  O2-  O211  1  0.66682469  0.21127122  0.60856107  1
  O2-  O212  1  0.67396174  0.20530722  0.93149426  1
  O2-  O213  1  0.67364275  0.70279652  0.26893788  1
  O2-  O214  1  0.67064194  0.69993533  0.59670361  1
  O2-  O215  1  0.67304284  0.70846952  0.93205715  1
  O2-  O216  1  0.08323464  0.46219407  0.06880322  1
  O2-  O217  1  0.08812336  0.46104236  0.39509557  1
  O2-  O218  1  0.08131978  0.45559063  0.73463796  1
  O2-  O219  1  0.08279369  0.96100820  0.06892829  1
  O2-  O220  1  0.07911061  0.95871991  0.40121544  1
  O2-  O221  1  0.08588714  0.96539625  0.73330327  1
  O2-  O222  1  0.58478528  0.45445489  0.06048403  1
  O2-  O223  1  0.57729743  0.45049115  0.39860476  1
  O2-  O224  1  0.58073910  0.45798840  0.73613176  1
  O2-  O225  1  0.58064104  0.95736487  0.06460294  1
  O2-  O226  1  0.58710911  0.95684316  0.39402638  1
  O2-  O227  1  0.58429428  0.95391519  0.72566304  1
  O2-  O228  1  0.20849807  0.33060515  0.06924018  1
  O2-  O229  1  0.20061269  0.33490650  0.39398363  1
  O2-  O230  1  0.21284180  0.33151438  0.73195514  1
  O2-  O231  1  0.20220798  0.82783811  0.06565806  1
  O2-  O232  1  0.20025151  0.82679713  0.40139995  1
  O2-  O233  1  0.20413670  0.83046500  0.73238581  1
  O2-  O234  1  0.70736999  0.33694547  0.06152109  1
  O2-  O235  1  0.71343221  0.33111503  0.39788533  1
  O2-  O236  1  0.71317013  0.33722429  0.74141189  1
  O2-  O237  1  0.71741462  0.83694936  0.06843694  1
  O2-  O238  1  0.70871584  0.83856605  0.39497447  1
  O2-  O239  1  0.70455752  0.83309372  0.72308383  1
  O2-  O240  1  0.44488480  0.41703047  0.27327893  1
  O2-  O241  1  0.45356858  0.41292580  0.60576995  1
  O2-  O242  1  0.45371386  0.41882725  0.93066588  1
  O2-  O243  1  0.45260692  0.91985669  0.26659627  1
  O2-  O244  1  0.45335148  0.92295249  0.59751430  1
  O2-  O245  1  0.44940436  0.92072303  0.93227563  1
  O2-  O246  1  0.96019389  0.41810966  0.26607577  1
  O2-  O247  1  0.94946151  0.41793429  0.60672940  1
  O2-  O248  1  0.95529830  0.41918048  0.93548075  1
  O2-  O249  1  0.95772839  0.91461056  0.26656104  1
  O2-  O250  1  0.96365413  0.91643924  0.59754357  1
  O2-  O251  1  0.95529711  0.91376090  0.94144857  1
  O2-  O252  1  0.33139625  0.29460749  0.27243130  1
  O2-  O253  1  0.33927472  0.29071334  0.60194759  1
  O2-  O254  1  0.33109526  0.29010344  0.93219394  1
  O2-  O255  1  0.32785209  0.78824408  0.26757516  1
  O2-  O256  1  0.32834855  0.79118888  0.59759295  1
  O2-  O257  1  0.32812872  0.78786739  0.93212912  1
  O2-  O258  1  0.83744515  0.28789937  0.26212725  1
  O2-  O259  1  0.83407404  0.29226937  0.60636339  1
  O2-  O260  1  0.83462125  0.30271806  0.93590550  1
  O2-  O261  1  0.83792087  0.79636599  0.26828566  1
  O2-  O262  1  0.83570162  0.79383747  0.59627783  1
  O2-  O263  1  0.84206714  0.78848875  0.93773796  1
  O2-  O264  1  0.41816352  0.05254997  0.05808342  1
  O2-  O265  1  0.42179662  0.04498200  0.40329564  1
  O2-  O266  1  0.42112907  0.05180620  0.73015940  1
  O2-  O267  1  0.41673231  0.54484626  0.06264007  1
  O2-  O268  1  0.41124145  0.54514910  0.39725796  1
  O2-  O269  1  0.41310711  0.54277286  0.73181272  1
  O2-  O270  1  0.91203223  0.04105455  0.06852653  1
  O2-  O271  1  0.91195589  0.04255259  0.39484860  1
  O2-  O272  1  0.91690897  0.03668632  0.73365337  1
  O2-  O273  1  0.91126435  0.54307071  0.06440152  1
  O2-  O274  1  0.91916604  0.54090440  0.40440643  1
  O2-  O275  1  0.91355887  0.54676696  0.73503354  1
  O2-  O276  1  0.29041904  0.16249427  0.06349928  1
  O2-  O277  1  0.29373411  0.16880164  0.40569867  1
  O2-  O278  1  0.29678828  0.16569785  0.73155990  1
  O2-  O279  1  0.29288532  0.66149392  0.06671082  1
  O2-  O280  1  0.28573653  0.65840702  0.39845872  1
  O2-  O281  1  0.29644680  0.66455862  0.73083740  1
  O2-  O282  1  0.80390972  0.17062925  0.06035714  1
  O2-  O283  1  0.79306281  0.16295567  0.39265469  1
  O2-  O284  1  0.79314050  0.16497116  0.73843345  1
  O2-  O285  1  0.79520016  0.66356239  0.06331713  1
  O2-  O286  1  0.80238714  0.67450798  0.40092547  1
  O2-  O287  1  0.79900844  0.67029947  0.72893650  1
