# generated using pymatgen
data_Ca2Al2SiO7
_symmetry_space_group_name_H-M   'P 1'
_cell_length_a   15.45179437
_cell_length_b   15.45215710
_cell_length_c   15.27954222
_cell_angle_alpha   89.99936746
_cell_angle_beta   90.00074782
_cell_angle_gamma   89.99755617
_symmetry_Int_Tables_number   1
_chemical_formula_structural   Ca2Al2SiO7
_chemical_formula_sum   'Ca48 Al48 Si24 O168'
_cell_volume   3648.19780169
_cell_formula_units_Z   24
loop_
 _symmetry_equiv_pos_site_id
 _symmetry_equiv_pos_as_xyz
  1  'x, y, z'
loop_
 _atom_type_symbol
 _atom_type_oxidation_number
  Ca2+  2.0
  Al0+  0.0
  Si0+  0.0
  O2-  -2.0
loop_
 _atom_site_type_symbol
 _atom_site_label
 _atom_site_symmetry_multiplicity
 _atom_site_fract_x
 _atom_site_fract_y
 _atom_site_fract_z
 _atom_site_occupancy
  Ca2+  Ca0  1  0.17202725  0.08049062  0.17163116  1
  Ca2+  Ca1  1  0.16749626  0.07717608  0.50877321  1
  Ca2+  Ca2  1  0.17851431  0.08486568  0.83318173  1
  Ca2+  Ca3  1  0.17351122  0.57523071  0.17138111  1
  Ca2+  Ca4  1  0.17603605  0.58415404  0.50052392  1
  Ca2+  Ca5  1  0.17021177  0.57361041  0.84116429  1
  Ca2+  Ca6  1  0.65915864  0.07264401  0.16857302  1
  Ca2+  Ca7  1  0.66830664  0.08122995  0.50669326  1
  Ca2+  Ca8  1  0.66384008  0.08133557  0.83831164  1
  Ca2+  Ca9  1  0.66743796  0.58101711  0.16952883  1
  Ca2+  Ca10  1  0.66740521  0.57600987  0.50473979  1
  Ca2+  Ca11  1  0.67299115  0.59461241  0.83792430  1
  Ca2+  Ca12  1  0.08362093  0.33107218  0.16526142  1
  Ca2+  Ca13  1  0.07645527  0.31821660  0.49178770  1
  Ca2+  Ca14  1  0.08498590  0.32818588  0.82815008  1
  Ca2+  Ca15  1  0.07734508  0.83537147  0.16391416  1
  Ca2+  Ca16  1  0.08628822  0.83914757  0.49422020  1
  Ca2+  Ca17  1  0.07701539  0.83965592  0.82992658  1
  Ca2+  Ca18  1  0.57395614  0.33287593  0.16076592  1
  Ca2+  Ca19  1  0.58413842  0.32697209  0.49299198  1
  Ca2+  Ca20  1  0.57786586  0.32236924  0.83043480  1
  Ca2+  Ca21  1  0.58338506  0.83221636  0.16020222  1
  Ca2+  Ca22  1  0.57131999  0.83413147  0.49672974  1
  Ca2+  Ca23  1  0.58355970  0.82723471  0.82903069  1
  Ca2+  Ca24  1  0.33736684  0.41801523  0.17094556  1
  Ca2+  Ca25  1  0.34293506  0.42238697  0.49749278  1
  Ca2+  Ca26  1  0.32687162  0.40949893  0.84157038  1
  Ca2+  Ca27  1  0.33390150  0.92422782  0.17508367  1
  Ca2+  Ca28  1  0.32514663  0.91580993  0.50841634  1
  Ca2+  Ca29  1  0.33992467  0.92701233  0.83271635  1
  Ca2+  Ca30  1  0.82746690  0.41920136  0.17375312  1
  Ca2+  Ca31  1  0.82984548  0.41524339  0.50317366  1
  Ca2+  Ca32  1  0.83177513  0.43032496  0.83866182  1
  Ca2+  Ca33  1  0.82059323  0.91101304  0.16849301  1
  Ca2+  Ca34  1  0.82501055  0.92293132  0.50467532  1
  Ca2+  Ca35  1  0.82881119  0.92256166  0.84006665  1
  Ca2+  Ca36  1  0.41855950  0.17553151  0.15716630  1
  Ca2+  Ca37  1  0.41899306  0.16815243  0.49789598  1
  Ca2+  Ca38  1  0.42245650  0.16164795  0.83192067  1
  Ca2+  Ca39  1  0.41998776  0.67146416  0.16427141  1
  Ca2+  Ca40  1  0.41581300  0.67713663  0.49387504  1
  Ca2+  Ca41  1  0.43202281  0.67174639  0.82394935  1
  Ca2+  Ca42  1  0.92168104  0.16947488  0.16846960  1
  Ca2+  Ca43  1  0.92612589  0.16139625  0.49465107  1
  Ca2+  Ca44  1  0.92340612  0.16421188  0.82213174  1
  Ca2+  Ca45  1  0.91366538  0.67192837  0.15693352  1
  Ca2+  Ca46  1  0.91702187  0.66457185  0.50053076  1
  Ca2+  Ca47  1  0.90847426  0.67208263  0.83197473  1
  Al0+  Al48  1  -0.00025815  0.00079233  -0.00403432  1
  Al0+  Al49  1  0.00041075  -0.00138898  0.32989143  1
  Al0+  Al50  1  -0.00154618  -0.00041447  0.66961214  1
  Al0+  Al51  1  0.00099506  0.50005294  0.00934314  1
  Al0+  Al52  1  0.00122388  0.49994698  0.33061493  1
  Al0+  Al53  1  -0.00152519  0.50166524  0.66993551  1
  Al0+  Al54  1  0.49967615  0.00077258  0.00641195  1
  Al0+  Al55  1  0.49907576  -0.00141487  0.33499910  1
  Al0+  Al56  1  0.49876248  0.00006968  0.66113112  1
  Al0+  Al57  1  0.49997119  0.50052356  -0.01065215  1
  Al0+  Al58  1  0.50268312  0.49997787  0.33895521  1
  Al0+  Al59  1  0.50090929  0.49965544  0.66534310  1
  Al0+  Al60  1  0.24852229  0.24961834  0.00629533  1
  Al0+  Al61  1  0.25047568  0.25024665  0.32615631  1
  Al0+  Al62  1  0.24877957  0.24925201  0.66374807  1
  Al0+  Al63  1  0.24852448  0.74949087  -0.00119341  1
  Al0+  Al64  1  0.25070779  0.75005206  0.33459707  1
  Al0+  Al65  1  0.24746163  0.74835350  0.67070205  1
  Al0+  Al66  1  0.75162759  0.25128509  -0.00359603  1
  Al0+  Al67  1  0.75205676  0.24983906  0.33239843  1
  Al0+  Al68  1  0.74851938  0.25146414  0.66849326  1
  Al0+  Al69  1  0.75116533  0.75221367  0.00033902  1
  Al0+  Al70  1  0.74980746  0.75020378  0.34081252  1
  Al0+  Al71  1  0.75036552  0.74862265  0.66313040  1
  Al0+  Al72  1  0.18020795  0.42890935  0.01501630  1
  Al0+  Al73  1  0.67692024  0.92786357  0.34958909  1
  Al0+  Al74  1  0.42790955  0.82060791  0.31822260  1
  Al0+  Al75  1  0.81868352  0.57134954  0.01481871  1
  Al0+  Al76  1  0.32027904  0.06862114  0.01578417  1
  Al0+  Al77  1  0.57165324  0.17936987  0.65188990  1
  Al0+  Al78  1  0.06987762  0.17883023  0.65390333  1
  Al0+  Al79  1  0.57170133  0.17714195  0.98597725  1
  Al0+  Al80  1  0.68121869  0.93157860  0.01183615  1
  Al0+  Al81  1  0.81974319  0.07199049  0.67927943  1
  Al0+  Al82  1  0.93049161  0.82000069  0.98629705  1
  Al0+  Al83  1  0.68050731  0.42827274  0.34581943  1
  Al0+  Al84  1  0.17757224  0.92678302  0.68390298  1
  Al0+  Al85  1  0.42765442  0.81979497  0.65211207  1
  Al0+  Al86  1  0.42704490  0.32058871  0.98402995  1
  Al0+  Al87  1  0.57404169  0.67808021  0.64788880  1
  Al0+  Al88  1  0.81980429  0.56984051  0.68097911  1
  Al0+  Al89  1  0.92819700  0.32216189  0.31758532  1
  Al0+  Al90  1  0.32165006  0.07212323  0.68069108  1
  Al0+  Al91  1  0.17961850  0.93064591  0.34509417  1
  Al0+  Al92  1  0.32077173  0.56952405  0.34606333  1
  Al0+  Al93  1  0.07117711  0.17638137  0.31586422  1
  Al0+  Al94  1  0.43217280  0.32229950  0.32027811  1
  Al0+  Al95  1  0.57037479  0.68099831  0.98822357  1
  Si0+  Si96  1  0.92990424  0.82102318  0.65041174  1
  Si0+  Si97  1  0.57336539  0.17675814  0.31710870  1
  Si0+  Si98  1  0.92801879  0.81884435  0.31984891  1
  Si0+  Si99  1  0.67733584  0.42691572  0.01475249  1
  Si0+  Si100  1  0.07009342  0.67672239  0.65232296  1
  Si0+  Si101  1  0.82419137  0.57230759  0.35063978  1
  Si0+  Si102  1  0.17686192  0.42680924  0.35176689  1
  Si0+  Si103  1  0.82132003  0.07041286  0.34805765  1
  Si0+  Si104  1  0.06948586  0.18024669  0.98360540  1
  Si0+  Si105  1  0.57268997  0.67942734  0.31760027  1
  Si0+  Si106  1  0.92936185  0.32394758  0.98416621  1
  Si0+  Si107  1  0.07232700  0.67860752  0.31854568  1
  Si0+  Si108  1  0.42625819  0.32172281  0.64907199  1
  Si0+  Si109  1  0.42525032  0.82333274  0.98481811  1
  Si0+  Si110  1  0.32227780  0.57104726  0.68254350  1
  Si0+  Si111  1  0.67804873  0.92900420  0.68209867  1
  Si0+  Si112  1  0.32456190  0.57288796  0.01452517  1
  Si0+  Si113  1  0.82528745  0.07528217  0.01692133  1
  Si0+  Si114  1  0.67556007  0.42741024  0.68653379  1
  Si0+  Si115  1  0.92884799  0.32461433  0.65249978  1
  Si0+  Si116  1  0.32157289  0.07452219  0.35016403  1
  Si0+  Si117  1  0.17564492  0.92714336  0.01678376  1
  Si0+  Si118  1  0.07228968  0.67591590  0.98368138  1
  Si0+  Si119  1  0.17974280  0.43049212  0.67859007  1
  O2-  O120  1  0.24835481  -0.00953957  0.06170448  1
  O2-  O121  1  0.25200823  0.00617411  0.39328647  1
  O2-  O122  1  0.25161354  -0.00220116  0.73160986  1
  O2-  O123  1  0.25671479  0.50346381  0.05897659  1
  O2-  O124  1  0.24806953  0.49310576  0.39570248  1
  O2-  O125  1  0.25385903  0.49696888  0.72343293  1
  O2-  O126  1  0.75300657  0.00962499  0.05985877  1
  O2-  O127  1  0.74940198  0.00588094  0.39359311  1
  O2-  O128  1  0.74363139  -0.00011495  0.72736471  1
  O2-  O129  1  0.74444529  0.49641006  0.06064074  1
  O2-  O130  1  0.75805155  0.50052051  0.39297569  1
  O2-  O131  1  0.74223341  0.49916992  0.72915200  1
  O2-  O132  1  0.00178241  0.25199175  0.26661752  1
  O2-  O133  1  -0.00791558  0.25104677  0.60839528  1
  O2-  O134  1  -0.00320539  0.24991832  0.94110207  1
  O2-  O135  1  -0.00226664  0.74650293  0.27743301  1
  O2-  O136  1  0.00320372  0.75145878  0.60903778  1
  O2-  O137  1  0.00646648  0.74667573  0.93828038  1
  O2-  O138  1  0.50453170  0.24553893  0.27351244  1
  O2-  O139  1  0.49631404  0.25391491  0.60593140  1
  O2-  O140  1  0.49944750  0.24872001  0.93514767  1
  O2-  O141  1  0.50621521  0.74929119  0.27191562  1
  O2-  O142  1  0.49930580  0.74807179  0.59999822  1
  O2-  O143  1  0.49228702  0.75253244  0.94181084  1
  O2-  O144  1  0.06776567  0.17973843  0.08854343  1
  O2-  O145  1  0.06821668  0.17518113  0.42968864  1
  O2-  O146  1  0.07064530  0.18351840  0.76739384  1
  O2-  O147  1  0.07204133  0.67689888  0.08954025  1
  O2-  O148  1  0.07209685  0.67800425  0.42403425  1
  O2-  O149  1  0.06830833  0.67250117  0.75704529  1
  O2-  O150  1  0.57026175  0.17797838  0.09973165  1
  O2-  O151  1  0.57339688  0.17841499  0.42303108  1
  O2-  O152  1  0.57202542  0.18046332  0.76468621  1
  O2-  O153  1  0.56984200  0.68090851  0.10159360  1
  O2-  O154  1  0.57148649  0.68020072  0.42293987  1
  O2-  O155  1  0.57450949  0.68150291  0.76186115  1
  O2-  O156  1  0.17582377  0.43096548  0.24627730  1
  O2-  O157  1  0.17820026  0.43360517  0.57376988  1
  O2-  O158  1  0.17880090  0.43014030  0.90094195  1
  O2-  O159  1  0.17933071  0.93013089  0.23188696  1
  O2-  O160  1  0.17681959  0.92792482  0.56997158  1
  O2-  O161  1  0.17344510  0.92981348  0.91162052  1
  O2-  O162  1  0.67938544  0.43221629  0.23254967  1
  O2-  O163  1  0.67766967  0.42613675  0.58067984  1
  O2-  O164  1  0.68118238  0.42577415  0.90935111  1
  O2-  O165  1  0.68032306  0.92495262  0.23635482  1
  O2-  O166  1  0.68154462  0.92997892  0.57630820  1
  O2-  O167  1  0.68362416  0.93044881  0.89871586  1
  O2-  O168  1  0.42996018  0.32196408  0.09774360  1
  O2-  O169  1  0.43446799  0.32183652  0.43354768  1
  O2-  O170  1  0.42461114  0.32213762  0.75448680  1
  O2-  O171  1  0.42489728  0.82141112  0.09067694  1
  O2-  O172  1  0.42526830  0.81811902  0.43088207  1
  O2-  O173  1  0.43038616  0.81779380  0.76615783  1
  O2-  O174  1  0.92986433  0.32358657  0.08900074  1
  O2-  O175  1  0.92979371  0.32179764  0.43151575  1
  O2-  O176  1  0.93362623  0.32775158  0.75836098  1
  O2-  O177  1  0.93080621  0.81797867  0.09994855  1
  O2-  O178  1  0.92902870  0.81866850  0.42508126  1
  O2-  O179  1  0.92872691  0.81960886  0.75549080  1
  O2-  O180  1  0.32122812  0.07223260  0.24435503  1
  O2-  O181  1  0.31830133  0.07470148  0.56724741  1
  O2-  O182  1  0.31973206  0.06905596  0.90274817  1
  O2-  O183  1  0.31869376  0.56959723  0.23288905  1
  O2-  O184  1  0.31998244  0.57162721  0.57726762  1
  O2-  O185  1  0.32124013  0.57356404  0.90874845  1
  O2-  O186  1  0.82194893  0.06792266  0.24233652  1
  O2-  O187  1  0.82119706  0.06805429  0.56596430  1
  O2-  O188  1  0.82798164  0.07278321  0.91128522  1
  O2-  O189  1  0.82251039  0.57589813  0.24519025  1
  O2-  O190  1  0.82461501  0.56532214  0.56805932  1
  O2-  O191  1  0.81884882  0.57088998  0.90160856  1
  O2-  O192  1  0.03856625  0.07973145  0.26050933  1
  O2-  O193  1  0.03799056  0.08185510  0.60139661  1
  O2-  O194  1  0.04372886  0.08846116  0.93531627  1
  O2-  O195  1  0.04853595  0.58631743  0.27027653  1
  O2-  O196  1  0.03742277  0.58748237  0.60190513  1
  O2-  O197  1  0.04435068  0.58209285  0.93937709  1
  O2-  O198  1  0.54712950  0.08271167  0.27287495  1
  O2-  O199  1  0.54341004  0.08312382  0.59639207  1
  O2-  O200  1  0.54162495  0.07835600  0.93447014  1
  O2-  O201  1  0.54557176  0.58595684  0.27311629  1
  O2-  O202  1  0.54727335  0.57742470  0.59893968  1
  O2-  O203  1  0.54519560  0.58531323  0.92924381  1
  O2-  O204  1  0.16949836  0.20341055  0.26251220  1
  O2-  O205  1  0.16419871  0.21203323  0.59750993  1
  O2-  O206  1  0.16072139  0.21175599  0.93832450  1
  O2-  O207  1  0.16177492  0.70979156  0.26939212  1
  O2-  O208  1  0.16321183  0.70006919  0.60541635  1
  O2-  O209  1  0.16702014  0.69696515  0.93706579  1
  O2-  O210  1  0.66768312  0.19955365  0.27227219  1
  O2-  O211  1  0.66857429  0.21146704  0.59763932  1
  O2-  O212  1  0.67157339  0.20347984  0.93349808  1
  O2-  O213  1  0.66816793  0.70413009  0.27430441  1
  O2-  O214  1  0.67248029  0.70481661  0.59429396  1
  O2-  O215  1  0.66515159  0.71681965  0.93411433  1
  O2-  O216  1  0.08625218  0.46153870  0.07328197  1
  O2-  O217  1  0.08420706  0.45610073  0.39807953  1
  O2-  O218  1  0.08997575  0.46187448  0.72844865  1
  O2-  O219  1  0.08306337  0.95779370  0.06293075  1
  O2-  O220  1  0.08115935  0.95783266  0.39828886  1
  O2-  O221  1  0.07962789  0.95726584  0.73616432  1
  O2-  O222  1  0.58211225  0.45354098  0.05664704  1
  O2-  O223  1  0.58747071  0.46107332  0.40506282  1
  O2-  O224  1  0.58064040  0.45005488  0.73121893  1
  O2-  O225  1  0.58494740  0.95782050  0.06895498  1
  O2-  O226  1  0.57993903  0.95688106  0.40328737  1
  O2-  O227  1  0.58321681  0.95150721  0.72532683  1
  O2-  O228  1  0.20805756  0.33361231  0.07180600  1
  O2-  O229  1  0.20014773  0.33106794  0.39351370  1
  O2-  O230  1  0.20489804  0.33800611  0.72592707  1
  O2-  O231  1  0.19373028  0.83004089  0.05935608  1
  O2-  O232  1  0.20902446  0.83385758  0.39937946  1
  O2-  O233  1  0.19919297  0.82620011  0.73655195  1
  O2-  O234  1  0.70437990  0.33387378  0.06165218  1
  O2-  O235  1  0.71010262  0.33108183  0.40052549  1
  O2-  O236  1  0.70360489  0.33544057  0.73408288  1
  O2-  O237  1  0.71714908  0.83780149  0.06836370  1
  O2-  O238  1  0.71154554  0.83381120  0.40635654  1
  O2-  O239  1  0.70781345  0.83556556  0.72570649  1
  O2-  O240  1  0.46528812  0.41898216  0.26733455  1
  O2-  O241  1  0.45158112  0.41619720  0.60464132  1
  O2-  O242  1  0.45195539  0.41854378  0.92805345  1
  O2-  O243  1  0.45686004  0.91858420  0.26610281  1
  O2-  O244  1  0.45373054  0.91768377  0.59732909  1
  O2-  O245  1  0.45471111  0.91621563  0.94099926  1
  O2-  O246  1  0.95471239  0.42172489  0.26476152  1
  O2-  O247  1  0.96003172  0.41569795  0.60434788  1
  O2-  O248  1  0.96197141  0.41546355  0.93874970  1
  O2-  O249  1  0.95638443  0.90896754  0.27010816  1
  O2-  O250  1  0.95614438  0.91277744  0.60273818  1
  O2-  O251  1  0.95916031  0.91711732  0.93102504  1
  O2-  O252  1  0.33400979  0.29780419  0.26650109  1
  O2-  O253  1  0.33322616  0.29720495  0.60131200  1
  O2-  O254  1  0.32713554  0.29072511  0.93497133  1
  O2-  O255  1  0.33271493  0.78602314  0.26344367  1
  O2-  O256  1  0.32757177  0.78912960  0.60253590  1
  O2-  O257  1  0.33034783  0.80211072  0.93918167  1
  O2-  O258  1  0.83068243  0.29266933  0.26256398  1
  O2-  O259  1  0.83284527  0.30455996  0.61043026  1
  O2-  O260  1  0.83675230  0.30185526  0.93579691  1
  O2-  O261  1  0.83562282  0.79032280  0.27354951  1
  O2-  O262  1  0.83978503  0.79069606  0.60117432  1
  O2-  O263  1  0.83591401  0.78704149  0.93061099  1
  O2-  O264  1  0.41606817  0.04117680  0.07278972  1
  O2-  O265  1  0.41544335  0.04925436  0.39516551  1
  O2-  O266  1  0.42095213  0.04320671  0.73253946  1
  O2-  O267  1  0.41902448  0.54767029  0.05855939  1
  O2-  O268  1  0.41633661  0.54028618  0.40272732  1
  O2-  O269  1  0.41561729  0.54630082  0.72817155  1
  O2-  O270  1  0.91765780  0.04539597  0.06335013  1
  O2-  O271  1  0.91328747  0.03856756  0.39402737  1
  O2-  O272  1  0.91404267  0.03828925  0.73570992  1
  O2-  O273  1  0.91509879  0.54248173  0.06986028  1
  O2-  O274  1  0.91975452  0.54990974  0.39467666  1
  O2-  O275  1  0.91559308  0.53842626  0.73774408  1
  O2-  O276  1  0.28547922  0.16328022  0.07057932  1
  O2-  O277  1  0.29770920  0.16954132  0.39373599  1
  O2-  O278  1  0.28969181  0.17024846  0.73394516  1
  O2-  O279  1  0.29790750  0.66654900  0.06109718  1
  O2-  O280  1  0.28450979  0.66353056  0.40200409  1
  O2-  O281  1  0.29073833  0.65987711  0.73252969  1
  O2-  O282  1  0.80461681  0.17110747  0.06037492  1
  O2-  O283  1  0.80190074  0.16531908  0.39338367  1
  O2-  O284  1  0.79501153  0.17035570  0.73293525  1
  O2-  O285  1  0.78787528  0.66746706  0.06886793  1
  O2-  O286  1  0.79703010  0.66395997  0.40013344  1
  O2-  O287  1  0.79168911  0.66867579  0.73286572  1
