# generated using pymatgen
data_Ca2Al2SiO7
_symmetry_space_group_name_H-M   'P 1'
_cell_length_a   15.46419203
_cell_length_b   15.46364339
_cell_length_c   15.28741213
_cell_angle_alpha   90.00099969
_cell_angle_beta   90.02489323
_cell_angle_gamma   90.01589015
_symmetry_Int_Tables_number   1
_chemical_formula_structural   Ca2Al2SiO7
_chemical_formula_sum   'Ca48 Al48 Si24 O168'
_cell_volume   3655.72043249
_cell_formula_units_Z   24
loop_
 _symmetry_equiv_pos_site_id
 _symmetry_equiv_pos_as_xyz
  1  'x, y, z'
loop_
 _atom_type_symbol
 _atom_type_oxidation_number
  Ca2+  2.0
  Al0+  0.0
  Si0+  0.0
  O2-  -2.0
loop_
 _atom_site_type_symbol
 _atom_site_label
 _atom_site_symmetry_multiplicity
 _atom_site_fract_x
 _atom_site_fract_y
 _atom_site_fract_z
 _atom_site_occupancy
  Ca2+  Ca0  1  0.16746628  0.07483570  0.17729943  1
  Ca2+  Ca1  1  0.17127281  0.07410882  0.50292918  1
  Ca2+  Ca2  1  0.17164668  0.07276061  0.83486502  1
  Ca2+  Ca3  1  0.17545358  0.58042062  0.17092429  1
  Ca2+  Ca4  1  0.17001125  0.58776946  0.50400634  1
  Ca2+  Ca5  1  0.16906844  0.57628480  0.84123952  1
  Ca2+  Ca6  1  0.66293658  0.07308380  0.16991190  1
  Ca2+  Ca7  1  0.66719246  0.07491118  0.49944363  1
  Ca2+  Ca8  1  0.66483644  0.07979413  0.84257379  1
  Ca2+  Ca9  1  0.67024883  0.58234343  0.16990693  1
  Ca2+  Ca10  1  0.66274277  0.58401777  0.50621466  1
  Ca2+  Ca11  1  0.66742371  0.57381352  0.84027297  1
  Ca2+  Ca12  1  0.08396059  0.32764568  0.15892705  1
  Ca2+  Ca13  1  0.09223651  0.32606446  0.49511931  1
  Ca2+  Ca14  1  0.08020961  0.34458579  0.83004293  1
  Ca2+  Ca15  1  0.09020950  0.83088826  0.16555523  1
  Ca2+  Ca16  1  0.08523157  0.82923067  0.49057969  1
  Ca2+  Ca17  1  0.08791591  0.82823360  0.82669703  1
  Ca2+  Ca18  1  0.58420131  0.32532182  0.15643096  1
  Ca2+  Ca19  1  0.57594625  0.33555827  0.50024611  1
  Ca2+  Ca20  1  0.58102541  0.33443377  0.82796254  1
  Ca2+  Ca21  1  0.57885841  0.83559326  0.16532659  1
  Ca2+  Ca22  1  0.57818172  0.82330637  0.48789363  1
  Ca2+  Ca23  1  0.58263656  0.82678359  0.82763715  1
  Ca2+  Ca24  1  0.33594735  0.42935173  0.16840607  1
  Ca2+  Ca25  1  0.32948314  0.42227036  0.50627339  1
  Ca2+  Ca26  1  0.32549829  0.41983080  0.83604932  1
  Ca2+  Ca27  1  0.32492220  0.92052122  0.17757979  1
  Ca2+  Ca28  1  0.32851880  0.92239577  0.50066743  1
  Ca2+  Ca29  1  0.32273317  0.91537790  0.83639618  1
  Ca2+  Ca30  1  0.83362693  0.41754969  0.16200909  1
  Ca2+  Ca31  1  0.82418905  0.41917029  0.50679279  1
  Ca2+  Ca32  1  0.82523404  0.42232713  0.84426526  1
  Ca2+  Ca33  1  0.82126448  0.90624413  0.17276151  1
  Ca2+  Ca34  1  0.83011025  0.90544963  0.49530845  1
  Ca2+  Ca35  1  0.82580610  0.91834641  0.84048018  1
  Ca2+  Ca36  1  0.41999285  0.16306549  0.16211280  1
  Ca2+  Ca37  1  0.40096737  0.17179034  0.49902486  1
  Ca2+  Ca38  1  0.41921563  0.17165115  0.82718611  1
  Ca2+  Ca39  1  0.41324887  0.66826092  0.16850173  1
  Ca2+  Ca40  1  0.42508011  0.66895856  0.48964413  1
  Ca2+  Ca41  1  0.42093326  0.66283123  0.82885987  1
  Ca2+  Ca42  1  0.92313710  0.17108612  0.16200805  1
  Ca2+  Ca43  1  0.92574009  0.17042062  0.49156931  1
  Ca2+  Ca44  1  0.91603021  0.17587312  0.83361579  1
  Ca2+  Ca45  1  0.92024974  0.66858437  0.16760240  1
  Ca2+  Ca46  1  0.93214458  0.67099869  0.49313603  1
  Ca2+  Ca47  1  0.92137582  0.66356970  0.82970343  1
  Al0+  Al48  1  -0.00076102  -0.00074159  0.00088998  1
  Al0+  Al49  1  -0.00279067  0.00213202  0.32828792  1
  Al0+  Al50  1  -0.00186919  0.00161705  0.67090058  1
  Al0+  Al51  1  0.00021986  0.49971730  0.00376486  1
  Al0+  Al52  1  -0.00277854  0.49996432  0.33061943  1
  Al0+  Al53  1  -0.00184758  0.50192846  0.66292223  1
  Al0+  Al54  1  0.49944160  -0.00125093  -0.00357103  1
  Al0+  Al55  1  0.50074589  0.00059930  0.34033344  1
  Al0+  Al56  1  0.50197634  0.00156610  0.66948792  1
  Al0+  Al57  1  0.50071001  0.49954401  0.00657125  1
  Al0+  Al58  1  0.49930297  0.49855811  0.33302632  1
  Al0+  Al59  1  0.49996667  0.49744999  0.66245570  1
  Al0+  Al60  1  0.25131039  0.24822401  -0.00058335  1
  Al0+  Al61  1  0.24922001  0.25091762  0.32770628  1
  Al0+  Al62  1  0.24990756  0.25103977  0.67180283  1
  Al0+  Al63  1  0.25084608  0.75082932  0.00465950  1
  Al0+  Al64  1  0.25226568  0.74861073  0.33384006  1
  Al0+  Al65  1  0.25162186  0.75103805  0.66578249  1
  Al0+  Al66  1  0.75186982  0.24906765  -0.00534665  1
  Al0+  Al67  1  0.74835041  0.25009722  0.33447807  1
  Al0+  Al68  1  0.74901789  0.24995525  0.66842891  1
  Al0+  Al69  1  0.75034877  0.74961228  0.00483775  1
  Al0+  Al70  1  0.75155914  0.74638125  0.33271648  1
  Al0+  Al71  1  0.75123986  0.75007124  0.66370143  1
  Al0+  Al72  1  0.07102254  0.18078689  0.31977655  1
  Al0+  Al73  1  0.57012922  0.67936263  0.65513174  1
  Al0+  Al74  1  0.17811940  0.93017653  0.01476313  1
  Al0+  Al75  1  0.07376344  0.67804971  0.31606295  1
  Al0+  Al76  1  0.32207176  0.57138869  0.01457731  1
  Al0+  Al77  1  0.67796398  0.42960250  0.68002782  1
  Al0+  Al78  1  0.07169163  0.67952711  0.65517911  1
  Al0+  Al79  1  0.42843522  0.31830651  0.65293762  1
  Al0+  Al80  1  0.82186950  0.57177972  0.01627430  1
  Al0+  Al81  1  0.17654793  0.92861312  0.34778038  1
  Al0+  Al82  1  0.93249396  0.32129224  0.98498506  1
  Al0+  Al83  1  0.56974513  0.17818247  0.98665447  1
  Al0+  Al84  1  0.68046165  0.92760969  0.34820201  1
  Al0+  Al85  1  0.17808894  0.92764049  0.68176670  1
  Al0+  Al86  1  0.43051041  0.82303837  0.31852176  1
  Al0+  Al87  1  0.67834659  0.92960658  0.01249076  1
  Al0+  Al88  1  0.57105805  0.67654586  0.31585323  1
  Al0+  Al89  1  0.32120570  0.56986585  0.34944958  1
  Al0+  Al90  1  0.92990809  0.82118873  0.31748159  1
  Al0+  Al91  1  0.17845326  0.42680620  0.01506049  1
  Al0+  Al92  1  0.32195589  0.07242000  0.68386516  1
  Al0+  Al93  1  0.32143482  0.07337799  0.34761305  1
  Al0+  Al94  1  0.67955539  0.42677683  0.01578213  1
  Al0+  Al95  1  0.17751623  0.43111823  0.67809119  1
  Si0+  Si96  1  0.92839134  0.82496137  0.65144268  1
  Si0+  Si97  1  0.17654294  0.42930774  0.34830832  1
  Si0+  Si98  1  0.07165089  0.68133472  0.98538828  1
  Si0+  Si99  1  0.82200147  0.07200798  0.01653507  1
  Si0+  Si100  1  0.57246097  0.17991717  0.31987582  1
  Si0+  Si101  1  0.06925686  0.17984661  0.65354846  1
  Si0+  Si102  1  0.82074119  0.07285516  0.68262154  1
  Si0+  Si103  1  0.42888178  0.82483631  0.65040714  1
  Si0+  Si104  1  0.32278812  0.57202111  0.68095971  1
  Si0+  Si105  1  0.07353808  0.17563195  0.98039547  1
  Si0+  Si106  1  0.82084972  0.57234082  0.68200984  1
  Si0+  Si107  1  0.92405548  0.32159502  0.31686065  1
  Si0+  Si108  1  0.82139550  0.56992595  0.35165535  1
  Si0+  Si109  1  0.92720657  0.32163372  0.65128835  1
  Si0+  Si110  1  0.67918173  0.42734723  0.34938219  1
  Si0+  Si111  1  0.82022018  0.07479724  0.34979420  1
  Si0+  Si112  1  0.68113742  0.92804954  0.68125296  1
  Si0+  Si113  1  0.42878311  0.81986179  0.98376481  1
  Si0+  Si114  1  0.42849381  0.32409625  0.98277424  1
  Si0+  Si115  1  0.92688581  0.82100563  0.98412318  1
  Si0+  Si116  1  0.42864367  0.31997627  0.31715206  1
  Si0+  Si117  1  0.32243107  0.07018599  0.01518909  1
  Si0+  Si118  1  0.57409273  0.17676721  0.64761687  1
  Si0+  Si119  1  0.57249018  0.67874148  0.98558083  1
  O2-  O120  1  0.24839655  0.00886108  0.06003165  1
  O2-  O121  1  0.24972308  0.00043795  0.39648485  1
  O2-  O122  1  0.25284785  -0.00317979  0.73238019  1
  O2-  O123  1  0.25226947  0.49671698  0.06416982  1
  O2-  O124  1  0.24104764  0.50020738  0.39491198  1
  O2-  O125  1  0.24889067  0.50896279  0.72483316  1
  O2-  O126  1  0.75299774  0.00377373  0.06000661  1
  O2-  O127  1  0.75711315  0.00121178  0.39499223  1
  O2-  O128  1  0.74981564  0.00110881  0.72383425  1
  O2-  O129  1  0.74923306  0.50013240  0.06682298  1
  O2-  O130  1  0.74836117  0.49977985  0.39223160  1
  O2-  O131  1  0.75076659  0.50575753  0.72645157  1
  O2-  O132  1  -0.00381001  0.25616810  0.27429788  1
  O2-  O133  1  0.00062301  0.25320498  0.60961604  1
  O2-  O134  1  0.00973382  0.24934028  0.93593908  1
  O2-  O135  1  0.00643096  0.75499629  0.26585064  1
  O2-  O136  1  0.00152195  0.75978750  0.61034770  1
  O2-  O137  1  -0.00019639  0.75189679  0.94218824  1
  O2-  O138  1  0.49837087  0.24683244  0.27707119  1
  O2-  O139  1  0.50160418  0.24179653  0.60425385  1
  O2-  O140  1  0.49798574  0.25541583  0.93947755  1
  O2-  O141  1  0.50159575  0.75091330  0.26587533  1
  O2-  O142  1  0.49677902  0.75459268  0.60787785  1
  O2-  O143  1  0.49967285  0.74768868  0.94248481  1
  O2-  O144  1  0.07019159  0.17464063  0.08584601  1
  O2-  O145  1  0.06996060  0.18333841  0.43375070  1
  O2-  O146  1  0.06547438  0.17882031  0.75840573  1
  O2-  O147  1  0.07235464  0.68306779  0.08998144  1
  O2-  O148  1  0.06959323  0.67503578  0.43000745  1
  O2-  O149  1  0.06766496  0.67761227  0.76877372  1
  O2-  O150  1  0.56686019  0.17655884  0.10024741  1
  O2-  O151  1  0.57871979  0.18418986  0.42459410  1
  O2-  O152  1  0.57690679  0.17762223  0.75312765  1
  O2-  O153  1  0.57392503  0.68072160  0.09008827  1
  O2-  O154  1  0.56987617  0.67675649  0.43007269  1
  O2-  O155  1  0.57059813  0.68098996  0.76885684  1
  O2-  O156  1  0.17935471  0.42835417  0.24303998  1
  O2-  O157  1  0.17935718  0.42910416  0.56502722  1
  O2-  O158  1  0.17839826  0.43196254  0.90100623  1
  O2-  O159  1  0.17853295  0.93261079  0.23409060  1
  O2-  O160  1  0.17433313  0.92989267  0.56896693  1
  O2-  O161  1  0.17981615  0.92827788  0.90149981  1
  O2-  O162  1  0.68141909  0.42342330  0.24478856  1
  O2-  O163  1  0.68072888  0.42842177  0.56651611  1
  O2-  O164  1  0.67932611  0.42986148  0.90196213  1
  O2-  O165  1  0.67966005  0.93123585  0.23522221  1
  O2-  O166  1  0.68333701  0.92739872  0.57644924  1
  O2-  O167  1  0.68087739  0.92935910  0.89861462  1
  O2-  O168  1  0.42920463  0.32257891  0.08859525  1
  O2-  O169  1  0.42866980  0.32041591  0.42239829  1
  O2-  O170  1  0.43077035  0.31916535  0.76584856  1
  O2-  O171  1  0.42967218  0.82256851  0.08826311  1
  O2-  O172  1  0.43390295  0.82224958  0.43247356  1
  O2-  O173  1  0.43060319  0.82419339  0.75665508  1
  O2-  O174  1  0.93181070  0.31671627  0.09806363  1
  O2-  O175  1  0.92021088  0.31919118  0.42289703  1
  O2-  O176  1  0.92662893  0.32057016  0.75612156  1
  O2-  O177  1  0.92542493  0.82088644  0.08853986  1
  O2-  O178  1  0.92906399  0.81594037  0.43167689  1
  O2-  O179  1  0.92398448  0.82432021  0.75723595  1
  O2-  O180  1  0.32101325  0.07431605  0.23378132  1
  O2-  O181  1  0.31694916  0.07277026  0.57069230  1
  O2-  O182  1  0.32331591  0.06695971  0.90966207  1
  O2-  O183  1  0.32374320  0.56510739  0.23679961  1
  O2-  O184  1  0.32339479  0.56942200  0.57557387  1
  O2-  O185  1  0.32100597  0.57294112  0.90032624  1
  O2-  O186  1  0.81401212  0.08180206  0.24493235  1
  O2-  O187  1  0.82142422  0.07560569  0.57780947  1
  O2-  O188  1  0.82202352  0.06974290  0.91020412  1
  O2-  O189  1  0.82255705  0.56858569  0.24689303  1
  O2-  O190  1  0.82100567  0.57019001  0.57641909  1
  O2-  O191  1  0.81983311  0.57223599  0.90195825  1
  O2-  O192  1  0.03871234  0.08646156  0.26308592  1
  O2-  O193  1  0.03742218  0.08919539  0.60582347  1
  O2-  O194  1  0.04115520  0.08376796  0.93343240  1
  O2-  O195  1  0.03893078  0.58044579  0.26389243  1
  O2-  O196  1  0.03634162  0.58588619  0.59720370  1
  O2-  O197  1  0.04327612  0.58880078  0.94001706  1
  O2-  O198  1  0.54774760  0.08655147  0.27543676  1
  O2-  O199  1  0.55376559  0.08094637  0.60382382  1
  O2-  O200  1  0.53778282  0.08268103  0.92960997  1
  O2-  O201  1  0.54199083  0.57753992  0.26463620  1
  O2-  O202  1  0.54104144  0.58321735  0.60007954  1
  O2-  O203  1  0.54533777  0.58534226  0.94041060  1
  O2-  O204  1  0.16545939  0.21213057  0.26170303  1
  O2-  O205  1  0.16124920  0.20786987  0.60801018  1
  O2-  O206  1  0.16985798  0.19446252  0.93717174  1
  O2-  O207  1  0.17400585  0.69991969  0.26562353  1
  O2-  O208  1  0.17019208  0.70469281  0.60236581  1
  O2-  O209  1  0.16324708  0.71091012  0.93793602  1
  O2-  O210  1  0.66192802  0.21146923  0.26957095  1
  O2-  O211  1  0.66665698  0.20624977  0.60078886  1
  O2-  O212  1  0.66760454  0.20378284  0.93230680  1
  O2-  O213  1  0.67126121  0.70114618  0.26701527  1
  O2-  O214  1  0.66749378  0.70885698  0.60095877  1
  O2-  O215  1  0.66366447  0.70897623  0.93765255  1
  O2-  O216  1  0.08124529  0.45449665  0.06858697  1
  O2-  O217  1  0.07983104  0.44744144  0.39154211  1
  O2-  O218  1  0.07894512  0.45961138  0.72983314  1
  O2-  O219  1  0.07941447  0.95576123  0.06623713  1
  O2-  O220  1  0.07647835  0.95831610  0.39709973  1
  O2-  O221  1  0.07955918  0.95814247  0.73542417  1
  O2-  O222  1  0.58117171  0.45108816  0.06920723  1
  O2-  O223  1  0.58669521  0.45351033  0.39566316  1
  O2-  O224  1  0.58101810  0.45892188  0.73308829  1
  O2-  O225  1  0.58170959  0.96105942  0.06506681  1
  O2-  O226  1  0.58693306  0.96127649  0.40567254  1
  O2-  O227  1  0.58892864  0.95295407  0.72886851  1
  O2-  O228  1  0.20251678  0.32560021  0.06423763  1
  O2-  O229  1  0.20743992  0.33666427  0.39326951  1
  O2-  O230  1  0.20818594  0.33637337  0.73465282  1
  O2-  O231  1  0.21248686  0.83564633  0.06838123  1
  O2-  O232  1  0.20359519  0.82937381  0.39810611  1
  O2-  O233  1  0.20689803  0.82869581  0.73530518  1
  O2-  O234  1  0.71081067  0.32783525  0.06586057  1
  O2-  O235  1  0.70926255  0.33695733  0.39924399  1
  O2-  O236  1  0.70948646  0.33291501  0.73309986  1
  O2-  O237  1  0.70906577  0.83445812  0.06727776  1
  O2-  O238  1  0.71275300  0.83055147  0.40125616  1
  O2-  O239  1  0.71141601  0.83699253  0.72949630  1
  O2-  O240  1  0.46088994  0.40958253  0.26916616  1
  O2-  O241  1  0.46144611  0.41280519  0.59568530  1
  O2-  O242  1  0.45407741  0.41827939  0.93778690  1
  O2-  O243  1  0.46018028  0.92271553  0.26776948  1
  O2-  O244  1  0.45637956  0.91842056  0.60586860  1
  O2-  O245  1  0.45820032  0.90983503  0.93352274  1
  O2-  O246  1  0.94512501  0.41603694  0.27225031  1
  O2-  O247  1  0.95022910  0.41402913  0.60318362  1
  O2-  O248  1  0.95997372  0.41953844  0.93122403  1
  O2-  O249  1  0.94256915  0.92364233  0.26757844  1
  O2-  O250  1  0.94781411  0.92061965  0.60680826  1
  O2-  O251  1  0.95159496  0.91433634  0.93706376  1
  O2-  O252  1  0.33782484  0.29490828  0.26714092  1
  O2-  O253  1  0.33073863  0.28874973  0.59912612  1
  O2-  O254  1  0.33464716  0.29784040  0.93661320  1
  O2-  O255  1  0.33223172  0.79505785  0.26631365  1
  O2-  O256  1  0.33472097  0.80215902  0.60527137  1
  O2-  O257  1  0.33720049  0.79046454  0.93596527  1
  O2-  O258  1  0.83232912  0.29136515  0.26924156  1
  O2-  O259  1  0.83660029  0.28953441  0.60332582  1
  O2-  O260  1  0.83734351  0.28765075  0.92833117  1
  O2-  O261  1  0.83382727  0.78478627  0.26464132  1
  O2-  O262  1  0.83700800  0.79490375  0.60280402  1
  O2-  O263  1  0.83558692  0.79129029  0.93536061  1
  O2-  O264  1  0.41381424  0.03878582  0.06165143  1
  O2-  O265  1  0.42003008  0.05010788  0.40266305  1
  O2-  O266  1  0.42373461  0.05013396  0.73368318  1
  O2-  O267  1  0.41981001  0.54542889  0.06966445  1
  O2-  O268  1  0.41672244  0.53322015  0.40327243  1
  O2-  O269  1  0.41391115  0.53970401  0.72771242  1
  O2-  O270  1  0.91533114  0.04705367  0.06229703  1
  O2-  O271  1  0.91549789  0.05463498  0.39375821  1
  O2-  O272  1  0.91112272  0.04639463  0.73335769  1
  O2-  O273  1  0.91874114  0.54227983  0.07013720  1
  O2-  O274  1  0.91234785  0.53940573  0.40029033  1
  O2-  O275  1  0.91315831  0.54395740  0.72858243  1
  O2-  O276  1  0.30602609  0.16676772  0.05795969  1
  O2-  O277  1  0.28936168  0.17240261  0.39822352  1
  O2-  O278  1  0.29028079  0.16866575  0.73886447  1
  O2-  O279  1  0.29146085  0.66796488  0.06856427  1
  O2-  O280  1  0.29705306  0.66774275  0.40275937  1
  O2-  O281  1  0.30527288  0.66788318  0.72504504  1
  O2-  O282  1  0.79778081  0.16572540  0.06093465  1
  O2-  O283  1  0.78909281  0.16553146  0.40068308  1
  O2-  O284  1  0.79170913  0.16350339  0.73194333  1
  O2-  O285  1  0.79374300  0.66914421  0.07024056  1
  O2-  O286  1  0.79469083  0.66083127  0.40037677  1
  O2-  O287  1  0.79882453  0.66734681  0.72714578  1
