# generated using pymatgen
data_Ca2Al2SiO7
_symmetry_space_group_name_H-M   'P 1'
_cell_length_a   15.45336482
_cell_length_b   15.45330656
_cell_length_c   15.28066953
_cell_angle_alpha   90.00597959
_cell_angle_beta   90.00600770
_cell_angle_gamma   89.98912564
_symmetry_Int_Tables_number   1
_chemical_formula_structural   Ca2Al2SiO7
_chemical_formula_sum   'Ca48 Al48 Si24 O168'
_cell_volume   3649.10910273
_cell_formula_units_Z   24
loop_
 _symmetry_equiv_pos_site_id
 _symmetry_equiv_pos_as_xyz
  1  'x, y, z'
loop_
 _atom_type_symbol
 _atom_type_oxidation_number
  Ca2+  2.0
  Al0+  0.0
  Si0+  0.0
  O2-  -2.0
loop_
 _atom_site_type_symbol
 _atom_site_label
 _atom_site_symmetry_multiplicity
 _atom_site_fract_x
 _atom_site_fract_y
 _atom_site_fract_z
 _atom_site_occupancy
  Ca2+  Ca0  1  0.16660516  0.08011644  0.17071032  1
  Ca2+  Ca1  1  0.17476654  0.09391124  0.50401205  1
  Ca2+  Ca2  1  0.17003442  0.08763925  0.83896154  1
  Ca2+  Ca3  1  0.17100732  0.57659401  0.17085657  1
  Ca2+  Ca4  1  0.17026514  0.58058733  0.50744083  1
  Ca2+  Ca5  1  0.15722422  0.57069530  0.83598574  1
  Ca2+  Ca6  1  0.66622272  0.07913116  0.17233605  1
  Ca2+  Ca7  1  0.66193396  0.07037250  0.50827508  1
  Ca2+  Ca8  1  0.66417814  0.08388926  0.83432112  1
  Ca2+  Ca9  1  0.66896051  0.58310247  0.16772221  1
  Ca2+  Ca10  1  0.66668065  0.58460638  0.50358160  1
  Ca2+  Ca11  1  0.67525777  0.57329031  0.84343279  1
  Ca2+  Ca12  1  0.08682437  0.32298743  0.16340545  1
  Ca2+  Ca13  1  0.08030240  0.32781183  0.49920616  1
  Ca2+  Ca14  1  0.08592674  0.32847195  0.82409704  1
  Ca2+  Ca15  1  0.07957829  0.83440680  0.15415220  1
  Ca2+  Ca16  1  0.08022038  0.83147362  0.50083721  1
  Ca2+  Ca17  1  0.07242035  0.83239285  0.82829978  1
  Ca2+  Ca18  1  0.58187651  0.32832019  0.15664814  1
  Ca2+  Ca19  1  0.57829538  0.32631115  0.49963041  1
  Ca2+  Ca20  1  0.58301975  0.32367698  0.82661467  1
  Ca2+  Ca21  1  0.57248347  0.83509619  0.16714787  1
  Ca2+  Ca22  1  0.58200028  0.83221137  0.49087010  1
  Ca2+  Ca23  1  0.57814275  0.83622240  0.83033141  1
  Ca2+  Ca24  1  0.32793589  0.42076666  0.17105165  1
  Ca2+  Ca25  1  0.32995300  0.42081859  0.50900034  1
  Ca2+  Ca26  1  0.32276030  0.40975386  0.83449722  1
  Ca2+  Ca27  1  0.33236473  0.91793030  0.17220583  1
  Ca2+  Ca28  1  0.33866847  0.92923327  0.50374257  1
  Ca2+  Ca29  1  0.32622351  0.92226003  0.83888892  1
  Ca2+  Ca30  1  0.83080222  0.41750648  0.16733086  1
  Ca2+  Ca31  1  0.83901451  0.41211175  0.50424594  1
  Ca2+  Ca32  1  0.83446665  0.42078902  0.84241715  1
  Ca2+  Ca33  1  0.82894811  0.91710970  0.17222812  1
  Ca2+  Ca34  1  0.82146023  0.91162616  0.50706912  1
  Ca2+  Ca35  1  0.83063143  0.91074680  0.83645356  1
  Ca2+  Ca36  1  0.42211036  0.16154769  0.16320761  1
  Ca2+  Ca37  1  0.41153624  0.16706995  0.50223652  1
  Ca2+  Ca38  1  0.42505361  0.16960001  0.82506317  1
  Ca2+  Ca39  1  0.41554863  0.67421181  0.16625231  1
  Ca2+  Ca40  1  0.42183783  0.67357765  0.48613908  1
  Ca2+  Ca41  1  0.41256022  0.67480612  0.83250526  1
  Ca2+  Ca42  1  0.92785208  0.16905274  0.16239819  1
  Ca2+  Ca43  1  0.92718378  0.17639315  0.49461615  1
  Ca2+  Ca44  1  0.93100368  0.17229095  0.82503921  1
  Ca2+  Ca45  1  0.91385944  0.67331802  0.15990964  1
  Ca2+  Ca46  1  0.92350332  0.66799359  0.50367207  1
  Ca2+  Ca47  1  0.91733728  0.67334176  0.82821067  1
  Al0+  Al48  1  0.00018415  0.00009323  -0.00501824  1
  Al0+  Al49  1  -0.00035030  0.00066241  0.33162734  1
  Al0+  Al50  1  -0.00179128  -0.00034053  0.65665730  1
  Al0+  Al51  1  0.00040710  0.50015525  0.01310725  1
  Al0+  Al52  1  -0.00220078  0.50007626  0.32970557  1
  Al0+  Al53  1  0.00080001  0.50187013  0.66390814  1
  Al0+  Al54  1  0.49993032  0.00008391  -0.00871838  1
  Al0+  Al55  1  0.49873919  -0.00060381  0.33780692  1
  Al0+  Al56  1  0.49959945  -0.00070588  0.67417137  1
  Al0+  Al57  1  0.49969493  0.50055461  0.00293299  1
  Al0+  Al58  1  0.50133645  0.50004236  0.33326769  1
  Al0+  Al59  1  0.50060793  0.50100793  0.66657372  1
  Al0+  Al60  1  0.25251633  0.24989075  0.00316997  1
  Al0+  Al61  1  0.24957488  0.24938516  0.33246937  1
  Al0+  Al62  1  0.25256052  0.25213736  0.66881193  1
  Al0+  Al63  1  0.24914519  0.75078083  -0.00195513  1
  Al0+  Al64  1  0.24922486  0.74985485  0.33417494  1
  Al0+  Al65  1  0.25065427  0.75176165  0.66324621  1
  Al0+  Al66  1  0.75089352  0.24868100  0.00075582  1
  Al0+  Al67  1  0.75091373  0.25087864  0.33063037  1
  Al0+  Al68  1  0.74922357  0.24668311  0.65886628  1
  Al0+  Al69  1  0.74829626  0.74996937  0.00082667  1
  Al0+  Al70  1  0.74982335  0.74735926  0.33424583  1
  Al0+  Al71  1  0.74847079  0.74979946  0.66961343  1
  Al0+  Al72  1  0.07286455  0.17904425  0.31570870  1
  Al0+  Al73  1  0.67870801  0.42649985  0.01460908  1
  Al0+  Al74  1  0.31840814  0.07104847  0.68311314  1
  Al0+  Al75  1  0.18022051  0.43236704  0.67875332  1
  Al0+  Al76  1  0.07180205  0.67931750  0.65249660  1
  Al0+  Al77  1  0.42871127  0.82253098  0.31929839  1
  Al0+  Al78  1  0.68131696  0.93027167  0.34536389  1
  Al0+  Al79  1  0.68018283  0.92853768  0.68373165  1
  Al0+  Al80  1  0.92776748  0.82051705  0.98761731  1
  Al0+  Al81  1  0.92766389  0.32235916  0.31395252  1
  Al0+  Al82  1  0.18015099  0.42710088  0.01576361  1
  Al0+  Al83  1  0.07409278  0.17836414  0.65199326  1
  Al0+  Al84  1  0.57010222  0.17630595  0.64932606  1
  Al0+  Al85  1  0.17806437  0.93006971  0.01104612  1
  Al0+  Al86  1  0.32132100  0.57114155  0.34699117  1
  Al0+  Al87  1  0.07241152  0.18020039  0.98561437  1
  Al0+  Al88  1  0.57271084  0.67715656  0.31691031  1
  Al0+  Al89  1  0.42779071  0.82039840  0.98435212  1
  Al0+  Al90  1  0.92593061  0.82090687  0.65014267  1
  Al0+  Al91  1  0.42988496  0.32242684  0.65203592  1
  Al0+  Al92  1  0.31949884  0.06992782  0.34664134  1
  Al0+  Al93  1  0.92853319  0.32228478  0.65445019  1
  Al0+  Al94  1  0.57231163  0.17971554  0.98705287  1
  Al0+  Al95  1  0.82059030  0.57233711  0.01663412  1
  Si0+  Si96  1  0.57032107  0.67939770  0.65392904  1
  Si0+  Si97  1  0.82086230  0.57043585  0.35135283  1
  Si0+  Si98  1  0.42869223  0.32429712  0.98484486  1
  Si0+  Si99  1  0.67809479  0.42676562  0.67921416  1
  Si0+  Si100  1  0.67911403  0.42703319  0.35019714  1
  Si0+  Si101  1  0.92998618  0.32255494  0.98540559  1
  Si0+  Si102  1  0.32315136  0.06999167  0.01647127  1
  Si0+  Si103  1  0.07187332  0.67614194  0.98577949  1
  Si0+  Si104  1  0.42926473  0.32186466  0.31825689  1
  Si0+  Si105  1  0.82272543  0.07251896  0.68259355  1
  Si0+  Si106  1  0.82328418  0.07344632  0.35038108  1
  Si0+  Si107  1  0.56958721  0.17872304  0.31979633  1
  Si0+  Si108  1  0.92902323  0.81938401  0.31893989  1
  Si0+  Si109  1  0.57125881  0.67738416  0.98188339  1
  Si0+  Si110  1  0.67727532  0.93000893  0.01525615  1
  Si0+  Si111  1  0.42941836  0.82092617  0.65185437  1
  Si0+  Si112  1  0.17569665  0.92657701  0.68212212  1
  Si0+  Si113  1  0.82192680  0.06997488  0.01379695  1
  Si0+  Si114  1  0.17449265  0.92672579  0.35041379  1
  Si0+  Si115  1  0.07146108  0.67918362  0.31704039  1
  Si0+  Si116  1  0.81984875  0.56942176  0.68073108  1
  Si0+  Si117  1  0.32445923  0.57513949  0.68373014  1
  Si0+  Si118  1  0.17808307  0.42939902  0.35105763  1
  Si0+  Si119  1  0.32217079  0.57412084  0.01657255  1
  O2-  O120  1  0.25301426  0.00296122  0.06048630  1
  O2-  O121  1  0.24316407  -0.00396120  0.39312555  1
  O2-  O122  1  0.23881224  -0.00016186  0.72741702  1
  O2-  O123  1  0.25489164  0.50348405  0.06011954  1
  O2-  O124  1  0.24671513  0.49785579  0.39555144  1
  O2-  O125  1  0.25461301  0.50763368  0.72737438  1
  O2-  O126  1  0.74942628  0.00000325  0.05694763  1
  O2-  O127  1  0.75537341  0.00414412  0.39457699  1
  O2-  O128  1  0.75650139  0.00229322  0.72956649  1
  O2-  O129  1  0.74895351  0.49935530  0.06661352  1
  O2-  O130  1  0.75090711  0.49762618  0.39280098  1
  O2-  O131  1  0.75324613  0.49344990  0.72131513  1
  O2-  O132  1  0.00018984  0.25047434  0.26557647  1
  O2-  O133  1  -0.00003603  0.24980817  0.60448791  1
  O2-  O134  1  0.00160279  0.25894146  0.93962131  1
  O2-  O135  1  0.00376558  0.75349336  0.27515318  1
  O2-  O136  1  0.00219691  0.75304707  0.60072908  1
  O2-  O137  1  0.00152732  0.74383385  0.94282604  1
  O2-  O138  1  0.50000989  0.25035519  0.27608546  1
  O2-  O139  1  0.49921213  0.24927975  0.59927323  1
  O2-  O140  1  0.50091808  0.25849938  0.94260150  1
  O2-  O141  1  0.49893631  0.74844968  0.26894298  1
  O2-  O142  1  0.49786414  0.74747124  0.61056249  1
  O2-  O143  1  0.50189746  0.74480484  0.93698059  1
  O2-  O144  1  0.07039788  0.17875618  0.09849460  1
  O2-  O145  1  0.07344358  0.18221225  0.42887923  1
  O2-  O146  1  0.07286233  0.18050132  0.76597668  1
  O2-  O147  1  0.07290236  0.67933615  0.09189604  1
  O2-  O148  1  0.06983907  0.67801712  0.42197444  1
  O2-  O149  1  0.06774349  0.67705879  0.76607701  1
  O2-  O150  1  0.56919610  0.17715529  0.10103220  1
  O2-  O151  1  0.56914414  0.17972973  0.42436033  1
  O2-  O152  1  0.57076141  0.17968643  0.76303763  1
  O2-  O153  1  0.57143231  0.67854319  0.08719218  1
  O2-  O154  1  0.57340404  0.67834921  0.43120937  1
  O2-  O155  1  0.57031569  0.67905057  0.75900607  1
  O2-  O156  1  0.18074240  0.43055087  0.24509780  1
  O2-  O157  1  0.18131799  0.43494111  0.56561173  1
  O2-  O158  1  0.17944565  0.42772867  0.90264199  1
  O2-  O159  1  0.17294165  0.92628175  0.24457953  1
  O2-  O160  1  0.18115952  0.92253021  0.57667975  1
  O2-  O161  1  0.17818117  0.93072863  0.89817262  1
  O2-  O162  1  0.67882054  0.42600109  0.24534587  1
  O2-  O163  1  0.67573842  0.43140730  0.57391419  1
  O2-  O164  1  0.68130974  0.42741272  0.90046190  1
  O2-  O165  1  0.68197774  0.93312322  0.23171064  1
  O2-  O166  1  0.67979373  0.92620455  0.57041658  1
  O2-  O167  1  0.67809191  0.92993758  0.91025249  1
  O2-  O168  1  0.42846805  0.32306660  0.09107782  1
  O2-  O169  1  0.43043969  0.32301933  0.42300042  1
  O2-  O170  1  0.43313437  0.32328721  0.76576537  1
  O2-  O171  1  0.42954140  0.82151656  0.09722928  1
  O2-  O172  1  0.43258145  0.82255190  0.43317333  1
  O2-  O173  1  0.42922040  0.81868307  0.75720227  1
  O2-  O174  1  0.92900178  0.31831287  0.09075574  1
  O2-  O175  1  0.92849657  0.32222258  0.42744085  1
  O2-  O176  1  0.92882305  0.32344723  0.76834474  1
  O2-  O177  1  0.92869110  0.82086858  0.10143516  1
  O2-  O178  1  0.92811314  0.81610324  0.42366687  1
  O2-  O179  1  0.92443878  0.81672068  0.76374903  1
  O2-  O180  1  0.32244981  0.06790133  0.23341186  1
  O2-  O181  1  0.31996724  0.06827204  0.56974468  1
  O2-  O182  1  0.32248779  0.06963539  0.91105062  1
  O2-  O183  1  0.31841422  0.56902815  0.23365303  1
  O2-  O184  1  0.32598766  0.57436091  0.57814445  1
  O2-  O185  1  0.32241625  0.57469908  0.91108828  1
  O2-  O186  1  0.82217254  0.07109867  0.24411795  1
  O2-  O187  1  0.81924350  0.07171124  0.57709018  1
  O2-  O188  1  0.82166113  0.07011015  0.90895425  1
  O2-  O189  1  0.81981769  0.57307965  0.24667222  1
  O2-  O190  1  0.81723074  0.57179653  0.57535000  1
  O2-  O191  1  0.82005273  0.57133963  0.90247992  1
  O2-  O192  1  0.04414745  0.07913666  0.26428592  1
  O2-  O193  1  0.04989746  0.08006400  0.59723217  1
  O2-  O194  1  0.03808800  0.08582367  0.93049298  1
  O2-  O195  1  0.04051719  0.58876757  0.26899060  1
  O2-  O196  1  0.03915346  0.58439826  0.59518338  1
  O2-  O197  1  0.04546437  0.58104823  0.94365988  1
  O2-  O198  1  0.53997239  0.08767383  0.27249027  1
  O2-  O199  1  0.53899553  0.07690612  0.60082714  1
  O2-  O200  1  0.53991241  0.08587907  0.92962745  1
  O2-  O201  1  0.54571713  0.57813617  0.26452743  1
  O2-  O202  1  0.54654993  0.58719373  0.60527714  1
  O2-  O203  1  0.54728565  0.58249742  0.93679885  1
  O2-  O204  1  0.17108234  0.20844714  0.26183175  1
  O2-  O205  1  0.17131625  0.21079878  0.60071919  1
  O2-  O206  1  0.17162804  0.20809725  0.93604509  1
  O2-  O207  1  0.16405534  0.70313860  0.26985219  1
  O2-  O208  1  0.17091816  0.70542834  0.59858462  1
  O2-  O209  1  0.16456121  0.70016139  0.93837223  1
  O2-  O210  1  0.66215257  0.20466780  0.27264502  1
  O2-  O211  1  0.66779125  0.20199644  0.59418138  1
  O2-  O212  1  0.67011402  0.20667550  0.93298229  1
  O2-  O213  1  0.67085229  0.70694452  0.26433641  1
  O2-  O214  1  0.66106967  0.70868940  0.60585520  1
  O2-  O215  1  0.66411675  0.70480749  0.93552700  1
  O2-  O216  1  0.08564226  0.45666277  0.07416766  1
  O2-  O217  1  0.08331428  0.45678665  0.39323851  1
  O2-  O218  1  0.08341101  0.46393647  0.73335100  1
  O2-  O219  1  0.08140493  0.96081955  0.06576319  1
  O2-  O220  1  0.08019062  0.95097621  0.39649734  1
  O2-  O221  1  0.07769243  0.94519902  0.72161373  1
  O2-  O222  1  0.57930918  0.45336089  0.06749464  1
  O2-  O223  1  0.58770839  0.45535205  0.39796958  1
  O2-  O224  1  0.58880560  0.45919777  0.72915515  1
  O2-  O225  1  0.58554779  0.96109624  0.06073368  1
  O2-  O226  1  0.58572426  0.96106595  0.40080753  1
  O2-  O227  1  0.58474494  0.95971461  0.73946885  1
  O2-  O228  1  0.21498864  0.33254175  0.07219356  1
  O2-  O229  1  0.20452809  0.33561652  0.39472311  1
  O2-  O230  1  0.21250357  0.33736684  0.73474073  1
  O2-  O231  1  0.20672500  0.83242052  0.06499023  1
  O2-  O232  1  0.19859292  0.83265468  0.39609520  1
  O2-  O233  1  0.20638216  0.83452596  0.72983231  1
  O2-  O234  1  0.70704462  0.32820704  0.06898936  1
  O2-  O235  1  0.70652141  0.33475153  0.39760970  1
  O2-  O236  1  0.70098866  0.33219215  0.72244654  1
  O2-  O237  1  0.70288522  0.83770718  0.06207914  1
  O2-  O238  1  0.71230181  0.83294624  0.39870495  1
  O2-  O239  1  0.71008990  0.83156029  0.73888870  1
  O2-  O240  1  0.45837183  0.41254244  0.26964452  1
  O2-  O241  1  0.45942793  0.42117587  0.59879444  1
  O2-  O242  1  0.44835161  0.41966101  0.93996998  1
  O2-  O243  1  0.46150768  0.91956477  0.26556401  1
  O2-  O244  1  0.46130032  0.91181878  0.60725686  1
  O2-  O245  1  0.46074881  0.91467937  0.92773057  1
  O2-  O246  1  0.95329927  0.42217430  0.26229908  1
  O2-  O247  1  0.95591644  0.42006500  0.60002214  1
  O2-  O248  1  0.95140537  0.41985844  0.94592837  1
  O2-  O249  1  0.95018756  0.91363742  0.27333847  1
  O2-  O250  1  0.94725424  0.91934548  0.59488943  1
  O2-  O251  1  0.95912831  0.91504710  0.93090481  1
  O2-  O252  1  0.33763470  0.29461665  0.27079828  1
  O2-  O253  1  0.33207692  0.29550911  0.59872252  1
  O2-  O254  1  0.33697549  0.29410224  0.93839032  1
  O2-  O255  1  0.32876136  0.79581829  0.26807010  1
  O2-  O256  1  0.33750111  0.79761879  0.60308887  1
  O2-  O257  1  0.33158897  0.78937783  0.92899894  1
  O2-  O258  1  0.82849494  0.29377150  0.26146947  1
  O2-  O259  1  0.83093623  0.29536571  0.59866391  1
  O2-  O260  1  0.83686233  0.29506062  0.93970845  1
  O2-  O261  1  0.83907453  0.78684399  0.27091060  1
  O2-  O262  1  0.82904797  0.78479648  0.59798905  1
  O2-  O263  1  0.83035102  0.79105863  0.93438442  1
  O2-  O264  1  0.41686987  0.04065114  0.06073721  1
  O2-  O265  1  0.41456574  0.03842360  0.40365494  1
  O2-  O266  1  0.41287302  0.03561874  0.73858011  1
  O2-  O267  1  0.41614669  0.55082654  0.06341125  1
  O2-  O268  1  0.41897882  0.54136666  0.39984769  1
  O2-  O269  1  0.41806329  0.54977758  0.73079479  1
  O2-  O270  1  0.91213032  0.03913829  0.06237749  1
  O2-  O271  1  0.91732961  0.04865405  0.39548919  1
  O2-  O272  1  0.91848964  0.04908116  0.72569710  1
  O2-  O273  1  0.91786830  0.54803526  0.07383569  1
  O2-  O274  1  0.91378051  0.54351938  0.39780491  1
  O2-  O275  1  0.91269543  0.54633439  0.72732164  1
  O2-  O276  1  0.30195449  0.16436012  0.06274857  1
  O2-  O277  1  0.29074039  0.16794538  0.40006059  1
  O2-  O278  1  0.29429937  0.16923825  0.73681183  1
  O2-  O279  1  0.29413054  0.66664450  0.06347096  1
  O2-  O280  1  0.29178153  0.66830187  0.40110650  1
  O2-  O281  1  0.29965910  0.66993863  0.72810325  1
  O2-  O282  1  0.79499601  0.16106408  0.06335044  1
  O2-  O283  1  0.79709703  0.16756453  0.39436722  1
  O2-  O284  1  0.79467023  0.16585686  0.72887058  1
  O2-  O285  1  0.78867052  0.67022812  0.07044185  1
  O2-  O286  1  0.79136387  0.66079769  0.40080157  1
  O2-  O287  1  0.78650925  0.65836986  0.73018854  1
