# generated using pymatgen
data_Ca2Al2SiO7
_symmetry_space_group_name_H-M   'P 1'
_cell_length_a   15.46193769
_cell_length_b   15.46194100
_cell_length_c   15.28716002
_cell_angle_alpha   90.01792094
_cell_angle_beta   90.00244132
_cell_angle_gamma   90.00330807
_symmetry_Int_Tables_number   1
_chemical_formula_structural   Ca2Al2SiO7
_chemical_formula_sum   'Ca48 Al48 Si24 O168'
_cell_volume   3654.72513518
_cell_formula_units_Z   24
loop_
 _symmetry_equiv_pos_site_id
 _symmetry_equiv_pos_as_xyz
  1  'x, y, z'
loop_
 _atom_type_symbol
 _atom_type_oxidation_number
  Ca2+  2.0
  Al0+  0.0
  Si0+  0.0
  O2-  -2.0
loop_
 _atom_site_type_symbol
 _atom_site_label
 _atom_site_symmetry_multiplicity
 _atom_site_fract_x
 _atom_site_fract_y
 _atom_site_fract_z
 _atom_site_occupancy
  Ca2+  Ca0  1  0.16975861  0.08047883  0.16966378  1
  Ca2+  Ca1  1  0.17520296  0.07640942  0.51030753  1
  Ca2+  Ca2  1  0.17138269  0.07646474  0.82843380  1
  Ca2+  Ca3  1  0.16516817  0.57602889  0.16894955  1
  Ca2+  Ca4  1  0.16959002  0.57669691  0.50246383  1
  Ca2+  Ca5  1  0.16678163  0.57896601  0.84248810  1
  Ca2+  Ca6  1  0.66819069  0.07210441  0.16689823  1
  Ca2+  Ca7  1  0.66777511  0.06992252  0.50832234  1
  Ca2+  Ca8  1  0.67543127  0.07289315  0.83740626  1
  Ca2+  Ca9  1  0.66565239  0.58840465  0.16516852  1
  Ca2+  Ca10  1  0.66777045  0.58742455  0.50705549  1
  Ca2+  Ca11  1  0.67382354  0.58651927  0.83859822  1
  Ca2+  Ca12  1  0.08057187  0.33943619  0.16458922  1
  Ca2+  Ca13  1  0.07258969  0.33332884  0.49512692  1
  Ca2+  Ca14  1  0.07693754  0.33289402  0.82794655  1
  Ca2+  Ca15  1  0.08065787  0.82375980  0.15592614  1
  Ca2+  Ca16  1  0.07656752  0.84150874  0.50195861  1
  Ca2+  Ca17  1  0.07733016  0.82900720  0.82658512  1
  Ca2+  Ca18  1  0.57926419  0.33776496  0.16075509  1
  Ca2+  Ca19  1  0.57077350  0.33124722  0.49598036  1
  Ca2+  Ca20  1  0.58416519  0.33246268  0.82591231  1
  Ca2+  Ca21  1  0.58016104  0.83069723  0.16144124  1
  Ca2+  Ca22  1  0.58639841  0.82807951  0.49513763  1
  Ca2+  Ca23  1  0.58667565  0.82802093  0.82728578  1
  Ca2+  Ca24  1  0.32234399  0.41538429  0.17496994  1
  Ca2+  Ca25  1  0.33078160  0.41004768  0.50482316  1
  Ca2+  Ca26  1  0.32919549  0.41777698  0.83949010  1
  Ca2+  Ca27  1  0.33932780  0.91188175  0.17061073  1
  Ca2+  Ca28  1  0.33272958  0.91573537  0.51196083  1
  Ca2+  Ca29  1  0.33770760  0.91217713  0.83200669  1
  Ca2+  Ca30  1  0.82846499  0.42193937  0.16613340  1
  Ca2+  Ca31  1  0.83615256  0.42087056  0.50695683  1
  Ca2+  Ca32  1  0.83023705  0.42586312  0.83907385  1
  Ca2+  Ca33  1  0.81835785  0.91285092  0.16878798  1
  Ca2+  Ca34  1  0.82359930  0.91806093  0.51243026  1
  Ca2+  Ca35  1  0.82385903  0.91637002  0.83570472  1
  Ca2+  Ca36  1  0.41751691  0.17256029  0.16626764  1
  Ca2+  Ca37  1  0.40953566  0.17324254  0.49964349  1
  Ca2+  Ca38  1  0.41538056  0.17292207  0.82594402  1
  Ca2+  Ca39  1  0.42779325  0.67761359  0.15946049  1
  Ca2+  Ca40  1  0.43029705  0.67799732  0.49529499  1
  Ca2+  Ca41  1  0.43117174  0.67582178  0.82801751  1
  Ca2+  Ca42  1  0.91128770  0.17229618  0.16180300  1
  Ca2+  Ca43  1  0.90844226  0.17658190  0.49818607  1
  Ca2+  Ca44  1  0.90889992  0.17011039  0.82436404  1
  Ca2+  Ca45  1  0.92137378  0.66265745  0.15976491  1
  Ca2+  Ca46  1  0.91182411  0.67156618  0.50461224  1
  Ca2+  Ca47  1  0.91869347  0.66237557  0.82796650  1
  Al0+  Al48  1  0.00372474  0.00252273  0.00342004  1
  Al0+  Al49  1  0.00023332  0.00193781  0.33214905  1
  Al0+  Al50  1  0.00261293  -0.00003787  0.66893873  1
  Al0+  Al51  1  -0.00018594  0.49827039  0.00268504  1
  Al0+  Al52  1  -0.00021195  0.49846450  0.33481825  1
  Al0+  Al53  1  -0.00022961  0.49793024  0.66509403  1
  Al0+  Al54  1  0.49910893  0.00473983  0.00070913  1
  Al0+  Al55  1  0.50034869  0.00112685  0.33549770  1
  Al0+  Al56  1  0.49936514  0.00098907  0.67326241  1
  Al0+  Al57  1  0.49789687  0.50363505  -0.00079876  1
  Al0+  Al58  1  0.49961577  0.50083879  0.32579615  1
  Al0+  Al59  1  0.49823339  0.49959534  0.65838619  1
  Al0+  Al60  1  0.24767124  0.24895067  0.00396137  1
  Al0+  Al61  1  0.24730264  0.24890167  0.33387122  1
  Al0+  Al62  1  0.24766632  0.24820252  0.66737573  1
  Al0+  Al63  1  0.24866388  0.74972633  -0.00731976  1
  Al0+  Al64  1  0.24974828  0.74836265  0.33227757  1
  Al0+  Al65  1  0.25114699  0.74570966  0.66741147  1
  Al0+  Al66  1  0.74866708  0.25154358  0.00601959  1
  Al0+  Al67  1  0.75001667  0.25215683  0.32828156  1
  Al0+  Al68  1  0.74770472  0.25026672  0.66197678  1
  Al0+  Al69  1  0.75093693  0.75137941  0.00601251  1
  Al0+  Al70  1  0.75186450  0.74968607  0.33392623  1
  Al0+  Al71  1  0.75453361  0.74769228  0.66743903  1
  Al0+  Al72  1  0.42826266  0.82268469  0.31943723  1
  Al0+  Al73  1  0.82135089  0.57152294  0.01563123  1
  Al0+  Al74  1  0.68021352  0.92954032  0.34881656  1
  Al0+  Al75  1  0.42692685  0.31999522  0.31833191  1
  Al0+  Al76  1  0.82394799  0.07237184  0.01565396  1
  Al0+  Al77  1  0.57368476  0.67968350  0.98280884  1
  Al0+  Al78  1  0.82172414  0.56836803  0.67942560  1
  Al0+  Al79  1  0.92763983  0.32004856  0.65422139  1
  Al0+  Al80  1  0.57446655  0.67977985  0.31588078  1
  Al0+  Al81  1  0.67811000  0.92974757  0.01629565  1
  Al0+  Al82  1  0.17946244  0.42887438  0.35016552  1
  Al0+  Al83  1  0.82151705  0.07382834  0.67879024  1
  Al0+  Al84  1  0.42705818  0.31981290  0.65495922  1
  Al0+  Al85  1  0.06835039  0.67677484  0.98648421  1
  Al0+  Al86  1  0.57386803  0.68006225  0.65127473  1
  Al0+  Al87  1  0.93211061  0.82110598  0.65498000  1
  Al0+  Al88  1  0.17936852  0.92455918  0.68229314  1
  Al0+  Al89  1  0.67586229  0.43028387  0.01369185  1
  Al0+  Al90  1  0.42934409  0.82455781  0.98309332  1
  Al0+  Al91  1  0.42927870  0.82226315  0.65192409  1
  Al0+  Al92  1  0.92854590  0.32192786  0.31652906  1
  Al0+  Al93  1  0.32148715  0.07130719  0.68265590  1
  Al0+  Al94  1  0.18050418  0.42856924  0.01352367  1
  Al0+  Al95  1  0.67970603  0.92685580  0.68203391  1
  Si0+  Si96  1  0.67667723  0.42812678  0.34853941  1
  Si0+  Si97  1  0.07162741  0.17795947  0.64954360  1
  Si0+  Si98  1  0.32019768  0.57409109  0.01681921  1
  Si0+  Si99  1  0.07059492  0.17799304  0.31491584  1
  Si0+  Si100  1  0.17932808  0.42904905  0.68183349  1
  Si0+  Si101  1  0.07333194  0.17821431  0.98345218  1
  Si0+  Si102  1  0.92894989  0.31824037  0.98481793  1
  Si0+  Si103  1  0.18092475  0.92801495  0.01544673  1
  Si0+  Si104  1  0.31960075  0.06984298  0.34764088  1
  Si0+  Si105  1  0.82094217  0.56914828  0.34984321  1
  Si0+  Si106  1  0.17775963  0.92664226  0.34639085  1
  Si0+  Si107  1  0.82274646  0.07343262  0.34995653  1
  Si0+  Si108  1  0.42620707  0.32094509  0.98722326  1
  Si0+  Si109  1  0.07048088  0.67878768  0.32000454  1
  Si0+  Si110  1  0.57109354  0.18266115  0.98509440  1
  Si0+  Si111  1  0.57184995  0.17798738  0.65024564  1
  Si0+  Si112  1  0.32269374  0.57157622  0.35045170  1
  Si0+  Si113  1  0.92983176  0.82447145  0.98568982  1
  Si0+  Si114  1  0.07297481  0.67482242  0.64899828  1
  Si0+  Si115  1  0.57162519  0.17899330  0.31586654  1
  Si0+  Si116  1  0.31998595  0.07238434  0.01731936  1
  Si0+  Si117  1  0.32247227  0.56886412  0.68157789  1
  Si0+  Si118  1  0.93086946  0.82259192  0.31889487  1
  Si0+  Si119  1  0.67520600  0.42893891  0.67852430  1
  O2-  O120  1  0.25447218  -0.00414144  0.05902909  1
  O2-  O121  1  0.25297689  -0.00646408  0.38764289  1
  O2-  O122  1  0.25488531  -0.00639526  0.73213143  1
  O2-  O123  1  0.25484644  0.50236162  0.06207443  1
  O2-  O124  1  0.25748392  0.49985444  0.39703464  1
  O2-  O125  1  0.25046782  0.49867903  0.72477534  1
  O2-  O126  1  0.75450644  -0.00149922  0.06605811  1
  O2-  O127  1  0.75532425  0.00469954  0.39438443  1
  O2-  O128  1  0.75290896  -0.00024888  0.72954652  1
  O2-  O129  1  0.74503713  0.50398945  0.06595929  1
  O2-  O130  1  0.74619620  0.50080868  0.39055240  1
  O2-  O131  1  0.74426624  0.49593836  0.72377210  1
  O2-  O132  1  0.00092768  0.24487897  0.26972821  1
  O2-  O133  1  -0.00198053  0.24167271  0.60614925  1
  O2-  O134  1  -0.00314024  0.24393234  0.94259657  1
  O2-  O135  1  0.00402635  0.75363378  0.27730361  1
  O2-  O136  1  0.00912137  0.74860184  0.60577898  1
  O2-  O137  1  -0.00683385  0.75093392  0.94114058  1
  O2-  O138  1  0.50447056  0.24923513  0.27046067  1
  O2-  O139  1  0.49998199  0.24433597  0.60673652  1
  O2-  O140  1  0.50253257  0.25707478  0.94378523  1
  O2-  O141  1  0.50148966  0.75270411  0.26908757  1
  O2-  O142  1  0.50604740  0.75632030  0.60119581  1
  O2-  O143  1  0.50499263  0.75582725  0.93464454  1
  O2-  O144  1  0.07710309  0.17929643  0.08857343  1
  O2-  O145  1  0.07153972  0.17658631  0.42011049  1
  O2-  O146  1  0.07573843  0.18232554  0.75518212  1
  O2-  O147  1  0.06906411  0.67920913  0.10045619  1
  O2-  O148  1  0.07037314  0.67833070  0.42494050  1
  O2-  O149  1  0.07002966  0.67050168  0.75438756  1
  O2-  O150  1  0.56794148  0.18212943  0.09041888  1
  O2-  O151  1  0.57073813  0.17993550  0.42136159  1
  O2-  O152  1  0.57472500  0.18316404  0.75587800  1
  O2-  O153  1  0.56958794  0.67915257  0.09621355  1
  O2-  O154  1  0.57549684  0.68036125  0.42934120  1
  O2-  O155  1  0.57234673  0.67594878  0.76428979  1
  O2-  O156  1  0.17901871  0.43173894  0.23707768  1
  O2-  O157  1  0.17912044  0.42987264  0.57664372  1
  O2-  O158  1  0.18205366  0.42738647  0.90008594  1
  O2-  O159  1  0.17554565  0.92845551  0.24110284  1
  O2-  O160  1  0.17873377  0.92895197  0.56778805  1
  O2-  O161  1  0.17837405  0.92997317  0.91111289  1
  O2-  O162  1  0.67851586  0.42687541  0.24373121  1
  O2-  O163  1  0.67545807  0.42941585  0.57256976  1
  O2-  O164  1  0.67964449  0.42484262  0.90016421  1
  O2-  O165  1  0.68094863  0.93130873  0.23593368  1
  O2-  O166  1  0.68153365  0.92829649  0.56800360  1
  O2-  O167  1  0.67858277  0.93157815  0.90324778  1
  O2-  O168  1  0.42418837  0.31546488  0.09229678  1
  O2-  O169  1  0.42643271  0.31611878  0.43136849  1
  O2-  O170  1  0.42737818  0.31997928  0.76845057  1
  O2-  O171  1  0.42777950  0.82191104  0.09702218  1
  O2-  O172  1  0.42546496  0.82180924  0.43232798  1
  O2-  O173  1  0.42889770  0.81657822  0.76489210  1
  O2-  O174  1  0.93176989  0.31855989  0.09003792  1
  O2-  O175  1  0.93039625  0.32144912  0.42969029  1
  O2-  O176  1  0.93143423  0.32183749  0.76743979  1
  O2-  O177  1  0.93554929  0.82539877  0.09203623  1
  O2-  O178  1  0.93212390  0.82325988  0.42390486  1
  O2-  O179  1  0.93269072  0.81886778  0.76781485  1
  O2-  O180  1  0.31679978  0.07215027  0.24216857  1
  O2-  O181  1  0.31582719  0.07621724  0.56881406  1
  O2-  O182  1  0.31625021  0.07922157  0.91320195  1
  O2-  O183  1  0.31739855  0.57188623  0.24497142  1
  O2-  O184  1  0.32017039  0.56691520  0.57643146  1
  O2-  O185  1  0.31820314  0.57061466  0.91100761  1
  O2-  O186  1  0.82394608  0.07143571  0.24451204  1
  O2-  O187  1  0.81753224  0.07451828  0.56488208  1
  O2-  O188  1  0.82182863  0.07381139  0.90249748  1
  O2-  O189  1  0.82411698  0.56846166  0.24503849  1
  O2-  O190  1  0.82393202  0.56594627  0.56585969  1
  O2-  O191  1  0.82529518  0.56608519  0.90240854  1
  O2-  O192  1  0.04730446  0.08375963  0.26709983  1
  O2-  O193  1  0.05393440  0.08260439  0.60475889  1
  O2-  O194  1  0.05268425  0.08428025  0.93728087  1
  O2-  O195  1  0.03760890  0.58875267  0.27247082  1
  O2-  O196  1  0.04161373  0.58395506  0.59997438  1
  O2-  O197  1  0.03950325  0.57936273  0.93273801  1
  O2-  O198  1  0.54203417  0.08692701  0.26917910  1
  O2-  O199  1  0.54779284  0.08353472  0.60657067  1
  O2-  O200  1  0.53932903  0.09325263  0.93655537  1
  O2-  O201  1  0.54714235  0.58108429  0.26332397  1
  O2-  O202  1  0.54014377  0.58355325  0.59609108  1
  O2-  O203  1  0.54218013  0.58121930  0.92996709  1
  O2-  O204  1  0.16315567  0.20541840  0.26750115  1
  O2-  O205  1  0.16180475  0.21034302  0.60020185  1
  O2-  O206  1  0.16236650  0.21299002  0.93482554  1
  O2-  O207  1  0.16275219  0.70206994  0.27140103  1
  O2-  O208  1  0.16828546  0.69389891  0.60448953  1
  O2-  O209  1  0.16347237  0.70741996  0.93053903  1
  O2-  O210  1  0.66507458  0.20299106  0.26913161  1
  O2-  O211  1  0.66205518  0.20601138  0.59843547  1
  O2-  O212  1  0.66353419  0.20910590  0.93856214  1
  O2-  O213  1  0.67391683  0.70769532  0.26461535  1
  O2-  O214  1  0.67405446  0.70328957  0.60001558  1
  O2-  O215  1  0.67558819  0.70411061  0.93545478  1
  O2-  O216  1  0.08477331  0.45941367  0.06816256  1
  O2-  O217  1  0.08378587  0.46361497  0.40383600  1
  O2-  O218  1  0.08821230  0.45845400  0.72896528  1
  O2-  O219  1  0.09162767  0.95930792  0.06653456  1
  O2-  O220  1  0.08719998  0.95914597  0.39446211  1
  O2-  O221  1  0.08343299  0.95763885  0.73744435  1
  O2-  O222  1  0.57516028  0.45404786  0.06537228  1
  O2-  O223  1  0.58258055  0.45252392  0.39317858  1
  O2-  O224  1  0.58091674  0.45262605  0.72382205  1
  O2-  O225  1  0.58116219  0.96630159  0.06871445  1
  O2-  O226  1  0.58335300  0.96134833  0.40187854  1
  O2-  O227  1  0.58186704  0.95440886  0.73483206  1
  O2-  O228  1  0.21119918  0.33279624  0.07001338  1
  O2-  O229  1  0.20679810  0.33040012  0.40211291  1
  O2-  O230  1  0.20521199  0.33703953  0.72894567  1
  O2-  O231  1  0.20530683  0.83460395  0.06170895  1
  O2-  O232  1  0.19874192  0.83309810  0.39285359  1
  O2-  O233  1  0.20137544  0.82367392  0.73275102  1
  O2-  O234  1  0.70583736  0.33383543  0.07052184  1
  O2-  O235  1  0.70594715  0.33614229  0.39527033  1
  O2-  O236  1  0.69947802  0.33471933  0.72307155  1
  O2-  O237  1  0.70504257  0.83223031  0.07169083  1
  O2-  O238  1  0.71489902  0.83330084  0.40089632  1
  O2-  O239  1  0.71294623  0.82999594  0.73387843  1
  O2-  O240  1  0.45246497  0.41729113  0.26426662  1
  O2-  O241  1  0.45619321  0.41404973  0.59592126  1
  O2-  O242  1  0.44427538  0.41595087  0.94332807  1
  O2-  O243  1  0.45326480  0.92322632  0.26855822  1
  O2-  O244  1  0.44683120  0.92600151  0.60622631  1
  O2-  O245  1  0.44938242  0.92744439  0.93607369  1
  O2-  O246  1  0.96395323  0.41742005  0.26342991  1
  O2-  O247  1  0.96489303  0.41355127  0.59750648  1
  O2-  O248  1  0.96149471  0.40858596  0.93817380  1
  O2-  O249  1  0.95671444  0.91484139  0.27122277  1
  O2-  O250  1  0.96185488  0.91798387  0.59925871  1
  O2-  O251  1  0.96220384  0.91642584  0.94042401  1
  O2-  O252  1  0.33084342  0.28488534  0.26522155  1
  O2-  O253  1  0.33021260  0.28843707  0.60075276  1
  O2-  O254  1  0.33638084  0.28588618  0.93980433  1
  O2-  O255  1  0.32860480  0.79395094  0.26666116  1
  O2-  O256  1  0.33090768  0.78882182  0.60012665  1
  O2-  O257  1  0.33126173  0.79376028  0.93102998  1
  O2-  O258  1  0.83149027  0.29433965  0.26165586  1
  O2-  O259  1  0.83063015  0.29439280  0.59751627  1
  O2-  O260  1  0.83537675  0.29369242  0.93999972  1
  O2-  O261  1  0.84111242  0.79077130  0.27113195  1
  O2-  O262  1  0.83866231  0.78625367  0.59759938  1
  O2-  O263  1  0.83372888  0.80520769  0.94501936  1
  O2-  O264  1  0.41293512  0.05181833  0.06534452  1
  O2-  O265  1  0.41288114  0.05020376  0.39460553  1
  O2-  O266  1  0.42080105  0.05354958  0.73702561  1
  O2-  O267  1  0.41431669  0.55223236  0.06218729  1
  O2-  O268  1  0.41815258  0.54868551  0.39301773  1
  O2-  O269  1  0.41329031  0.53758884  0.72842971  1
  O2-  O270  1  0.92525150  0.05104636  0.06749080  1
  O2-  O271  1  0.91791440  0.05014480  0.39452540  1
  O2-  O272  1  0.92275331  0.05359087  0.72800155  1
  O2-  O273  1  0.91736164  0.53635825  0.07078392  1
  O2-  O274  1  0.91104961  0.53742212  0.39817009  1
  O2-  O275  1  0.91761907  0.53420527  0.73338507  1
  O2-  O276  1  0.28461203  0.16032086  0.06873304  1
  O2-  O277  1  0.28529885  0.15901550  0.39616602  1
  O2-  O278  1  0.28453659  0.16745501  0.73763844  1
  O2-  O279  1  0.28897977  0.66627739  0.06221860  1
  O2-  O280  1  0.29160484  0.66337040  0.39790619  1
  O2-  O281  1  0.29559612  0.65930960  0.73088722  1
  O2-  O282  1  0.79161397  0.16902477  0.07019174  1
  O2-  O283  1  0.79662438  0.16881261  0.39223630  1
  O2-  O284  1  0.79010632  0.17219249  0.73135294  1
  O2-  O285  1  0.80213010  0.67148993  0.06920936  1
  O2-  O286  1  0.79711878  0.66243840  0.39624223  1
  O2-  O287  1  0.79710808  0.66498908  0.73412485  1
