# generated using pymatgen
data_Ca2Al2SiO7
_symmetry_space_group_name_H-M   'P 1'
_cell_length_a   15.45996448
_cell_length_b   15.45915997
_cell_length_c   15.28481212
_cell_angle_alpha   89.99817968
_cell_angle_beta   90.00070318
_cell_angle_gamma   89.99474350
_symmetry_Int_Tables_number   1
_chemical_formula_structural   Ca2Al2SiO7
_chemical_formula_sum   'Ca48 Al48 Si24 O168'
_cell_volume   3653.04048836
_cell_formula_units_Z   24
loop_
 _symmetry_equiv_pos_site_id
 _symmetry_equiv_pos_as_xyz
  1  'x, y, z'
loop_
 _atom_type_symbol
 _atom_type_oxidation_number
  Ca2+  2.0
  Al0+  0.0
  Si0+  0.0
  O2-  -2.0
loop_
 _atom_site_type_symbol
 _atom_site_label
 _atom_site_symmetry_multiplicity
 _atom_site_fract_x
 _atom_site_fract_y
 _atom_site_fract_z
 _atom_site_occupancy
  Ca2+  Ca0  1  0.16419046  0.08233589  0.17217640  1
  Ca2+  Ca1  1  0.16011610  0.07875251  0.50769616  1
  Ca2+  Ca2  1  0.16010380  0.08007716  0.83117980  1
  Ca2+  Ca3  1  0.17571328  0.58140252  0.17640279  1
  Ca2+  Ca4  1  0.17122213  0.57575307  0.50530427  1
  Ca2+  Ca5  1  0.18015194  0.57650590  0.83387959  1
  Ca2+  Ca6  1  0.67133994  0.08306060  0.16497748  1
  Ca2+  Ca7  1  0.66534825  0.07737794  0.50973140  1
  Ca2+  Ca8  1  0.66310881  0.07623640  0.84190281  1
  Ca2+  Ca9  1  0.66499301  0.58817899  0.16988254  1
  Ca2+  Ca10  1  0.67413144  0.58712698  0.50493038  1
  Ca2+  Ca11  1  0.67043312  0.58413611  0.83665572  1
  Ca2+  Ca12  1  0.07520898  0.33727479  0.16637136  1
  Ca2+  Ca13  1  0.08025843  0.33642081  0.49455123  1
  Ca2+  Ca14  1  0.07566199  0.33024839  0.82196852  1
  Ca2+  Ca15  1  0.08096534  0.82493979  0.16309503  1
  Ca2+  Ca16  1  0.08840950  0.82547743  0.49494287  1
  Ca2+  Ca17  1  0.07750601  0.83620967  0.82874450  1
  Ca2+  Ca18  1  0.58218569  0.32805361  0.15858038  1
  Ca2+  Ca19  1  0.57810287  0.33284993  0.50358312  1
  Ca2+  Ca20  1  0.58107750  0.31963117  0.82583312  1
  Ca2+  Ca21  1  0.58127950  0.82255830  0.16268354  1
  Ca2+  Ca22  1  0.57308425  0.82895483  0.49620054  1
  Ca2+  Ca23  1  0.58243202  0.83281258  0.82794397  1
  Ca2+  Ca24  1  0.32922723  0.42934343  0.17701650  1
  Ca2+  Ca25  1  0.32488353  0.42528724  0.50981689  1
  Ca2+  Ca26  1  0.33659992  0.42114399  0.83532560  1
  Ca2+  Ca27  1  0.33754238  0.91816881  0.17092089  1
  Ca2+  Ca28  1  0.33203517  0.91335004  0.50842502  1
  Ca2+  Ca29  1  0.32900334  0.91178895  0.83031602  1
  Ca2+  Ca30  1  0.83361479  0.40988689  0.16936422  1
  Ca2+  Ca31  1  0.83927380  0.41985910  0.50548228  1
  Ca2+  Ca32  1  0.84137203  0.41922307  0.83409709  1
  Ca2+  Ca33  1  0.83126832  0.91638051  0.16364238  1
  Ca2+  Ca34  1  0.82365179  0.91834024  0.51032980  1
  Ca2+  Ca35  1  0.82166043  0.92378099  0.84453216  1
  Ca2+  Ca36  1  0.42298262  0.16922100  0.16039532  1
  Ca2+  Ca37  1  0.41768091  0.17132526  0.50397786  1
  Ca2+  Ca38  1  0.42785128  0.16839686  0.82405089  1
  Ca2+  Ca39  1  0.42089825  0.66430063  0.16430223  1
  Ca2+  Ca40  1  0.40898258  0.67455610  0.49465654  1
  Ca2+  Ca41  1  0.41831265  0.66586216  0.82854700  1
  Ca2+  Ca42  1  0.91843560  0.17485399  0.16142816  1
  Ca2+  Ca43  1  0.92961129  0.17720755  0.49651930  1
  Ca2+  Ca44  1  0.91497421  0.17581752  0.82705191  1
  Ca2+  Ca45  1  0.92584135  0.66964698  0.16214292  1
  Ca2+  Ca46  1  0.92311004  0.66351158  0.49572060  1
  Ca2+  Ca47  1  0.91194015  0.67325357  0.82885832  1
  Al0+  Al48  1  -0.00088158  -0.00049753  0.00193925  1
  Al0+  Al49  1  -0.00128799  0.00286434  0.33193458  1
  Al0+  Al50  1  -0.00289903  0.00039258  0.66758202  1
  Al0+  Al51  1  0.00168132  0.49997104  -0.00353252  1
  Al0+  Al52  1  -0.00081971  0.50112277  0.32647411  1
  Al0+  Al53  1  0.00114151  0.50254479  0.67344868  1
  Al0+  Al54  1  0.49874715  -0.00259016  0.00195311  1
  Al0+  Al55  1  0.49985428  -0.00051979  0.33064439  1
  Al0+  Al56  1  0.49890905  -0.00317709  0.66317998  1
  Al0+  Al57  1  0.50067368  0.50155465  0.00064870  1
  Al0+  Al58  1  0.50184502  0.50047382  0.33583994  1
  Al0+  Al59  1  0.50394990  0.49946917  0.66681358  1
  Al0+  Al60  1  0.24764374  0.24962634  0.00202913  1
  Al0+  Al61  1  0.25057294  0.24900610  0.33274432  1
  Al0+  Al62  1  0.25083045  0.24800414  0.66466391  1
  Al0+  Al63  1  0.25069089  0.74861603  0.00452298  1
  Al0+  Al64  1  0.24937808  0.75272604  0.32659333  1
  Al0+  Al65  1  0.24959306  0.75017920  0.67285869  1
  Al0+  Al66  1  0.75058175  0.24954941  -0.00455523  1
  Al0+  Al67  1  0.75084747  0.24970204  0.33354709  1
  Al0+  Al68  1  0.75161209  0.25064976  0.65680189  1
  Al0+  Al69  1  0.74985100  0.74973762  -0.00216690  1
  Al0+  Al70  1  0.74734551  0.75112415  0.33233719  1
  Al0+  Al71  1  0.74947721  0.75076765  0.67391244  1
  Al0+  Al72  1  0.32212284  0.56945558  0.01643813  1
  Al0+  Al73  1  0.82064435  0.07257719  0.01597489  1
  Al0+  Al74  1  0.32343677  0.57102775  0.68191144  1
  Al0+  Al75  1  0.56913851  0.17826701  0.98802697  1
  Al0+  Al76  1  0.93048238  0.82035020  0.98601372  1
  Al0+  Al77  1  0.57034263  0.67860212  0.98403913  1
  Al0+  Al78  1  0.07318547  0.17774323  0.31644404  1
  Al0+  Al79  1  0.82129726  0.57038354  0.68034113  1
  Al0+  Al80  1  0.07100334  0.17698667  0.65272646  1
  Al0+  Al81  1  0.17953436  0.42596004  0.68250402  1
  Al0+  Al82  1  0.93010208  0.32069916  0.98391390  1
  Al0+  Al83  1  0.42815694  0.81692710  0.65465409  1
  Al0+  Al84  1  0.42854085  0.32338851  0.65206554  1
  Al0+  Al85  1  0.17709421  0.92912013  0.67941042  1
  Al0+  Al86  1  0.42817937  0.82168133  0.31675950  1
  Al0+  Al87  1  0.67687184  0.92690894  0.01863433  1
  Al0+  Al88  1  0.07023524  0.67997931  0.32059804  1
  Al0+  Al89  1  0.32226880  0.57333222  0.34979914  1
  Al0+  Al90  1  0.93139602  0.32509241  0.65001529  1
  Al0+  Al91  1  0.57177546  0.67795129  0.31936330  1
  Al0+  Al92  1  0.57140143  0.17673597  0.65070943  1
  Al0+  Al93  1  0.67710248  0.93054194  0.68026069  1
  Al0+  Al94  1  0.92922882  0.32129093  0.31644601  1
  Al0+  Al95  1  0.17808094  0.42922476  0.34785625  1
  Si0+  Si96  1  0.42981252  0.32125966  0.31900168  1
  Si0+  Si97  1  0.68082222  0.42970454  0.01334574  1
  Si0+  Si98  1  0.07385391  0.67868808  0.98062827  1
  Si0+  Si99  1  0.07023350  0.68232053  0.65445049  1
  Si0+  Si100  1  0.32366831  0.07102649  0.34854203  1
  Si0+  Si101  1  0.81956684  0.57203049  0.34477506  1
  Si0+  Si102  1  0.92658859  0.82080602  0.65268872  1
  Si0+  Si103  1  0.67936854  0.42577032  0.68354858  1
  Si0+  Si104  1  0.57079869  0.17903378  0.31809132  1
  Si0+  Si105  1  0.92571335  0.82350018  0.31896396  1
  Si0+  Si106  1  0.82019408  0.07249660  0.68190931  1
  Si0+  Si107  1  0.17843247  0.92896130  0.01639151  1
  Si0+  Si108  1  0.42642760  0.82142402  0.98174092  1
  Si0+  Si109  1  0.67916870  0.42609804  0.34842005  1
  Si0+  Si110  1  0.07358655  0.17678106  0.98269550  1
  Si0+  Si111  1  0.17712101  0.42731505  0.01808119  1
  Si0+  Si112  1  0.67931862  0.93004379  0.34949239  1
  Si0+  Si113  1  0.57481860  0.67817387  0.65091795  1
  Si0+  Si114  1  0.42689914  0.32178382  0.98651443  1
  Si0+  Si115  1  0.17802921  0.93140363  0.34633297  1
  Si0+  Si116  1  0.32243500  0.07069054  0.68265336  1
  Si0+  Si117  1  0.82062484  0.07259163  0.35077742  1
  Si0+  Si118  1  0.32040175  0.07139069  0.01443269  1
  Si0+  Si119  1  0.82255030  0.57124566  0.01590564  1
  O2-  O120  1  0.24896889  0.00102865  0.05784562  1
  O2-  O121  1  0.24915645  0.00229745  0.38850722  1
  O2-  O122  1  0.24930534  0.00616893  0.72685545  1
  O2-  O123  1  0.24763023  0.49411026  0.06199222  1
  O2-  O124  1  0.25050417  0.50053194  0.39828771  1
  O2-  O125  1  0.25722696  0.49298840  0.73163121  1
  O2-  O126  1  0.74922889  -0.00009977  0.06781697  1
  O2-  O127  1  0.75084498  0.00003255  0.39269125  1
  O2-  O128  1  0.74721019  0.00920115  0.72674196  1
  O2-  O129  1  0.75188510  0.49987039  0.05812626  1
  O2-  O130  1  0.74948716  0.49994762  0.38700912  1
  O2-  O131  1  0.74912151  0.49343560  0.72771080  1
  O2-  O132  1  0.00283333  0.25098090  0.26637580  1
  O2-  O133  1  0.00642283  0.25519797  0.60179345  1
  O2-  O134  1  0.00531814  0.24582659  0.93954685  1
  O2-  O135  1  -0.00478974  0.75557882  0.27509927  1
  O2-  O136  1  -0.00108598  0.75230609  0.60950928  1
  O2-  O137  1  0.00420968  0.74630516  0.93629954  1
  O2-  O138  1  0.50115094  0.25093413  0.27532779  1
  O2-  O139  1  0.50035642  0.25043972  0.60145437  1
  O2-  O140  1  0.49209400  0.25038139  0.94202427  1
  O2-  O141  1  0.49693235  0.74613422  0.26828238  1
  O2-  O142  1  0.50039642  0.74045226  0.60706012  1
  O2-  O143  1  0.49643918  0.75404163  0.93832107  1
  O2-  O144  1  0.07572181  0.17765406  0.08820394  1
  O2-  O145  1  0.06944895  0.17223377  0.42909283  1
  O2-  O146  1  0.06466756  0.17388270  0.76644197  1
  O2-  O147  1  0.07234931  0.68022876  0.08665328  1
  O2-  O148  1  0.06828460  0.68129251  0.43406462  1
  O2-  O149  1  0.06878642  0.68561935  0.75943694  1
  O2-  O150  1  0.56784107  0.18214536  0.10189621  1
  O2-  O151  1  0.56991702  0.17772561  0.42270368  1
  O2-  O152  1  0.56977679  0.17638814  0.76445500  1
  O2-  O153  1  0.56909926  0.67752222  0.09702086  1
  O2-  O154  1  0.58013815  0.68314482  0.43229632  1
  O2-  O155  1  0.57688107  0.68136392  0.75647061  1
  O2-  O156  1  0.18065947  0.43129115  0.23380955  1
  O2-  O157  1  0.17642835  0.43185427  0.56907569  1
  O2-  O158  1  0.17793238  0.42682045  0.91289537  1
  O2-  O159  1  0.17741947  0.93292513  0.24088726  1
  O2-  O160  1  0.17819071  0.92698961  0.56608315  1
  O2-  O161  1  0.17836978  0.92876221  0.91142659  1
  O2-  O162  1  0.67887015  0.42203973  0.24304479  1
  O2-  O163  1  0.67852209  0.42800541  0.57758843  1
  O2-  O164  1  0.68057419  0.43072839  0.90864688  1
  O2-  O165  1  0.68043117  0.93024325  0.24477520  1
  O2-  O166  1  0.68060048  0.92887745  0.56637612  1
  O2-  O167  1  0.67661043  0.92921982  0.90508974  1
  O2-  O168  1  0.42934502  0.32018929  0.09274968  1
  O2-  O169  1  0.43139765  0.31947810  0.42354867  1
  O2-  O170  1  0.43229236  0.32087979  0.76620710  1
  O2-  O171  1  0.42557612  0.82177274  0.08732733  1
  O2-  O172  1  0.42974852  0.82449392  0.43029446  1
  O2-  O173  1  0.42828013  0.81704836  0.76763105  1
  O2-  O174  1  0.93030471  0.32112578  0.09689739  1
  O2-  O175  1  0.92742545  0.32125723  0.42931962  1
  O2-  O176  1  0.93040743  0.32250230  0.76366790  1
  O2-  O177  1  0.93393739  0.81741170  0.09966878  1
  O2-  O178  1  0.92462612  0.82235476  0.42485699  1
  O2-  O179  1  0.92729402  0.81970614  0.75760313  1
  O2-  O180  1  0.32645256  0.06984728  0.24290111  1
  O2-  O181  1  0.32461774  0.06719668  0.57688078  1
  O2-  O182  1  0.32052953  0.07223566  0.90991559  1
  O2-  O183  1  0.32189558  0.56994411  0.23582750  1
  O2-  O184  1  0.31759677  0.57503271  0.56875572  1
  O2-  O185  1  0.32173825  0.56855944  0.90357129  1
  O2-  O186  1  0.81875558  0.07363799  0.24588656  1
  O2-  O187  1  0.82097696  0.06669218  0.57588816  1
  O2-  O188  1  0.81881056  0.07213873  0.90254551  1
  O2-  O189  1  0.81812125  0.57349884  0.23957529  1
  O2-  O190  1  0.82017034  0.57359362  0.56655843  1
  O2-  O191  1  0.82173268  0.57074131  0.91096804  1
  O2-  O192  1  0.04135310  0.08000718  0.26202447  1
  O2-  O193  1  0.03600122  0.08018464  0.59810190  1
  O2-  O194  1  0.04920462  0.08204785  0.93954018  1
  O2-  O195  1  0.03770382  0.58701311  0.26146925  1
  O2-  O196  1  0.04146736  0.59089696  0.60819557  1
  O2-  O197  1  0.04961083  0.58480083  0.93603157  1
  O2-  O198  1  0.54149492  0.08842435  0.26960827  1
  O2-  O199  1  0.53960525  0.07987427  0.59658136  1
  O2-  O200  1  0.53833013  0.08095823  0.93640731  1
  O2-  O201  1  0.55018694  0.57689878  0.26790151  1
  O2-  O202  1  0.55967172  0.58176338  0.60811423  1
  O2-  O203  1  0.54051359  0.58140549  0.93034333  1
  O2-  O204  1  0.17417529  0.19983218  0.26497182  1
  O2-  O205  1  0.17349963  0.19146283  0.60439027  1
  O2-  O206  1  0.16800424  0.20049525  0.93663735  1
  O2-  O207  1  0.16351416  0.71351709  0.26229871  1
  O2-  O208  1  0.16077326  0.71240726  0.60690975  1
  O2-  O209  1  0.16723198  0.70740072  0.93677588  1
  O2-  O210  1  0.66278351  0.20710915  0.27172370  1
  O2-  O211  1  0.66894786  0.20352720  0.59527304  1
  O2-  O212  1  0.66358760  0.21100548  0.93299070  1
  O2-  O213  1  0.66853430  0.71066291  0.26338260  1
  O2-  O214  1  0.66638456  0.71129489  0.60436142  1
  O2-  O215  1  0.66812078  0.70620974  0.93168277  1
  O2-  O216  1  0.08405387  0.45688449  0.06363828  1
  O2-  O217  1  0.07803409  0.45962819  0.39635235  1
  O2-  O218  1  0.08468107  0.46161202  0.73833970  1
  O2-  O219  1  0.08726355  0.95551321  0.06543673  1
  O2-  O220  1  0.08536688  0.95696585  0.39398229  1
  O2-  O221  1  0.07979196  0.95846931  0.73420795  1
  O2-  O222  1  0.58923649  0.45663474  0.06241550  1
  O2-  O223  1  0.58808399  0.45247367  0.39743282  1
  O2-  O224  1  0.58700544  0.45090240  0.73196303  1
  O2-  O225  1  0.57760820  0.95423541  0.07091859  1
  O2-  O226  1  0.58736683  0.96041747  0.39524300  1
  O2-  O227  1  0.57934952  0.95705772  0.73328059  1
  O2-  O228  1  0.19852173  0.33218264  0.06386067  1
  O2-  O229  1  0.20485258  0.32888529  0.39758906  1
  O2-  O230  1  0.20116563  0.32461361  0.73264307  1
  O2-  O231  1  0.20695648  0.83764329  0.06475615  1
  O2-  O232  1  0.20517598  0.83908363  0.39232276  1
  O2-  O233  1  0.20959838  0.83571518  0.73815475  1
  O2-  O234  1  0.70870718  0.33812648  0.06145912  1
  O2-  O235  1  0.70842763  0.33567813  0.39803807  1
  O2-  O236  1  0.70409110  0.33050278  0.72643811  1
  O2-  O237  1  0.70999979  0.82867474  0.07000023  1
  O2-  O238  1  0.70690778  0.83822608  0.39725536  1
  O2-  O239  1  0.71173591  0.83677934  0.73632914  1
  O2-  O240  1  0.45898491  0.41268929  0.27183440  1
  O2-  O241  1  0.46044286  0.42061553  0.59766962  1
  O2-  O242  1  0.45594191  0.41388663  0.94117751  1
  O2-  O243  1  0.46082157  0.91913532  0.26256073  1
  O2-  O244  1  0.45826924  0.91235332  0.59856209  1
  O2-  O245  1  0.44912331  0.91603819  0.93711530  1
  O2-  O246  1  0.95294092  0.42006449  0.26176171  1
  O2-  O247  1  0.95766527  0.42611125  0.60116853  1
  O2-  O248  1  0.95972387  0.41844390  0.93130857  1
  O2-  O249  1  0.95054772  0.91695153  0.27316707  1
  O2-  O250  1  0.95106924  0.91309896  0.60549598  1
  O2-  O251  1  0.96102592  0.91735820  0.93291638  1
  O2-  O252  1  0.33915495  0.29280143  0.27011097  1
  O2-  O253  1  0.33096718  0.29474303  0.59823006  1
  O2-  O254  1  0.33172372  0.29910259  0.94310536  1
  O2-  O255  1  0.32917367  0.80071036  0.26225215  1
  O2-  O256  1  0.33006004  0.78868024  0.60148969  1
  O2-  O257  1  0.33224432  0.79421054  0.93776976  1
  O2-  O258  1  0.83034042  0.28915775  0.26448419  1
  O2-  O259  1  0.83352370  0.29800968  0.59554562  1
  O2-  O260  1  0.83350230  0.29158314  0.92992748  1
  O2-  O261  1  0.83339827  0.79663779  0.27178205  1
  O2-  O262  1  0.83569476  0.78984767  0.60520733  1
  O2-  O263  1  0.83431406  0.78964175  0.93223553  1
  O2-  O264  1  0.41071969  0.04245954  0.06480571  1
  O2-  O265  1  0.41432715  0.04046633  0.39692456  1
  O2-  O266  1  0.41332956  0.03835693  0.73030395  1
  O2-  O267  1  0.41900960  0.53857761  0.07041084  1
  O2-  O268  1  0.42226574  0.54710044  0.40060030  1
  O2-  O269  1  0.42504079  0.54827944  0.73142535  1
  O2-  O270  1  0.91946408  0.04366389  0.06930958  1
  O2-  O271  1  0.91288905  0.04516470  0.39727765  1
  O2-  O272  1  0.91084872  0.04242495  0.73054815  1
  O2-  O273  1  0.91579624  0.54434189  0.06146552  1
  O2-  O274  1  0.91178617  0.54533515  0.39132114  1
  O2-  O275  1  0.91703684  0.54524396  0.73838598  1
  O2-  O276  1  0.29441654  0.16342979  0.06408004  1
  O2-  O277  1  0.30019102  0.16387164  0.39505601  1
  O2-  O278  1  0.30431411  0.16558899  0.72831357  1
  O2-  O279  1  0.29057244  0.66625247  0.07024086  1
  O2-  O280  1  0.29168739  0.67404657  0.39619036  1
  O2-  O281  1  0.28781996  0.66576646  0.73826736  1
  O2-  O282  1  0.78891406  0.17076195  0.06892504  1
  O2-  O283  1  0.79039582  0.16321108  0.39891765  1
  O2-  O284  1  0.79992257  0.16924031  0.72241341  1
  O2-  O285  1  0.79460052  0.66258185  0.06341957  1
  O2-  O286  1  0.79196274  0.66354335  0.39398244  1
  O2-  O287  1  0.78777904  0.66497784  0.73741234  1
