# generated using pymatgen
data_Ca2Al2SiO7
_symmetry_space_group_name_H-M   'P 1'
_cell_length_a   15.46826663
_cell_length_b   15.46764131
_cell_length_c   15.29228472
_cell_angle_alpha   90.00181662
_cell_angle_beta   90.01148424
_cell_angle_gamma   90.01146999
_symmetry_Int_Tables_number   1
_chemical_formula_structural   Ca2Al2SiO7
_chemical_formula_sum   'Ca48 Al48 Si24 O168'
_cell_volume   3658.79519057
_cell_formula_units_Z   24
loop_
 _symmetry_equiv_pos_site_id
 _symmetry_equiv_pos_as_xyz
  1  'x, y, z'
loop_
 _atom_type_symbol
 _atom_type_oxidation_number
  Ca2+  2.0
  Al0+  0.0
  Si0+  0.0
  O2-  -2.0
loop_
 _atom_site_type_symbol
 _atom_site_label
 _atom_site_symmetry_multiplicity
 _atom_site_fract_x
 _atom_site_fract_y
 _atom_site_fract_z
 _atom_site_occupancy
  Ca2+  Ca0  1  0.16537356  0.08032135  0.16179912  1
  Ca2+  Ca1  1  0.16952479  0.07608809  0.50823437  1
  Ca2+  Ca2  1  0.16208531  0.07140927  0.84131041  1
  Ca2+  Ca3  1  0.18045164  0.57674399  0.16562077  1
  Ca2+  Ca4  1  0.17666628  0.58379901  0.51162522  1
  Ca2+  Ca5  1  0.17477342  0.58102080  0.83902665  1
  Ca2+  Ca6  1  0.65551397  0.07565045  0.16808200  1
  Ca2+  Ca7  1  0.66004481  0.07613262  0.50047440  1
  Ca2+  Ca8  1  0.67319025  0.07674026  0.84581697  1
  Ca2+  Ca9  1  0.65696126  0.57066663  0.16335974  1
  Ca2+  Ca10  1  0.66273547  0.57709709  0.50467197  1
  Ca2+  Ca11  1  0.67060739  0.58618977  0.84483632  1
  Ca2+  Ca12  1  0.08372092  0.32771918  0.15321896  1
  Ca2+  Ca13  1  0.07615616  0.34579205  0.50221488  1
  Ca2+  Ca14  1  0.08313678  0.33512310  0.82875719  1
  Ca2+  Ca15  1  0.08144174  0.83316385  0.15772964  1
  Ca2+  Ca16  1  0.08598493  0.82992510  0.50504792  1
  Ca2+  Ca17  1  0.08064805  0.83075157  0.82401828  1
  Ca2+  Ca18  1  0.58669628  0.32741310  0.15651755  1
  Ca2+  Ca19  1  0.58417226  0.32697445  0.49094016  1
  Ca2+  Ca20  1  0.58171231  0.33538554  0.83721586  1
  Ca2+  Ca21  1  0.57847859  0.83089224  0.15317493  1
  Ca2+  Ca22  1  0.58040748  0.82602263  0.49853489  1
  Ca2+  Ca23  1  0.57985792  0.82162213  0.82978994  1
  Ca2+  Ca24  1  0.34596744  0.42840102  0.16456500  1
  Ca2+  Ca25  1  0.32922031  0.43010978  0.50997778  1
  Ca2+  Ca26  1  0.32821039  0.42725630  0.84220299  1
  Ca2+  Ca27  1  0.32965327  0.91029235  0.16409336  1
  Ca2+  Ca28  1  0.33129730  0.91788913  0.51096033  1
  Ca2+  Ca29  1  0.32572696  0.90457972  0.83721069  1
  Ca2+  Ca30  1  0.82307316  0.42096386  0.16332867  1
  Ca2+  Ca31  1  0.82705615  0.41144262  0.50419164  1
  Ca2+  Ca32  1  0.83031086  0.42335251  0.84155184  1
  Ca2+  Ca33  1  0.81781220  0.92259345  0.16364605  1
  Ca2+  Ca34  1  0.82884141  0.91372640  0.50395363  1
  Ca2+  Ca35  1  0.82994410  0.91883415  0.84442391  1
  Ca2+  Ca36  1  0.42826459  0.17565107  0.15481859  1
  Ca2+  Ca37  1  0.42140572  0.16990207  0.49307648  1
  Ca2+  Ca38  1  0.41931181  0.17234900  0.83769830  1
  Ca2+  Ca39  1  0.41934619  0.66860135  0.15586964  1
  Ca2+  Ca40  1  0.41214630  0.66668094  0.50319527  1
  Ca2+  Ca41  1  0.42076499  0.66934039  0.83110468  1
  Ca2+  Ca42  1  0.92143701  0.16341844  0.15661429  1
  Ca2+  Ca43  1  0.91819089  0.17274472  0.50027823  1
  Ca2+  Ca44  1  0.91975195  0.16950367  0.83246532  1
  Ca2+  Ca45  1  0.91652990  0.66552348  0.15960066  1
  Ca2+  Ca46  1  0.92439150  0.66928432  0.50323802  1
  Ca2+  Ca47  1  0.92227403  0.66896254  0.82372802  1
  Al0+  Al48  1  0.00007010  -0.00028195  0.00482632  1
  Al0+  Al49  1  -0.00152525  -0.00003568  0.33370479  1
  Al0+  Al50  1  -0.00082632  0.00253779  0.66417048  1
  Al0+  Al51  1  0.00152905  0.50006113  0.00812043  1
  Al0+  Al52  1  -0.00035022  0.50169715  0.33016884  1
  Al0+  Al53  1  -0.00285707  0.49922520  0.65920045  1
  Al0+  Al54  1  0.49653294  0.00118994  -0.00575030  1
  Al0+  Al55  1  0.49864743  -0.00061448  0.33503100  1
  Al0+  Al56  1  0.50154916  -0.00061802  0.66548992  1
  Al0+  Al57  1  0.50123408  0.50033661  -0.00094089  1
  Al0+  Al58  1  0.50017806  0.50134614  0.34425228  1
  Al0+  Al59  1  0.49969748  0.49721402  0.66666394  1
  Al0+  Al60  1  0.24873764  0.24674274  -0.00669682  1
  Al0+  Al61  1  0.24815525  0.25018894  0.33371498  1
  Al0+  Al62  1  0.25135708  0.24888409  0.66789940  1
  Al0+  Al63  1  0.24801765  0.74868935  0.00634432  1
  Al0+  Al64  1  0.24873276  0.74900716  0.33651393  1
  Al0+  Al65  1  0.25096235  0.75128646  0.66672303  1
  Al0+  Al66  1  0.75413667  0.25107283  0.00151905  1
  Al0+  Al67  1  0.75202310  0.24911450  0.33213789  1
  Al0+  Al68  1  0.75119738  0.24835986  0.66246802  1
  Al0+  Al69  1  0.75110501  0.75324012  0.00523179  1
  Al0+  Al70  1  0.75063427  0.75077205  0.33638791  1
  Al0+  Al71  1  0.74859038  0.74856271  0.65771169  1
  Al0+  Al72  1  0.57308822  0.68034655  0.98806404  1
  Al0+  Al73  1  0.32182862  0.57018357  0.01513805  1
  Al0+  Al74  1  0.42914812  0.32246072  0.98454797  1
  Al0+  Al75  1  0.17595978  0.42870978  0.68123488  1
  Al0+  Al76  1  0.67723189  0.92933041  0.34906565  1
  Al0+  Al77  1  0.82308958  0.57458477  0.01311356  1
  Al0+  Al78  1  0.32007051  0.57075969  0.34961384  1
  Al0+  Al79  1  0.17942037  0.42551182  0.01429571  1
  Al0+  Al80  1  0.17986823  0.92867718  0.01380397  1
  Al0+  Al81  1  0.57104588  0.67548574  0.64975941  1
  Al0+  Al82  1  0.42998857  0.82093817  0.65095084  1
  Al0+  Al83  1  0.68207951  0.42900480  0.34812824  1
  Al0+  Al84  1  0.67920474  0.42968437  0.01223269  1
  Al0+  Al85  1  0.32207482  0.57166631  0.68524007  1
  Al0+  Al86  1  0.57012301  0.17872387  0.31987030  1
  Al0+  Al87  1  0.92916762  0.31998559  0.65324613  1
  Al0+  Al88  1  0.07121271  0.67916247  0.65315936  1
  Al0+  Al89  1  0.42507182  0.82103657  0.98630799  1
  Al0+  Al90  1  0.07022180  0.17729875  0.98548288  1
  Al0+  Al91  1  0.17946608  0.93183658  0.67977959  1
  Al0+  Al92  1  0.67511437  0.93086702  0.01213588  1
  Al0+  Al93  1  0.82157703  0.07145227  0.01334259  1
  Al0+  Al94  1  0.57500548  0.17875416  0.98370482  1
  Al0+  Al95  1  0.92774610  0.82432341  0.65217469  1
  Si0+  Si96  1  0.17773748  0.93000592  0.34893223  1
  Si0+  Si97  1  0.31964578  0.07147517  0.34709359  1
  Si0+  Si98  1  0.07076442  0.17782496  0.31795832  1
  Si0+  Si99  1  0.57120748  0.67848906  0.31897980  1
  Si0+  Si100  1  0.32184151  0.07321234  0.01656784  1
  Si0+  Si101  1  0.07335464  0.17819994  0.64887667  1
  Si0+  Si102  1  0.81805441  0.57089438  0.67823566  1
  Si0+  Si103  1  0.67975978  0.42550270  0.68069778  1
  Si0+  Si104  1  0.93089552  0.32451695  0.98376443  1
  Si0+  Si105  1  0.57160120  0.18025628  0.65111273  1
  Si0+  Si106  1  0.82466300  0.57270391  0.35287401  1
  Si0+  Si107  1  0.42812588  0.32321359  0.31958137  1
  Si0+  Si108  1  0.07145911  0.68069108  0.31598683  1
  Si0+  Si109  1  0.93047471  0.82093802  0.98823461  1
  Si0+  Si110  1  0.42783703  0.31964361  0.65021592  1
  Si0+  Si111  1  0.92964280  0.32168240  0.31565658  1
  Si0+  Si112  1  0.17623217  0.42690134  0.34960961  1
  Si0+  Si113  1  0.81932506  0.07170270  0.67990988  1
  Si0+  Si114  1  0.06953760  0.67812837  0.98774360  1
  Si0+  Si115  1  0.67985085  0.92749284  0.68085039  1
  Si0+  Si116  1  0.42786678  0.82001434  0.31908858  1
  Si0+  Si117  1  0.32585684  0.07260158  0.68452419  1
  Si0+  Si118  1  0.92867153  0.82202205  0.31574741  1
  Si0+  Si119  1  0.82340788  0.07069864  0.35239601  1
  O2-  O120  1  0.25646149  0.00104051  0.06141924  1
  O2-  O121  1  0.24859868  0.00107174  0.39044333  1
  O2-  O122  1  0.25574893  0.00458266  0.72664772  1
  O2-  O123  1  0.25534958  0.49244251  0.06537327  1
  O2-  O124  1  0.24604017  0.49380231  0.39356882  1
  O2-  O125  1  0.24667429  0.50096775  0.73160033  1
  O2-  O126  1  0.74116358  0.00874130  0.06313309  1
  O2-  O127  1  0.75193378  0.00479607  0.39647342  1
  O2-  O128  1  0.75482339  -0.00507271  0.72121702  1
  O2-  O129  1  0.74788643  0.50530418  0.06230515  1
  O2-  O130  1  0.75602410  0.50381128  0.39697679  1
  O2-  O131  1  0.74532785  0.50213349  0.72067128  1
  O2-  O132  1  0.00308108  0.25190108  0.27592167  1
  O2-  O133  1  0.00915992  0.25113594  0.60433422  1
  O2-  O134  1  -0.00087150  0.25539704  0.93961010  1
  O2-  O135  1  -0.00090745  0.75041465  0.27338971  1
  O2-  O136  1  0.00165679  0.75399611  0.60175421  1
  O2-  O137  1  -0.00399723  0.74593465  0.94562172  1
  O2-  O138  1  0.49762726  0.25600675  0.27498386  1
  O2-  O139  1  0.49889466  0.24868246  0.60749489  1
  O2-  O140  1  0.50399536  0.25230692  0.93431576  1
  O2-  O141  1  0.50061787  0.75056405  0.27786572  1
  O2-  O142  1  0.49857829  0.74691189  0.59863224  1
  O2-  O143  1  0.50062337  0.75189734  0.93820563  1
  O2-  O144  1  0.06695280  0.17633628  0.09951604  1
  O2-  O145  1  0.07001479  0.17482446  0.42291098  1
  O2-  O146  1  0.06942996  0.17411023  0.75361646  1
  O2-  O147  1  0.06926275  0.68101559  0.09344376  1
  O2-  O148  1  0.07168344  0.68204751  0.42085563  1
  O2-  O149  1  0.06714145  0.67846222  0.76672031  1
  O2-  O150  1  0.57093001  0.17926959  0.09767574  1
  O2-  O151  1  0.56641292  0.17879547  0.43379177  1
  O2-  O152  1  0.57438117  0.18173279  0.75531925  1
  O2-  O153  1  0.57120138  0.68101485  0.10244959  1
  O2-  O154  1  0.57029359  0.67894385  0.42397690  1
  O2-  O155  1  0.57717862  0.67817662  0.76244420  1
  O2-  O156  1  0.17496895  0.42582698  0.24467301  1
  O2-  O157  1  0.17947469  0.43014239  0.56670198  1
  O2-  O158  1  0.17592497  0.43130833  0.90129828  1
  O2-  O159  1  0.17698768  0.93007782  0.24410045  1
  O2-  O160  1  0.18020374  0.93580746  0.56561815  1
  O2-  O161  1  0.17657861  0.92901290  0.90123368  1
  O2-  O162  1  0.68177859  0.42946069  0.23588738  1
  O2-  O163  1  0.68282413  0.42278129  0.57513245  1
  O2-  O164  1  0.68311514  0.42920941  0.89835448  1
  O2-  O165  1  0.67650784  0.92976034  0.23667715  1
  O2-  O166  1  0.67870316  0.93084252  0.57528670  1
  O2-  O167  1  0.68190169  0.92782113  0.89843547  1
  O2-  O168  1  0.43039520  0.32017600  0.09893017  1
  O2-  O169  1  0.42799452  0.31901094  0.42558179  1
  O2-  O170  1  0.42832546  0.31922671  0.75454199  1
  O2-  O171  1  0.42522889  0.81811937  0.10108103  1
  O2-  O172  1  0.42676159  0.82091865  0.42392183  1
  O2-  O173  1  0.43375223  0.82352546  0.76349881  1
  O2-  O174  1  0.93279408  0.32461648  0.08975992  1
  O2-  O175  1  0.93004410  0.32084793  0.42106886  1
  O2-  O176  1  0.92371967  0.31604984  0.76530060  1
  O2-  O177  1  0.93340206  0.82131511  0.09377887  1
  O2-  O178  1  0.93067472  0.82336060  0.42064127  1
  O2-  O179  1  0.92663035  0.82278735  0.76573319  1
  O2-  O180  1  0.31843395  0.07226320  0.24275755  1
  O2-  O181  1  0.32524926  0.07291124  0.57778626  1
  O2-  O182  1  0.31944715  0.07519463  0.91132227  1
  O2-  O183  1  0.32036415  0.57225000  0.23705237  1
  O2-  O184  1  0.32057524  0.56844188  0.57094252  1
  O2-  O185  1  0.31824371  0.57316979  0.90244634  1
  O2-  O186  1  0.82838412  0.06813123  0.24766494  1
  O2-  O187  1  0.81585874  0.07445043  0.57453135  1
  O2-  O188  1  0.82427351  0.06616864  0.89930462  1
  O2-  O189  1  0.82681904  0.57167352  0.24780736  1
  O2-  O190  1  0.81767279  0.56888600  0.57289011  1
  O2-  O191  1  0.82613162  0.57266933  0.89904546  1
  O2-  O192  1  0.04017706  0.08648915  0.27052386  1
  O2-  O193  1  0.04168294  0.08821011  0.59787678  1
  O2-  O194  1  0.03379961  0.08166220  0.93278755  1
  O2-  O195  1  0.04472381  0.58823456  0.26913648  1
  O2-  O196  1  0.03846815  0.58394653  0.59510115  1
  O2-  O197  1  0.04396986  0.58551218  0.94223070  1
  O2-  O198  1  0.53538125  0.08263065  0.26769524  1
  O2-  O199  1  0.54496488  0.08777234  0.60390429  1
  O2-  O200  1  0.54433100  0.08172410  0.92923193  1
  O2-  O201  1  0.54124754  0.58563296  0.27524788  1
  O2-  O202  1  0.54445153  0.57538797  0.59790905  1
  O2-  O203  1  0.54942000  0.58144466  0.93573489  1
  O2-  O204  1  0.16396089  0.20207600  0.27126446  1
  O2-  O205  1  0.16946025  0.19717065  0.60433668  1
  O2-  O206  1  0.16692654  0.19904301  0.92934611  1
  O2-  O207  1  0.16248889  0.71158411  0.26888384  1
  O2-  O208  1  0.16867754  0.70844062  0.59893422  1
  O2-  O209  1  0.15980489  0.70942863  0.94152862  1
  O2-  O210  1  0.66933250  0.20435285  0.26962701  1
  O2-  O211  1  0.66137049  0.21011218  0.60040000  1
  O2-  O212  1  0.67531658  0.20471009  0.93340350  1
  O2-  O213  1  0.66499619  0.70363453  0.27517135  1
  O2-  O214  1  0.66747533  0.70505643  0.59213396  1
  O2-  O215  1  0.67232096  0.71000670  0.93629726  1
  O2-  O216  1  0.08448443  0.45799490  0.07220748  1
  O2-  O217  1  0.08234809  0.45577579  0.39411910  1
  O2-  O218  1  0.07369460  0.45192571  0.72761303  1
  O2-  O219  1  0.08604211  0.96318033  0.07147563  1
  O2-  O220  1  0.08614986  0.95910576  0.39606038  1
  O2-  O221  1  0.08166879  0.96346665  0.73121233  1
  O2-  O222  1  0.58121841  0.45469407  0.06749316  1
  O2-  O223  1  0.58617869  0.45804134  0.40506192  1
  O2-  O224  1  0.58572197  0.44602487  0.72468747  1
  O2-  O225  1  0.57457472  0.95454923  0.06313537  1
  O2-  O226  1  0.58095403  0.96129459  0.40437330  1
  O2-  O227  1  0.58976234  0.95950088  0.72759515  1
  O2-  O228  1  0.19992965  0.32321387  0.06180077  1
  O2-  O229  1  0.19703517  0.33170239  0.39565146  1
  O2-  O230  1  0.20234702  0.32792872  0.72973512  1
  O2-  O231  1  0.20814440  0.83373167  0.07278085  1
  O2-  O232  1  0.20559956  0.83839113  0.39584220  1
  O2-  O233  1  0.20558957  0.83412140  0.73178823  1
  O2-  O234  1  0.71125332  0.33324130  0.06717751  1
  O2-  O235  1  0.71421755  0.33165513  0.40173981  1
  O2-  O236  1  0.71357955  0.33553952  0.72713483  1
  O2-  O237  1  0.70991021  0.83696213  0.07021115  1
  O2-  O238  1  0.71042446  0.83324440  0.40326546  1
  O2-  O239  1  0.70506715  0.83356588  0.72362830  1
  O2-  O240  1  0.45438988  0.41831920  0.27835205  1
  O2-  O241  1  0.45645193  0.41038926  0.60158252  1
  O2-  O242  1  0.45655329  0.42028064  0.93096503  1
  O2-  O243  1  0.45300891  0.91292046  0.27319955  1
  O2-  O244  1  0.46033638  0.91991688  0.59676600  1
  O2-  O245  1  0.44248195  0.92175675  0.93532251  1
  O2-  O246  1  0.95436499  0.41492841  0.26981706  1
  O2-  O247  1  0.95340266  0.41564556  0.59323210  1
  O2-  O248  1  0.95799400  0.41824742  0.93874117  1
  O2-  O249  1  0.95879229  0.91364416  0.26921222  1
  O2-  O250  1  0.95395403  0.92305852  0.59737635  1
  O2-  O251  1  0.96341869  0.91028264  0.94044100  1
  O2-  O252  1  0.33370439  0.29789458  0.27521399  1
  O2-  O253  1  0.33652725  0.29144165  0.60084187  1
  O2-  O254  1  0.33259652  0.29022274  0.93028549  1
  O2-  O255  1  0.33516965  0.79150233  0.27320400  1
  O2-  O256  1  0.33031208  0.79732817  0.59787437  1
  O2-  O257  1  0.32672701  0.78843755  0.93573364  1
  O2-  O258  1  0.83913485  0.29171402  0.26818320  1
  O2-  O259  1  0.83594977  0.28166805  0.59441064  1
  O2-  O260  1  0.83753953  0.30060930  0.93751467  1
  O2-  O261  1  0.83601429  0.79452102  0.27015216  1
  O2-  O262  1  0.83212269  0.79278233  0.59511516  1
  O2-  O263  1  0.83707941  0.80006210  0.94224410  1
  O2-  O264  1  0.41628686  0.05180053  0.06217097  1
  O2-  O265  1  0.40990231  0.04289842  0.39714880  1
  O2-  O266  1  0.41969546  0.04747955  0.72936532  1
  O2-  O267  1  0.42097357  0.54451829  0.06796437  1
  O2-  O268  1  0.41541462  0.54233808  0.40699428  1
  O2-  O269  1  0.42063587  0.53915390  0.73478137  1
  O2-  O270  1  0.91449552  0.03341403  0.07142680  1
  O2-  O271  1  0.91567029  0.04151880  0.40122489  1
  O2-  O272  1  0.91380967  0.05177979  0.72413230  1
  O2-  O273  1  0.91793845  0.54221811  0.07161829  1
  O2-  O274  1  0.91890812  0.54632372  0.39815945  1
  O2-  O275  1  0.90964663  0.54149044  0.72374806  1
  O2-  O276  1  0.29137099  0.16419715  0.06489075  1
  O2-  O277  1  0.29203825  0.16322533  0.39659290  1
  O2-  O278  1  0.30199449  0.16655585  0.72918866  1
  O2-  O279  1  0.28612000  0.66445583  0.07219801  1
  O2-  O280  1  0.28533208  0.66659398  0.40373185  1
  O2-  O281  1  0.29720546  0.67194040  0.73331596  1
  O2-  O282  1  0.80745142  0.17300826  0.06375230  1
  O2-  O283  1  0.80136216  0.16595052  0.39627174  1
  O2-  O284  1  0.78548848  0.16073812  0.72843688  1
  O2-  O285  1  0.80098356  0.67323341  0.06783906  1
  O2-  O286  1  0.80047893  0.66698022  0.39771090  1
  O2-  O287  1  0.79318992  0.66416065  0.72385486  1
