# generated using pymatgen
data_Ca2Al2SiO7
_symmetry_space_group_name_H-M   'P 1'
_cell_length_a   15.46056651
_cell_length_b   15.46137565
_cell_length_c   15.28489868
_cell_angle_alpha   89.98007705
_cell_angle_beta   89.99844486
_cell_angle_gamma   90.00017252
_symmetry_Int_Tables_number   1
_chemical_formula_structural   Ca2Al2SiO7
_chemical_formula_sum   'Ca48 Al48 Si24 O168'
_cell_volume   3653.72681923
_cell_formula_units_Z   24
loop_
 _symmetry_equiv_pos_site_id
 _symmetry_equiv_pos_as_xyz
  1  'x, y, z'
loop_
 _atom_type_symbol
 _atom_type_oxidation_number
  Ca2+  2.0
  Al0+  0.0
  Si0+  0.0
  O2-  -2.0
loop_
 _atom_site_type_symbol
 _atom_site_label
 _atom_site_symmetry_multiplicity
 _atom_site_fract_x
 _atom_site_fract_y
 _atom_site_fract_z
 _atom_site_occupancy
  Ca2+  Ca0  1  0.16698449  0.07872278  0.17566908  1
  Ca2+  Ca1  1  0.17058082  0.08311150  0.50175386  1
  Ca2+  Ca2  1  0.17686117  0.07808816  0.84760801  1
  Ca2+  Ca3  1  0.16903843  0.59251025  0.16770069  1
  Ca2+  Ca4  1  0.16435639  0.58786472  0.50530794  1
  Ca2+  Ca5  1  0.17343093  0.59147825  0.83817048  1
  Ca2+  Ca6  1  0.66210617  0.08009143  0.17542534  1
  Ca2+  Ca7  1  0.66258922  0.07947676  0.49702688  1
  Ca2+  Ca8  1  0.66660600  0.08302547  0.83871579  1
  Ca2+  Ca9  1  0.67741716  0.58218706  0.17522364  1
  Ca2+  Ca10  1  0.68213678  0.57800712  0.50113517  1
  Ca2+  Ca11  1  0.67910821  0.58664144  0.84204537  1
  Ca2+  Ca12  1  0.08195061  0.32302821  0.16741449  1
  Ca2+  Ca13  1  0.07240783  0.33163453  0.49210564  1
  Ca2+  Ca14  1  0.08135425  0.32916067  0.83086033  1
  Ca2+  Ca15  1  0.08506986  0.82949641  0.16476177  1
  Ca2+  Ca16  1  0.08099444  0.82278132  0.49012829  1
  Ca2+  Ca17  1  0.09211721  0.82376403  0.83338199  1
  Ca2+  Ca18  1  0.58823319  0.32433260  0.16439349  1
  Ca2+  Ca19  1  0.58155548  0.32951961  0.48963280  1
  Ca2+  Ca20  1  0.58188860  0.32795205  0.83363325  1
  Ca2+  Ca21  1  0.58309208  0.83001077  0.16166744  1
  Ca2+  Ca22  1  0.57680673  0.83635979  0.49567151  1
  Ca2+  Ca23  1  0.57521375  0.82502028  0.83020530  1
  Ca2+  Ca24  1  0.33432285  0.42324445  0.16704205  1
  Ca2+  Ca25  1  0.32862212  0.42430088  0.50554758  1
  Ca2+  Ca26  1  0.33221594  0.42912352  0.83770155  1
  Ca2+  Ca27  1  0.31863653  0.92525708  0.17034916  1
  Ca2+  Ca28  1  0.32854881  0.92536586  0.50216353  1
  Ca2+  Ca29  1  0.32975457  0.92136691  0.83843285  1
  Ca2+  Ca30  1  0.83302116  0.42666881  0.17558078  1
  Ca2+  Ca31  1  0.83991650  0.42104979  0.50227556  1
  Ca2+  Ca32  1  0.83989075  0.42546464  0.83519660  1
  Ca2+  Ca33  1  0.82686643  0.91350494  0.17737612  1
  Ca2+  Ca34  1  0.82857513  0.90852483  0.49594592  1
  Ca2+  Ca35  1  0.83070361  0.91748179  0.83778854  1
  Ca2+  Ca36  1  0.42324891  0.15688921  0.16401721  1
  Ca2+  Ca37  1  0.41780048  0.16077462  0.49221152  1
  Ca2+  Ca38  1  0.41914910  0.15648813  0.83222803  1
  Ca2+  Ca39  1  0.42447824  0.66685109  0.15567699  1
  Ca2+  Ca40  1  0.41041688  0.67496243  0.49815626  1
  Ca2+  Ca41  1  0.41450833  0.66932461  0.82613174  1
  Ca2+  Ca42  1  0.92634426  0.16868583  0.16448993  1
  Ca2+  Ca43  1  0.91990835  0.17972186  0.48915911  1
  Ca2+  Ca44  1  0.92609420  0.17198962  0.82860705  1
  Ca2+  Ca45  1  0.92195869  0.66675530  0.16467139  1
  Ca2+  Ca46  1  0.92423243  0.66444542  0.49152627  1
  Ca2+  Ca47  1  0.92691059  0.65853888  0.82979329  1
  Al0+  Al48  1  -0.00159519  0.00078446  -0.00225760  1
  Al0+  Al49  1  -0.00146342  -0.00181955  0.33343625  1
  Al0+  Al50  1  -0.00106219  -0.00246049  0.66729797  1
  Al0+  Al51  1  0.00018468  0.50142593  0.00102529  1
  Al0+  Al52  1  0.00305273  0.50081732  0.32776016  1
  Al0+  Al53  1  -0.00007457  0.49782903  0.66391058  1
  Al0+  Al54  1  0.49988986  -0.00067865  -0.00243523  1
  Al0+  Al55  1  0.49920009  0.00015860  0.33625297  1
  Al0+  Al56  1  0.49943987  -0.00277186  0.66713892  1
  Al0+  Al57  1  0.50197662  0.49829259  -0.00135028  1
  Al0+  Al58  1  0.50106627  0.50073913  0.33808948  1
  Al0+  Al59  1  0.50182531  0.49772397  0.66912016  1
  Al0+  Al60  1  0.25201916  0.25222229  -0.00100578  1
  Al0+  Al61  1  0.25159588  0.25400242  0.33394012  1
  Al0+  Al62  1  0.25292226  0.24948993  0.67182787  1
  Al0+  Al63  1  0.24956526  0.75204629  0.00485716  1
  Al0+  Al64  1  0.25064848  0.75411579  0.33234649  1
  Al0+  Al65  1  0.25102703  0.75123053  0.66103024  1
  Al0+  Al66  1  0.74865356  0.25049401  -0.00658455  1
  Al0+  Al67  1  0.74724985  0.25030013  0.32791706  1
  Al0+  Al68  1  0.74985673  0.24838731  0.66385754  1
  Al0+  Al69  1  0.74983316  0.75023499  -0.00084484  1
  Al0+  Al70  1  0.74945572  0.74911438  0.34079816  1
  Al0+  Al71  1  0.74949364  0.74840498  0.67234199  1
  Al0+  Al72  1  0.07032445  0.68079816  0.98534128  1
  Al0+  Al73  1  0.82356331  0.56917612  0.34927748  1
  Al0+  Al74  1  0.17546794  0.92882028  0.35119170  1
  Al0+  Al75  1  0.43097092  0.81919757  0.65169915  1
  Al0+  Al76  1  0.07325804  0.67997353  0.31608067  1
  Al0+  Al77  1  0.07259518  0.17884152  0.32099874  1
  Al0+  Al78  1  0.67832674  0.92874118  0.34689114  1
  Al0+  Al79  1  0.82143425  0.57112782  0.01496586  1
  Al0+  Al80  1  0.32168697  0.57134130  0.01299431  1
  Al0+  Al81  1  0.67836797  0.42713116  0.34791990  1
  Al0+  Al82  1  0.92719476  0.32242146  0.31613231  1
  Al0+  Al83  1  0.93036090  0.31828632  0.65334031  1
  Al0+  Al84  1  0.32076283  0.07018793  0.68230434  1
  Al0+  Al85  1  0.57270821  0.67719779  0.98749602  1
  Al0+  Al86  1  0.56920713  0.17842161  0.98479268  1
  Al0+  Al87  1  0.07239955  0.17806204  0.98625957  1
  Al0+  Al88  1  0.31906505  0.07236523  0.34841005  1
  Al0+  Al89  1  0.32032974  0.57207595  0.67847233  1
  Al0+  Al90  1  0.82135336  0.56890737  0.68217922  1
  Al0+  Al91  1  0.56785862  0.17938834  0.32063656  1
  Al0+  Al92  1  0.32259921  0.07266182  0.01596652  1
  Al0+  Al93  1  0.92586991  0.81962167  0.31941180  1
  Al0+  Al94  1  0.06960782  0.68100941  0.65399114  1
  Al0+  Al95  1  0.17634842  0.93022902  0.01565918  1
  Si0+  Si96  1  0.82163906  0.07288843  0.34854910  1
  Si0+  Si97  1  0.42922861  0.81942632  0.98403948  1
  Si0+  Si98  1  0.81983691  0.07307473  0.01306824  1
  Si0+  Si99  1  0.17765156  0.42832526  0.01739226  1
  Si0+  Si100  1  0.07451904  0.17630888  0.65224369  1
  Si0+  Si101  1  0.32236076  0.57319319  0.34744903  1
  Si0+  Si102  1  0.82054768  0.07203644  0.68119228  1
  Si0+  Si103  1  0.17822843  0.42788343  0.68332533  1
  Si0+  Si104  1  0.42906481  0.32236679  0.65161429  1
  Si0+  Si105  1  0.92401357  0.82323367  0.65051919  1
  Si0+  Si106  1  0.18062805  0.43043881  0.34774085  1
  Si0+  Si107  1  0.43007075  0.82215895  0.31657153  1
  Si0+  Si108  1  0.67882376  0.42630108  0.01582392  1
  Si0+  Si109  1  0.92878183  0.32143274  0.98266125  1
  Si0+  Si110  1  0.67862680  0.92941170  0.68358636  1
  Si0+  Si111  1  0.92570450  0.82290721  0.98223194  1
  Si0+  Si112  1  0.17679228  0.92819021  0.68322768  1
  Si0+  Si113  1  0.56924754  0.17827921  0.65087718  1
  Si0+  Si114  1  0.67827233  0.42431223  0.68533691  1
  Si0+  Si115  1  0.68007377  0.93029034  0.01325588  1
  Si0+  Si116  1  0.42792946  0.32641559  0.31661251  1
  Si0+  Si117  1  0.56921403  0.67906428  0.32120674  1
  Si0+  Si118  1  0.42754601  0.32413753  0.98100466  1
  Si0+  Si119  1  0.57426429  0.67559128  0.64902094  1
  O2-  O120  1  0.24351285  0.00798588  0.06400834  1
  O2-  O121  1  0.24412899  0.00476282  0.40017962  1
  O2-  O122  1  0.24059911  0.00122522  0.72787867  1
  O2-  O123  1  0.24634266  0.49806089  0.06096518  1
  O2-  O124  1  0.24897491  0.50474564  0.38919576  1
  O2-  O125  1  0.24553571  0.49848342  0.72684725  1
  O2-  O126  1  0.75002311  0.00155010  0.05580128  1
  O2-  O127  1  0.75415903  0.00269046  0.39368072  1
  O2-  O128  1  0.75235638  -0.00163544  0.72477788  1
  O2-  O129  1  0.74520368  0.49689216  0.05938129  1
  O2-  O130  1  0.75523140  0.49282837  0.39898896  1
  O2-  O131  1  0.74493036  0.49503828  0.72912793  1
  O2-  O132  1  -0.00246596  0.24707371  0.26926134  1
  O2-  O133  1  0.00480155  0.24298505  0.60753108  1
  O2-  O134  1  -0.00155470  0.25336183  0.93847639  1
  O2-  O135  1  -0.00057885  0.75104758  0.26749584  1
  O2-  O136  1  -0.00677416  0.75465062  0.60874572  1
  O2-  O137  1  -0.00422527  0.75567403  0.93801227  1
  O2-  O138  1  0.49490638  0.25564476  0.27366967  1
  O2-  O139  1  0.49830911  0.24955131  0.60944876  1
  O2-  O140  1  0.49221054  0.25044967  0.93749671  1
  O2-  O141  1  0.49921203  0.74895523  0.27538686  1
  O2-  O142  1  0.50331189  0.74160725  0.60422726  1
  O2-  O143  1  0.49369362  0.74655052  0.93932479  1
  O2-  O144  1  0.06911132  0.17857641  0.09883166  1
  O2-  O145  1  0.07244045  0.18383220  0.43515441  1
  O2-  O146  1  0.07265574  0.17778391  0.75803269  1
  O2-  O147  1  0.06980214  0.68115570  0.09748485  1
  O2-  O148  1  0.07392537  0.67957605  0.43003920  1
  O2-  O149  1  0.07089299  0.68218933  0.76733224  1
  O2-  O150  1  0.57101559  0.17822005  0.09724724  1
  O2-  O151  1  0.56514151  0.17816572  0.43430729  1
  O2-  O152  1  0.56964617  0.17843336  0.75615185  1
  O2-  O153  1  0.57247528  0.68159938  0.10093543  1
  O2-  O154  1  0.56563772  0.67979220  0.42631191  1
  O2-  O155  1  0.57482174  0.67890950  0.75481848  1
  O2-  O156  1  0.18379489  0.42766523  0.24282328  1
  O2-  O157  1  0.18041069  0.42617282  0.57765528  1
  O2-  O158  1  0.17812760  0.42834897  0.91143392  1
  O2-  O159  1  0.17968442  0.92670563  0.23794355  1
  O2-  O160  1  0.17721374  0.92931403  0.57809348  1
  O2-  O161  1  0.18023489  0.92849127  0.90140401  1
  O2-  O162  1  0.67460520  0.43248250  0.23446828  1
  O2-  O163  1  0.67781014  0.42240480  0.58017837  1
  O2-  O164  1  0.68062843  0.42449465  0.90995909  1
  O2-  O165  1  0.67695130  0.92961304  0.23349283  1
  O2-  O166  1  0.67723986  0.93065815  0.57874593  1
  O2-  O167  1  0.68103855  0.93129835  0.90766217  1
  O2-  O168  1  0.43009282  0.32930342  0.08618489  1
  O2-  O169  1  0.42859596  0.32906103  0.42256130  1
  O2-  O170  1  0.43086166  0.32441754  0.75640402  1
  O2-  O171  1  0.43316646  0.81997372  0.08963981  1
  O2-  O172  1  0.43094717  0.82092796  0.42197782  1
  O2-  O173  1  0.43340705  0.81904117  0.76495523  1
  O2-  O174  1  0.92711347  0.31889796  0.08768221  1
  O2-  O175  1  0.93046140  0.32122202  0.43024807  1
  O2-  O176  1  0.93164065  0.31629471  0.76674174  1
  O2-  O177  1  0.92108919  0.82244197  0.08716081  1
  O2-  O178  1  0.92492036  0.81527060  0.43341386  1
  O2-  O179  1  0.92215599  0.82596473  0.75599978  1
  O2-  O180  1  0.32134016  0.06876597  0.23536809  1
  O2-  O181  1  0.32260809  0.07001139  0.56972318  1
  O2-  O182  1  0.32403480  0.06602721  0.90193086  1
  O2-  O183  1  0.32602090  0.57089462  0.24234176  1
  O2-  O184  1  0.31935395  0.56949941  0.56518075  1
  O2-  O185  1  0.32055839  0.57072748  0.89965129  1
  O2-  O186  1  0.81886406  0.07257272  0.24268543  1
  O2-  O187  1  0.81844985  0.07440056  0.57664599  1
  O2-  O188  1  0.81787006  0.07162624  0.90725114  1
  O2-  O189  1  0.81906817  0.57130459  0.23569462  1
  O2-  O190  1  0.82136332  0.56835798  0.56968070  1
  O2-  O191  1  0.82159541  0.56870639  0.90137428  1
  O2-  O192  1  0.04702309  0.07926219  0.27046605  1
  O2-  O193  1  0.05001832  0.08129415  0.60890146  1
  O2-  O194  1  0.03922285  0.08303041  0.92965407  1
  O2-  O195  1  0.05031956  0.58091749  0.26327771  1
  O2-  O196  1  0.04211682  0.58292609  0.60169101  1
  O2-  O197  1  0.04071666  0.58297676  0.93201411  1
  O2-  O198  1  0.53604837  0.08265469  0.26663558  1
  O2-  O199  1  0.54129115  0.08603999  0.60530152  1
  O2-  O200  1  0.54122476  0.08110418  0.92898812  1
  O2-  O201  1  0.54103184  0.58756657  0.27349110  1
  O2-  O202  1  0.55283362  0.57968070  0.60661128  1
  O2-  O203  1  0.54933700  0.57880919  0.93405927  1
  O2-  O204  1  0.16957771  0.21299696  0.26793335  1
  O2-  O205  1  0.16899852  0.20280668  0.60897783  1
  O2-  O206  1  0.16967638  0.20875640  0.93289585  1
  O2-  O207  1  0.17229135  0.71037477  0.26424861  1
  O2-  O208  1  0.16519210  0.71135073  0.59831675  1
  O2-  O209  1  0.16854865  0.71268858  0.93353931  1
  O2-  O210  1  0.66421089  0.20503192  0.26393362  1
  O2-  O211  1  0.66143550  0.20444710  0.60396801  1
  O2-  O212  1  0.66475229  0.21076113  0.92714408  1
  O2-  O213  1  0.66129464  0.70744322  0.27624548  1
  O2-  O214  1  0.66692065  0.70601343  0.60404366  1
  O2-  O215  1  0.66607467  0.71437760  0.93058319  1
  O2-  O216  1  0.08432106  0.45283999  0.06293190  1
  O2-  O217  1  0.08860032  0.45642460  0.39486401  1
  O2-  O218  1  0.08445877  0.45114589  0.72892055  1
  O2-  O219  1  0.07502097  0.95305743  0.06460694  1
  O2-  O220  1  0.07508143  0.95030553  0.40311934  1
  O2-  O221  1  0.08049517  0.94554910  0.72851130  1
  O2-  O222  1  0.58405874  0.44713314  0.06036397  1
  O2-  O223  1  0.58198982  0.46000479  0.40480207  1
  O2-  O224  1  0.58387276  0.44701255  0.73158632  1
  O2-  O225  1  0.58810491  0.95703391  0.05971439  1
  O2-  O226  1  0.58407971  0.96277584  0.40376299  1
  O2-  O227  1  0.58908253  0.96109968  0.73273647  1
  O2-  O228  1  0.20546945  0.33575758  0.06420497  1
  O2-  O229  1  0.21104197  0.34174120  0.39996246  1
  O2-  O230  1  0.20657304  0.33580054  0.73193733  1
  O2-  O231  1  0.21009818  0.83482940  0.07077586  1
  O2-  O232  1  0.21198138  0.83221829  0.40433087  1
  O2-  O233  1  0.21021885  0.83656257  0.72825118  1
  O2-  O234  1  0.70644766  0.33252548  0.06100913  1
  O2-  O235  1  0.69814189  0.32539868  0.39773459  1
  O2-  O236  1  0.70540764  0.33046562  0.73130872  1
  O2-  O237  1  0.70755580  0.83894503  0.06103748  1
  O2-  O238  1  0.70655884  0.83381568  0.40572836  1
  O2-  O239  1  0.70354931  0.83722889  0.73212860  1
  O2-  O240  1  0.45605966  0.41954893  0.27001823  1
  O2-  O241  1  0.45774914  0.41336303  0.60219190  1
  O2-  O242  1  0.45945250  0.41448386  0.93057768  1
  O2-  O243  1  0.46248126  0.91187525  0.26960780  1
  O2-  O244  1  0.46714103  0.91404319  0.59708149  1
  O2-  O245  1  0.46084065  0.91028844  0.93556973  1
  O2-  O246  1  0.96019317  0.41833321  0.26256066  1
  O2-  O247  1  0.96205798  0.41327793  0.59782108  1
  O2-  O248  1  0.95624652  0.41488711  0.93727346  1
  O2-  O249  1  0.94583271  0.92080228  0.26903634  1
  O2-  O250  1  0.94659387  0.91791009  0.60417974  1
  O2-  O251  1  0.94767154  0.91750056  0.93558017  1
  O2-  O252  1  0.33416145  0.30455236  0.27048489  1
  O2-  O253  1  0.33579429  0.29690940  0.60570462  1
  O2-  O254  1  0.33269629  0.30549230  0.93488603  1
  O2-  O255  1  0.33869714  0.79567623  0.26921101  1
  O2-  O256  1  0.33560935  0.79047990  0.59486140  1
  O2-  O257  1  0.33477676  0.79691277  0.93941581  1
  O2-  O258  1  0.82801057  0.29764312  0.26417745  1
  O2-  O259  1  0.83353628  0.28726521  0.59948660  1
  O2-  O260  1  0.83620744  0.29512377  0.93411203  1
  O2-  O261  1  0.82601443  0.79097804  0.26806379  1
  O2-  O262  1  0.82929938  0.79764243  0.60665626  1
  O2-  O263  1  0.83291696  0.79638631  0.93399201  1
  O2-  O264  1  0.42009422  0.03758147  0.06694513  1
  O2-  O265  1  0.41533093  0.03751577  0.40252012  1
  O2-  O266  1  0.41675453  0.03397244  0.73518897  1
  O2-  O267  1  0.41904587  0.53913411  0.06572997  1
  O2-  O268  1  0.41200831  0.54373518  0.39814410  1
  O2-  O269  1  0.41799565  0.54121266  0.73142862  1
  O2-  O270  1  0.91188079  0.04782692  0.05957270  1
  O2-  O271  1  0.91485121  0.05074377  0.39614753  1
  O2-  O272  1  0.91337745  0.04628776  0.72906637  1
  O2-  O273  1  0.91762563  0.54011161  0.06839126  1
  O2-  O274  1  0.92438849  0.54330968  0.39823932  1
  O2-  O275  1  0.91778549  0.53431808  0.73504972  1
  O2-  O276  1  0.30620370  0.17602265  0.06184370  1
  O2-  O277  1  0.29823370  0.17409290  0.39920633  1
  O2-  O278  1  0.29845282  0.16913387  0.73654749  1
  O2-  O279  1  0.29404725  0.66760251  0.06804736  1
  O2-  O280  1  0.29665887  0.66599715  0.39298185  1
  O2-  O281  1  0.29083391  0.66958409  0.73101055  1
  O2-  O282  1  0.79053264  0.16494450  0.05820088  1
  O2-  O283  1  0.79236274  0.16564076  0.39426417  1
  O2-  O284  1  0.78894945  0.16164632  0.73120454  1
  O2-  O285  1  0.78918640  0.66832913  0.06625824  1
  O2-  O286  1  0.78893258  0.66433182  0.40498961  1
  O2-  O287  1  0.79181742  0.66601062  0.73716472  1
