# generated using pymatgen
data_Ca2Al2SiO7
_symmetry_space_group_name_H-M   'P 1'
_cell_length_a   15.46370127
_cell_length_b   15.46259431
_cell_length_c   15.28704541
_cell_angle_alpha   89.99666725
_cell_angle_beta   90.00700619
_cell_angle_gamma   90.01789397
_symmetry_Int_Tables_number   1
_chemical_formula_structural   Ca2Al2SiO7
_chemical_formula_sum   'Ca48 Al48 Si24 O168'
_cell_volume   3655.26900188
_cell_formula_units_Z   24
loop_
 _symmetry_equiv_pos_site_id
 _symmetry_equiv_pos_as_xyz
  1  'x, y, z'
loop_
 _atom_type_symbol
 _atom_type_oxidation_number
  Ca2+  2.0
  Al0+  0.0
  Si0+  0.0
  O2-  -2.0
loop_
 _atom_site_type_symbol
 _atom_site_label
 _atom_site_symmetry_multiplicity
 _atom_site_fract_x
 _atom_site_fract_y
 _atom_site_fract_z
 _atom_site_occupancy
  Ca2+  Ca0  1  0.16771645  0.07473686  0.17067745  1
  Ca2+  Ca1  1  0.16755785  0.08192305  0.50682369  1
  Ca2+  Ca2  1  0.15386289  0.07314933  0.83489705  1
  Ca2+  Ca3  1  0.16424450  0.57811940  0.17288729  1
  Ca2+  Ca4  1  0.15905234  0.57289358  0.49798525  1
  Ca2+  Ca5  1  0.16685122  0.57270342  0.84573680  1
  Ca2+  Ca6  1  0.67602400  0.08093259  0.17086533  1
  Ca2+  Ca7  1  0.67903410  0.09367368  0.49944639  1
  Ca2+  Ca8  1  0.68068069  0.07812742  0.84215954  1
  Ca2+  Ca9  1  0.67171669  0.58427065  0.17092797  1
  Ca2+  Ca10  1  0.66230752  0.57755170  0.49745476  1
  Ca2+  Ca11  1  0.67469984  0.58285261  0.84429223  1
  Ca2+  Ca12  1  0.07624576  0.33761989  0.16082831  1
  Ca2+  Ca13  1  0.07448575  0.33779368  0.49637435  1
  Ca2+  Ca14  1  0.07460399  0.33374661  0.82706408  1
  Ca2+  Ca15  1  0.08282107  0.82232730  0.15714565  1
  Ca2+  Ca16  1  0.08637489  0.82915941  0.49546811  1
  Ca2+  Ca17  1  0.08597512  0.83311462  0.83408026  1
  Ca2+  Ca18  1  0.58734147  0.33059087  0.16756045  1
  Ca2+  Ca19  1  0.58175021  0.32949479  0.48740648  1
  Ca2+  Ca20  1  0.57941111  0.33346680  0.83064733  1
  Ca2+  Ca21  1  0.58375108  0.82414967  0.15750634  1
  Ca2+  Ca22  1  0.57986300  0.82596369  0.49050006  1
  Ca2+  Ca23  1  0.59115438  0.82901917  0.83751006  1
  Ca2+  Ca24  1  0.31906625  0.42603339  0.17079685  1
  Ca2+  Ca25  1  0.31958175  0.42042248  0.50105191  1
  Ca2+  Ca26  1  0.31828979  0.41801660  0.84134642  1
  Ca2+  Ca27  1  0.32882210  0.91837279  0.16809526  1
  Ca2+  Ca28  1  0.32852389  0.92195680  0.50104438  1
  Ca2+  Ca29  1  0.32107372  0.91769231  0.83731874  1
  Ca2+  Ca30  1  0.83657593  0.42011319  0.17070089  1
  Ca2+  Ca31  1  0.83212972  0.40842440  0.49752260  1
  Ca2+  Ca32  1  0.83937524  0.41939565  0.84066079  1
  Ca2+  Ca33  1  0.83655853  0.92436223  0.16660623  1
  Ca2+  Ca34  1  0.83714696  0.93229089  0.50425255  1
  Ca2+  Ca35  1  0.83681441  0.92850818  0.84556230  1
  Ca2+  Ca36  1  0.42196619  0.16066396  0.16551683  1
  Ca2+  Ca37  1  0.42280097  0.16498129  0.48781686  1
  Ca2+  Ca38  1  0.42012269  0.16531735  0.83098764  1
  Ca2+  Ca39  1  0.42584837  0.65000616  0.16299528  1
  Ca2+  Ca40  1  0.41820125  0.66616804  0.48934695  1
  Ca2+  Ca41  1  0.41909997  0.66089444  0.83745815  1
  Ca2+  Ca42  1  0.90640254  0.17680516  0.16419623  1
  Ca2+  Ca43  1  0.91925829  0.17228562  0.49685383  1
  Ca2+  Ca44  1  0.91629005  0.17462214  0.82712731  1
  Ca2+  Ca45  1  0.92704685  0.66778718  0.15551260  1
  Ca2+  Ca46  1  0.92427679  0.67205770  0.49143766  1
  Ca2+  Ca47  1  0.91919589  0.67047426  0.83977681  1
  Al0+  Al48  1  0.00117453  0.00122255  0.00876552  1
  Al0+  Al49  1  -0.00102424  0.00179189  0.33821915  1
  Al0+  Al50  1  -0.00016836  0.00104343  0.67017838  1
  Al0+  Al51  1  -0.00199797  0.49948340  -0.00110891  1
  Al0+  Al52  1  -0.00200435  0.50167681  0.33072947  1
  Al0+  Al53  1  -0.00138846  0.50127045  0.66608382  1
  Al0+  Al54  1  0.50198197  -0.00204130  -0.00068461  1
  Al0+  Al55  1  0.49990386  -0.00107033  0.33222854  1
  Al0+  Al56  1  0.50032706  -0.00309020  0.66541627  1
  Al0+  Al57  1  0.49865811  0.49712892  -0.00443148  1
  Al0+  Al58  1  0.49906527  0.49924680  0.33668335  1
  Al0+  Al59  1  0.50108313  0.49960555  0.66595417  1
  Al0+  Al60  1  0.25095605  0.25005346  0.00244079  1
  Al0+  Al61  1  0.24884537  0.24954538  0.34060255  1
  Al0+  Al62  1  0.25122586  0.25090153  0.66815940  1
  Al0+  Al63  1  0.25472864  0.74999835  0.00241472  1
  Al0+  Al64  1  0.25006404  0.75019674  0.33261135  1
  Al0+  Al65  1  0.25280675  0.75102866  0.66871423  1
  Al0+  Al66  1  0.74948376  0.24915377  -0.00349497  1
  Al0+  Al67  1  0.74924260  0.25044261  0.33249429  1
  Al0+  Al68  1  0.74868862  0.25111226  0.66892696  1
  Al0+  Al69  1  0.75061346  0.74923514  -0.00117364  1
  Al0+  Al70  1  0.74885131  0.75140289  0.33095845  1
  Al0+  Al71  1  0.75023580  0.74892913  0.66306878  1
  Al0+  Al72  1  0.56968418  0.67753150  0.31883161  1
  Al0+  Al73  1  0.81985666  0.56974656  0.01281268  1
  Al0+  Al74  1  0.93075311  0.82275771  0.98608611  1
  Al0+  Al75  1  0.57013627  0.17917899  0.31866312  1
  Al0+  Al76  1  0.17942711  0.92886367  0.01473662  1
  Al0+  Al77  1  0.81960620  0.07148670  0.34917502  1
  Al0+  Al78  1  0.17645222  0.42870038  0.01515052  1
  Al0+  Al79  1  0.81900972  0.07146458  0.68154741  1
  Al0+  Al80  1  0.06988735  0.68138790  0.32028588  1
  Al0+  Al81  1  0.32026135  0.57148773  0.34897313  1
  Al0+  Al82  1  0.92909802  0.31962905  0.98643494  1
  Al0+  Al83  1  0.18042667  0.92957621  0.67983354  1
  Al0+  Al84  1  0.93029031  0.31863893  0.31865074  1
  Al0+  Al85  1  0.68046250  0.43058144  0.34506750  1
  Al0+  Al86  1  0.92806408  0.32295281  0.64952405  1
  Al0+  Al87  1  0.17771159  0.42989656  0.68191491  1
  Al0+  Al88  1  0.57042261  0.67762775  0.98548361  1
  Al0+  Al89  1  0.17430229  0.42920014  0.34965563  1
  Al0+  Al90  1  0.32244474  0.57017623  0.01374471  1
  Al0+  Al91  1  0.07429304  0.67908772  0.98412077  1
  Al0+  Al92  1  0.07117758  0.17767153  0.65221299  1
  Al0+  Al93  1  0.32169853  0.07029148  0.34592137  1
  Al0+  Al94  1  0.67958699  0.92800026  0.01528848  1
  Al0+  Al95  1  0.82224228  0.07315135  0.01701434  1
  Si0+  Si96  1  0.32530895  0.07226546  0.68283031  1
  Si0+  Si97  1  0.32393562  0.57133824  0.68395936  1
  Si0+  Si98  1  0.42942189  0.82514318  0.97999844  1
  Si0+  Si99  1  0.67806037  0.43023589  0.68200039  1
  Si0+  Si100  1  0.17801834  0.92866189  0.35035491  1
  Si0+  Si101  1  0.42834941  0.81992451  0.64993953  1
  Si0+  Si102  1  0.67769942  0.92682643  0.35088907  1
  Si0+  Si103  1  0.57173570  0.67856121  0.65027480  1
  Si0+  Si104  1  0.07405041  0.17619516  0.31691749  1
  Si0+  Si105  1  0.57083035  0.17728621  0.98309677  1
  Si0+  Si106  1  0.07256008  0.68056947  0.65287257  1
  Si0+  Si107  1  0.42948003  0.32198859  0.65075652  1
  Si0+  Si108  1  0.42789896  0.82180938  0.31522316  1
  Si0+  Si109  1  0.56891518  0.17867882  0.65249650  1
  Si0+  Si110  1  0.67775080  0.92505602  0.68214947  1
  Si0+  Si111  1  0.42854338  0.31899924  0.98405315  1
  Si0+  Si112  1  0.82130275  0.57465613  0.35049276  1
  Si0+  Si113  1  0.42556369  0.32148069  0.31654552  1
  Si0+  Si114  1  0.92864205  0.82153627  0.65219662  1
  Si0+  Si115  1  0.07565880  0.17839171  0.98587706  1
  Si0+  Si116  1  0.81998382  0.57337544  0.68086278  1
  Si0+  Si117  1  0.92736111  0.82544291  0.31802122  1
  Si0+  Si118  1  0.32423697  0.07210850  0.01499813  1
  Si0+  Si119  1  0.67641122  0.42692806  0.01449713  1
  O2-  O120  1  0.25445224  0.00488234  0.05868303  1
  O2-  O121  1  0.24491915  -0.00083716  0.39458265  1
  O2-  O122  1  0.25159747  0.00884185  0.72596762  1
  O2-  O123  1  0.24325878  0.50666163  0.06323058  1
  O2-  O124  1  0.24681676  0.50164257  0.39958701  1
  O2-  O125  1  0.25320418  0.50490058  0.72707852  1
  O2-  O126  1  0.75200431  -0.00148484  0.06561943  1
  O2-  O127  1  0.74597157  -0.00490099  0.39641056  1
  O2-  O128  1  0.74532269  -0.00563896  0.72573221  1
  O2-  O129  1  0.74485557  0.49498441  0.05836207  1
  O2-  O130  1  0.75228664  0.50647448  0.39542674  1
  O2-  O131  1  0.75084199  0.49955484  0.72228140  1
  O2-  O132  1  0.00742011  0.24615108  0.27233434  1
  O2-  O133  1  0.00186779  0.25173683  0.60083017  1
  O2-  O134  1  0.00603983  0.24623355  0.94184894  1
  O2-  O135  1  -0.00462278  0.75640169  0.27508097  1
  O2-  O136  1  0.00171526  0.75229955  0.61033235  1
  O2-  O137  1  0.00491471  0.75392814  0.93320693  1
  O2-  O138  1  0.49234131  0.25077048  0.27147285  1
  O2-  O139  1  0.49635351  0.24701564  0.60872406  1
  O2-  O140  1  0.49885545  0.24718582  0.94047651  1
  O2-  O141  1  0.49428499  0.75087955  0.27182658  1
  O2-  O142  1  0.49994236  0.74886473  0.60865402  1
  O2-  O143  1  0.49681323  0.75344768  0.93750548  1
  O2-  O144  1  0.08016164  0.18056648  0.09133707  1
  O2-  O145  1  0.07207266  0.17347321  0.42245758  1
  O2-  O146  1  0.06730117  0.17653264  0.76575234  1
  O2-  O147  1  0.07148655  0.67970854  0.09754971  1
  O2-  O148  1  0.06779897  0.68368870  0.43467391  1
  O2-  O149  1  0.07246811  0.68088244  0.75740810  1
  O2-  O150  1  0.57014903  0.17765066  0.08787796  1
  O2-  O151  1  0.56948276  0.18187967  0.43265106  1
  O2-  O152  1  0.56690745  0.18016883  0.75779368  1
  O2-  O153  1  0.56823225  0.67614306  0.09809581  1
  O2-  O154  1  0.56902257  0.68069209  0.43300728  1
  O2-  O155  1  0.57313592  0.67797555  0.75497721  1
  O2-  O156  1  0.17441854  0.42969277  0.23671485  1
  O2-  O157  1  0.17791505  0.43278442  0.56908959  1
  O2-  O158  1  0.17965482  0.42606995  0.90106989  1
  O2-  O159  1  0.17889969  0.92901461  0.24508259  1
  O2-  O160  1  0.18491408  0.92659373  0.56684428  1
  O2-  O161  1  0.18076873  0.93123417  0.90122118  1
  O2-  O162  1  0.68184392  0.43062504  0.23234448  1
  O2-  O163  1  0.67377408  0.43089573  0.57717480  1
  O2-  O164  1  0.67563251  0.42813314  0.90803763  1
  O2-  O165  1  0.67780690  0.92605029  0.24592109  1
  O2-  O166  1  0.67754421  0.92284219  0.57661030  1
  O2-  O167  1  0.67863623  0.93266228  0.90092857  1
  O2-  O168  1  0.42937329  0.31789450  0.08860058  1
  O2-  O169  1  0.42907467  0.31980819  0.42284371  1
  O2-  O170  1  0.43319785  0.32319052  0.75605006  1
  O2-  O171  1  0.43169712  0.83273567  0.08483885  1
  O2-  O172  1  0.43001266  0.82272566  0.42165260  1
  O2-  O173  1  0.42709545  0.82148244  0.75437503  1
  O2-  O174  1  0.92610247  0.31832377  0.09931786  1
  O2-  O175  1  0.92928595  0.31676918  0.43181644  1
  O2-  O176  1  0.92724882  0.32328377  0.76291474  1
  O2-  O177  1  0.93229560  0.82072640  0.09964995  1
  O2-  O178  1  0.92841655  0.82484247  0.42464331  1
  O2-  O179  1  0.92549187  0.81990969  0.75655151  1
  O2-  O180  1  0.32223602  0.06673416  0.23292837  1
  O2-  O181  1  0.33063387  0.06814175  0.57759695  1
  O2-  O182  1  0.32678548  0.07133784  0.90918685  1
  O2-  O183  1  0.32106945  0.56794820  0.23620948  1
  O2-  O184  1  0.32720895  0.57028553  0.57868322  1
  O2-  O185  1  0.32428019  0.56342553  0.89956650  1
  O2-  O186  1  0.81766812  0.07087876  0.23692123  1
  O2-  O187  1  0.81664142  0.07170624  0.56822773  1
  O2-  O188  1  0.81916651  0.07443207  0.90299576  1
  O2-  O189  1  0.82083567  0.57490112  0.24532853  1
  O2-  O190  1  0.81696315  0.57845935  0.57594349  1
  O2-  O191  1  0.81810602  0.56860040  0.89879248  1
  O2-  O192  1  0.04682381  0.08220047  0.27187738  1
  O2-  O193  1  0.04226628  0.07878772  0.59882325  1
  O2-  O194  1  0.04906804  0.08388016  0.94319275  1
  O2-  O195  1  0.03772830  0.58609937  0.26629988  1
  O2-  O196  1  0.04136540  0.59042218  0.60449838  1
  O2-  O197  1  0.03979816  0.58234304  0.93123008  1
  O2-  O198  1  0.54086220  0.08171254  0.26584067  1
  O2-  O199  1  0.54478481  0.08513996  0.60622560  1
  O2-  O200  1  0.54256127  0.08609522  0.93420926  1
  O2-  O201  1  0.54077892  0.57967023  0.26709424  1
  O2-  O202  1  0.54408151  0.58601182  0.60347795  1
  O2-  O203  1  0.53851808  0.58135642  0.92891600  1
  O2-  O204  1  0.16971888  0.19780665  0.27370770  1
  O2-  O205  1  0.17396888  0.19955369  0.60406453  1
  O2-  O206  1  0.16957697  0.20118065  0.93780100  1
  O2-  O207  1  0.16695172  0.71057299  0.26728483  1
  O2-  O208  1  0.16501563  0.70853368  0.60635976  1
  O2-  O209  1  0.17530260  0.70383825  0.93410858  1
  O2-  O210  1  0.66411032  0.21406838  0.26390995  1
  O2-  O211  1  0.65973609  0.21003288  0.60607138  1
  O2-  O212  1  0.66042574  0.20744542  0.93278628  1
  O2-  O213  1  0.66720851  0.70771285  0.26659122  1
  O2-  O214  1  0.66265267  0.70654544  0.60068247  1
  O2-  O215  1  0.66620045  0.70872071  0.92947189  1
  O2-  O216  1  0.07725090  0.45319218  0.06553293  1
  O2-  O217  1  0.07711147  0.46304121  0.40313393  1
  O2-  O218  1  0.08048072  0.46164524  0.73375163  1
  O2-  O219  1  0.08572614  0.95897217  0.07317938  1
  O2-  O220  1  0.08428818  0.95206238  0.39743124  1
  O2-  O221  1  0.08326183  0.95636870  0.73407029  1
  O2-  O222  1  0.58251911  0.45076846  0.05892253  1
  O2-  O223  1  0.58417684  0.45877557  0.40215637  1
  O2-  O224  1  0.58717421  0.46015710  0.73141980  1
  O2-  O225  1  0.58124170  0.95758200  0.06742767  1
  O2-  O226  1  0.58371160  0.95177160  0.39656610  1
  O2-  O227  1  0.58320973  0.94912960  0.72725225  1
  O2-  O228  1  0.21126263  0.33208611  0.06801025  1
  O2-  O229  1  0.20200696  0.33095514  0.40350685  1
  O2-  O230  1  0.21005141  0.33300168  0.73490245  1
  O2-  O231  1  0.21290347  0.83352454  0.06860281  1
  O2-  O232  1  0.20641274  0.83629834  0.39727785  1
  O2-  O233  1  0.21601149  0.83482122  0.73505615  1
  O2-  O234  1  0.70008421  0.33249350  0.05805689  1
  O2-  O235  1  0.71166627  0.33510078  0.40141701  1
  O2-  O236  1  0.70120683  0.33781565  0.73012936  1
  O2-  O237  1  0.70371509  0.82849547  0.06565214  1
  O2-  O238  1  0.70269555  0.83305356  0.39828708  1
  O2-  O239  1  0.70381814  0.83097269  0.72720232  1
  O2-  O240  1  0.45525550  0.41365532  0.27155875  1
  O2-  O241  1  0.46229944  0.41215812  0.60270342  1
  O2-  O242  1  0.45879170  0.40771135  0.93173969  1
  O2-  O243  1  0.45554389  0.91410644  0.26830061  1
  O2-  O244  1  0.45680385  0.91152785  0.60083538  1
  O2-  O245  1  0.45789758  0.91685181  0.92966903  1
  O2-  O246  1  0.95582914  0.41753350  0.26742786  1
  O2-  O247  1  0.95370541  0.42310761  0.59739144  1
  O2-  O248  1  0.95736066  0.41615735  0.93123633  1
  O2-  O249  1  0.95309180  0.91937711  0.27363516  1
  O2-  O250  1  0.95608603  0.91327615  0.60501147  1
  O2-  O251  1  0.95818478  0.92358295  0.93669705  1
  O2-  O252  1  0.33067792  0.29745391  0.27347008  1
  O2-  O253  1  0.33641389  0.29928085  0.60460020  1
  O2-  O254  1  0.33750943  0.29018720  0.93463671  1
  O2-  O255  1  0.33303267  0.80084433  0.27101943  1
  O2-  O256  1  0.33766390  0.79177782  0.60000688  1
  O2-  O257  1  0.33605617  0.79968285  0.93370292  1
  O2-  O258  1  0.83419107  0.28628012  0.26540526  1
  O2-  O259  1  0.82730590  0.29393607  0.60030645  1
  O2-  O260  1  0.83197949  0.28991454  0.93052160  1
  O2-  O261  1  0.83298258  0.80239242  0.27365248  1
  O2-  O262  1  0.83811350  0.79147981  0.60195248  1
  O2-  O263  1  0.83316879  0.79233107  0.93175615  1
  O2-  O264  1  0.41714312  0.04442212  0.06092516  1
  O2-  O265  1  0.41759025  0.03704023  0.40162432  1
  O2-  O266  1  0.41680683  0.04014375  0.73123828  1
  O2-  O267  1  0.41796418  0.53111247  0.06596934  1
  O2-  O268  1  0.41778998  0.54165923  0.40386145  1
  O2-  O269  1  0.41775714  0.54346285  0.72958186  1
  O2-  O270  1  0.92030982  0.04991377  0.07144525  1
  O2-  O271  1  0.91625898  0.04163359  0.40479551  1
  O2-  O272  1  0.91513021  0.04085593  0.73469046  1
  O2-  O273  1  0.91503214  0.53891651  0.06756528  1
  O2-  O274  1  0.91369087  0.54777629  0.39763926  1
  O2-  O275  1  0.91218102  0.54823615  0.72753207  1
  O2-  O276  1  0.30231543  0.16585629  0.06130889  1
  O2-  O277  1  0.29714934  0.16700091  0.40260236  1
  O2-  O278  1  0.30856659  0.16836644  0.72654644  1
  O2-  O279  1  0.31196326  0.67295208  0.06172271  1
  O2-  O280  1  0.29596929  0.67214336  0.40060555  1
  O2-  O281  1  0.30206099  0.66637283  0.72804084  1
  O2-  O282  1  0.78525029  0.16980947  0.06806404  1
  O2-  O283  1  0.78415240  0.16636126  0.40297564  1
  O2-  O284  1  0.78476603  0.16710902  0.73562709  1
  O2-  O285  1  0.78961052  0.66554346  0.06658826  1
  O2-  O286  1  0.79593344  0.66883691  0.39685060  1
  O2-  O287  1  0.78843678  0.66370655  0.72956066  1
