# generated using pymatgen
data_Ca2Al2SiO7
_symmetry_space_group_name_H-M   'P 1'
_cell_length_a   15.45833073
_cell_length_b   15.45938098
_cell_length_c   15.28381907
_cell_angle_alpha   90.00397717
_cell_angle_beta   89.99661170
_cell_angle_gamma   90.01294457
_symmetry_Int_Tables_number   1
_chemical_formula_structural   Ca2Al2SiO7
_chemical_formula_sum   'Ca48 Al48 Si24 O168'
_cell_volume   3652.46926304
_cell_formula_units_Z   24
loop_
 _symmetry_equiv_pos_site_id
 _symmetry_equiv_pos_as_xyz
  1  'x, y, z'
loop_
 _atom_type_symbol
 _atom_type_oxidation_number
  Ca2+  2.0
  Al0+  0.0
  Si0+  0.0
  O2-  -2.0
loop_
 _atom_site_type_symbol
 _atom_site_label
 _atom_site_symmetry_multiplicity
 _atom_site_fract_x
 _atom_site_fract_y
 _atom_site_fract_z
 _atom_site_occupancy
  Ca2+  Ca0  1  0.18115100  0.09323649  0.17077722  1
  Ca2+  Ca1  1  0.17265121  0.08359802  0.50001199  1
  Ca2+  Ca2  1  0.17444776  0.08135037  0.84070827  1
  Ca2+  Ca3  1  0.16118198  0.57508386  0.16279860  1
  Ca2+  Ca4  1  0.16777811  0.58028882  0.50484743  1
  Ca2+  Ca5  1  0.17265114  0.58379207  0.83954447  1
  Ca2+  Ca6  1  0.67750266  0.08166879  0.17530406  1
  Ca2+  Ca7  1  0.66514344  0.08091191  0.50041414  1
  Ca2+  Ca8  1  0.66622370  0.08164834  0.83356963  1
  Ca2+  Ca9  1  0.67117889  0.57004520  0.16895102  1
  Ca2+  Ca10  1  0.66845063  0.56921319  0.50591414  1
  Ca2+  Ca11  1  0.67109953  0.56783643  0.84104803  1
  Ca2+  Ca12  1  0.07427784  0.34146484  0.16171089  1
  Ca2+  Ca13  1  0.07147767  0.33832974  0.49351391  1
  Ca2+  Ca14  1  0.07078643  0.34463583  0.83299342  1
  Ca2+  Ca15  1  0.07619655  0.82883212  0.16125577  1
  Ca2+  Ca16  1  0.07790209  0.82576607  0.49471418  1
  Ca2+  Ca17  1  0.08456923  0.81879584  0.82752230  1
  Ca2+  Ca18  1  0.59127879  0.32931583  0.16528778  1
  Ca2+  Ca19  1  0.58659740  0.32545414  0.49588220  1
  Ca2+  Ca20  1  0.58283350  0.33026127  0.82247560  1
  Ca2+  Ca21  1  0.58585774  0.83463705  0.16623804  1
  Ca2+  Ca22  1  0.58374907  0.83946493  0.49655498  1
  Ca2+  Ca23  1  0.57766621  0.83114682  0.82399747  1
  Ca2+  Ca24  1  0.31782760  0.41752446  0.17152596  1
  Ca2+  Ca25  1  0.32801643  0.41952823  0.50824556  1
  Ca2+  Ca26  1  0.33178590  0.42709500  0.84090429  1
  Ca2+  Ca27  1  0.33214116  0.92833304  0.17000251  1
  Ca2+  Ca28  1  0.34137641  0.92336324  0.50346266  1
  Ca2+  Ca29  1  0.33648176  0.92164927  0.83696469  1
  Ca2+  Ca30  1  0.83010996  0.41417868  0.16868702  1
  Ca2+  Ca31  1  0.82530678  0.40330379  0.50159264  1
  Ca2+  Ca32  1  0.82562495  0.41201694  0.83972616  1
  Ca2+  Ca33  1  0.83324179  0.92712374  0.17814663  1
  Ca2+  Ca34  1  0.82585251  0.91878616  0.50242698  1
  Ca2+  Ca35  1  0.82667278  0.92407846  0.83880503  1
  Ca2+  Ca36  1  0.42206378  0.16076538  0.16448285  1
  Ca2+  Ca37  1  0.42859369  0.16852714  0.49558333  1
  Ca2+  Ca38  1  0.42139172  0.17554163  0.82356567  1
  Ca2+  Ca39  1  0.41681680  0.66551314  0.16115454  1
  Ca2+  Ca40  1  0.41398002  0.67063630  0.50192022  1
  Ca2+  Ca41  1  0.41000588  0.67015904  0.82447818  1
  Ca2+  Ca42  1  0.90633189  0.17558809  0.16289852  1
  Ca2+  Ca43  1  0.91247140  0.17529996  0.49352729  1
  Ca2+  Ca44  1  0.91091153  0.17717390  0.83215188  1
  Ca2+  Ca45  1  0.91661750  0.67028113  0.15902544  1
  Ca2+  Ca46  1  0.92090610  0.67040228  0.49447304  1
  Ca2+  Ca47  1  0.92834283  0.65372907  0.83224742  1
  Al0+  Al48  1  -0.00055129  0.00060689  0.00141297  1
  Al0+  Al49  1  0.00286763  0.00055880  0.33312728  1
  Al0+  Al50  1  0.00086931  -0.00011648  0.66888403  1
  Al0+  Al51  1  -0.00111757  0.50164163  -0.00230550  1
  Al0+  Al52  1  0.00088677  0.50037213  0.33298543  1
  Al0+  Al53  1  0.00036225  0.49995789  0.65541319  1
  Al0+  Al54  1  0.49971751  -0.00053239  0.00200885  1
  Al0+  Al55  1  0.49989187  0.00087041  0.33403917  1
  Al0+  Al56  1  0.50104049  -0.00019929  0.66493090  1
  Al0+  Al57  1  0.50007262  0.49965000  0.00753537  1
  Al0+  Al58  1  0.49949683  0.50091392  0.33640014  1
  Al0+  Al59  1  0.49905627  0.50140569  0.67087128  1
  Al0+  Al60  1  0.25056817  0.24997103  0.00616586  1
  Al0+  Al61  1  0.25021984  0.25212531  0.34486720  1
  Al0+  Al62  1  0.24804866  0.25025494  0.66526588  1
  Al0+  Al63  1  0.24949423  0.75160975  0.00063587  1
  Al0+  Al64  1  0.25083140  0.75005783  0.32999052  1
  Al0+  Al65  1  0.24958449  0.75007313  0.65928048  1
  Al0+  Al66  1  0.74878890  0.24600736  0.00091015  1
  Al0+  Al67  1  0.74959549  0.24908966  0.33161219  1
  Al0+  Al68  1  0.75068882  0.24858824  0.66350324  1
  Al0+  Al69  1  0.74737289  0.74870713  -0.00078435  1
  Al0+  Al70  1  0.74991398  0.74981694  0.33121586  1
  Al0+  Al71  1  0.75080965  0.75069054  0.67339843  1
  Al0+  Al72  1  0.82354982  0.07173870  0.34971969  1
  Al0+  Al73  1  0.17790630  0.43131253  0.34980125  1
  Al0+  Al74  1  0.92867572  0.82153627  0.32001628  1
  Al0+  Al75  1  0.32135480  0.07049025  0.34989992  1
  Al0+  Al76  1  0.57010700  0.17997996  0.65116130  1
  Al0+  Al77  1  0.92914667  0.31883654  0.98619285  1
  Al0+  Al78  1  0.67980669  0.42908293  0.34835814  1
  Al0+  Al79  1  0.42660410  0.32521113  0.65297895  1
  Al0+  Al80  1  0.56852049  0.17981893  0.31676249  1
  Al0+  Al81  1  0.68057996  0.42790764  0.67948092  1
  Al0+  Al82  1  0.67882242  0.42594546  0.01547925  1
  Al0+  Al83  1  0.43066950  0.81993775  0.65279904  1
  Al0+  Al84  1  0.67835253  0.92882963  0.68205971  1
  Al0+  Al85  1  0.17825278  0.42955718  0.01313592  1
  Al0+  Al86  1  0.06929196  0.68136277  0.98571574  1
  Al0+  Al87  1  0.93008153  0.31903690  0.31716626  1
  Al0+  Al88  1  0.32141815  0.57431185  0.01577079  1
  Al0+  Al89  1  0.82095884  0.06882029  0.01306147  1
  Al0+  Al90  1  0.82150680  0.57125568  0.01384858  1
  Al0+  Al91  1  0.68012766  0.92778552  0.34796950  1
  Al0+  Al92  1  0.93100942  0.31852175  0.65244226  1
  Al0+  Al93  1  0.32129129  0.07095576  0.01199756  1
  Al0+  Al94  1  0.07010172  0.68008986  0.65083804  1
  Al0+  Al95  1  0.31876513  0.57125476  0.67903913  1
  Si0+  Si96  1  0.92706812  0.82461540  0.65173024  1
  Si0+  Si97  1  0.17573803  0.42778234  0.68310263  1
  Si0+  Si98  1  0.67709166  0.92746963  0.01591885  1
  Si0+  Si99  1  0.57067230  0.67627471  0.98451137  1
  Si0+  Si100  1  0.82217498  0.57246559  0.34975513  1
  Si0+  Si101  1  0.82350051  0.07140280  0.68417488  1
  Si0+  Si102  1  0.17943615  0.92571072  0.35041876  1
  Si0+  Si103  1  0.57462864  0.67793999  0.65136599  1
  Si0+  Si104  1  0.07266823  0.67871212  0.31382987  1
  Si0+  Si105  1  0.17873244  0.92868682  0.68070366  1
  Si0+  Si106  1  0.07374004  0.17358863  0.65003529  1
  Si0+  Si107  1  0.32073284  0.07067001  0.68159805  1
  Si0+  Si108  1  0.42734211  0.32147115  0.98805868  1
  Si0+  Si109  1  0.07557261  0.17823386  0.31722071  1
  Si0+  Si110  1  0.32262887  0.57387241  0.35146823  1
  Si0+  Si111  1  0.17788762  0.92816412  0.01574849  1
  Si0+  Si112  1  0.57083516  0.67719546  0.31788966  1
  Si0+  Si113  1  0.56892461  0.17829126  0.98469813  1
  Si0+  Si114  1  0.07549358  0.17705450  0.98408013  1
  Si0+  Si115  1  0.42937407  0.82108779  0.31624532  1
  Si0+  Si116  1  0.82374897  0.57263701  0.68149621  1
  Si0+  Si117  1  0.92516893  0.82449643  0.98194978  1
  Si0+  Si118  1  0.43094579  0.82064771  0.98573074  1
  Si0+  Si119  1  0.42650674  0.32391318  0.31651328  1
  O2-  O120  1  0.24229617  0.00109009  0.05947830  1
  O2-  O121  1  0.24727474  -0.00546483  0.39586902  1
  O2-  O122  1  0.24805005  0.00110230  0.72402430  1
  O2-  O123  1  0.25090420  0.50076066  0.06445794  1
  O2-  O124  1  0.25385001  0.50551180  0.39496658  1
  O2-  O125  1  0.24847408  0.49264786  0.72643601  1
  O2-  O126  1  0.75143616  -0.01062125  0.05917210  1
  O2-  O127  1  0.75274487  -0.00182136  0.39899260  1
  O2-  O128  1  0.75436225  0.00241964  0.72781141  1
  O2-  O129  1  0.75207351  0.49749608  0.06437660  1
  O2-  O130  1  0.75619900  0.50207788  0.39517510  1
  O2-  O131  1  0.75458000  0.50404677  0.72490966  1
  O2-  O132  1  0.00485289  0.24343367  0.27134327  1
  O2-  O133  1  0.00630057  0.24354451  0.60700920  1
  O2-  O134  1  0.00635113  0.24514287  0.93963691  1
  O2-  O135  1  0.00317233  0.74743399  0.27141582  1
  O2-  O136  1  -0.00711787  0.75365640  0.60689699  1
  O2-  O137  1  -0.00735456  0.75454855  0.93752609  1
  O2-  O138  1  0.49448979  0.25577946  0.26963849  1
  O2-  O139  1  0.49979283  0.25470456  0.60232484  1
  O2-  O140  1  0.49966763  0.25193967  0.94452230  1
  O2-  O141  1  0.50012322  0.74944690  0.27512944  1
  O2-  O142  1  0.50738260  0.74754159  0.60547386  1
  O2-  O143  1  0.49824507  0.74671344  0.94266291  1
  O2-  O144  1  0.07787903  0.17682053  0.08924580  1
  O2-  O145  1  0.07564179  0.17928000  0.42305192  1
  O2-  O146  1  0.07486527  0.16943004  0.75559102  1
  O2-  O147  1  0.06943275  0.68538718  0.09864505  1
  O2-  O148  1  0.07384587  0.68096402  0.41962550  1
  O2-  O149  1  0.07069152  0.68078383  0.76403678  1
  O2-  O150  1  0.56751431  0.17544379  0.08961612  1
  O2-  O151  1  0.56726976  0.17920909  0.42945674  1
  O2-  O152  1  0.56765534  0.17903449  0.76571229  1
  O2-  O153  1  0.57089293  0.67902480  0.08979621  1
  O2-  O154  1  0.56943055  0.67620623  0.42284913  1
  O2-  O155  1  0.57271452  0.67973367  0.75714231  1
  O2-  O156  1  0.17741283  0.43270199  0.23675072  1
  O2-  O157  1  0.17536803  0.43072167  0.57752937  1
  O2-  O158  1  0.18014519  0.43002813  0.89940920  1
  O2-  O159  1  0.18242306  0.92346493  0.24480381  1
  O2-  O160  1  0.17805124  0.93039482  0.57581638  1
  O2-  O161  1  0.18121704  0.92708106  0.90974269  1
  O2-  O162  1  0.67955983  0.43140592  0.23552554  1
  O2-  O163  1  0.68262681  0.42831538  0.56637483  1
  O2-  O164  1  0.67767919  0.42614604  0.90158384  1
  O2-  O165  1  0.68053389  0.92826665  0.23397175  1
  O2-  O166  1  0.67963487  0.92819360  0.56963999  1
  O2-  O167  1  0.67353886  0.93041949  0.91023547  1
  O2-  O168  1  0.42617693  0.31892729  0.09297976  1
  O2-  O169  1  0.42835697  0.32313676  0.42197596  1
  O2-  O170  1  0.42582957  0.32157414  0.76745031  1
  O2-  O171  1  0.43331800  0.82310930  0.09091898  1
  O2-  O172  1  0.42766397  0.82014822  0.42122385  1
  O2-  O173  1  0.42966234  0.82029984  0.76641843  1
  O2-  O174  1  0.92893514  0.31735210  0.09892071  1
  O2-  O175  1  0.93160480  0.31810913  0.43037979  1
  O2-  O176  1  0.93091074  0.31899171  0.76587195  1
  O2-  O177  1  0.92728341  0.82482460  0.08752461  1
  O2-  O178  1  0.93027980  0.81774661  0.43346531  1
  O2-  O179  1  0.93065551  0.82793698  0.75720991  1
  O2-  O180  1  0.32080201  0.06793637  0.23642817  1
  O2-  O181  1  0.32001088  0.06819434  0.57673310  1
  O2-  O182  1  0.32253144  0.06789406  0.89861697  1
  O2-  O183  1  0.32329652  0.57482623  0.24603111  1
  O2-  O184  1  0.31517910  0.57348871  0.56598762  1
  O2-  O185  1  0.32017557  0.57536040  0.90209344  1
  O2-  O186  1  0.82055726  0.07052436  0.23587004  1
  O2-  O187  1  0.82661411  0.06951758  0.57914076  1
  O2-  O188  1  0.81746164  0.06946241  0.89968829  1
  O2-  O189  1  0.82011531  0.57331274  0.24424269  1
  O2-  O190  1  0.82159405  0.57590398  0.57587831  1
  O2-  O191  1  0.81912193  0.56955384  0.89995786  1
  O2-  O192  1  0.05822679  0.08228403  0.27258845  1
  O2-  O193  1  0.04840155  0.08011729  0.60267830  1
  O2-  O194  1  0.05133780  0.08213621  0.93841818  1
  O2-  O195  1  0.04597322  0.58550505  0.26901840  1
  O2-  O196  1  0.04077735  0.58560339  0.59273602  1
  O2-  O197  1  0.04091944  0.58504551  0.92989218  1
  O2-  O198  1  0.53535184  0.08314453  0.26293159  1
  O2-  O199  1  0.53843276  0.08285892  0.59840645  1
  O2-  O200  1  0.53823421  0.08673869  0.93724697  1
  O2-  O201  1  0.54032563  0.58668032  0.26872647  1
  O2-  O202  1  0.54680054  0.58530939  0.60511170  1
  O2-  O203  1  0.54445293  0.58321761  0.93883957  1
  O2-  O204  1  0.16966513  0.20802255  0.27382094  1
  O2-  O205  1  0.16740600  0.19737984  0.60340334  1
  O2-  O206  1  0.16988480  0.20165114  0.93781879  1
  O2-  O207  1  0.16641119  0.70476349  0.26777510  1
  O2-  O208  1  0.16321857  0.71540995  0.59349571  1
  O2-  O209  1  0.16610077  0.71554817  0.93199501  1
  O2-  O210  1  0.66521339  0.21023884  0.26318991  1
  O2-  O211  1  0.66915929  0.20423598  0.59905076  1
  O2-  O212  1  0.66072120  0.20353844  0.93667102  1
  O2-  O213  1  0.66191814  0.70458172  0.26890013  1
  O2-  O214  1  0.66963245  0.70179020  0.60752535  1
  O2-  O215  1  0.66147800  0.70424450  0.93477263  1
  O2-  O216  1  0.08110609  0.46138568  0.06574100  1
  O2-  O217  1  0.08215426  0.46446265  0.40417456  1
  O2-  O218  1  0.08280168  0.45984994  0.72660455  1
  O2-  O219  1  0.08268209  0.94780569  0.06000965  1
  O2-  O220  1  0.08636412  0.95065881  0.39707223  1
  O2-  O221  1  0.08727103  0.95366326  0.73081509  1
  O2-  O222  1  0.58205259  0.45544308  0.07076607  1
  O2-  O223  1  0.58306380  0.46151086  0.40146289  1
  O2-  O224  1  0.58377137  0.45777122  0.73375206  1
  O2-  O225  1  0.58601510  0.95798195  0.06416096  1
  O2-  O226  1  0.58112332  0.95629760  0.39870062  1
  O2-  O227  1  0.58178297  0.96118558  0.73643941  1
  O2-  O228  1  0.20495769  0.33184806  0.06850494  1
  O2-  O229  1  0.20624150  0.33603711  0.40689916  1
  O2-  O230  1  0.19364791  0.33132337  0.72651216  1
  O2-  O231  1  0.20881667  0.83822437  0.06513268  1
  O2-  O232  1  0.20626725  0.83207081  0.39630400  1
  O2-  O233  1  0.21020387  0.83778370  0.72697823  1
  O2-  O234  1  0.70649600  0.32745055  0.06674643  1
  O2-  O235  1  0.71064047  0.33235752  0.40025234  1
  O2-  O236  1  0.71206843  0.33100590  0.73267365  1
  O2-  O237  1  0.69462519  0.83120097  0.05867759  1
  O2-  O238  1  0.70517020  0.82784984  0.39980352  1
  O2-  O239  1  0.70650602  0.83223928  0.73900180  1
  O2-  O240  1  0.45015012  0.41893115  0.27219465  1
  O2-  O241  1  0.45056029  0.42532585  0.60210937  1
  O2-  O242  1  0.45325105  0.41517188  0.94319448  1
  O2-  O243  1  0.45785276  0.91226346  0.26828259  1
  O2-  O244  1  0.46070149  0.91611861  0.59853923  1
  O2-  O245  1  0.46199723  0.91137126  0.93674882  1
  O2-  O246  1  0.96107229  0.41747188  0.26633495  1
  O2-  O247  1  0.95975350  0.41365934  0.59476263  1
  O2-  O248  1  0.95799304  0.41598252  0.93214430  1
  O2-  O249  1  0.96146309  0.91803464  0.26584153  1
  O2-  O250  1  0.95586111  0.91680880  0.60439734  1
  O2-  O251  1  0.95181351  0.91814754  0.93570078  1
  O2-  O252  1  0.33133042  0.29675837  0.27456480  1
  O2-  O253  1  0.32743778  0.29647875  0.60108588  1
  O2-  O254  1  0.33619870  0.29225773  0.93986422  1
  O2-  O255  1  0.33759219  0.79410871  0.26739559  1
  O2-  O256  1  0.33582510  0.78948241  0.59549050  1
  O2-  O257  1  0.33746757  0.79784452  0.93939171  1
  O2-  O258  1  0.83340122  0.28875453  0.26370139  1
  O2-  O259  1  0.83587368  0.28554062  0.59787973  1
  O2-  O260  1  0.83296311  0.28326426  0.93264093  1
  O2-  O261  1  0.83229311  0.79165183  0.26454639  1
  O2-  O262  1  0.83193967  0.80054286  0.60859322  1
  O2-  O263  1  0.82976895  0.80148329  0.93802101  1
  O2-  O264  1  0.41495622  0.03395050  0.06810021  1
  O2-  O265  1  0.41617971  0.03596808  0.40360932  1
  O2-  O266  1  0.41122938  0.03991013  0.72913060  1
  O2-  O267  1  0.41978940  0.54885980  0.06929166  1
  O2-  O268  1  0.41603575  0.55010329  0.39823327  1
  O2-  O269  1  0.41675230  0.54851267  0.73432451  1
  O2-  O270  1  0.91967738  0.04579842  0.06659898  1
  O2-  O271  1  0.92423425  0.04711760  0.39986150  1
  O2-  O272  1  0.91707440  0.04630617  0.73192691  1
  O2-  O273  1  0.92042679  0.54787767  0.06620114  1
  O2-  O274  1  0.91711907  0.55075259  0.39390981  1
  O2-  O275  1  0.91815014  0.54347194  0.72357996  1
  O2-  O276  1  0.29493322  0.16644776  0.06955437  1
  O2-  O277  1  0.29171774  0.16560447  0.40619021  1
  O2-  O278  1  0.29367086  0.16318798  0.72845287  1
  O2-  O279  1  0.29329019  0.67292203  0.06867329  1
  O2-  O280  1  0.29645098  0.66856190  0.39559540  1
  O2-  O281  1  0.28454390  0.66849402  0.73100365  1
  O2-  O282  1  0.78427156  0.16178200  0.06845525  1
  O2-  O283  1  0.79120828  0.16880641  0.40143013  1
  O2-  O284  1  0.79512085  0.16411882  0.72988465  1
  O2-  O285  1  0.79149660  0.67015045  0.06623912  1
  O2-  O286  1  0.79402198  0.66501726  0.39618296  1
  O2-  O287  1  0.80335607  0.66618862  0.73019804  1
