# generated using pymatgen
data_Ca2Al2SiO7
_symmetry_space_group_name_H-M   'P 1'
_cell_length_a   15.45556277
_cell_length_b   15.45517295
_cell_length_c   15.28203938
_cell_angle_alpha   89.99999023
_cell_angle_beta   90.00063332
_cell_angle_gamma   89.99174600
_symmetry_Int_Tables_number   1
_chemical_formula_structural   Ca2Al2SiO7
_chemical_formula_sum   'Ca48 Al48 Si24 O168'
_cell_volume   3650.39618975
_cell_formula_units_Z   24
loop_
 _symmetry_equiv_pos_site_id
 _symmetry_equiv_pos_as_xyz
  1  'x, y, z'
loop_
 _atom_type_symbol
 _atom_type_oxidation_number
  Ca2+  2.0
  Al0+  0.0
  Si0+  0.0
  O2-  -2.0
loop_
 _atom_site_type_symbol
 _atom_site_label
 _atom_site_symmetry_multiplicity
 _atom_site_fract_x
 _atom_site_fract_y
 _atom_site_fract_z
 _atom_site_occupancy
  Ca2+  Ca0  1  0.16870533  0.07798596  0.16524682  1
  Ca2+  Ca1  1  0.17134413  0.07983508  0.51526861  1
  Ca2+  Ca2  1  0.17237416  0.07626185  0.83828652  1
  Ca2+  Ca3  1  0.16252250  0.58719206  0.16945175  1
  Ca2+  Ca4  1  0.16645319  0.58359619  0.50816179  1
  Ca2+  Ca5  1  0.16930112  0.59394872  0.83386049  1
  Ca2+  Ca6  1  0.66454743  0.07806359  0.16796379  1
  Ca2+  Ca7  1  0.66387271  0.08214051  0.49766585  1
  Ca2+  Ca8  1  0.67100381  0.07595088  0.84598488  1
  Ca2+  Ca9  1  0.66779771  0.57730756  0.17347368  1
  Ca2+  Ca10  1  0.67358003  0.57429696  0.50767208  1
  Ca2+  Ca11  1  0.67244772  0.58587207  0.83670187  1
  Ca2+  Ca12  1  0.06830544  0.33419663  0.16113287  1
  Ca2+  Ca13  1  0.08114377  0.32681543  0.49763816  1
  Ca2+  Ca14  1  0.08032513  0.32452616  0.83098286  1
  Ca2+  Ca15  1  0.08155344  0.82467910  0.15630745  1
  Ca2+  Ca16  1  0.08398308  0.82548115  0.50074470  1
  Ca2+  Ca17  1  0.07790365  0.83714787  0.82609199  1
  Ca2+  Ca18  1  0.58701353  0.32153101  0.16427332  1
  Ca2+  Ca19  1  0.57381596  0.33002273  0.49123147  1
  Ca2+  Ca20  1  0.57729603  0.32259381  0.82949581  1
  Ca2+  Ca21  1  0.58995760  0.83136251  0.15855788  1
  Ca2+  Ca22  1  0.57681098  0.83657146  0.49815291  1
  Ca2+  Ca23  1  0.58169424  0.83232794  0.83118155  1
  Ca2+  Ca24  1  0.33405810  0.41828844  0.17160939  1
  Ca2+  Ca25  1  0.33897985  0.42129802  0.50923770  1
  Ca2+  Ca26  1  0.33519326  0.41960468  0.83210780  1
  Ca2+  Ca27  1  0.33118494  0.92160650  0.16344345  1
  Ca2+  Ca28  1  0.32768611  0.92357591  0.51425869  1
  Ca2+  Ca29  1  0.32371859  0.92019299  0.83626877  1
  Ca2+  Ca30  1  0.83044426  0.41326842  0.17465628  1
  Ca2+  Ca31  1  0.83049763  0.41694164  0.50218606  1
  Ca2+  Ca32  1  0.84083207  0.42470841  0.83724782  1
  Ca2+  Ca33  1  0.82526438  0.91590283  0.16591714  1
  Ca2+  Ca34  1  0.82630274  0.90982457  0.50436678  1
  Ca2+  Ca35  1  0.83509983  0.91978835  0.84411576  1
  Ca2+  Ca36  1  0.42680622  0.16520607  0.16230491  1
  Ca2+  Ca37  1  0.41543674  0.17726220  0.49432481  1
  Ca2+  Ca38  1  0.41658308  0.16169279  0.82808446  1
  Ca2+  Ca39  1  0.42717350  0.66946106  0.15924033  1
  Ca2+  Ca40  1  0.40650403  0.67492336  0.50199437  1
  Ca2+  Ca41  1  0.42111197  0.67195091  0.82654142  1
  Ca2+  Ca42  1  0.90436809  0.17777507  0.16133818  1
  Ca2+  Ca43  1  0.92526935  0.16824297  0.49755509  1
  Ca2+  Ca44  1  0.91686473  0.16810401  0.83027609  1
  Ca2+  Ca45  1  0.92645561  0.67267751  0.15710482  1
  Ca2+  Ca46  1  0.92440402  0.66533464  0.50178818  1
  Ca2+  Ca47  1  0.92497798  0.67993804  0.82689346  1
  Al0+  Al48  1  0.00049284  0.00241356  0.00922178  1
  Al0+  Al49  1  -0.00037315  -0.00207379  0.33404712  1
  Al0+  Al50  1  -0.00283621  0.00027492  0.65972299  1
  Al0+  Al51  1  0.00127383  0.50036152  -0.00738999  1
  Al0+  Al52  1  0.00236518  0.50017854  0.32742242  1
  Al0+  Al53  1  -0.00174853  0.49995881  0.66872910  1
  Al0+  Al54  1  0.49961907  -0.00000677  0.00303093  1
  Al0+  Al55  1  0.49897254  0.00068559  0.33509184  1
  Al0+  Al56  1  0.50126320  -0.00140095  0.66559310  1
  Al0+  Al57  1  0.50038492  0.50024323  -0.00362403  1
  Al0+  Al58  1  0.49963837  0.50181609  0.33601073  1
  Al0+  Al59  1  0.50060083  0.49736422  0.66910273  1
  Al0+  Al60  1  0.24912319  0.25354507  0.00685415  1
  Al0+  Al61  1  0.24911061  0.25121860  0.32923159  1
  Al0+  Al62  1  0.25080005  0.25100794  0.66286034  1
  Al0+  Al63  1  0.25326679  0.74896834  0.00358230  1
  Al0+  Al64  1  0.25019287  0.75088301  0.32811246  1
  Al0+  Al65  1  0.25067685  0.74935736  0.66748390  1
  Al0+  Al66  1  0.74710157  0.25141053  -0.00856821  1
  Al0+  Al67  1  0.74958028  0.24939821  0.33413190  1
  Al0+  Al68  1  0.74792684  0.24866890  0.66618430  1
  Al0+  Al69  1  0.75255510  0.74803805  -0.00293569  1
  Al0+  Al70  1  0.75044242  0.75099020  0.33983612  1
  Al0+  Al71  1  0.75046790  0.74717735  0.66670446  1
  Al0+  Al72  1  0.32222620  0.07319194  0.68006105  1
  Al0+  Al73  1  0.92697778  0.32003384  0.98468698  1
  Al0+  Al74  1  0.67872094  0.42809431  0.34682566  1
  Al0+  Al75  1  0.32071515  0.57051743  0.68054180  1
  Al0+  Al76  1  0.57260937  0.67743925  0.98698675  1
  Al0+  Al77  1  0.43005902  0.31987927  0.65397640  1
  Al0+  Al78  1  0.92658519  0.82262384  0.64941201  1
  Al0+  Al79  1  0.56822718  0.17790122  0.98483670  1
  Al0+  Al80  1  0.32149769  0.07392778  0.01686955  1
  Al0+  Al81  1  0.68044886  0.92675913  0.01343339  1
  Al0+  Al82  1  0.82117347  0.07469246  0.01452043  1
  Al0+  Al83  1  0.43056867  0.81998677  0.65442203  1
  Al0+  Al84  1  0.17841890  0.92751020  0.01659118  1
  Al0+  Al85  1  0.93123535  0.31858147  0.32176418  1
  Al0+  Al86  1  0.07160982  0.67903111  0.65157316  1
  Al0+  Al87  1  0.56925753  0.17875523  0.31766666  1
  Al0+  Al88  1  0.07368287  0.67967327  0.98284446  1
  Al0+  Al89  1  0.07003751  0.17953388  0.65558867  1
  Al0+  Al90  1  0.07066414  0.68128855  0.31853492  1
  Al0+  Al91  1  0.42755907  0.32487464  0.31660638  1
  Al0+  Al92  1  0.17705325  0.92916737  0.67976501  1
  Al0+  Al93  1  0.93093181  0.82384339  0.98695505  1
  Al0+  Al94  1  0.67853834  0.92880279  0.34950520  1
  Al0+  Al95  1  0.82132668  0.56951736  0.68206866  1
  Si0+  Si96  1  0.81975665  0.07152596  0.67999410  1
  Si0+  Si97  1  0.82388513  0.57102831  0.34913770  1
  Si0+  Si98  1  0.07291906  0.17464786  0.31555090  1
  Si0+  Si99  1  0.82250838  0.56888914  0.01520156  1
  Si0+  Si100  1  0.57228750  0.68041451  0.32181600  1
  Si0+  Si101  1  0.31892657  0.07118925  0.34905833  1
  Si0+  Si102  1  0.32317395  0.56978574  0.01609036  1
  Si0+  Si103  1  0.17670075  0.42729456  0.68321031  1
  Si0+  Si104  1  0.07377411  0.17952331  0.98645105  1
  Si0+  Si105  1  0.57310339  0.17619601  0.64862670  1
  Si0+  Si106  1  0.17804327  0.42987839  0.34740446  1
  Si0+  Si107  1  0.17787444  0.43063098  0.01639128  1
  Si0+  Si108  1  0.42954258  0.82166908  0.98408094  1
  Si0+  Si109  1  0.17966943  0.92760874  0.34905168  1
  Si0+  Si110  1  0.92629932  0.32213361  0.65011485  1
  Si0+  Si111  1  0.67807493  0.43064422  0.01373500  1
  Si0+  Si112  1  0.92521866  0.82228298  0.31559950  1
  Si0+  Si113  1  0.57236388  0.67656705  0.64873417  1
  Si0+  Si114  1  0.67894378  0.92823996  0.68139068  1
  Si0+  Si115  1  0.42609157  0.32260966  0.98317297  1
  Si0+  Si116  1  0.32052305  0.57188548  0.34769170  1
  Si0+  Si117  1  0.42933218  0.82108354  0.31779881  1
  Si0+  Si118  1  0.82261598  0.07241965  0.35210099  1
  Si0+  Si119  1  0.67815041  0.42619352  0.68600246  1
  O2-  O120  1  0.24943464  0.00138302  0.06682024  1
  O2-  O121  1  0.24449913  0.00399631  0.39153363  1
  O2-  O122  1  0.24898933  0.00201739  0.72865320  1
  O2-  O123  1  0.24908752  0.50215367  0.05844682  1
  O2-  O124  1  0.25260901  0.49744236  0.38930122  1
  O2-  O125  1  0.24330091  0.49840100  0.72746543  1
  O2-  O126  1  0.75107646  0.00010647  0.06414500  1
  O2-  O127  1  0.75518056  0.00194500  0.39632530  1
  O2-  O128  1  0.75061353  -0.00116620  0.72197344  1
  O2-  O129  1  0.75084866  0.49889501  0.05828708  1
  O2-  O130  1  0.75442436  0.50250775  0.39302121  1
  O2-  O131  1  0.74827764  0.49329727  0.73011868  1
  O2-  O132  1  0.00197192  0.24152565  0.27232035  1
  O2-  O133  1  -0.00386279  0.25457572  0.60672756  1
  O2-  O134  1  -0.00049809  0.24182935  0.94118285  1
  O2-  O135  1  -0.00436962  0.75518627  0.27234873  1
  O2-  O136  1  0.00029465  0.75121018  0.60062123  1
  O2-  O137  1  0.00707913  0.75726728  0.93544949  1
  O2-  O138  1  0.49921256  0.25286610  0.26699824  1
  O2-  O139  1  0.50235476  0.24371277  0.60642830  1
  O2-  O140  1  0.48882074  0.24845881  0.93934232  1
  O2-  O141  1  0.50400172  0.75287458  0.27714090  1
  O2-  O142  1  0.50280370  0.74402595  0.60383930  1
  O2-  O143  1  0.50120980  0.75521076  0.94128659  1
  O2-  O144  1  0.07609508  0.18586475  0.09211685  1
  O2-  O145  1  0.07403365  0.17664031  0.42132711  1
  O2-  O146  1  0.06785295  0.18063740  0.76858434  1
  O2-  O147  1  0.06936023  0.67733202  0.09701441  1
  O2-  O148  1  0.07274968  0.68057078  0.43111064  1
  O2-  O149  1  0.07014489  0.68060052  0.76435385  1
  O2-  O150  1  0.57030725  0.18072492  0.09770690  1
  O2-  O151  1  0.56560573  0.17869421  0.43151200  1
  O2-  O152  1  0.57577243  0.17717636  0.75405863  1
  O2-  O153  1  0.56968201  0.67406554  0.10093914  1
  O2-  O154  1  0.57029788  0.68029793  0.42660032  1
  O2-  O155  1  0.57240954  0.67859500  0.75443416  1
  O2-  O156  1  0.17611033  0.43279394  0.24225999  1
  O2-  O157  1  0.17698923  0.42723643  0.57709484  1
  O2-  O158  1  0.17909457  0.42701039  0.91166608  1
  O2-  O159  1  0.18292900  0.92652080  0.24427847  1
  O2-  O160  1  0.18028280  0.93077525  0.56517136  1
  O2-  O161  1  0.17987427  0.92784456  0.90332786  1
  O2-  O162  1  0.68026377  0.43078103  0.23329870  1
  O2-  O163  1  0.67893202  0.42684441  0.58007862  1
  O2-  O164  1  0.67699277  0.43341279  0.90881187  1
  O2-  O165  1  0.67968387  0.92546035  0.23710044  1
  O2-  O166  1  0.67792309  0.93008323  0.57593147  1
  O2-  O167  1  0.68046404  0.92794526  0.89957150  1
  O2-  O168  1  0.42978737  0.32658751  0.08856393  1
  O2-  O169  1  0.42769221  0.32419075  0.43024467  1
  O2-  O170  1  0.43265325  0.32116366  0.76699383  1
  O2-  O171  1  0.42885877  0.81782751  0.09049227  1
  O2-  O172  1  0.42671032  0.81928436  0.42290538  1
  O2-  O173  1  0.43432886  0.81964014  0.76713093  1
  O2-  O174  1  0.92770980  0.32272178  0.09815814  1
  O2-  O175  1  0.93493061  0.31902130  0.43490303  1
  O2-  O176  1  0.92596961  0.32017032  0.75561298  1
  O2-  O177  1  0.92822280  0.81704377  0.10090919  1
  O2-  O178  1  0.92484192  0.82116330  0.42098566  1
  O2-  O179  1  0.92474945  0.82422368  0.76244612  1
  O2-  O180  1  0.31929590  0.06862014  0.24417689  1
  O2-  O181  1  0.32077775  0.07255943  0.56562542  1
  O2-  O182  1  0.31935332  0.07415823  0.90358306  1
  O2-  O183  1  0.32072551  0.57280088  0.24236530  1
  O2-  O184  1  0.32068925  0.56860196  0.56680347  1
  O2-  O185  1  0.32566110  0.56797593  0.91137362  1
  O2-  O186  1  0.82206596  0.07349185  0.24699753  1
  O2-  O187  1  0.81734111  0.07495839  0.57483301  1
  O2-  O188  1  0.81878053  0.07486593  0.90033268  1
  O2-  O189  1  0.82190711  0.57136827  0.24324408  1
  O2-  O190  1  0.81956057  0.56641488  0.56830043  1
  O2-  O191  1  0.82100696  0.56721949  0.91034329  1
  O2-  O192  1  0.05042352  0.07937527  0.27186461  1
  O2-  O193  1  0.03766211  0.08647809  0.59576412  1
  O2-  O194  1  0.05562510  0.08306674  0.94564716  1
  O2-  O195  1  0.04206823  0.58465020  0.26351312  1
  O2-  O196  1  0.04131095  0.57923321  0.60016470  1
  O2-  O197  1  0.04299900  0.58293465  0.92923386  1
  O2-  O198  1  0.53813696  0.08042523  0.26554173  1
  O2-  O199  1  0.55068624  0.08200372  0.60332715  1
  O2-  O200  1  0.54142794  0.07974427  0.93229740  1
  O2-  O201  1  0.54245657  0.58976803  0.27323130  1
  O2-  O202  1  0.54836334  0.58153372  0.60577534  1
  O2-  O203  1  0.53760646  0.58364252  0.93001041  1
  O2-  O204  1  0.16521283  0.20214866  0.26864313  1
  O2-  O205  1  0.16506186  0.21104949  0.59842727  1
  O2-  O206  1  0.16466340  0.21348347  0.93952378  1
  O2-  O207  1  0.16681313  0.71264702  0.26282711  1
  O2-  O208  1  0.17091397  0.70425378  0.59885085  1
  O2-  O209  1  0.17693051  0.69952321  0.93795707  1
  O2-  O210  1  0.66904510  0.20529930  0.26749642  1
  O2-  O211  1  0.66545265  0.20478035  0.60054339  1
  O2-  O212  1  0.66088812  0.21377900  0.92670910  1
  O2-  O213  1  0.66553699  0.70525806  0.27560308  1
  O2-  O214  1  0.66499436  0.70275779  0.60177386  1
  O2-  O215  1  0.66937103  0.70374727  0.93255334  1
  O2-  O216  1  0.08590675  0.46078858  0.06313967  1
  O2-  O217  1  0.08796504  0.46083291  0.39658088  1
  O2-  O218  1  0.08198076  0.44774769  0.72861267  1
  O2-  O219  1  0.08146798  0.95440290  0.07396872  1
  O2-  O220  1  0.08449444  0.94759259  0.39341643  1
  O2-  O221  1  0.07713067  0.95850699  0.72817523  1
  O2-  O222  1  0.58702782  0.46053040  0.06186258  1
  O2-  O223  1  0.58303963  0.46169076  0.40212193  1
  O2-  O224  1  0.58591573  0.45324187  0.73330059  1
  O2-  O225  1  0.58127028  0.95228589  0.06617251  1
  O2-  O226  1  0.58136688  0.96060867  0.40334761  1
  O2-  O227  1  0.58802258  0.95628728  0.72961698  1
  O2-  O228  1  0.20425500  0.34106657  0.06899523  1
  O2-  O229  1  0.20076617  0.33557407  0.39297627  1
  O2-  O230  1  0.20679780  0.33553493  0.73007190  1
  O2-  O231  1  0.21216960  0.83002204  0.07118304  1
  O2-  O232  1  0.21402511  0.83719908  0.39546222  1
  O2-  O233  1  0.20674702  0.83166522  0.73196090  1
  O2-  O234  1  0.70513281  0.33793470  0.05855286  1
  O2-  O235  1  0.70897384  0.33219236  0.40238737  1
  O2-  O236  1  0.70208922  0.33130027  0.73046292  1
  O2-  O237  1  0.70947327  0.82746728  0.06660647  1
  O2-  O238  1  0.70739189  0.83217905  0.40639375  1
  O2-  O239  1  0.70329193  0.83467562  0.72582283  1
  O2-  O240  1  0.45408588  0.42531703  0.26649776  1
  O2-  O241  1  0.46345350  0.41593407  0.59928629  1
  O2-  O242  1  0.45768935  0.41351953  0.93499222  1
  O2-  O243  1  0.45455566  0.91364238  0.27204345  1
  O2-  O244  1  0.46318702  0.91522018  0.59730744  1
  O2-  O245  1  0.45127693  0.91591344  0.93967620  1
  O2-  O246  1  0.96372063  0.41354492  0.26509458  1
  O2-  O247  1  0.95049895  0.41573202  0.60466741  1
  O2-  O248  1  0.96381526  0.41377380  0.92947796  1
  O2-  O249  1  0.94816012  0.91740892  0.27185281  1
  O2-  O250  1  0.95012049  0.92069907  0.59342865  1
  O2-  O251  1  0.95279700  0.92620714  0.93958570  1
  O2-  O252  1  0.32772170  0.29914562  0.26489152  1
  O2-  O253  1  0.33315577  0.29522073  0.59745644  1
  O2-  O254  1  0.32933495  0.30426405  0.94140707  1
  O2-  O255  1  0.34057963  0.78899857  0.26728585  1
  O2-  O256  1  0.33485933  0.78918167  0.59849066  1
  O2-  O257  1  0.33799146  0.79096998  0.93815874  1
  O2-  O258  1  0.83348844  0.29117228  0.26864232  1
  O2-  O259  1  0.83267443  0.29475913  0.60448787  1
  O2-  O260  1  0.83103123  0.29518205  0.92748154  1
  O2-  O261  1  0.83145906  0.79438398  0.27112689  1
  O2-  O262  1  0.82899079  0.78846787  0.59652692  1
  O2-  O263  1  0.83473668  0.79076942  0.93260804  1
  O2-  O264  1  0.41855215  0.04229236  0.07112331  1
  O2-  O265  1  0.40945557  0.04100156  0.39696263  1
  O2-  O266  1  0.42119186  0.04326982  0.73077777  1
  O2-  O267  1  0.41379036  0.53773413  0.06492758  1
  O2-  O268  1  0.41268239  0.54930534  0.39674661  1
  O2-  O269  1  0.41695521  0.53752034  0.73490706  1
  O2-  O270  1  0.92031448  0.05584375  0.06988287  1
  O2-  O271  1  0.91782190  0.04811486  0.39724785  1
  O2-  O272  1  0.91222377  0.04602949  0.72586330  1
  O2-  O273  1  0.91465292  0.53919091  0.06098961  1
  O2-  O274  1  0.91740454  0.54216620  0.39347904  1
  O2-  O275  1  0.91704589  0.53927224  0.73790389  1
  O2-  O276  1  0.29416747  0.17270544  0.07120478  1
  O2-  O277  1  0.29401088  0.16580782  0.39299778  1
  O2-  O278  1  0.29573266  0.17256122  0.73113860  1
  O2-  O279  1  0.30096222  0.66183714  0.06589366  1
  O2-  O280  1  0.28902855  0.66367122  0.39366093  1
  O2-  O281  1  0.29398647  0.66707927  0.73567881  1
  O2-  O282  1  0.78675040  0.17354802  0.06436262  1
  O2-  O283  1  0.79584204  0.16488544  0.40008562  1
  O2-  O284  1  0.79164300  0.16314438  0.72845911  1
  O2-  O285  1  0.79512078  0.66024656  0.06305797  1
  O2-  O286  1  0.79863285  0.66379835  0.39675868  1
  O2-  O287  1  0.78769261  0.66520823  0.73622325  1
