# generated using pymatgen
data_Ca2Al2SiO7
_symmetry_space_group_name_H-M   'P 1'
_cell_length_a   15.46290350
_cell_length_b   15.46443967
_cell_length_c   15.28772523
_cell_angle_alpha   90.01570145
_cell_angle_beta   90.02059922
_cell_angle_gamma   89.98184585
_symmetry_Int_Tables_number   1
_chemical_formula_structural   Ca2Al2SiO7
_chemical_formula_sum   'Ca48 Al48 Si24 O168'
_cell_volume   3655.67885353
_cell_formula_units_Z   24
loop_
 _symmetry_equiv_pos_site_id
 _symmetry_equiv_pos_as_xyz
  1  'x, y, z'
loop_
 _atom_type_symbol
 _atom_type_oxidation_number
  Ca2+  2.0
  Al0+  0.0
  Si0+  0.0
  O2-  -2.0
loop_
 _atom_site_type_symbol
 _atom_site_label
 _atom_site_symmetry_multiplicity
 _atom_site_fract_x
 _atom_site_fract_y
 _atom_site_fract_z
 _atom_site_occupancy
  Ca2+  Ca0  1  0.16973261  0.08322984  0.17937460  1
  Ca2+  Ca1  1  0.16548243  0.08168613  0.50496760  1
  Ca2+  Ca2  1  0.15933765  0.08148850  0.83476469  1
  Ca2+  Ca3  1  0.16525883  0.56806309  0.16993611  1
  Ca2+  Ca4  1  0.16960735  0.57693741  0.50699116  1
  Ca2+  Ca5  1  0.16795325  0.58247139  0.83396547  1
  Ca2+  Ca6  1  0.66054078  0.08495410  0.16700062  1
  Ca2+  Ca7  1  0.66629868  0.08614923  0.50917954  1
  Ca2+  Ca8  1  0.66212049  0.07854267  0.83670285  1
  Ca2+  Ca9  1  0.66839215  0.57508932  0.16770172  1
  Ca2+  Ca10  1  0.67017366  0.57294211  0.50990455  1
  Ca2+  Ca11  1  0.66824142  0.56826122  0.83713994  1
  Ca2+  Ca12  1  0.08286495  0.32851676  0.15763959  1
  Ca2+  Ca13  1  0.07840764  0.32604420  0.48925054  1
  Ca2+  Ca14  1  0.07708282  0.32730136  0.82782315  1
  Ca2+  Ca15  1  0.08638462  0.83457223  0.16500800  1
  Ca2+  Ca16  1  0.09207097  0.83118063  0.50183295  1
  Ca2+  Ca17  1  0.07905173  0.82838485  0.81704265  1
  Ca2+  Ca18  1  0.57901379  0.32301831  0.16165485  1
  Ca2+  Ca19  1  0.58015319  0.32452876  0.49405231  1
  Ca2+  Ca20  1  0.59363791  0.32463642  0.82748547  1
  Ca2+  Ca21  1  0.57608477  0.83448050  0.15576576  1
  Ca2+  Ca22  1  0.57563731  0.83964935  0.50140672  1
  Ca2+  Ca23  1  0.57356513  0.84148030  0.82750801  1
  Ca2+  Ca24  1  0.32220645  0.40697875  0.17218114  1
  Ca2+  Ca25  1  0.33007760  0.41601544  0.50339922  1
  Ca2+  Ca26  1  0.32765747  0.42397891  0.83719606  1
  Ca2+  Ca27  1  0.32967554  0.92488803  0.17406952  1
  Ca2+  Ca28  1  0.32501606  0.92333559  0.50464354  1
  Ca2+  Ca29  1  0.33167002  0.91395653  0.83360578  1
  Ca2+  Ca30  1  0.83169990  0.40262810  0.16604928  1
  Ca2+  Ca31  1  0.83016856  0.40511745  0.50597897  1
  Ca2+  Ca32  1  0.82861007  0.40510703  0.83569788  1
  Ca2+  Ca33  1  0.82535231  0.92091952  0.17056770  1
  Ca2+  Ca34  1  0.82684221  0.92012838  0.51213059  1
  Ca2+  Ca35  1  0.82270308  0.91327960  0.83703550  1
  Ca2+  Ca36  1  0.42053703  0.16604755  0.16828548  1
  Ca2+  Ca37  1  0.42764926  0.16355982  0.49390879  1
  Ca2+  Ca38  1  0.42894668  0.16697437  0.83061235  1
  Ca2+  Ca39  1  0.41510205  0.67600505  0.16172179  1
  Ca2+  Ca40  1  0.40850498  0.67063773  0.50398702  1
  Ca2+  Ca41  1  0.41204048  0.67715547  0.82519307  1
  Ca2+  Ca42  1  0.93064926  0.17539812  0.16337850  1
  Ca2+  Ca43  1  0.92634451  0.17458164  0.49937064  1
  Ca2+  Ca44  1  0.92546346  0.17461096  0.82934044  1
  Ca2+  Ca45  1  0.91810533  0.66889541  0.16427169  1
  Ca2+  Ca46  1  0.91919508  0.67333180  0.50399973  1
  Ca2+  Ca47  1  0.92308587  0.67282794  0.82450198  1
  Al0+  Al48  1  -0.00212631  -0.00043986  -0.00121758  1
  Al0+  Al49  1  -0.00432139  -0.00171372  0.33353760  1
  Al0+  Al50  1  -0.00124216  0.00167272  0.66509938  1
  Al0+  Al51  1  0.00043272  0.50166081  -0.00001623  1
  Al0+  Al52  1  -0.00135245  0.50347686  0.33457935  1
  Al0+  Al53  1  -0.00138995  0.50165008  0.65997311  1
  Al0+  Al54  1  0.49817041  -0.00047787  -0.00310305  1
  Al0+  Al55  1  0.49794959  -0.00253214  0.33285204  1
  Al0+  Al56  1  0.49912658  0.00027661  0.66191714  1
  Al0+  Al57  1  0.50118753  0.50186651  0.00652816  1
  Al0+  Al58  1  0.50127118  0.50113214  0.32936700  1
  Al0+  Al59  1  0.49956178  0.50106918  0.67736044  1
  Al0+  Al60  1  0.25259072  0.24887338  -0.00190117  1
  Al0+  Al61  1  0.25318054  0.24901382  0.33816094  1
  Al0+  Al62  1  0.25232905  0.24991634  0.66700975  1
  Al0+  Al63  1  0.25035327  0.75134373  -0.00217372  1
  Al0+  Al64  1  0.24935553  0.74935082  0.33342870  1
  Al0+  Al65  1  0.25059952  0.75108447  0.66566735  1
  Al0+  Al66  1  0.75135377  0.24808789  -0.00044139  1
  Al0+  Al67  1  0.75077000  0.24741270  0.32718672  1
  Al0+  Al68  1  0.75094409  0.24726223  0.66424672  1
  Al0+  Al69  1  0.74806916  0.74848387  0.00524900  1
  Al0+  Al70  1  0.74998961  0.74815489  0.33325314  1
  Al0+  Al71  1  0.74831134  0.74801807  0.66850802  1
  Al0+  Al72  1  0.93067415  0.32373066  0.31679670  1
  Al0+  Al73  1  0.92946457  0.32070620  0.65179415  1
  Al0+  Al74  1  0.42921491  0.32422832  0.31890491  1
  Al0+  Al75  1  0.32222491  0.07128816  0.34967409  1
  Al0+  Al76  1  0.07232092  0.68007067  0.65013655  1
  Al0+  Al77  1  0.57057578  0.17670038  0.31721682  1
  Al0+  Al78  1  0.17940250  0.93240016  0.68095570  1
  Al0+  Al79  1  0.93114024  0.32227125  0.98391957  1
  Al0+  Al80  1  0.17896453  0.42880361  0.34673521  1
  Al0+  Al81  1  0.18104011  0.43000677  0.01128166  1
  Al0+  Al82  1  0.68007846  0.42606960  0.01612860  1
  Al0+  Al83  1  0.42976054  0.82074573  0.65067197  1
  Al0+  Al84  1  0.68139725  0.42736354  0.67872351  1
  Al0+  Al85  1  0.31945799  0.57091473  0.68065623  1
  Al0+  Al86  1  0.17641119  0.92832521  0.34822388  1
  Al0+  Al87  1  0.67782808  0.93040450  0.01408768  1
  Al0+  Al88  1  0.42996239  0.81944037  0.98555086  1
  Al0+  Al89  1  0.56917978  0.18055251  0.65374243  1
  Al0+  Al90  1  0.56937779  0.18069829  0.98549098  1
  Al0+  Al91  1  0.92561171  0.82191635  0.65292223  1
  Al0+  Al92  1  0.67781043  0.92878849  0.67975346  1
  Al0+  Al93  1  0.07200497  0.17775832  0.31979744  1
  Al0+  Al94  1  0.07453594  0.17923783  0.65071776  1
  Al0+  Al95  1  0.07524853  0.17699582  0.98488416  1
  Si0+  Si96  1  0.32070583  0.06934038  0.01347664  1
  Si0+  Si97  1  0.82208549  0.57211381  0.01802029  1
  Si0+  Si98  1  0.82336877  0.07072039  0.01918282  1
  Si0+  Si99  1  0.82066212  0.57423767  0.35064020  1
  Si0+  Si100  1  0.67878582  0.92673289  0.34787288  1
  Si0+  Si101  1  0.32134292  0.57536185  0.01792715  1
  Si0+  Si102  1  0.07024593  0.68132816  0.98633621  1
  Si0+  Si103  1  0.82145236  0.07155492  0.68495502  1
  Si0+  Si104  1  0.92542368  0.81999262  0.31689059  1
  Si0+  Si105  1  0.57408168  0.67899191  0.31744312  1
  Si0+  Si106  1  0.42907866  0.81795810  0.31792581  1
  Si0+  Si107  1  0.42873798  0.32589812  0.65324611  1
  Si0+  Si108  1  0.17692297  0.92834755  0.01305124  1
  Si0+  Si109  1  0.57051195  0.67522391  0.65148579  1
  Si0+  Si110  1  0.17597275  0.42733061  0.68242869  1
  Si0+  Si111  1  0.07136597  0.68098993  0.31635066  1
  Si0+  Si112  1  0.57350558  0.67659568  0.98245442  1
  Si0+  Si113  1  0.68142089  0.42896555  0.34673221  1
  Si0+  Si114  1  0.82307640  0.57269940  0.68386297  1
  Si0+  Si115  1  0.32361857  0.07306291  0.68564421  1
  Si0+  Si116  1  0.42818916  0.32525716  0.98274226  1
  Si0+  Si117  1  0.81843256  0.07034108  0.34911078  1
  Si0+  Si118  1  0.92619670  0.82065419  0.98728595  1
  Si0+  Si119  1  0.32324701  0.57274876  0.34855691  1
  O2-  O120  1  0.24322924  0.00369261  0.05437004  1
  O2-  O121  1  0.24374316  0.00473235  0.39768055  1
  O2-  O122  1  0.25059838  0.00899668  0.73050984  1
  O2-  O123  1  0.25795588  0.50191603  0.06132093  1
  O2-  O124  1  0.25812671  0.50057199  0.39156693  1
  O2-  O125  1  0.24422408  0.49673486  0.72701470  1
  O2-  O126  1  0.75240061  0.00332042  0.06348730  1
  O2-  O127  1  0.74476421  0.00115766  0.39076901  1
  O2-  O128  1  0.75534082  -0.00075395  0.72813801  1
  O2-  O129  1  0.75633813  0.50046317  0.06251037  1
  O2-  O130  1  0.75492317  0.49715876  0.39018716  1
  O2-  O131  1  0.75801851  0.50013133  0.72656395  1
  O2-  O132  1  0.00849587  0.25697805  0.26828408  1
  O2-  O133  1  0.00758123  0.25621295  0.60171537  1
  O2-  O134  1  0.00512841  0.25139051  0.93637854  1
  O2-  O135  1  0.00141051  0.75393483  0.27451841  1
  O2-  O136  1  0.00087288  0.75404357  0.60104559  1
  O2-  O137  1  0.00015735  0.75341050  0.94511214  1
  O2-  O138  1  0.49904806  0.24991484  0.26864859  1
  O2-  O139  1  0.49582029  0.25649283  0.60824355  1
  O2-  O140  1  0.50173546  0.26198218  0.93845447  1
  O2-  O141  1  0.50174126  0.74874088  0.27550772  1
  O2-  O142  1  0.50563627  0.74619140  0.60462646  1
  O2-  O143  1  0.50396615  0.74405491  0.93872771  1
  O2-  O144  1  0.07556986  0.17520601  0.09839265  1
  O2-  O145  1  0.06655626  0.17654859  0.43271324  1
  O2-  O146  1  0.07235749  0.17977294  0.76437124  1
  O2-  O147  1  0.06998727  0.68275016  0.09186866  1
  O2-  O148  1  0.07189394  0.68112875  0.42076496  1
  O2-  O149  1  0.07051375  0.68087860  0.76457893  1
  O2-  O150  1  0.56462435  0.17897891  0.09826851  1
  O2-  O151  1  0.57234847  0.17847997  0.43078717  1
  O2-  O152  1  0.56872262  0.18012836  0.76698475  1
  O2-  O153  1  0.57357997  0.67859369  0.08876882  1
  O2-  O154  1  0.57760055  0.67898681  0.42206533  1
  O2-  O155  1  0.56831104  0.67438132  0.75683682  1
  O2-  O156  1  0.17801512  0.43266178  0.23315213  1
  O2-  O157  1  0.17826942  0.42828720  0.57689485  1
  O2-  O158  1  0.18174956  0.43495890  0.89843697  1
  O2-  O159  1  0.18114642  0.92472706  0.23359075  1
  O2-  O160  1  0.18273613  0.93142086  0.56831298  1
  O2-  O161  1  0.17757512  0.92455323  0.90841255  1
  O2-  O162  1  0.68184157  0.43221262  0.24168998  1
  O2-  O163  1  0.68027731  0.42966473  0.56504260  1
  O2-  O164  1  0.68085050  0.42826199  0.90314450  1
  O2-  O165  1  0.68132166  0.92400129  0.24258957  1
  O2-  O166  1  0.67797402  0.93126384  0.56600776  1
  O2-  O167  1  0.67937841  0.93034669  0.90141658  1
  O2-  O168  1  0.42642114  0.32208941  0.08813169  1
  O2-  O169  1  0.43638986  0.33163613  0.43216453  1
  O2-  O170  1  0.42935197  0.32529380  0.75908035  1
  O2-  O171  1  0.42995591  0.81783519  0.09936646  1
  O2-  O172  1  0.42951245  0.81671488  0.42262757  1
  O2-  O173  1  0.43073147  0.82034740  0.76382011  1
  O2-  O174  1  0.93406587  0.32078996  0.09742066  1
  O2-  O175  1  0.92828669  0.32066930  0.42990188  1
  O2-  O176  1  0.92893964  0.31791460  0.76517054  1
  O2-  O177  1  0.92673222  0.81915007  0.09286620  1
  O2-  O178  1  0.91791799  0.81609961  0.42086813  1
  O2-  O179  1  0.92574195  0.81744116  0.76724208  1
  O2-  O180  1  0.32599138  0.06466449  0.23535510  1
  O2-  O181  1  0.32610096  0.07020654  0.58049105  1
  O2-  O182  1  0.32359651  0.06664369  0.90862811  1
  O2-  O183  1  0.32007884  0.57810574  0.24298094  1
  O2-  O184  1  0.32005081  0.56810582  0.56728274  1
  O2-  O185  1  0.31822967  0.57864227  0.91267427  1
  O2-  O186  1  0.81924478  0.06680246  0.24395661  1
  O2-  O187  1  0.81788064  0.07231551  0.57892625  1
  O2-  O188  1  0.82576887  0.06717979  0.91401138  1
  O2-  O189  1  0.81701011  0.58237486  0.24586467  1
  O2-  O190  1  0.81910799  0.57668684  0.57817548  1
  O2-  O191  1  0.82038328  0.57738547  0.91310832  1
  O2-  O192  1  0.03693549  0.08005884  0.26692350  1
  O2-  O193  1  0.04202434  0.08222637  0.59847042  1
  O2-  O194  1  0.04271648  0.07841025  0.93327374  1
  O2-  O195  1  0.03930319  0.59125688  0.26745233  1
  O2-  O196  1  0.04362003  0.58304444  0.59513495  1
  O2-  O197  1  0.04199931  0.59087939  0.93794064  1
  O2-  O198  1  0.54197339  0.07700982  0.26589009  1
  O2-  O199  1  0.53751404  0.08570571  0.59763350  1
  O2-  O200  1  0.53319979  0.08597100  0.93156874  1
  O2-  O201  1  0.54751942  0.58812556  0.26754951  1
  O2-  O202  1  0.54085288  0.58277622  0.60489624  1
  O2-  O203  1  0.54963131  0.58163187  0.93895708  1
  O2-  O204  1  0.17501341  0.19633643  0.27404638  1
  O2-  O205  1  0.17612092  0.20078574  0.60140242  1
  O2-  O206  1  0.17447208  0.20145215  0.93209644  1
  O2-  O207  1  0.16294745  0.70780752  0.26722553  1
  O2-  O208  1  0.16963337  0.70920307  0.59666423  1
  O2-  O209  1  0.16177426  0.70850249  0.93882256  1
  O2-  O210  1  0.66829902  0.20438321  0.26321033  1
  O2-  O211  1  0.66544214  0.20940292  0.59942242  1
  O2-  O212  1  0.66868702  0.20402858  0.93457226  1
  O2-  O213  1  0.66420396  0.70899803  0.26729872  1
  O2-  O214  1  0.66532062  0.69655106  0.60655212  1
  O2-  O215  1  0.66754206  0.70210061  0.93830537  1
  O2-  O216  1  0.08575666  0.46522864  0.06613258  1
  O2-  O217  1  0.08341512  0.46541409  0.39976395  1
  O2-  O218  1  0.08162892  0.45450477  0.72578845  1
  O2-  O219  1  0.08274305  0.94906236  0.05974606  1
  O2-  O220  1  0.07360961  0.94562481  0.39594004  1
  O2-  O221  1  0.08015407  0.95760710  0.73352433  1
  O2-  O222  1  0.58391720  0.45896388  0.07150380  1
  O2-  O223  1  0.59033136  0.46107908  0.39281924  1
  O2-  O224  1  0.58718961  0.45963663  0.73662112  1
  O2-  O225  1  0.58081003  0.96161315  0.06739269  1
  O2-  O226  1  0.58467321  0.94855738  0.39205576  1
  O2-  O227  1  0.58156712  0.96313300  0.73205931  1
  O2-  O228  1  0.21134887  0.33228439  0.06408424  1
  O2-  O229  1  0.20660721  0.33269662  0.40168983  1
  O2-  O230  1  0.20313167  0.33433863  0.72906799  1
  O2-  O231  1  0.20887125  0.83789702  0.06206817  1
  O2-  O232  1  0.21070866  0.83073170  0.39981338  1
  O2-  O233  1  0.21244367  0.83569482  0.73385832  1
  O2-  O234  1  0.71031658  0.32933947  0.07009962  1
  O2-  O235  1  0.70707261  0.33532725  0.39127013  1
  O2-  O236  1  0.71303841  0.33092175  0.73233300  1
  O2-  O237  1  0.70715732  0.83291697  0.06899627  1
  O2-  O238  1  0.71032630  0.83593259  0.39501998  1
  O2-  O239  1  0.70336801  0.83013244  0.73286441  1
  O2-  O240  1  0.45711486  0.42224321  0.26263612  1
  O2-  O241  1  0.45521977  0.41967509  0.60908827  1
  O2-  O242  1  0.44785041  0.42282018  0.94264981  1
  O2-  O243  1  0.45650475  0.90900527  0.26954637  1
  O2-  O244  1  0.46185005  0.91542158  0.59473184  1
  O2-  O245  1  0.46148036  0.91441032  0.93056170  1
  O2-  O246  1  0.94821095  0.42698562  0.26870288  1
  O2-  O247  1  0.94486701  0.42249478  0.60129749  1
  O2-  O248  1  0.95511855  0.42299491  0.93331348  1
  O2-  O249  1  0.94782961  0.91240322  0.26870074  1
  O2-  O250  1  0.94715591  0.92193178  0.60261018  1
  O2-  O251  1  0.94867565  0.91318362  0.94058212  1
  O2-  O252  1  0.33031863  0.29585003  0.26764665  1
  O2-  O253  1  0.33474520  0.30269822  0.60768821  1
  O2-  O254  1  0.33748216  0.29510517  0.93399298  1
  O2-  O255  1  0.33830653  0.78762994  0.26922451  1
  O2-  O256  1  0.33514319  0.78715154  0.59623535  1
  O2-  O257  1  0.33305184  0.78911505  0.93145005  1
  O2-  O258  1  0.83444292  0.28820556  0.26368688  1
  O2-  O259  1  0.83413836  0.28449908  0.59723167  1
  O2-  O260  1  0.83276330  0.29103284  0.93368816  1
  O2-  O261  1  0.83649249  0.78540963  0.26606678  1
  O2-  O262  1  0.82818072  0.78911979  0.59898873  1
  O2-  O263  1  0.83495888  0.78920753  0.94134337  1
  O2-  O264  1  0.40874572  0.03385415  0.06318347  1
  O2-  O265  1  0.41835357  0.03381312  0.40372243  1
  O2-  O266  1  0.41500206  0.04011274  0.73197697  1
  O2-  O267  1  0.41738786  0.55805596  0.06234424  1
  O2-  O268  1  0.41961496  0.55335700  0.39187356  1
  O2-  O269  1  0.41434636  0.54280006  0.74017863  1
  O2-  O270  1  0.91531444  0.04075625  0.06804728  1
  O2-  O271  1  0.90801139  0.03892714  0.39801695  1
  O2-  O272  1  0.91570326  0.04995146  0.73049904  1
  O2-  O273  1  0.91695126  0.55117773  0.06389055  1
  O2-  O274  1  0.91442375  0.55466880  0.39651259  1
  O2-  O275  1  0.91889286  0.55254185  0.72747207  1
  O2-  O276  1  0.30048732  0.16314013  0.06018782  1
  O2-  O277  1  0.30691581  0.17170067  0.40243295  1
  O2-  O278  1  0.30541304  0.16904015  0.73058406  1
  O2-  O279  1  0.28949558  0.66702658  0.06599116  1
  O2-  O280  1  0.29257653  0.66403030  0.39654778  1
  O2-  O281  1  0.28809430  0.66721931  0.73483321  1
  O2-  O282  1  0.79816877  0.16396931  0.06484497  1
  O2-  O283  1  0.79123863  0.16254015  0.39583851  1
  O2-  O284  1  0.79036722  0.16244428  0.73259182  1
  O2-  O285  1  0.79254261  0.66337494  0.06902467  1
  O2-  O286  1  0.78572048  0.66265776  0.40108581  1
  O2-  O287  1  0.79381823  0.66372433  0.73355771  1
