# generated using pymatgen
data_Ca2Al2SiO7
_symmetry_space_group_name_H-M   'P 1'
_cell_length_a   15.46555945
_cell_length_b   15.46411560
_cell_length_c   15.28797355
_cell_angle_alpha   89.99491381
_cell_angle_beta   89.99441225
_cell_angle_gamma   90.00870911
_symmetry_Int_Tables_number   1
_chemical_formula_structural   Ca2Al2SiO7
_chemical_formula_sum   'Ca48 Al48 Si24 O168'
_cell_volume   3656.29001434
_cell_formula_units_Z   24
loop_
 _symmetry_equiv_pos_site_id
 _symmetry_equiv_pos_as_xyz
  1  'x, y, z'
loop_
 _atom_type_symbol
 _atom_type_oxidation_number
  Ca2+  2.0
  Al0+  0.0
  Si0+  0.0
  O2-  -2.0
loop_
 _atom_site_type_symbol
 _atom_site_label
 _atom_site_symmetry_multiplicity
 _atom_site_fract_x
 _atom_site_fract_y
 _atom_site_fract_z
 _atom_site_occupancy
  Ca2+  Ca0  1  0.16320435  0.07144903  0.17743722  1
  Ca2+  Ca1  1  0.16879947  0.08039332  0.49287075  1
  Ca2+  Ca2  1  0.16705020  0.07518826  0.84047467  1
  Ca2+  Ca3  1  0.16299050  0.58496122  0.16728280  1
  Ca2+  Ca4  1  0.17359526  0.59188394  0.50222854  1
  Ca2+  Ca5  1  0.17542192  0.58534331  0.84552060  1
  Ca2+  Ca6  1  0.67914975  0.07657417  0.16773049  1
  Ca2+  Ca7  1  0.67081324  0.08413414  0.50100774  1
  Ca2+  Ca8  1  0.67042050  0.07765569  0.84214809  1
  Ca2+  Ca9  1  0.67354221  0.58294494  0.17239110  1
  Ca2+  Ca10  1  0.66367449  0.57460533  0.50427003  1
  Ca2+  Ca11  1  0.67930090  0.58023706  0.83518398  1
  Ca2+  Ca12  1  0.08336759  0.32472168  0.15851025  1
  Ca2+  Ca13  1  0.08174908  0.32589113  0.49117084  1
  Ca2+  Ca14  1  0.07825083  0.34150223  0.83949047  1
  Ca2+  Ca15  1  0.07964229  0.82997784  0.16306278  1
  Ca2+  Ca16  1  0.07431801  0.82815063  0.48973299  1
  Ca2+  Ca17  1  0.07358000  0.83206923  0.83523866  1
  Ca2+  Ca18  1  0.58090491  0.33711530  0.16780142  1
  Ca2+  Ca19  1  0.58403855  0.33382606  0.49239390  1
  Ca2+  Ca20  1  0.58780571  0.32698331  0.82580161  1
  Ca2+  Ca21  1  0.57901578  0.83684336  0.16590677  1
  Ca2+  Ca22  1  0.57493011  0.82269899  0.48842279  1
  Ca2+  Ca23  1  0.58508121  0.83411933  0.83157899  1
  Ca2+  Ca24  1  0.33020358  0.41998404  0.16846654  1
  Ca2+  Ca25  1  0.33401666  0.42035531  0.50282024  1
  Ca2+  Ca26  1  0.32687610  0.42856898  0.84016261  1
  Ca2+  Ca27  1  0.32091637  0.91753376  0.17629826  1
  Ca2+  Ca28  1  0.32631918  0.90905639  0.49670981  1
  Ca2+  Ca29  1  0.32434545  0.91764031  0.84415259  1
  Ca2+  Ca30  1  0.83419500  0.42219118  0.16969647  1
  Ca2+  Ca31  1  0.82099934  0.42487313  0.50633255  1
  Ca2+  Ca32  1  0.83442920  0.42629675  0.84055067  1
  Ca2+  Ca33  1  0.84395022  0.92335911  0.17068189  1
  Ca2+  Ca34  1  0.84409855  0.91928222  0.49926026  1
  Ca2+  Ca35  1  0.83250910  0.91968383  0.84528545  1
  Ca2+  Ca36  1  0.40818836  0.17247921  0.16659282  1
  Ca2+  Ca37  1  0.42181696  0.17276331  0.48941331  1
  Ca2+  Ca38  1  0.42627511  0.16801357  0.82514460  1
  Ca2+  Ca39  1  0.42273830  0.66600836  0.16626815  1
  Ca2+  Ca40  1  0.42175517  0.66639952  0.48913146  1
  Ca2+  Ca41  1  0.41285258  0.66266008  0.83203271  1
  Ca2+  Ca42  1  0.91389550  0.16880374  0.16343445  1
  Ca2+  Ca43  1  0.92131823  0.16668566  0.49038395  1
  Ca2+  Ca44  1  0.91067017  0.17231285  0.83610274  1
  Ca2+  Ca45  1  0.92636431  0.67402407  0.15653878  1
  Ca2+  Ca46  1  0.91608830  0.67594664  0.49302394  1
  Ca2+  Ca47  1  0.91140011  0.67444900  0.83055940  1
  Al0+  Al48  1  0.00106059  0.00097852  0.00237511  1
  Al0+  Al49  1  0.00193993  0.00115481  0.33705584  1
  Al0+  Al50  1  0.00022233  -0.00007413  0.66428328  1
  Al0+  Al51  1  0.00164010  0.49834810  0.00021606  1
  Al0+  Al52  1  -0.00116934  0.49986600  0.33437902  1
  Al0+  Al53  1  0.00104246  0.50010581  0.66718503  1
  Al0+  Al54  1  0.50128012  0.00073242  0.00225706  1
  Al0+  Al55  1  0.50220798  0.00191074  0.33257551  1
  Al0+  Al56  1  0.50013642  0.00120476  0.66069140  1
  Al0+  Al57  1  0.49913774  0.50012049  -0.00021309  1
  Al0+  Al58  1  0.49975016  0.49789317  0.32860947  1
  Al0+  Al59  1  0.49829727  0.49875437  0.67609266  1
  Al0+  Al60  1  0.25103407  0.25277233  -0.00369557  1
  Al0+  Al61  1  0.25029744  0.24949239  0.32940574  1
  Al0+  Al62  1  0.25092232  0.24857295  0.66768132  1
  Al0+  Al63  1  0.25261247  0.75133655  0.00464404  1
  Al0+  Al64  1  0.24987671  0.74956295  0.33205074  1
  Al0+  Al65  1  0.24756490  0.75136265  0.67251413  1
  Al0+  Al66  1  0.74935769  0.24850018  -0.00125333  1
  Al0+  Al67  1  0.74888271  0.25003462  0.34169494  1
  Al0+  Al68  1  0.75073953  0.24799875  0.66435083  1
  Al0+  Al69  1  0.74672818  0.74837228  0.00351653  1
  Al0+  Al70  1  0.75007525  0.75151010  0.32646019  1
  Al0+  Al71  1  0.74766932  0.75108525  0.66312284  1
  Al0+  Al72  1  0.82140249  0.57314191  0.68036523  1
  Al0+  Al73  1  0.07302467  0.67934815  0.98388454  1
  Al0+  Al74  1  0.07111829  0.67621120  0.31907698  1
  Al0+  Al75  1  0.92977494  0.82238368  0.31757001  1
  Al0+  Al76  1  0.82088980  0.07075212  0.01419767  1
  Al0+  Al77  1  0.82042649  0.06896461  0.34918637  1
  Al0+  Al78  1  0.17931680  0.93061740  0.01357842  1
  Al0+  Al79  1  0.17880820  0.42905027  0.01658007  1
  Al0+  Al80  1  0.82173769  0.57088866  0.01421291  1
  Al0+  Al81  1  0.92784175  0.82041147  0.65275409  1
  Al0+  Al82  1  0.67880023  0.43164988  0.34590003  1
  Al0+  Al83  1  0.92782653  0.32011445  0.98735414  1
  Al0+  Al84  1  0.42911016  0.82289544  0.31796108  1
  Al0+  Al85  1  0.67718076  0.92701246  0.01492929  1
  Al0+  Al86  1  0.67944881  0.42681011  0.68287563  1
  Al0+  Al87  1  0.32228013  0.57182640  0.01908647  1
  Al0+  Al88  1  0.32262355  0.07311180  0.34806119  1
  Al0+  Al89  1  0.07027677  0.18144064  0.32026671  1
  Al0+  Al90  1  0.42958767  0.31957774  0.31894261  1
  Al0+  Al91  1  0.18014175  0.92704114  0.35134308  1
  Al0+  Al92  1  0.57240108  0.17860565  0.65095241  1
  Al0+  Al93  1  0.57086085  0.67715130  0.31777013  1
  Al0+  Al94  1  0.92770610  0.82139335  0.98499300  1
  Al0+  Al95  1  0.31852918  0.57169166  0.67916751  1
  Si0+  Si96  1  0.07338840  0.67808760  0.65183057  1
  Si0+  Si97  1  0.67877029  0.42681626  0.01563824  1
  Si0+  Si98  1  0.92955175  0.32216630  0.65096868  1
  Si0+  Si99  1  0.07356360  0.17829489  0.98207898  1
  Si0+  Si100  1  0.82289496  0.57410690  0.34932912  1
  Si0+  Si101  1  0.42830230  0.32271099  0.98111501  1
  Si0+  Si102  1  0.32245245  0.07083619  0.68124619  1
  Si0+  Si103  1  0.31997103  0.56840198  0.34728988  1
  Si0+  Si104  1  0.92574926  0.32128894  0.31938800  1
  Si0+  Si105  1  0.57514770  0.17857449  0.31456397  1
  Si0+  Si106  1  0.42890775  0.32128244  0.65092507  1
  Si0+  Si107  1  0.07142153  0.17847644  0.65190249  1
  Si0+  Si108  1  0.17739678  0.42731409  0.34786547  1
  Si0+  Si109  1  0.56776174  0.67847932  0.65419050  1
  Si0+  Si110  1  0.56907102  0.17994793  0.98508168  1
  Si0+  Si111  1  0.67658865  0.93038188  0.67889361  1
  Si0+  Si112  1  0.82273223  0.06902905  0.68173215  1
  Si0+  Si113  1  0.67741998  0.92611301  0.35196586  1
  Si0+  Si114  1  0.43176348  0.82192032  0.98474443  1
  Si0+  Si115  1  0.17879191  0.93100990  0.68307730  1
  Si0+  Si116  1  0.57061230  0.67610695  0.98184261  1
  Si0+  Si117  1  0.32311913  0.07301781  0.01347424  1
  Si0+  Si118  1  0.42623431  0.82146665  0.65389818  1
  Si0+  Si119  1  0.17789410  0.42381799  0.68256555  1
  O2-  O120  1  0.25128897  0.00914031  0.05736677  1
  O2-  O121  1  0.25572994  -0.00273588  0.40055109  1
  O2-  O122  1  0.25205230  0.00042462  0.72498086  1
  O2-  O123  1  0.24760507  0.50263342  0.06851683  1
  O2-  O124  1  0.24521393  0.50141055  0.39060778  1
  O2-  O125  1  0.24233758  0.49768183  0.72409926  1
  O2-  O126  1  0.75648046  -0.00849420  0.06333570  1
  O2-  O127  1  0.74790281  -0.00752500  0.39763903  1
  O2-  O128  1  0.74981225  -0.00100145  0.72189202  1
  O2-  O129  1  0.74741503  0.49474850  0.05972804  1
  O2-  O130  1  0.75134062  0.50795070  0.39327913  1
  O2-  O131  1  0.75365306  0.49702283  0.73142162  1
  O2-  O132  1  -0.00404767  0.25570033  0.27386979  1
  O2-  O133  1  0.00313720  0.25268032  0.61036398  1
  O2-  O134  1  0.00352559  0.24623846  0.93842394  1
  O2-  O135  1  -0.00115164  0.74727229  0.26939443  1
  O2-  O136  1  -0.00052456  0.74124767  0.60856553  1
  O2-  O137  1  -0.00265271  0.74755689  0.93283586  1
  O2-  O138  1  0.50181947  0.24264937  0.27084055  1
  O2-  O139  1  0.50010428  0.25630094  0.60565648  1
  O2-  O140  1  0.49906339  0.25088658  0.94022622  1
  O2-  O141  1  0.50237620  0.75261359  0.26737406  1
  O2-  O142  1  0.49381099  0.74696440  0.61252455  1
  O2-  O143  1  0.50112653  0.75006810  0.94041225  1
  O2-  O144  1  0.07652422  0.17979440  0.08706890  1
  O2-  O145  1  0.06972888  0.18441491  0.43443202  1
  O2-  O146  1  0.07110922  0.17538576  0.75675988  1
  O2-  O147  1  0.07205837  0.68163748  0.09692805  1
  O2-  O148  1  0.07042336  0.67583225  0.43370621  1
  O2-  O149  1  0.07828423  0.68171926  0.75667966  1
  O2-  O150  1  0.56814568  0.18090241  0.08962213  1
  O2-  O151  1  0.57558736  0.18226139  0.42054755  1
  O2-  O152  1  0.56871596  0.17584780  0.76457222  1
  O2-  O153  1  0.56839561  0.67181493  0.08624871  1
  O2-  O154  1  0.56627037  0.67536345  0.43259165  1
  O2-  O155  1  0.56884674  0.68188429  0.75919306  1
  O2-  O156  1  0.17872112  0.42578141  0.24356698  1
  O2-  O157  1  0.18029676  0.41872605  0.57688073  1
  O2-  O158  1  0.18385679  0.42676010  0.90233487  1
  O2-  O159  1  0.17973150  0.92925787  0.23823175  1
  O2-  O160  1  0.18003174  0.93002779  0.57870213  1
  O2-  O161  1  0.18186147  0.93278151  0.89916418  1
  O2-  O162  1  0.68096875  0.43088642  0.23285820  1
  O2-  O163  1  0.67754062  0.42975095  0.56932060  1
  O2-  O164  1  0.67953887  0.42672039  0.90982033  1
  O2-  O165  1  0.67563873  0.92950949  0.24693635  1
  O2-  O166  1  0.67377802  0.93181645  0.57437119  1
  O2-  O167  1  0.67275860  0.93289382  0.90031459  1
  O2-  O168  1  0.42756367  0.32210083  0.08593860  1
  O2-  O169  1  0.43045295  0.32147951  0.43251297  1
  O2-  O170  1  0.42739101  0.31707773  0.75652595  1
  O2-  O171  1  0.43407885  0.82445271  0.08897361  1
  O2-  O172  1  0.42922318  0.81692129  0.43290061  1
  O2-  O173  1  0.42746732  0.82418439  0.75911420  1
  O2-  O174  1  0.92535919  0.31644966  0.10007980  1
  O2-  O175  1  0.92844211  0.32002642  0.42569898  1
  O2-  O176  1  0.92883426  0.32099314  0.75593671  1
  O2-  O177  1  0.93103249  0.82224683  0.09755889  1
  O2-  O178  1  0.93155471  0.81981183  0.43209802  1
  O2-  O179  1  0.92875243  0.82457397  0.76537250  1
  O2-  O180  1  0.31680710  0.07479511  0.23450741  1
  O2-  O181  1  0.32192749  0.07260812  0.57715944  1
  O2-  O182  1  0.32505289  0.06936221  0.90677137  1
  O2-  O183  1  0.32216742  0.56601066  0.24297590  1
  O2-  O184  1  0.31942612  0.57187214  0.56570434  1
  O2-  O185  1  0.32268776  0.56886088  0.90483850  1
  O2-  O186  1  0.81836561  0.07216570  0.23673760  1
  O2-  O187  1  0.82466871  0.06863904  0.57680730  1
  O2-  O188  1  0.81625265  0.07338396  0.89966976  1
  O2-  O189  1  0.82467673  0.56984782  0.24411292  1
  O2-  O190  1  0.81764667  0.57275983  0.56682591  1
  O2-  O191  1  0.81836632  0.57080669  0.90073150  1
  O2-  O192  1  0.04018664  0.08481367  0.26914873  1
  O2-  O193  1  0.04049700  0.08882135  0.60257233  1
  O2-  O194  1  0.04811629  0.08514276  0.93525621  1
  O2-  O195  1  0.04511125  0.57635796  0.26746897  1
  O2-  O196  1  0.05740273  0.58115665  0.60815016  1
  O2-  O197  1  0.05191655  0.57758918  0.93473606  1
  O2-  O198  1  0.55674537  0.08319740  0.27093444  1
  O2-  O199  1  0.53881581  0.08395611  0.59461490  1
  O2-  O200  1  0.53980319  0.08853450  0.93618877  1
  O2-  O201  1  0.53804977  0.58167752  0.26286287  1
  O2-  O202  1  0.54032122  0.58496000  0.60998243  1
  O2-  O203  1  0.53954947  0.58564377  0.93233354  1
  O2-  O204  1  0.16506653  0.21181162  0.26450151  1
  O2-  O205  1  0.16476258  0.20424627  0.60586116  1
  O2-  O206  1  0.16657512  0.20527438  0.93303628  1
  O2-  O207  1  0.17036839  0.70155472  0.26850631  1
  O2-  O208  1  0.16500377  0.71090175  0.60398287  1
  O2-  O209  1  0.17261684  0.71173843  0.93344331  1
  O2-  O210  1  0.66666592  0.21166325  0.26939566  1
  O2-  O211  1  0.67025925  0.20483183  0.59715930  1
  O2-  O212  1  0.66003870  0.20739671  0.93558905  1
  O2-  O213  1  0.66985233  0.70095461  0.26565057  1
  O2-  O214  1  0.65709730  0.70809991  0.60365810  1
  O2-  O215  1  0.66219493  0.70272675  0.93369892  1
  O2-  O216  1  0.07894563  0.44864445  0.06813857  1
  O2-  O217  1  0.08429540  0.45011781  0.39633109  1
  O2-  O218  1  0.08250134  0.44479127  0.72617577  1
  O2-  O219  1  0.08379461  0.95997797  0.06792899  1
  O2-  O220  1  0.08477369  0.96178381  0.40655987  1
  O2-  O221  1  0.08840147  0.96417134  0.73003352  1
  O2-  O222  1  0.58458653  0.45282974  0.05917565  1
  O2-  O223  1  0.58127089  0.46124932  0.39993166  1
  O2-  O224  1  0.58154295  0.45376923  0.73742849  1
  O2-  O225  1  0.58265488  0.96490413  0.07015480  1
  O2-  O226  1  0.58440235  0.95339808  0.39915648  1
  O2-  O227  1  0.58515373  0.96001466  0.72740999  1
  O2-  O228  1  0.21137868  0.33016893  0.06714086  1
  O2-  O229  1  0.20968977  0.33763443  0.39668100  1
  O2-  O230  1  0.20741180  0.33240477  0.73171838  1
  O2-  O231  1  0.21469731  0.83721159  0.06799651  1
  O2-  O232  1  0.20901549  0.82811031  0.40539696  1
  O2-  O233  1  0.20518455  0.84004236  0.73253460  1
  O2-  O234  1  0.70207395  0.33292776  0.06089220  1
  O2-  O235  1  0.70969128  0.33677922  0.40350861  1
  O2-  O236  1  0.70686233  0.32638440  0.73261274  1
  O2-  O237  1  0.69042860  0.82535330  0.06385318  1
  O2-  O238  1  0.69938241  0.83037117  0.39588304  1
  O2-  O239  1  0.70066312  0.83743978  0.72534322  1
  O2-  O240  1  0.46266063  0.41315268  0.26178097  1
  O2-  O241  1  0.45070408  0.41739851  0.60861129  1
  O2-  O242  1  0.45776209  0.41396719  0.93346401  1
  O2-  O243  1  0.45525653  0.92269347  0.26695135  1
  O2-  O244  1  0.45597107  0.91126130  0.60437183  1
  O2-  O245  1  0.46016661  0.91393434  0.93569308  1
  O2-  O246  1  0.94793714  0.41598896  0.27560733  1
  O2-  O247  1  0.95480697  0.41456424  0.60273496  1
  O2-  O248  1  0.95976076  0.41516008  0.93061310  1
  O2-  O249  1  0.96176292  0.92057994  0.26874263  1
  O2-  O250  1  0.96399364  0.91587517  0.59881539  1
  O2-  O251  1  0.95805056  0.92109516  0.93300155  1
  O2-  O252  1  0.33393052  0.28997793  0.26305675  1
  O2-  O253  1  0.33574232  0.29276194  0.60466916  1
  O2-  O254  1  0.33746039  0.29558164  0.93093289  1
  O2-  O255  1  0.33124974  0.79377465  0.26682278  1
  O2-  O256  1  0.33274346  0.79616595  0.60890973  1
  O2-  O257  1  0.33990587  0.79498966  0.93683244  1
  O2-  O258  1  0.83288635  0.29247197  0.27521034  1
  O2-  O259  1  0.83905708  0.29152060  0.60288752  1
  O2-  O260  1  0.83226303  0.28714770  0.93038210  1
  O2-  O261  1  0.82918199  0.80351619  0.26681895  1
  O2-  O262  1  0.82983804  0.79487388  0.59822228  1
  O2-  O263  1  0.82596611  0.79534069  0.93570151  1
  O2-  O264  1  0.41484443  0.04621283  0.06077873  1
  O2-  O265  1  0.42481441  0.05357697  0.39728184  1
  O2-  O266  1  0.41462518  0.04218055  0.72815049  1
  O2-  O267  1  0.41993214  0.53784364  0.06991492  1
  O2-  O268  1  0.41012668  0.53559935  0.39511815  1
  O2-  O269  1  0.41309802  0.54138642  0.73727769  1
  O2-  O270  1  0.92172467  0.05248311  0.06433641  1
  O2-  O271  1  0.91704419  0.04073591  0.40493885  1
  O2-  O272  1  0.91419198  0.04104269  0.72961399  1
  O2-  O273  1  0.91782270  0.53942312  0.06654476  1
  O2-  O274  1  0.91472866  0.54567351  0.39866303  1
  O2-  O275  1  0.92227386  0.54899006  0.73062598  1
  O2-  O276  1  0.30271705  0.16931965  0.05399572  1
  O2-  O277  1  0.28843534  0.17016745  0.40240784  1
  O2-  O278  1  0.29506746  0.16240103  0.73060991  1
  O2-  O279  1  0.30138858  0.67196969  0.06910977  1
  O2-  O280  1  0.29587751  0.66093268  0.39517289  1
  O2-  O281  1  0.29033210  0.66836250  0.73560859  1
  O2-  O282  1  0.78425459  0.16625119  0.06769675  1
  O2-  O283  1  0.78786793  0.16433362  0.40604365  1
  O2-  O284  1  0.79582623  0.16165801  0.72737100  1
  O2-  O285  1  0.78879809  0.66541763  0.06906012  1
  O2-  O286  1  0.79944009  0.66954293  0.39189860  1
  O2-  O287  1  0.78666440  0.67055802  0.73259908  1
