# generated using pymatgen
data_Ca2Al2SiO7
_symmetry_space_group_name_H-M   'P 1'
_cell_length_a   15.45603649
_cell_length_b   15.45639476
_cell_length_c   15.28222601
_cell_angle_alpha   89.99612775
_cell_angle_beta   89.99629531
_cell_angle_gamma   89.99909569
_symmetry_Int_Tables_number   1
_chemical_formula_structural   Ca2Al2SiO7
_chemical_formula_sum   'Ca48 Al48 Si24 O168'
_cell_volume   3650.84127480
_cell_formula_units_Z   24
loop_
 _symmetry_equiv_pos_site_id
 _symmetry_equiv_pos_as_xyz
  1  'x, y, z'
loop_
 _atom_type_symbol
 _atom_type_oxidation_number
  Ca2+  2.0
  Al0+  0.0
  Si0+  0.0
  O2-  -2.0
loop_
 _atom_site_type_symbol
 _atom_site_label
 _atom_site_symmetry_multiplicity
 _atom_site_fract_x
 _atom_site_fract_y
 _atom_site_fract_z
 _atom_site_occupancy
  Ca2+  Ca0  1  0.16771741  0.08387132  0.16947557  1
  Ca2+  Ca1  1  0.16575105  0.07751337  0.50656238  1
  Ca2+  Ca2  1  0.17086249  0.08851950  0.83660069  1
  Ca2+  Ca3  1  0.17573150  0.58008564  0.17870110  1
  Ca2+  Ca4  1  0.16708016  0.58439649  0.50205400  1
  Ca2+  Ca5  1  0.17718398  0.59140460  0.83556435  1
  Ca2+  Ca6  1  0.67750351  0.08657968  0.17128188  1
  Ca2+  Ca7  1  0.67320984  0.08660266  0.49910203  1
  Ca2+  Ca8  1  0.67480520  0.07194190  0.84529114  1
  Ca2+  Ca9  1  0.66922358  0.56875085  0.17108090  1
  Ca2+  Ca10  1  0.66423619  0.57937363  0.50303904  1
  Ca2+  Ca11  1  0.66580419  0.58150893  0.83940203  1
  Ca2+  Ca12  1  0.07368675  0.33344245  0.15916734  1
  Ca2+  Ca13  1  0.08198020  0.32886296  0.49205478  1
  Ca2+  Ca14  1  0.08258407  0.32142867  0.83258523  1
  Ca2+  Ca15  1  0.08511997  0.83395784  0.17194881  1
  Ca2+  Ca16  1  0.08100081  0.82671254  0.49274470  1
  Ca2+  Ca17  1  0.07575830  0.82867252  0.82390690  1
  Ca2+  Ca18  1  0.58318930  0.33195720  0.16241433  1
  Ca2+  Ca19  1  0.58212913  0.32816993  0.48944016  1
  Ca2+  Ca20  1  0.57798294  0.33691496  0.83654385  1
  Ca2+  Ca21  1  0.58445020  0.83192366  0.16224836  1
  Ca2+  Ca22  1  0.57510008  0.82871803  0.49989743  1
  Ca2+  Ca23  1  0.58025905  0.82868774  0.82436940  1
  Ca2+  Ca24  1  0.32964027  0.42353193  0.17163958  1
  Ca2+  Ca25  1  0.32669753  0.42755977  0.50151972  1
  Ca2+  Ca26  1  0.33539537  0.42837019  0.84100843  1
  Ca2+  Ca27  1  0.32662231  0.92472381  0.17140622  1
  Ca2+  Ca28  1  0.32826027  0.91936140  0.50572113  1
  Ca2+  Ca29  1  0.33874635  0.92849397  0.83616179  1
  Ca2+  Ca30  1  0.82597386  0.40236618  0.17230557  1
  Ca2+  Ca31  1  0.82833667  0.40970836  0.49796722  1
  Ca2+  Ca32  1  0.82709280  0.41582815  0.84067200  1
  Ca2+  Ca33  1  0.83598618  0.92876228  0.17159309  1
  Ca2+  Ca34  1  0.84296573  0.91803332  0.50059492  1
  Ca2+  Ca35  1  0.82952309  0.91685110  0.84180156  1
  Ca2+  Ca36  1  0.42058759  0.17267515  0.15790793  1
  Ca2+  Ca37  1  0.42344250  0.16329889  0.49548822  1
  Ca2+  Ca38  1  0.40702291  0.17262705  0.83052269  1
  Ca2+  Ca39  1  0.41198381  0.66244015  0.16315175  1
  Ca2+  Ca40  1  0.41239732  0.66455897  0.50086889  1
  Ca2+  Ca41  1  0.41919300  0.67056855  0.82387049  1
  Ca2+  Ca42  1  0.91695680  0.17226735  0.16086541  1
  Ca2+  Ca43  1  0.92138787  0.16884284  0.49223692  1
  Ca2+  Ca44  1  0.92493520  0.16391145  0.83473965  1
  Ca2+  Ca45  1  0.92413405  0.66804139  0.16681010  1
  Ca2+  Ca46  1  0.92724576  0.67751195  0.49251424  1
  Ca2+  Ca47  1  0.92263863  0.67346519  0.82140071  1
  Al0+  Al48  1  0.00014696  -0.00175001  -0.00079548  1
  Al0+  Al49  1  0.00078218  0.00023551  0.33793642  1
  Al0+  Al50  1  0.00066022  0.00283944  0.66211235  1
  Al0+  Al51  1  0.00065071  0.50064612  -0.00819053  1
  Al0+  Al52  1  -0.00083209  0.50032755  0.32858485  1
  Al0+  Al53  1  -0.00338416  0.49796446  0.66557610  1
  Al0+  Al54  1  0.49879387  -0.00109854  0.00787525  1
  Al0+  Al55  1  0.50339668  -0.00096880  0.32762617  1
  Al0+  Al56  1  0.50085093  0.00055297  0.66723229  1
  Al0+  Al57  1  0.50140384  0.49995587  0.00392226  1
  Al0+  Al58  1  0.50044644  0.49972679  0.34136245  1
  Al0+  Al59  1  0.49772658  0.49848206  0.66710541  1
  Al0+  Al60  1  0.25080706  0.25181241  -0.00336261  1
  Al0+  Al61  1  0.25283359  0.25233444  0.33696078  1
  Al0+  Al62  1  0.24885280  0.25039080  0.66397805  1
  Al0+  Al63  1  0.25184857  0.75146289  0.00279643  1
  Al0+  Al64  1  0.25119350  0.75313596  0.33667910  1
  Al0+  Al65  1  0.24942191  0.75061120  0.66554803  1
  Al0+  Al66  1  0.74910057  0.24916681  0.00013792  1
  Al0+  Al67  1  0.75015700  0.24736638  0.33567294  1
  Al0+  Al68  1  0.74896755  0.24883077  0.67118908  1
  Al0+  Al69  1  0.75001728  0.74754225  0.00400522  1
  Al0+  Al70  1  0.74815692  0.75091986  0.32839148  1
  Al0+  Al71  1  0.74859097  0.74881816  0.65846979  1
  Al0+  Al72  1  0.93047182  0.31966702  0.32112190  1
  Al0+  Al73  1  0.18057565  0.93275902  0.34811808  1
  Al0+  Al74  1  0.68168193  0.42880187  0.34820782  1
  Al0+  Al75  1  0.92568327  0.32180451  0.98265735  1
  Al0+  Al76  1  0.07298505  0.67985857  0.31653140  1
  Al0+  Al77  1  0.81967254  0.06906698  0.34894677  1
  Al0+  Al78  1  0.32017974  0.57160476  0.01313860  1
  Al0+  Al79  1  0.68100121  0.43030986  0.01301508  1
  Al0+  Al80  1  0.92848589  0.82328247  0.31499377  1
  Al0+  Al81  1  0.07195052  0.67677531  0.65208347  1
  Al0+  Al82  1  0.07130103  0.18173873  0.65069112  1
  Al0+  Al83  1  0.82200364  0.06910676  0.01482749  1
  Al0+  Al84  1  0.32049494  0.57178057  0.35045840  1
  Al0+  Al85  1  0.43057392  0.32170767  0.98679659  1
  Al0+  Al86  1  0.31953877  0.07414003  0.01405984  1
  Al0+  Al87  1  0.67797018  0.92531031  0.01561555  1
  Al0+  Al88  1  0.57064326  0.17893563  0.31888624  1
  Al0+  Al89  1  0.32175092  0.07073148  0.67954896  1
  Al0+  Al90  1  0.42920654  0.82363066  0.65251460  1
  Al0+  Al91  1  0.31846798  0.57051127  0.68268731  1
  Al0+  Al92  1  0.07119422  0.17741287  0.98595441  1
  Al0+  Al93  1  0.17525128  0.42810293  0.34734279  1
  Al0+  Al94  1  0.92810182  0.82209675  0.65186432  1
  Al0+  Al95  1  0.56951479  0.67620052  0.65119274  1
  Si0+  Si96  1  0.07396128  0.67960696  0.98483113  1
  Si0+  Si97  1  0.57075792  0.17587749  0.98249654  1
  Si0+  Si98  1  0.56992586  0.67665696  0.31651234  1
  Si0+  Si99  1  0.17727739  0.42899772  0.01392791  1
  Si0+  Si100  1  0.57189192  0.17967003  0.65399374  1
  Si0+  Si101  1  0.32567367  0.07293788  0.34861442  1
  Si0+  Si102  1  0.82139384  0.57504663  0.34964361  1
  Si0+  Si103  1  0.81896182  0.57134293  0.67968392  1
  Si0+  Si104  1  0.67811700  0.42756231  0.68297361  1
  Si0+  Si105  1  0.17825367  0.92761203  0.01564096  1
  Si0+  Si106  1  0.82532235  0.57208035  0.01578221  1
  Si0+  Si107  1  0.42914139  0.32332146  0.31744557  1
  Si0+  Si108  1  0.42889763  0.32090552  0.65086995  1
  Si0+  Si109  1  0.92411600  0.32022633  0.64959404  1
  Si0+  Si110  1  0.17689023  0.92945413  0.68401105  1
  Si0+  Si111  1  0.92887730  0.81855087  0.98609525  1
  Si0+  Si112  1  0.67653736  0.92579234  0.35239757  1
  Si0+  Si113  1  0.67995270  0.92848203  0.67917101  1
  Si0+  Si114  1  0.42825753  0.82184807  0.98622010  1
  Si0+  Si115  1  0.07525144  0.17824273  0.31832067  1
  Si0+  Si116  1  0.17489162  0.42693339  0.68489239  1
  Si0+  Si117  1  0.57009788  0.67945414  0.98752711  1
  Si0+  Si118  1  0.82188637  0.07122315  0.68267953  1
  Si0+  Si119  1  0.42986138  0.82099710  0.31612444  1
  O2-  O120  1  0.24299850  0.00084606  0.05890966  1
  O2-  O121  1  0.25335488  0.00981349  0.39427600  1
  O2-  O122  1  0.24806197  -0.00426879  0.72824158  1
  O2-  O123  1  0.24323045  0.49966283  0.05880733  1
  O2-  O124  1  0.24472809  0.50233171  0.39827290  1
  O2-  O125  1  0.24032064  0.49900397  0.72969707  1
  O2-  O126  1  0.74817783  -0.00115293  0.06501203  1
  O2-  O127  1  0.74823137  -0.00908780  0.39695220  1
  O2-  O128  1  0.75428563  -0.00435348  0.72233682  1
  O2-  O129  1  0.76234142  0.49798825  0.05937460  1
  O2-  O130  1  0.75525895  0.50428287  0.39561256  1
  O2-  O131  1  0.74780457  0.50071408  0.72350955  1
  O2-  O132  1  0.01033410  0.25034047  0.27459115  1
  O2-  O133  1  -0.00399820  0.25597623  0.60519442  1
  O2-  O134  1  -0.00193442  0.24883019  0.93496144  1
  O2-  O135  1  -0.00047974  0.75016616  0.26490506  1
  O2-  O136  1  0.00170389  0.75112924  0.60368531  1
  O2-  O137  1  -0.00031923  0.74775549  0.94320214  1
  O2-  O138  1  0.49402642  0.25150635  0.27272034  1
  O2-  O139  1  0.50024269  0.24919068  0.61054098  1
  O2-  O140  1  0.50102253  0.24322839  0.93714340  1
  O2-  O141  1  0.49882508  0.74744502  0.27410565  1
  O2-  O142  1  0.49602419  0.74692215  0.60136741  1
  O2-  O143  1  0.50231630  0.75330289  0.94511370  1
  O2-  O144  1  0.07162379  0.17891262  0.09947164  1
  O2-  O145  1  0.07310561  0.17861714  0.42415553  1
  O2-  O146  1  0.07037150  0.18091778  0.76363968  1
  O2-  O147  1  0.07455925  0.67963137  0.08930338  1
  O2-  O148  1  0.07203350  0.68196556  0.42985829  1
  O2-  O149  1  0.06896189  0.67974144  0.76679824  1
  O2-  O150  1  0.57005250  0.17838211  0.08797823  1
  O2-  O151  1  0.56890595  0.18005618  0.43310411  1
  O2-  O152  1  0.57446292  0.18109590  0.75885724  1
  O2-  O153  1  0.56869088  0.67885966  0.09261655  1
  O2-  O154  1  0.57025915  0.67746878  0.42145148  1
  O2-  O155  1  0.57137045  0.67794521  0.76555975  1
  O2-  O156  1  0.17832871  0.42702997  0.23343088  1
  O2-  O157  1  0.17719497  0.42568311  0.57953740  1
  O2-  O158  1  0.17940022  0.43053978  0.90807494  1
  O2-  O159  1  0.18338811  0.93379760  0.23448390  1
  O2-  O160  1  0.17669989  0.93267047  0.57860459  1
  O2-  O161  1  0.17999622  0.92298907  0.91019111  1
  O2-  O162  1  0.68098874  0.42994523  0.23521836  1
  O2-  O163  1  0.67978646  0.42369264  0.57813378  1
  O2-  O164  1  0.67839275  0.43590227  0.89930544  1
  O2-  O165  1  0.67462784  0.92737660  0.24703231  1
  O2-  O166  1  0.67737287  0.93159765  0.57449255  1
  O2-  O167  1  0.68035174  0.92344875  0.90091271  1
  O2-  O168  1  0.43302743  0.32235869  0.09963840  1
  O2-  O169  1  0.43137770  0.32247301  0.42344110  1
  O2-  O170  1  0.43046597  0.32235681  0.75624227  1
  O2-  O171  1  0.42572052  0.81947568  0.09132942  1
  O2-  O172  1  0.43246599  0.82419304  0.42100022  1
  O2-  O173  1  0.43484880  0.82585456  0.76660587  1
  O2-  O174  1  0.92721732  0.32127511  0.09606960  1
  O2-  O175  1  0.92849406  0.31525775  0.43458683  1
  O2-  O176  1  0.92050082  0.31806269  0.75487276  1
  O2-  O177  1  0.92926612  0.81825906  0.09049624  1
  O2-  O178  1  0.93038295  0.82105528  0.42840015  1
  O2-  O179  1  0.92661327  0.81974308  0.76656821  1
  O2-  O180  1  0.32540076  0.07108957  0.24292735  1
  O2-  O181  1  0.32324075  0.06919358  0.56653360  1
  O2-  O182  1  0.32061155  0.07120434  0.90073403  1
  O2-  O183  1  0.32237346  0.56856853  0.23643608  1
  O2-  O184  1  0.32107501  0.56605168  0.57043351  1
  O2-  O185  1  0.32056467  0.57355665  0.89990643  1
  O2-  O186  1  0.81821488  0.07057494  0.23629311  1
  O2-  O187  1  0.81863955  0.07557548  0.57791940  1
  O2-  O188  1  0.82165176  0.06431518  0.90033137  1
  O2-  O189  1  0.81739718  0.57628453  0.24389239  1
  O2-  O190  1  0.81815880  0.56959334  0.57504650  1
  O2-  O191  1  0.82078672  0.57704375  0.90982144  1
  O2-  O192  1  0.04692843  0.08546679  0.27369801  1
  O2-  O193  1  0.04042205  0.08591904  0.59633269  1
  O2-  O194  1  0.04421867  0.07805934  0.93182695  1
  O2-  O195  1  0.04570888  0.58137208  0.26276906  1
  O2-  O196  1  0.04154081  0.57805186  0.60122847  1
  O2-  O197  1  0.05089488  0.58786542  0.93493954  1
  O2-  O198  1  0.54456276  0.08194845  0.26333655  1
  O2-  O199  1  0.54550061  0.08834325  0.60571349  1
  O2-  O200  1  0.54646914  0.08011237  0.93989706  1
  O2-  O201  1  0.54143526  0.58401247  0.27112823  1
  O2-  O202  1  0.54264007  0.57685462  0.59944152  1
  O2-  O203  1  0.54021637  0.58925233  0.93885740  1
  O2-  O204  1  0.17179295  0.19874371  0.27569367  1
  O2-  O205  1  0.16757571  0.21106312  0.59537103  1
  O2-  O206  1  0.16850808  0.20836619  0.93122404  1
  O2-  O207  1  0.17152504  0.71282853  0.26531285  1
  O2-  O208  1  0.17084254  0.70191664  0.60071895  1
  O2-  O209  1  0.16468952  0.71249982  0.93748746  1
  O2-  O210  1  0.66570689  0.21337446  0.26590481  1
  O2-  O211  1  0.66313181  0.20947369  0.60576404  1
  O2-  O212  1  0.66374685  0.20204972  0.93566603  1
  O2-  O213  1  0.66099682  0.70374150  0.26721375  1
  O2-  O214  1  0.66610738  0.70462131  0.59536385  1
  O2-  O215  1  0.66359043  0.70355841  0.94024318  1
  O2-  O216  1  0.08169536  0.45260898  0.05662561  1
  O2-  O217  1  0.07519490  0.45256502  0.39903305  1
  O2-  O218  1  0.07845267  0.44620457  0.72860493  1
  O2-  O219  1  0.08367260  0.94842831  0.06089621  1
  O2-  O220  1  0.08472796  0.96041014  0.40417024  1
  O2-  O221  1  0.08380411  0.95897477  0.73025241  1
  O2-  O222  1  0.58819077  0.46706048  0.06994387  1
  O2-  O223  1  0.58611608  0.45914569  0.40439060  1
  O2-  O224  1  0.58569843  0.45392264  0.72949911  1
  O2-  O225  1  0.57898746  0.94918934  0.06872828  1
  O2-  O226  1  0.58392673  0.95620116  0.39845707  1
  O2-  O227  1  0.59061194  0.96002071  0.72950936  1
  O2-  O228  1  0.20436060  0.33656442  0.05993046  1
  O2-  O229  1  0.20700891  0.33089910  0.40327252  1
  O2-  O230  1  0.20611609  0.33477728  0.73061531  1
  O2-  O231  1  0.21020781  0.83755927  0.06552315  1
  O2-  O232  1  0.21453105  0.83823947  0.40310961  1
  O2-  O233  1  0.19796998  0.83436706  0.72853362  1
  O2-  O234  1  0.70373420  0.33125952  0.06478675  1
  O2-  O235  1  0.71341442  0.33332862  0.40376272  1
  O2-  O236  1  0.70773365  0.33702337  0.73292215  1
  O2-  O237  1  0.70553792  0.82693086  0.06914810  1
  O2-  O238  1  0.69678921  0.82981475  0.39562186  1
  O2-  O239  1  0.70425040  0.83443418  0.72456175  1
  O2-  O240  1  0.45925038  0.41621673  0.27302152  1
  O2-  O241  1  0.45884996  0.41086826  0.60225682  1
  O2-  O242  1  0.46739344  0.41701243  0.93202807  1
  O2-  O243  1  0.46061725  0.91091378  0.26605328  1
  O2-  O244  1  0.46352668  0.91965544  0.59735107  1
  O2-  O245  1  0.45411681  0.91501266  0.94047564  1
  O2-  O246  1  0.95025647  0.41816912  0.26620464  1
  O2-  O247  1  0.94322203  0.41579560  0.60570827  1
  O2-  O248  1  0.95247592  0.42096525  0.92785357  1
  O2-  O249  1  0.96114779  0.92184710  0.26475403  1
  O2-  O250  1  0.95430889  0.92116501  0.60087182  1
  O2-  O251  1  0.95581635  0.90970602  0.93711785  1
  O2-  O252  1  0.33423205  0.30177151  0.27215023  1
  O2-  O253  1  0.33780493  0.29353123  0.60312229  1
  O2-  O254  1  0.33401507  0.29547090  0.93061403  1
  O2-  O255  1  0.33781292  0.79571710  0.26898635  1
  O2-  O256  1  0.32915403  0.80077492  0.60227425  1
  O2-  O257  1  0.33779908  0.79235305  0.93701882  1
  O2-  O258  1  0.83558848  0.28214349  0.26837717  1
  O2-  O259  1  0.83119448  0.28989148  0.60368552  1
  O2-  O260  1  0.82654135  0.29425552  0.92987763  1
  O2-  O261  1  0.82802983  0.79776303  0.26409121  1
  O2-  O262  1  0.83096599  0.79402726  0.59711276  1
  O2-  O263  1  0.83651295  0.78954993  0.93918526  1
  O2-  O264  1  0.41444050  0.04186676  0.07000134  1
  O2-  O265  1  0.41842512  0.04108050  0.39309064  1
  O2-  O266  1  0.41911694  0.04191674  0.73476257  1
  O2-  O267  1  0.41573363  0.53947230  0.06721247  1
  O2-  O268  1  0.41720427  0.54028007  0.40533385  1
  O2-  O269  1  0.41535596  0.53588728  0.73620619  1
  O2-  O270  1  0.91991156  0.03909538  0.06752177  1
  O2-  O271  1  0.91665821  0.04167875  0.40363597  1
  O2-  O272  1  0.91514112  0.04674186  0.72810377  1
  O2-  O273  1  0.92201858  0.55315018  0.05717228  1
  O2-  O274  1  0.91630976  0.55221327  0.39252103  1
  O2-  O275  1  0.91025204  0.54407758  0.72953557  1
  O2-  O276  1  0.29239211  0.17179692  0.06729352  1
  O2-  O277  1  0.30874902  0.16883984  0.39295532  1
  O2-  O278  1  0.28998150  0.16839897  0.73143661  1
  O2-  O279  1  0.29161286  0.66847733  0.06776524  1
  O2-  O280  1  0.29727625  0.67190818  0.40064346  1
  O2-  O281  1  0.29308647  0.67004886  0.73527149  1
  O2-  O282  1  0.79394849  0.16821242  0.06526456  1
  O2-  O283  1  0.78326483  0.16240656  0.40591486  1
  O2-  O284  1  0.78913119  0.16053383  0.73259751  1
  O2-  O285  1  0.79458803  0.66204440  0.06578894  1
  O2-  O286  1  0.79152847  0.66774686  0.39554356  1
  O2-  O287  1  0.79077273  0.66360585  0.72717015  1
