# generated using pymatgen
data_Ca2Al2SiO7
_symmetry_space_group_name_H-M   'P 1'
_cell_length_a   15.45967701
_cell_length_b   15.46011092
_cell_length_c   15.28500074
_cell_angle_alpha   89.99041969
_cell_angle_beta   89.99176601
_cell_angle_gamma   90.00946921
_symmetry_Int_Tables_number   1
_chemical_formula_structural   Ca2Al2SiO7
_chemical_formula_sum   'Ca48 Al48 Si24 O168'
_cell_volume   3653.24223191
_cell_formula_units_Z   24
loop_
 _symmetry_equiv_pos_site_id
 _symmetry_equiv_pos_as_xyz
  1  'x, y, z'
loop_
 _atom_type_symbol
 _atom_type_oxidation_number
  Ca2+  2.0
  Al0+  0.0
  Si0+  0.0
  O2-  -2.0
loop_
 _atom_site_type_symbol
 _atom_site_label
 _atom_site_symmetry_multiplicity
 _atom_site_fract_x
 _atom_site_fract_y
 _atom_site_fract_z
 _atom_site_occupancy
  Ca2+  Ca0  1  0.17447152  0.08551414  0.16321862  1
  Ca2+  Ca1  1  0.17767909  0.08936089  0.50592451  1
  Ca2+  Ca2  1  0.17709125  0.08480808  0.83878284  1
  Ca2+  Ca3  1  0.17501314  0.57943549  0.17013833  1
  Ca2+  Ca4  1  0.17110483  0.56728561  0.50914537  1
  Ca2+  Ca5  1  0.17997429  0.57827949  0.83439854  1
  Ca2+  Ca6  1  0.67294496  0.08280046  0.17493845  1
  Ca2+  Ca7  1  0.67757479  0.09328732  0.50662230  1
  Ca2+  Ca8  1  0.67018462  0.09045871  0.83328887  1
  Ca2+  Ca9  1  0.66354929  0.57355793  0.16503193  1
  Ca2+  Ca10  1  0.66808272  0.57758053  0.50735600  1
  Ca2+  Ca11  1  0.66865615  0.58602323  0.84054735  1
  Ca2+  Ca12  1  0.07922788  0.33215641  0.16438798  1
  Ca2+  Ca13  1  0.08241071  0.33282229  0.49536905  1
  Ca2+  Ca14  1  0.08881375  0.32283070  0.82663128  1
  Ca2+  Ca15  1  0.08268218  0.83681399  0.15962472  1
  Ca2+  Ca16  1  0.08348938  0.82947327  0.49900215  1
  Ca2+  Ca17  1  0.08648384  0.83517267  0.83193185  1
  Ca2+  Ca18  1  0.58207401  0.33736923  0.16598148  1
  Ca2+  Ca19  1  0.57104914  0.33489757  0.49705163  1
  Ca2+  Ca20  1  0.57787163  0.33066631  0.82658879  1
  Ca2+  Ca21  1  0.57622899  0.82554908  0.15494074  1
  Ca2+  Ca22  1  0.58004255  0.82790236  0.50480660  1
  Ca2+  Ca23  1  0.57088329  0.82311002  0.82739684  1
  Ca2+  Ca24  1  0.33136768  0.42066172  0.17259637  1
  Ca2+  Ca25  1  0.32582231  0.41058595  0.50775009  1
  Ca2+  Ca26  1  0.33675776  0.42171300  0.83174159  1
  Ca2+  Ca27  1  0.33432901  0.92558958  0.16631422  1
  Ca2+  Ca28  1  0.33849684  0.92752101  0.50696870  1
  Ca2+  Ca29  1  0.33766723  0.92397295  0.83994481  1
  Ca2+  Ca30  1  0.82118929  0.41350382  0.17127962  1
  Ca2+  Ca31  1  0.82696661  0.41360866  0.50428134  1
  Ca2+  Ca32  1  0.82378429  0.42746363  0.83955342  1
  Ca2+  Ca33  1  0.83140323  0.92433418  0.17188318  1
  Ca2+  Ca34  1  0.83163202  0.92920790  0.50600444  1
  Ca2+  Ca35  1  0.83177971  0.92217611  0.83282944  1
  Ca2+  Ca36  1  0.40611362  0.17174515  0.16561754  1
  Ca2+  Ca37  1  0.41179151  0.17541042  0.49857503  1
  Ca2+  Ca38  1  0.41744344  0.16985899  0.82067684  1
  Ca2+  Ca39  1  0.42122551  0.67093250  0.15172054  1
  Ca2+  Ca40  1  0.41480984  0.66685171  0.50253459  1
  Ca2+  Ca41  1  0.41987752  0.66843646  0.82566054  1
  Ca2+  Ca42  1  0.92025491  0.17178980  0.16218906  1
  Ca2+  Ca43  1  0.92094969  0.16776822  0.49468747  1
  Ca2+  Ca44  1  0.93045702  0.16356690  0.82585283  1
  Ca2+  Ca45  1  0.91773541  0.66545571  0.16009438  1
  Ca2+  Ca46  1  0.91559536  0.66228744  0.49887979  1
  Ca2+  Ca47  1  0.91231259  0.66355878  0.82783692  1
  Al0+  Al48  1  0.00143955  0.00074866  -0.00116480  1
  Al0+  Al49  1  0.00087968  -0.00152273  0.33566478  1
  Al0+  Al50  1  -0.00052804  0.00008523  0.66454744  1
  Al0+  Al51  1  -0.00130877  0.50154754  0.00105372  1
  Al0+  Al52  1  0.00082032  0.49977651  0.32992512  1
  Al0+  Al53  1  -0.00104289  0.49852656  0.67519401  1
  Al0+  Al54  1  0.50143431  0.00167946  0.00191394  1
  Al0+  Al55  1  0.50099223  -0.00179836  0.33711972  1
  Al0+  Al56  1  0.50289468  -0.00170987  0.66220868  1
  Al0+  Al57  1  0.50076324  0.49893688  0.00387204  1
  Al0+  Al58  1  0.50132173  0.50015001  0.33288575  1
  Al0+  Al59  1  0.49923753  0.49920326  0.66119468  1
  Al0+  Al60  1  0.24892005  0.24998173  -0.00085366  1
  Al0+  Al61  1  0.24998863  0.24984789  0.33449865  1
  Al0+  Al62  1  0.24836259  0.24672687  0.66709582  1
  Al0+  Al63  1  0.24738641  0.75174690  0.00411534  1
  Al0+  Al64  1  0.25038195  0.75100373  0.33150206  1
  Al0+  Al65  1  0.24814796  0.74869846  0.66302811  1
  Al0+  Al66  1  0.75031122  0.25262446  0.00233870  1
  Al0+  Al67  1  0.75043493  0.25127633  0.33760909  1
  Al0+  Al68  1  0.75248378  0.25076632  0.67160081  1
  Al0+  Al69  1  0.75077925  0.75130060  0.00062371  1
  Al0+  Al70  1  0.75044618  0.75074427  0.33081296  1
  Al0+  Al71  1  0.74943220  0.75142677  0.66484664  1
  Al0+  Al72  1  0.82161700  0.57371942  0.01677130  1
  Al0+  Al73  1  0.32382204  0.07295824  0.01463181  1
  Al0+  Al74  1  0.92816040  0.32109796  0.31958919  1
  Al0+  Al75  1  0.56998286  0.67784472  0.98516745  1
  Al0+  Al76  1  0.17856630  0.42587538  0.68332585  1
  Al0+  Al77  1  0.42849760  0.31936265  0.65215549  1
  Al0+  Al78  1  0.57204987  0.67786233  0.65022008  1
  Al0+  Al79  1  0.57472806  0.17820900  0.65234226  1
  Al0+  Al80  1  0.82166703  0.07222926  0.68225421  1
  Al0+  Al81  1  0.42594690  0.82068720  0.65009505  1
  Al0+  Al82  1  0.17807314  0.92979059  0.01447192  1
  Al0+  Al83  1  0.67879302  0.42818257  0.01586280  1
  Al0+  Al84  1  0.07004320  0.17790925  0.65127558  1
  Al0+  Al85  1  0.32055876  0.57045831  0.01276984  1
  Al0+  Al86  1  0.82088747  0.07061046  0.34636796  1
  Al0+  Al87  1  0.81905263  0.57175198  0.67881081  1
  Al0+  Al88  1  0.67844018  0.43001591  0.35015688  1
  Al0+  Al89  1  0.06931087  0.18086379  0.98579112  1
  Al0+  Al90  1  0.32215480  0.06820817  0.67926566  1
  Al0+  Al91  1  0.32035677  0.06968306  0.34866407  1
  Al0+  Al92  1  0.17896276  0.43062408  0.34523233  1
  Al0+  Al93  1  0.32178438  0.57126295  0.67999416  1
  Al0+  Al94  1  0.42828076  0.32004631  0.31758458  1
  Al0+  Al95  1  0.42650013  0.82292683  0.98583021  1
  Si0+  Si96  1  0.67698645  0.42824622  0.68305537  1
  Si0+  Si97  1  0.57191492  0.17773093  0.31740072  1
  Si0+  Si98  1  0.17725535  0.92671053  0.68096825  1
  Si0+  Si99  1  0.57185640  0.67972323  0.31650676  1
  Si0+  Si100  1  0.42902140  0.82203326  0.31641532  1
  Si0+  Si101  1  0.17791800  0.42742242  0.01686483  1
  Si0+  Si102  1  0.32258098  0.57350581  0.34903636  1
  Si0+  Si103  1  0.92987130  0.82130247  0.31780168  1
  Si0+  Si104  1  0.07107767  0.67918853  0.31764449  1
  Si0+  Si105  1  0.17789308  0.92577230  0.35186764  1
  Si0+  Si106  1  0.06932019  0.67681556  0.65238925  1
  Si0+  Si107  1  0.92870040  0.82088771  0.65070378  1
  Si0+  Si108  1  0.42897775  0.31968811  0.98679955  1
  Si0+  Si109  1  0.92627737  0.32356790  0.98180743  1
  Si0+  Si110  1  0.67945834  0.92761336  0.68470152  1
  Si0+  Si111  1  0.67978536  0.93026575  0.01435377  1
  Si0+  Si112  1  0.82181567  0.07065499  0.01413567  1
  Si0+  Si113  1  0.57416336  0.17875042  0.98778928  1
  Si0+  Si114  1  0.92925136  0.82184432  0.98437974  1
  Si0+  Si115  1  0.82184083  0.57308406  0.34874283  1
  Si0+  Si116  1  0.67880296  0.92586929  0.35100559  1
  Si0+  Si117  1  0.07081447  0.67803207  0.98418562  1
  Si0+  Si118  1  0.07178022  0.17651941  0.31548769  1
  Si0+  Si119  1  0.92985069  0.32313166  0.65186449  1
  O2-  O120  1  0.25289152  -0.00112512  0.06381602  1
  O2-  O121  1  0.24578104  -0.00562825  0.39529912  1
  O2-  O122  1  0.24953399  -0.00919392  0.72487082  1
  O2-  O123  1  0.24603282  0.49636464  0.06141836  1
  O2-  O124  1  0.25568265  0.50298611  0.39206459  1
  O2-  O125  1  0.25295618  0.49672884  0.73082372  1
  O2-  O126  1  0.74854450  0.00314281  0.05789106  1
  O2-  O127  1  0.74466015  -0.00226576  0.39395466  1
  O2-  O128  1  0.74358260  0.00108664  0.72924071  1
  O2-  O129  1  0.75133420  0.50038095  0.06599093  1
  O2-  O130  1  0.75447435  0.50491352  0.39440113  1
  O2-  O131  1  0.74112815  0.50179317  0.72625611  1
  O2-  O132  1  0.00164924  0.24475463  0.27239143  1
  O2-  O133  1  -0.00354673  0.25390434  0.60545772  1
  O2-  O134  1  -0.00349390  0.25693903  0.93776300  1
  O2-  O135  1  0.00044140  0.75073830  0.27467283  1
  O2-  O136  1  -0.00204026  0.74769079  0.60909252  1
  O2-  O137  1  -0.00187386  0.74854212  0.94275552  1
  O2-  O138  1  0.50172360  0.24329208  0.27041465  1
  O2-  O139  1  0.50095782  0.24746242  0.60145229  1
  O2-  O140  1  0.49940780  0.24643403  0.94751233  1
  O2-  O141  1  0.49862257  0.74919655  0.27499645  1
  O2-  O142  1  0.49611606  0.74610772  0.59982511  1
  O2-  O143  1  0.49412034  0.74644840  0.93652137  1
  O2-  O144  1  0.06634961  0.18124971  0.09926777  1
  O2-  O145  1  0.07029514  0.17570878  0.42094024  1
  O2-  O146  1  0.06860278  0.17616926  0.76446520  1
  O2-  O147  1  0.06953835  0.67849113  0.08975636  1
  O2-  O148  1  0.06969216  0.68012384  0.42273547  1
  O2-  O149  1  0.06892457  0.67907434  0.75738642  1
  O2-  O150  1  0.57897258  0.17847946  0.09282491  1
  O2-  O151  1  0.57228235  0.17951093  0.42237463  1
  O2-  O152  1  0.57420441  0.18171654  0.76678919  1
  O2-  O153  1  0.56988240  0.68129467  0.09962358  1
  O2-  O154  1  0.57470134  0.68160497  0.42118549  1
  O2-  O155  1  0.57532440  0.68155839  0.76332221  1
  O2-  O156  1  0.17895634  0.43446674  0.23183521  1
  O2-  O157  1  0.17531666  0.42912537  0.56942572  1
  O2-  O158  1  0.17893574  0.42746682  0.91170383  1
  O2-  O159  1  0.17661814  0.92345716  0.24663844  1
  O2-  O160  1  0.17506693  0.92747207  0.57504071  1
  O2-  O161  1  0.17306084  0.93268262  0.90136046  1
  O2-  O162  1  0.67826067  0.43140745  0.23729192  1
  O2-  O163  1  0.68054308  0.42737270  0.57733063  1
  O2-  O164  1  0.67998311  0.42487224  0.90264260  1
  O2-  O165  1  0.68124596  0.92456237  0.24485419  1
  O2-  O166  1  0.68504377  0.92402553  0.57899122  1
  O2-  O167  1  0.68214674  0.93063772  0.90976820  1
  O2-  O168  1  0.42783268  0.31944391  0.09220180  1
  O2-  O169  1  0.42730507  0.31973922  0.42990306  1
  O2-  O170  1  0.43046301  0.31941779  0.76639286  1
  O2-  O171  1  0.43188792  0.82261864  0.10034883  1
  O2-  O172  1  0.42834095  0.82148184  0.42107500  1
  O2-  O173  1  0.42697292  0.82105858  0.76340794  1
  O2-  O174  1  0.92541822  0.32035612  0.08774700  1
  O2-  O175  1  0.92966820  0.32127248  0.43255860  1
  O2-  O176  1  0.93067866  0.32199066  0.75742590  1
  O2-  O177  1  0.92983897  0.82380940  0.08992031  1
  O2-  O178  1  0.92975236  0.82084724  0.42270568  1
  O2-  O179  1  0.92921665  0.82245670  0.75590350  1
  O2-  O180  1  0.31890610  0.06819696  0.23560227  1
  O2-  O181  1  0.31855194  0.06873683  0.56598277  1
  O2-  O182  1  0.32414346  0.07415711  0.90144759  1
  O2-  O183  1  0.31987971  0.57520838  0.24306635  1
  O2-  O184  1  0.31567095  0.57275367  0.56621569  1
  O2-  O185  1  0.32003319  0.56902224  0.90028321  1
  O2-  O186  1  0.82007221  0.06716800  0.23244045  1
  O2-  O187  1  0.82316531  0.06866548  0.56909640  1
  O2-  O188  1  0.82156803  0.06826577  0.90930083  1
  O2-  O189  1  0.82015846  0.57536913  0.24353612  1
  O2-  O190  1  0.82075918  0.56979278  0.56538319  1
  O2-  O191  1  0.82041590  0.57365386  0.90324057  1
  O2-  O192  1  0.04613000  0.08167145  0.27093158  1
  O2-  O193  1  0.03732610  0.08212211  0.59608691  1
  O2-  O194  1  0.03544668  0.08517498  0.93191385  1
  O2-  O195  1  0.04323504  0.58916345  0.26732369  1
  O2-  O196  1  0.03859969  0.58522386  0.60605656  1
  O2-  O197  1  0.04444991  0.58611422  0.93625119  1
  O2-  O198  1  0.55110824  0.08096582  0.27409902  1
  O2-  O199  1  0.55602974  0.07753495  0.60094296  1
  O2-  O200  1  0.55189780  0.08584472  0.94068321  1
  O2-  O201  1  0.54553693  0.58753736  0.26985065  1
  O2-  O202  1  0.54832873  0.57906652  0.59652376  1
  O2-  O203  1  0.54602653  0.57738271  0.93557398  1
  O2-  O204  1  0.16431481  0.20455486  0.26955180  1
  O2-  O205  1  0.16573469  0.20823086  0.59701775  1
  O2-  O206  1  0.16649203  0.21040759  0.93207316  1
  O2-  O207  1  0.16299468  0.70744999  0.26968280  1
  O2-  O208  1  0.15870395  0.70463496  0.60061634  1
  O2-  O209  1  0.16134344  0.70814903  0.93662266  1
  O2-  O210  1  0.66537951  0.20539663  0.27159272  1
  O2-  O211  1  0.67444854  0.20816412  0.60216887  1
  O2-  O212  1  0.66496861  0.20887565  0.93859085  1
  O2-  O213  1  0.66328435  0.70986612  0.26844249  1
  O2-  O214  1  0.66878659  0.71282827  0.59517858  1
  O2-  O215  1  0.66864019  0.71085318  0.93529838  1
  O2-  O216  1  0.08347153  0.45320709  0.06122493  1
  O2-  O217  1  0.08307295  0.46424623  0.39938119  1
  O2-  O218  1  0.08220818  0.45702223  0.73870643  1
  O2-  O219  1  0.08025806  0.96150144  0.06983149  1
  O2-  O220  1  0.08331992  0.94844511  0.39754673  1
  O2-  O221  1  0.08415012  0.95407526  0.72684162  1
  O2-  O222  1  0.58165651  0.45622238  0.07160907  1
  O2-  O223  1  0.58226879  0.46267860  0.40349138  1
  O2-  O224  1  0.58148467  0.44873172  0.72563824  1
  O2-  O225  1  0.58914551  0.95658452  0.06466294  1
  O2-  O226  1  0.58450816  0.94624879  0.39637653  1
  O2-  O227  1  0.58442415  0.94748965  0.72838957  1
  O2-  O228  1  0.20382846  0.33460726  0.06363401  1
  O2-  O229  1  0.20589196  0.33315292  0.39791795  1
  O2-  O230  1  0.20643637  0.32777716  0.73537516  1
  O2-  O231  1  0.19920911  0.83085458  0.06998024  1
  O2-  O232  1  0.20321482  0.83148858  0.39766242  1
  O2-  O233  1  0.19624264  0.83091736  0.72472907  1
  O2-  O234  1  0.70928077  0.33055550  0.07212704  1
  O2-  O235  1  0.70937436  0.33418946  0.40406900  1
  O2-  O236  1  0.70760727  0.33766853  0.73220011  1
  O2-  O237  1  0.71104878  0.84059400  0.06417654  1
  O2-  O238  1  0.71018762  0.83414250  0.39768800  1
  O2-  O239  1  0.71282484  0.83747138  0.73286697  1
  O2-  O240  1  0.45989515  0.41792759  0.26526548  1
  O2-  O241  1  0.45348018  0.41750393  0.59695699  1
  O2-  O242  1  0.45915848  0.41061321  0.94004275  1
  O2-  O243  1  0.45932618  0.91345193  0.26932345  1
  O2-  O244  1  0.46052587  0.91640411  0.59485674  1
  O2-  O245  1  0.46062312  0.92070035  0.93489185  1
  O2-  O246  1  0.95967835  0.41712991  0.26356807  1
  O2-  O247  1  0.95540091  0.41694955  0.60585871  1
  O2-  O248  1  0.94909309  0.41900879  0.93870900  1
  O2-  O249  1  0.95816838  0.91274595  0.26894257  1
  O2-  O250  1  0.95962466  0.91047664  0.60060693  1
  O2-  O251  1  0.95892865  0.91234075  0.93544632  1
  O2-  O252  1  0.33129494  0.28920775  0.26329641  1
  O2-  O253  1  0.33060955  0.28820762  0.60009195  1
  O2-  O254  1  0.33712339  0.29420554  0.93910496  1
  O2-  O255  1  0.33567961  0.79690825  0.26990165  1
  O2-  O256  1  0.32675353  0.79487448  0.59549309  1
  O2-  O257  1  0.32459694  0.80190566  0.93847073  1
  O2-  O258  1  0.83143003  0.28917260  0.26564908  1
  O2-  O259  1  0.83561759  0.29798183  0.60748006  1
  O2-  O260  1  0.83316666  0.29609966  0.93598433  1
  O2-  O261  1  0.83788123  0.79504101  0.26876870  1
  O2-  O262  1  0.83775121  0.79499707  0.60133621  1
  O2-  O263  1  0.83723846  0.79670135  0.93646372  1
  O2-  O264  1  0.42290806  0.04810923  0.06919483  1
  O2-  O265  1  0.41787268  0.03934170  0.40094490  1
  O2-  O266  1  0.42152941  0.04168162  0.72963195  1
  O2-  O267  1  0.41596476  0.54012629  0.06877063  1
  O2-  O268  1  0.41734597  0.55146071  0.39217226  1
  O2-  O269  1  0.42202018  0.54623948  0.73008968  1
  O2-  O270  1  0.91128182  0.03853037  0.06260800  1
  O2-  O271  1  0.91671356  0.03674637  0.40013186  1
  O2-  O272  1  0.91634113  0.03361567  0.73553481  1
  O2-  O273  1  0.92168754  0.54819226  0.06862288  1
  O2-  O274  1  0.91698799  0.54961607  0.39181444  1
  O2-  O275  1  0.91361636  0.54111757  0.73636962  1
  O2-  O276  1  0.28866512  0.16960563  0.06849989  1
  O2-  O277  1  0.28811106  0.16586474  0.40132205  1
  O2-  O278  1  0.28827816  0.16274919  0.73396178  1
  O2-  O279  1  0.28835036  0.66621775  0.06806855  1
  O2-  O280  1  0.29480149  0.66717724  0.39396468  1
  O2-  O281  1  0.28782890  0.66866182  0.73230157  1
  O2-  O282  1  0.79655085  0.16349527  0.06022707  1
  O2-  O283  1  0.79238529  0.16642717  0.40122233  1
  O2-  O284  1  0.79590972  0.16882971  0.73856770  1
  O2-  O285  1  0.79596749  0.67354220  0.06930982  1
  O2-  O286  1  0.79729253  0.66794566  0.39393775  1
  O2-  O287  1  0.79411015  0.67089292  0.73064727  1
