# generated using pymatgen
data_Ca2Al2SiO7
_symmetry_space_group_name_H-M   'P 1'
_cell_length_a   15.47431321
_cell_length_b   15.47963866
_cell_length_c   15.29791791
_cell_angle_alpha   90.00764234
_cell_angle_beta   90.00246351
_cell_angle_gamma   89.99780641
_symmetry_Int_Tables_number   1
_chemical_formula_structural   Ca2Al2SiO7
_chemical_formula_sum   'Ca48 Al48 Si24 O168'
_cell_volume   3664.41391285
_cell_formula_units_Z   24
loop_
 _symmetry_equiv_pos_site_id
 _symmetry_equiv_pos_as_xyz
  1  'x, y, z'
loop_
 _atom_type_symbol
 _atom_type_oxidation_number
  Ca2+  2.0
  Al0+  0.0
  Si0+  0.0
  O2-  -2.0
loop_
 _atom_site_type_symbol
 _atom_site_label
 _atom_site_symmetry_multiplicity
 _atom_site_fract_x
 _atom_site_fract_y
 _atom_site_fract_z
 _atom_site_occupancy
  Ca2+  Ca0  1  0.17709907  0.08711474  0.17288951  1
  Ca2+  Ca1  1  0.17795368  0.08578827  0.49928600  1
  Ca2+  Ca2  1  0.18048085  0.08722344  0.84109610  1
  Ca2+  Ca3  1  0.16652962  0.57444318  0.16922114  1
  Ca2+  Ca4  1  0.16832494  0.58191176  0.50146789  1
  Ca2+  Ca5  1  0.16881487  0.57464906  0.84147118  1
  Ca2+  Ca6  1  0.66540755  0.08011791  0.17396013  1
  Ca2+  Ca7  1  0.66031766  0.07605493  0.50100727  1
  Ca2+  Ca8  1  0.66508247  0.07489486  0.84000154  1
  Ca2+  Ca9  1  0.67021209  0.57275895  0.17728683  1
  Ca2+  Ca10  1  0.66322791  0.57813802  0.50028421  1
  Ca2+  Ca11  1  0.66270435  0.58577255  0.83490350  1
  Ca2+  Ca12  1  0.07850329  0.32153109  0.16382687  1
  Ca2+  Ca13  1  0.07527969  0.32424016  0.48913677  1
  Ca2+  Ca14  1  0.08739432  0.32811125  0.83739669  1
  Ca2+  Ca15  1  0.08386438  0.83821520  0.16548976  1
  Ca2+  Ca16  1  0.07786275  0.83917632  0.49337194  1
  Ca2+  Ca17  1  0.07277668  0.83737952  0.82719199  1
  Ca2+  Ca18  1  0.58437780  0.32068725  0.16318419  1
  Ca2+  Ca19  1  0.58541371  0.32051852  0.49206566  1
  Ca2+  Ca20  1  0.58190120  0.31792210  0.83166756  1
  Ca2+  Ca21  1  0.57510834  0.84564072  0.16545129  1
  Ca2+  Ca22  1  0.57582515  0.84382043  0.49747770  1
  Ca2+  Ca23  1  0.57721129  0.83972946  0.82691884  1
  Ca2+  Ca24  1  0.32894592  0.40550639  0.16616707  1
  Ca2+  Ca25  1  0.33287017  0.41791974  0.50549462  1
  Ca2+  Ca26  1  0.33170330  0.41618506  0.84510078  1
  Ca2+  Ca27  1  0.33440935  0.92608049  0.17445278  1
  Ca2+  Ca28  1  0.33790812  0.92484867  0.50047998  1
  Ca2+  Ca29  1  0.34355346  0.92513164  0.83599489  1
  Ca2+  Ca30  1  0.83066326  0.42080880  0.17835766  1
  Ca2+  Ca31  1  0.82990723  0.41484441  0.49342028  1
  Ca2+  Ca32  1  0.83198858  0.42119116  0.83632770  1
  Ca2+  Ca33  1  0.81918599  0.92888948  0.17070905  1
  Ca2+  Ca34  1  0.82388937  0.92115083  0.50341279  1
  Ca2+  Ca35  1  0.82134524  0.91724532  0.83905941  1
  Ca2+  Ca36  1  0.42632384  0.16082506  0.16121543  1
  Ca2+  Ca37  1  0.42499755  0.15501992  0.49775912  1
  Ca2+  Ca38  1  0.42654989  0.15849170  0.83397881  1
  Ca2+  Ca39  1  0.41491025  0.68258241  0.16290950  1
  Ca2+  Ca40  1  0.42297236  0.67997942  0.49631237  1
  Ca2+  Ca41  1  0.42386590  0.68146946  0.82631505  1
  Ca2+  Ca42  1  0.92578718  0.15263981  0.16490848  1
  Ca2+  Ca43  1  0.92104138  0.16817853  0.48362122  1
  Ca2+  Ca44  1  0.92403599  0.15546414  0.83470065  1
  Ca2+  Ca45  1  0.91346613  0.66586807  0.16627697  1
  Ca2+  Ca46  1  0.91144222  0.67281987  0.49656505  1
  Ca2+  Ca47  1  0.91775847  0.67554221  0.82575283  1
  Al0+  Al48  1  -0.00011717  -0.00158338  -0.00417846  1
  Al0+  Al49  1  -0.00027870  -0.00244048  0.33296085  1
  Al0+  Al50  1  0.00186505  0.00004262  0.66018783  1
  Al0+  Al51  1  0.00189290  0.49912101  0.00278835  1
  Al0+  Al52  1  0.00034350  0.50049833  0.33479511  1
  Al0+  Al53  1  -0.00039169  0.49884450  0.66767349  1
  Al0+  Al54  1  0.49911802  -0.00027593  -0.00087589  1
  Al0+  Al55  1  0.49798157  0.00116715  0.33183743  1
  Al0+  Al56  1  0.50050556  0.00098592  0.66773483  1
  Al0+  Al57  1  0.50012298  0.50261402  -0.00099258  1
  Al0+  Al58  1  0.49886738  0.50140298  0.33712567  1
  Al0+  Al59  1  0.49917190  0.49992441  0.66682969  1
  Al0+  Al60  1  0.24735330  0.25084078  0.00208261  1
  Al0+  Al61  1  0.24858480  0.25001808  0.33678915  1
  Al0+  Al62  1  0.24889287  0.25018339  0.67152616  1
  Al0+  Al63  1  0.25018330  0.74810185  -0.00650070  1
  Al0+  Al64  1  0.24869445  0.74916221  0.33218989  1
  Al0+  Al65  1  0.24933001  0.74858282  0.66534625  1
  Al0+  Al66  1  0.75386104  0.25224411  -0.00201285  1
  Al0+  Al67  1  0.74947940  0.25259201  0.33241059  1
  Al0+  Al68  1  0.75122376  0.25149236  0.66502659  1
  Al0+  Al69  1  0.75062318  0.75063202  0.00451236  1
  Al0+  Al70  1  0.74916656  0.74863527  0.33845792  1
  Al0+  Al71  1  0.75145866  0.74835227  0.66319769  1
  Al0+  Al72  1  0.42884228  0.32194881  0.98716807  1
  Al0+  Al73  1  0.68169990  0.92972898  0.68031633  1
  Al0+  Al74  1  0.06926525  0.17840363  0.98523057  1
  Al0+  Al75  1  0.92986612  0.82119047  0.65155784  1
  Al0+  Al76  1  0.82353625  0.07250024  0.01292022  1
  Al0+  Al77  1  0.82236238  0.57086968  0.35006551  1
  Al0+  Al78  1  0.57368172  0.17890130  0.98480851  1
  Al0+  Al79  1  0.31957587  0.06951887  0.68332750  1
  Al0+  Al80  1  0.82108494  0.07189688  0.34733935  1
  Al0+  Al81  1  0.57226594  0.67628461  0.65059097  1
  Al0+  Al82  1  0.57113502  0.18032469  0.65244479  1
  Al0+  Al83  1  0.18003103  0.42943152  0.01627896  1
  Al0+  Al84  1  0.42969485  0.82213791  0.64978416  1
  Al0+  Al85  1  0.67808031  0.92995228  0.01523579  1
  Al0+  Al86  1  0.42957418  0.81979507  0.31863921  1
  Al0+  Al87  1  0.67716509  0.93069122  0.34943900  1
  Al0+  Al88  1  0.31980991  0.07205830  0.34894335  1
  Al0+  Al89  1  0.07066162  0.17623480  0.31743927  1
  Al0+  Al90  1  0.56873971  0.18039010  0.32058153  1
  Al0+  Al91  1  0.42901564  0.82131640  0.98586265  1
  Al0+  Al92  1  0.31963788  0.06978424  0.01347320  1
  Al0+  Al93  1  0.92882977  0.32161721  0.31782544  1
  Al0+  Al94  1  0.67637615  0.42814792  0.34882461  1
  Al0+  Al95  1  0.17877496  0.92603423  0.34706839  1
  Si0+  Si96  1  0.07039715  0.67618773  0.98467618  1
  Si0+  Si97  1  0.32159749  0.57137189  0.68326943  1
  Si0+  Si98  1  0.82156039  0.56915482  0.68274360  1
  Si0+  Si99  1  0.42606214  0.32153741  0.65213532  1
  Si0+  Si100  1  0.93010557  0.32265756  0.65157970  1
  Si0+  Si101  1  0.07205802  0.18064300  0.65170584  1
  Si0+  Si102  1  0.42617879  0.32608431  0.31970974  1
  Si0+  Si103  1  0.92972285  0.32652457  0.98126343  1
  Si0+  Si104  1  0.67820451  0.42788646  0.68370672  1
  Si0+  Si105  1  0.32245703  0.57311502  0.01726514  1
  Si0+  Si106  1  0.07075927  0.67868551  0.31723745  1
  Si0+  Si107  1  0.17726383  0.92513847  0.01273544  1
  Si0+  Si108  1  0.07048079  0.67557759  0.65007402  1
  Si0+  Si109  1  0.17893999  0.43057556  0.68294950  1
  Si0+  Si110  1  0.67844930  0.42992012  0.01270173  1
  Si0+  Si111  1  0.92937433  0.81852079  0.98562580  1
  Si0+  Si112  1  0.17608830  0.92646482  0.68349955  1
  Si0+  Si113  1  0.32005253  0.57282668  0.34901835  1
  Si0+  Si114  1  0.17993823  0.42989199  0.34997819  1
  Si0+  Si115  1  0.57212652  0.67635746  0.31573209  1
  Si0+  Si116  1  0.82158834  0.57096133  0.01325059  1
  Si0+  Si117  1  0.92652038  0.81985557  0.31617429  1
  Si0+  Si118  1  0.57425129  0.67883196  0.98552680  1
  Si0+  Si119  1  0.82506105  0.07434680  0.68148414  1
  O2-  O120  1  0.24615640  -0.00778896  0.05710533  1
  O2-  O121  1  0.24774542  -0.00062266  0.39842842  1
  O2-  O122  1  0.24635759  -0.00808376  0.72904427  1
  O2-  O123  1  0.25850429  0.50069227  0.06277768  1
  O2-  O124  1  0.25372549  0.49763214  0.39267901  1
  O2-  O125  1  0.25099487  0.49992069  0.72570470  1
  O2-  O126  1  0.74437887  0.00875538  0.06237162  1
  O2-  O127  1  0.74906417  0.00233124  0.40035606  1
  O2-  O128  1  0.75696342  0.00532352  0.72560039  1
  O2-  O129  1  0.75043643  0.50060570  0.05403329  1
  O2-  O130  1  0.74875848  0.50033781  0.39928184  1
  O2-  O131  1  0.74743153  0.50175920  0.72578714  1
  O2-  O132  1  -0.00534986  0.24453136  0.26750752  1
  O2-  O133  1  -0.00440240  0.24625405  0.61102699  1
  O2-  O134  1  -0.00760548  0.25180443  0.93769227  1
  O2-  O135  1  -0.00060023  0.74901277  0.27472909  1
  O2-  O136  1  0.00710972  0.74794509  0.60530646  1
  O2-  O137  1  0.00176464  0.74876289  0.94245301  1
  O2-  O138  1  0.49520186  0.25814553  0.27687010  1
  O2-  O139  1  0.49467628  0.25457163  0.60712751  1
  O2-  O140  1  0.49951241  0.25021811  0.93515868  1
  O2-  O141  1  0.50707555  0.74767857  0.27112082  1
  O2-  O142  1  0.50414283  0.75161888  0.60067743  1
  O2-  O143  1  0.50730485  0.74870458  0.94165827  1
  O2-  O144  1  0.06944555  0.17855350  0.09732128  1
  O2-  O145  1  0.07270983  0.18223445  0.43180829  1
  O2-  O146  1  0.07285219  0.18267111  0.75688973  1
  O2-  O147  1  0.06951761  0.67434384  0.08949496  1
  O2-  O148  1  0.07185456  0.67693503  0.42232142  1
  O2-  O149  1  0.06691827  0.67169419  0.75583786  1
  O2-  O150  1  0.57387208  0.18076965  0.09798442  1
  O2-  O151  1  0.56625122  0.18028758  0.43393823  1
  O2-  O152  1  0.57293126  0.18168224  0.76533712  1
  O2-  O153  1  0.57454863  0.67513451  0.09061897  1
  O2-  O154  1  0.56801078  0.67276860  0.42085268  1
  O2-  O155  1  0.56827497  0.67367732  0.76457052  1
  O2-  O156  1  0.17974183  0.43168497  0.24523881  1
  O2-  O157  1  0.17872894  0.43200145  0.57782525  1
  O2-  O158  1  0.17756394  0.43433223  0.90262082  1
  O2-  O159  1  0.18265393  0.92281423  0.23328761  1
  O2-  O160  1  0.17351804  0.92815748  0.57858443  1
  O2-  O161  1  0.17496285  0.92549073  0.90699060  1
  O2-  O162  1  0.67499393  0.43210654  0.23478900  1
  O2-  O163  1  0.67966754  0.42701118  0.57938397  1
  O2-  O164  1  0.67987056  0.43247056  0.90713562  1
  O2-  O165  1  0.67772442  0.93131398  0.23603019  1
  O2-  O166  1  0.68179383  0.93146741  0.56788106  1
  O2-  O167  1  0.68208065  0.92467919  0.90144236  1
  O2-  O168  1  0.43233494  0.32300738  0.10051004  1
  O2-  O169  1  0.42578747  0.32892780  0.42555913  1
  O2-  O170  1  0.42598886  0.32311290  0.75737273  1
  O2-  O171  1  0.42481975  0.81796116  0.09861036  1
  O2-  O172  1  0.42855488  0.81737241  0.43131228  1
  O2-  O173  1  0.43022683  0.81974285  0.76354496  1
  O2-  O174  1  0.93359700  0.33688712  0.08532231  1
  O2-  O175  1  0.93520383  0.32378123  0.43217896  1
  O2-  O176  1  0.93201608  0.32830782  0.75654254  1
  O2-  O177  1  0.92993442  0.81543664  0.09032097  1
  O2-  O178  1  0.92829953  0.81812007  0.42123164  1
  O2-  O179  1  0.93117563  0.81744896  0.76543237  1
  O2-  O180  1  0.32006501  0.07212349  0.23552405  1
  O2-  O181  1  0.31676225  0.07254442  0.57089625  1
  O2-  O182  1  0.31910761  0.06856675  0.90000838  1
  O2-  O183  1  0.31653006  0.57459380  0.24424886  1
  O2-  O184  1  0.31918399  0.56959892  0.57804590  1
  O2-  O185  1  0.31828454  0.57339152  0.91150682  1
  O2-  O186  1  0.82155710  0.06705489  0.23411108  1
  O2-  O187  1  0.82616255  0.07521417  0.57645026  1
  O2-  O188  1  0.82668007  0.06472253  0.89891308  1
  O2-  O189  1  0.82249216  0.56976260  0.23563013  1
  O2-  O190  1  0.82763998  0.56498981  0.57890126  1
  O2-  O191  1  0.82280148  0.57157469  0.90778215  1
  O2-  O192  1  0.04690048  0.07626029  0.26556384  1
  O2-  O193  1  0.05216408  0.08737036  0.60502280  1
  O2-  O194  1  0.04043952  0.08165715  0.92852279  1
  O2-  O195  1  0.04234354  0.58735860  0.26917230  1
  O2-  O196  1  0.04058418  0.58349155  0.60258090  1
  O2-  O197  1  0.03924214  0.58621838  0.93513563  1
  O2-  O198  1  0.53539709  0.08598256  0.26498930  1
  O2-  O199  1  0.53856587  0.08474472  0.59983630  1
  O2-  O200  1  0.54331237  0.08108938  0.93228772  1
  O2-  O201  1  0.54226210  0.58378805  0.26888733  1
  O2-  O202  1  0.53943412  0.57853314  0.59778004  1
  O2-  O203  1  0.54760865  0.58660046  0.93664855  1
  O2-  O204  1  0.16819644  0.21198628  0.26698298  1
  O2-  O205  1  0.16130929  0.21611392  0.60444733  1
  O2-  O206  1  0.16354796  0.21512936  0.93039347  1
  O2-  O207  1  0.16160407  0.70487900  0.26746491  1
  O2-  O208  1  0.16616186  0.69446670  0.60639497  1
  O2-  O209  1  0.16216590  0.69948282  0.93511711  1
  O2-  O210  1  0.66532917  0.21065710  0.26728428  1
  O2-  O211  1  0.66791311  0.21302345  0.59987563  1
  O2-  O212  1  0.67241433  0.20916228  0.93169141  1
  O2-  O213  1  0.66839898  0.69663760  0.27340069  1
  O2-  O214  1  0.67374855  0.69430687  0.60188549  1
  O2-  O215  1  0.66921223  0.70189650  0.93995352  1
  O2-  O216  1  0.08609629  0.46742357  0.07080777  1
  O2-  O217  1  0.09078661  0.46328816  0.39881468  1
  O2-  O218  1  0.08804055  0.46124827  0.73106640  1
  O2-  O219  1  0.08339115  0.94958290  0.05791968  1
  O2-  O220  1  0.07883828  0.94975263  0.39787389  1
  O2-  O221  1  0.08248238  0.95481974  0.72946565  1
  O2-  O222  1  0.58770946  0.45932421  0.06042845  1
  O2-  O223  1  0.57843202  0.45751436  0.40379208  1
  O2-  O224  1  0.58556593  0.45421780  0.73039691  1
  O2-  O225  1  0.57851573  0.95371548  0.06549866  1
  O2-  O226  1  0.57950153  0.96172117  0.40105754  1
  O2-  O227  1  0.58539902  0.96136513  0.73388415  1
  O2-  O228  1  0.20615092  0.33335812  0.07151941  1
  O2-  O229  1  0.20468435  0.33883515  0.39972875  1
  O2-  O230  1  0.20480123  0.33916218  0.73145331  1
  O2-  O231  1  0.19935018  0.82927162  0.05587806  1
  O2-  O232  1  0.20434151  0.82673623  0.40056662  1
  O2-  O233  1  0.19505418  0.82959814  0.72678599  1
  O2-  O234  1  0.70602725  0.33865288  0.05954732  1
  O2-  O235  1  0.70626037  0.33176845  0.40388733  1
  O2-  O236  1  0.71135719  0.33837232  0.73289056  1
  O2-  O237  1  0.71217797  0.83315717  0.06935134  1
  O2-  O238  1  0.70310871  0.83078005  0.39959225  1
  O2-  O239  1  0.71276994  0.83120634  0.73153964  1
  O2-  O240  1  0.44765403  0.42078621  0.27367975  1
  O2-  O241  1  0.44939963  0.41592099  0.60680050  1
  O2-  O242  1  0.45474531  0.42242480  0.93459415  1
  O2-  O243  1  0.45868270  0.91637492  0.26524584  1
  O2-  O244  1  0.45794752  0.92052855  0.59886007  1
  O2-  O245  1  0.45876248  0.91685364  0.93101120  1
  O2-  O246  1  0.96393817  0.41912432  0.26603653  1
  O2-  O247  1  0.96448327  0.41171989  0.60279458  1
  O2-  O248  1  0.96331456  0.41718693  0.93121847  1
  O2-  O249  1  0.95492002  0.91019445  0.26755286  1
  O2-  O250  1  0.95913913  0.91729278  0.59616913  1
  O2-  O251  1  0.95709039  0.90827218  0.93499653  1
  O2-  O252  1  0.33184580  0.30034877  0.27600449  1
  O2-  O253  1  0.33114336  0.29766587  0.60721717  1
  O2-  O254  1  0.32784291  0.29918265  0.93740467  1
  O2-  O255  1  0.33402614  0.78306598  0.26577306  1
  O2-  O256  1  0.32999984  0.79120107  0.60022629  1
  O2-  O257  1  0.33394309  0.78729684  0.92909542  1
  O2-  O258  1  0.82736090  0.30593084  0.26864343  1
  O2-  O259  1  0.83654588  0.30160518  0.60584664  1
  O2-  O260  1  0.83447049  0.30879266  0.93570106  1
  O2-  O261  1  0.83556513  0.78844342  0.26938129  1
  O2-  O262  1  0.83624727  0.78609705  0.59668681  1
  O2-  O263  1  0.83868762  0.78689953  0.93772323  1
  O2-  O264  1  0.41620719  0.04034366  0.06619170  1
  O2-  O265  1  0.41630211  0.03956519  0.40176126  1
  O2-  O266  1  0.41655724  0.03940148  0.73618573  1
  O2-  O267  1  0.41799207  0.55459065  0.06139721  1
  O2-  O268  1  0.41203621  0.54940231  0.39741395  1
  O2-  O269  1  0.41285563  0.54376914  0.73138311  1
  O2-  O270  1  0.91921082  0.03417450  0.06542945  1
  O2-  O271  1  0.91953946  0.04196936  0.39949102  1
  O2-  O272  1  0.92015812  0.04794502  0.72500137  1
  O2-  O273  1  0.91314105  0.54337062  0.06059924  1
  O2-  O274  1  0.92100052  0.54251067  0.40343302  1
  O2-  O275  1  0.91194713  0.53695340  0.73285418  1
  O2-  O276  1  0.28686243  0.16554204  0.06597780  1
  O2-  O277  1  0.29162005  0.17025531  0.40401920  1
  O2-  O278  1  0.28529380  0.16602516  0.73694707  1
  O2-  O279  1  0.28925593  0.66458527  0.06319843  1
  O2-  O280  1  0.28511778  0.66046439  0.39915952  1
  O2-  O281  1  0.29229711  0.66251317  0.73122451  1
  O2-  O282  1  0.81098745  0.17667232  0.05849155  1
  O2-  O283  1  0.79983234  0.17308251  0.39619198  1
  O2-  O284  1  0.80204777  0.16913145  0.72715984  1
  O2-  O285  1  0.79617272  0.66195111  0.06269205  1
  O2-  O286  1  0.79566747  0.66862339  0.40363528  1
  O2-  O287  1  0.79793040  0.66166609  0.73032590  1
