# generated using pymatgen
data_Ca2Al2SiO7
_symmetry_space_group_name_H-M   'P 1'
_cell_length_a   15.46140753
_cell_length_b   15.46143711
_cell_length_c   15.28612902
_cell_angle_alpha   90.00028798
_cell_angle_beta   89.99296604
_cell_angle_gamma   89.99325818
_symmetry_Int_Tables_number   1
_chemical_formula_structural   Ca2Al2SiO7
_chemical_formula_sum   'Ca48 Al48 Si24 O168'
_cell_volume   3654.23439011
_cell_formula_units_Z   24
loop_
 _symmetry_equiv_pos_site_id
 _symmetry_equiv_pos_as_xyz
  1  'x, y, z'
loop_
 _atom_type_symbol
 _atom_type_oxidation_number
  Ca2+  2.0
  Al0+  0.0
  Si0+  0.0
  O2-  -2.0
loop_
 _atom_site_type_symbol
 _atom_site_label
 _atom_site_symmetry_multiplicity
 _atom_site_fract_x
 _atom_site_fract_y
 _atom_site_fract_z
 _atom_site_occupancy
  Ca2+  Ca0  1  0.16003041  0.08113190  0.16622071  1
  Ca2+  Ca1  1  0.17289564  0.09158850  0.50308859  1
  Ca2+  Ca2  1  0.16929657  0.08055988  0.84248501  1
  Ca2+  Ca3  1  0.16328753  0.58654434  0.17138087  1
  Ca2+  Ca4  1  0.17119943  0.58393871  0.50374737  1
  Ca2+  Ca5  1  0.17107078  0.58800825  0.83909114  1
  Ca2+  Ca6  1  0.67350854  0.07525645  0.17315542  1
  Ca2+  Ca7  1  0.67449122  0.08598427  0.50053336  1
  Ca2+  Ca8  1  0.68338228  0.07847479  0.84261851  1
  Ca2+  Ca9  1  0.67050168  0.58428654  0.16166012  1
  Ca2+  Ca10  1  0.66891361  0.57149152  0.50699974  1
  Ca2+  Ca11  1  0.66920839  0.57380086  0.84400567  1
  Ca2+  Ca12  1  0.07606487  0.31993795  0.16459429  1
  Ca2+  Ca13  1  0.07024668  0.32728208  0.49165187  1
  Ca2+  Ca14  1  0.07302546  0.32717896  0.83149694  1
  Ca2+  Ca15  1  0.07996626  0.82529732  0.15445489  1
  Ca2+  Ca16  1  0.07661895  0.83015362  0.49793433  1
  Ca2+  Ca17  1  0.07394671  0.83424690  0.83713379  1
  Ca2+  Ca18  1  0.57689144  0.33270260  0.16275058  1
  Ca2+  Ca19  1  0.57971490  0.32679505  0.49228693  1
  Ca2+  Ca20  1  0.58451345  0.33960806  0.83299205  1
  Ca2+  Ca21  1  0.58362922  0.83479450  0.15414598  1
  Ca2+  Ca22  1  0.58246296  0.83542258  0.49426364  1
  Ca2+  Ca23  1  0.59204597  0.82863948  0.83619972  1
  Ca2+  Ca24  1  0.33605816  0.41210631  0.16849984  1
  Ca2+  Ca25  1  0.33196477  0.41990350  0.50654985  1
  Ca2+  Ca26  1  0.33538877  0.42260871  0.84003930  1
  Ca2+  Ca27  1  0.32654458  0.90821143  0.16603718  1
  Ca2+  Ca28  1  0.32855047  0.92650876  0.50780609  1
  Ca2+  Ca29  1  0.32822708  0.92049634  0.84109898  1
  Ca2+  Ca30  1  0.83527836  0.42022728  0.16711854  1
  Ca2+  Ca31  1  0.82999372  0.40845997  0.50755492  1
  Ca2+  Ca32  1  0.82410261  0.41759341  0.84104136  1
  Ca2+  Ca33  1  0.82935864  0.92243376  0.16829030  1
  Ca2+  Ca34  1  0.83344233  0.92843700  0.50286369  1
  Ca2+  Ca35  1  0.83822026  0.92237438  0.84367749  1
  Ca2+  Ca36  1  0.42399857  0.17520750  0.16230937  1
  Ca2+  Ca37  1  0.42301256  0.16975913  0.48911229  1
  Ca2+  Ca38  1  0.41704075  0.17076177  0.83129233  1
  Ca2+  Ca39  1  0.42716042  0.67449161  0.15467697  1
  Ca2+  Ca40  1  0.41599352  0.66532862  0.49849775  1
  Ca2+  Ca41  1  0.42003527  0.67148973  0.83576879  1
  Ca2+  Ca42  1  0.92023406  0.15896966  0.16397243  1
  Ca2+  Ca43  1  0.91083840  0.17406128  0.49423451  1
  Ca2+  Ca44  1  0.91886345  0.16088874  0.82840957  1
  Ca2+  Ca45  1  0.92428028  0.67046942  0.15441121  1
  Ca2+  Ca46  1  0.92059721  0.67379913  0.49440011  1
  Ca2+  Ca47  1  0.90649594  0.67982898  0.83402511  1
  Al0+  Al48  1  0.00467475  -0.00138992  0.00076608  1
  Al0+  Al49  1  -0.00168318  -0.00095171  0.33724780  1
  Al0+  Al50  1  0.00155287  -0.00201257  0.66257496  1
  Al0+  Al51  1  0.00294007  0.49711673  -0.00051899  1
  Al0+  Al52  1  0.00152445  0.50020947  0.32914397  1
  Al0+  Al53  1  -0.00004814  0.49999166  0.66258460  1
  Al0+  Al54  1  0.49998107  0.00426361  -0.00204616  1
  Al0+  Al55  1  0.49747406  -0.00054814  0.33306247  1
  Al0+  Al56  1  0.49923773  -0.00068649  0.67028365  1
  Al0+  Al57  1  0.49916193  0.50083189  -0.00240485  1
  Al0+  Al58  1  0.49989971  0.50319109  0.33148920  1
  Al0+  Al59  1  0.49920852  0.50047110  0.67305772  1
  Al0+  Al60  1  0.25012604  0.25142732  -0.00847566  1
  Al0+  Al61  1  0.24684608  0.25161188  0.32858479  1
  Al0+  Al62  1  0.25016361  0.25164058  0.67148231  1
  Al0+  Al63  1  0.25189799  0.75083375  -0.00310963  1
  Al0+  Al64  1  0.25041999  0.74956723  0.33404897  1
  Al0+  Al65  1  0.25163367  0.74969286  0.66951696  1
  Al0+  Al66  1  0.74906648  0.25105696  0.01010959  1
  Al0+  Al67  1  0.74765070  0.25100602  0.32822483  1
  Al0+  Al68  1  0.74894746  0.24752607  0.67235631  1
  Al0+  Al69  1  0.75052513  0.74860957  -0.00095481  1
  Al0+  Al70  1  0.74910280  0.74875506  0.33968457  1
  Al0+  Al71  1  0.74921328  0.74886079  0.65658538  1
  Al0+  Al72  1  0.68077135  0.42832503  0.67917004  1
  Al0+  Al73  1  0.92592788  0.32176720  0.31743225  1
  Al0+  Al74  1  0.18319624  0.92941376  0.01391588  1
  Al0+  Al75  1  0.32199816  0.07303362  0.68035285  1
  Al0+  Al76  1  0.82054934  0.07219866  0.35043276  1
  Al0+  Al77  1  0.06985409  0.17677217  0.31898937  1
  Al0+  Al78  1  0.67608444  0.92748427  0.34992835  1
  Al0+  Al79  1  0.06895302  0.17864111  0.98488817  1
  Al0+  Al80  1  0.82477145  0.07070261  0.01599366  1
  Al0+  Al81  1  0.67840093  0.92918031  0.01244692  1
  Al0+  Al82  1  0.07274246  0.67522773  0.98387607  1
  Al0+  Al83  1  0.07142029  0.68157789  0.32069269  1
  Al0+  Al84  1  0.57213681  0.68033229  0.98408048  1
  Al0+  Al85  1  0.67651851  0.42961218  0.01895464  1
  Al0+  Al86  1  0.92802969  0.82171732  0.64965350  1
  Al0+  Al87  1  0.82064079  0.06841220  0.67989786  1
  Al0+  Al88  1  0.31999044  0.57042926  0.68223322  1
  Al0+  Al89  1  0.42930923  0.82504285  0.98403293  1
  Al0+  Al90  1  0.57046676  0.17663058  0.31774204  1
  Al0+  Al91  1  0.92746495  0.31905273  0.65573739  1
  Al0+  Al92  1  0.92972196  0.81962280  0.98729811  1
  Al0+  Al93  1  0.82339628  0.57026141  0.01375874  1
  Al0+  Al94  1  0.42845567  0.32351780  0.32047742  1
  Al0+  Al95  1  0.43071229  0.32016442  0.98360616  1
  Si0+  Si96  1  0.56933085  0.17814047  0.65355483  1
  Si0+  Si97  1  0.31938965  0.57074225  0.01676818  1
  Si0+  Si98  1  0.32171254  0.07583585  0.01738942  1
  Si0+  Si99  1  0.17858605  0.42876143  0.34813223  1
  Si0+  Si100  1  0.07344806  0.17818409  0.65037734  1
  Si0+  Si101  1  0.18031509  0.42701355  0.01594089  1
  Si0+  Si102  1  0.17582174  0.42849368  0.68419071  1
  Si0+  Si103  1  0.57472406  0.17907770  0.98136334  1
  Si0+  Si104  1  0.42915863  0.32223699  0.65262327  1
  Si0+  Si105  1  0.67727135  0.43198291  0.34814068  1
  Si0+  Si106  1  0.82367039  0.56990008  0.34984337  1
  Si0+  Si107  1  0.17939668  0.92609248  0.34925325  1
  Si0+  Si108  1  0.57141474  0.67943218  0.32013515  1
  Si0+  Si109  1  0.31818423  0.07215560  0.34575078  1
  Si0+  Si110  1  0.56899646  0.67739398  0.64941169  1
  Si0+  Si111  1  0.17940692  0.92837750  0.68309955  1
  Si0+  Si112  1  0.42883865  0.82044948  0.32110052  1
  Si0+  Si113  1  0.92648961  0.82054557  0.31720561  1
  Si0+  Si114  1  0.92638174  0.32122577  0.98391735  1
  Si0+  Si115  1  0.67755897  0.92535474  0.68218410  1
  Si0+  Si116  1  0.32084877  0.57130017  0.34766722  1
  Si0+  Si117  1  0.82315782  0.57339324  0.67987924  1
  Si0+  Si118  1  0.07441926  0.67866274  0.64955471  1
  Si0+  Si119  1  0.42869253  0.82111906  0.65031756  1
  O2-  O120  1  0.25881593  0.00258451  0.06284121  1
  O2-  O121  1  0.24585020  0.00262254  0.38995543  1
  O2-  O122  1  0.24511300  0.00060275  0.72570688  1
  O2-  O123  1  0.24696831  0.50193851  0.05963461  1
  O2-  O124  1  0.25144426  0.49892939  0.39030214  1
  O2-  O125  1  0.24368966  0.49778327  0.72886179  1
  O2-  O126  1  0.75008689  0.00002468  0.06372214  1
  O2-  O127  1  0.74711179  0.00029638  0.40012597  1
  O2-  O128  1  0.75000542  -0.01046144  0.72548589  1
  O2-  O129  1  0.75182268  0.49937025  0.06724154  1
  O2-  O130  1  0.75377892  0.49690025  0.39167424  1
  O2-  O131  1  0.75775216  0.50177972  0.72323053  1
  O2-  O132  1  -0.00712859  0.24383886  0.26968064  1
  O2-  O133  1  0.00298055  0.24541365  0.60739316  1
  O2-  O134  1  -0.01111348  0.24746520  0.93856850  1
  O2-  O135  1  -0.00368786  0.75362752  0.27298466  1
  O2-  O136  1  0.00271938  0.74438851  0.60565093  1
  O2-  O137  1  -0.00286442  0.74348183  0.93511805  1
  O2-  O138  1  0.49960074  0.25151109  0.27036150  1
  O2-  O139  1  0.49654824  0.24824807  0.61035198  1
  O2-  O140  1  0.50723577  0.24857156  0.93551615  1
  O2-  O141  1  0.50630129  0.75653927  0.28035614  1
  O2-  O142  1  0.50027301  0.75104119  0.60662915  1
  O2-  O143  1  0.50480511  0.75693848  0.93333702  1
  O2-  O144  1  0.07144059  0.18088517  0.09763852  1
  O2-  O145  1  0.07666315  0.18303379  0.43268184  1
  O2-  O146  1  0.07411809  0.17858920  0.75575010  1
  O2-  O147  1  0.07354430  0.67873747  0.09779496  1
  O2-  O148  1  0.07328789  0.68343205  0.43427853  1
  O2-  O149  1  0.07751140  0.67956268  0.75418298  1
  O2-  O150  1  0.57073405  0.17826931  0.08667197  1
  O2-  O151  1  0.56747703  0.17887664  0.43268722  1
  O2-  O152  1  0.56814716  0.17902169  0.75812809  1
  O2-  O153  1  0.56826229  0.67916300  0.09829945  1
  O2-  O154  1  0.56688376  0.67461641  0.42563043  1
  O2-  O155  1  0.56949873  0.67725848  0.75362967  1
  O2-  O156  1  0.17927510  0.42962197  0.24338746  1
  O2-  O157  1  0.17859368  0.42794441  0.57813579  1
  O2-  O158  1  0.18311174  0.42670456  0.91066173  1
  O2-  O159  1  0.18377202  0.92069453  0.24492825  1
  O2-  O160  1  0.18280151  0.92665190  0.57670527  1
  O2-  O161  1  0.18317261  0.93173909  0.90066198  1
  O2-  O162  1  0.67197811  0.43860396  0.24424475  1
  O2-  O163  1  0.67845962  0.42938465  0.56526046  1
  O2-  O164  1  0.67748637  0.43113508  0.90485705  1
  O2-  O165  1  0.67581014  0.92485364  0.23721011  1
  O2-  O166  1  0.67458779  0.92807954  0.57660177  1
  O2-  O167  1  0.68044315  0.93153044  0.89840676  1
  O2-  O168  1  0.42921446  0.31847019  0.09667210  1
  O2-  O169  1  0.42950889  0.32402808  0.43501520  1
  O2-  O170  1  0.43062353  0.32288538  0.75726045  1
  O2-  O171  1  0.42719648  0.81861919  0.09836643  1
  O2-  O172  1  0.42556421  0.81742267  0.42671792  1
  O2-  O173  1  0.42785659  0.82077435  0.75441933  1
  O2-  O174  1  0.93199161  0.32407310  0.08913351  1
  O2-  O175  1  0.92895788  0.32321223  0.43182541  1
  O2-  O176  1  0.92877630  0.31842972  0.76835831  1
  O2-  O177  1  0.93263049  0.81961645  0.10096369  1
  O2-  O178  1  0.92915983  0.81744761  0.42339628  1
  O2-  O179  1  0.92732640  0.82181097  0.76203037  1
  O2-  O180  1  0.31891796  0.07064211  0.24136656  1
  O2-  O181  1  0.32207205  0.07211866  0.56624836  1
  O2-  O182  1  0.31767748  0.07629201  0.91139813  1
  O2-  O183  1  0.32073262  0.57401104  0.24323236  1
  O2-  O184  1  0.32029462  0.56867119  0.56813709  1
  O2-  O185  1  0.31903645  0.56919067  0.91142858  1
  O2-  O186  1  0.82278476  0.06678942  0.23775196  1
  O2-  O187  1  0.81682241  0.07166208  0.56714447  1
  O2-  O188  1  0.82446225  0.06951663  0.90171158  1
  O2-  O189  1  0.82297992  0.57217334  0.24542546  1
  O2-  O190  1  0.82039388  0.57314841  0.57359897  1
  O2-  O191  1  0.82176896  0.56788766  0.89962816  1
  O2-  O192  1  0.04800137  0.07509495  0.27027014  1
  O2-  O193  1  0.05396639  0.08335008  0.60481272  1
  O2-  O194  1  0.04517302  0.08090125  0.93083554  1
  O2-  O195  1  0.04536749  0.58416531  0.26789168  1
  O2-  O196  1  0.05273281  0.58387623  0.60307071  1
  O2-  O197  1  0.05347538  0.57383233  0.93356319  1
  O2-  O198  1  0.53778001  0.07956064  0.26515118  1
  O2-  O199  1  0.54199600  0.08579420  0.60615437  1
  O2-  O200  1  0.54846465  0.08689334  0.93291162  1
  O2-  O201  1  0.53718969  0.59203960  0.26927359  1
  O2-  O202  1  0.53548758  0.58661687  0.60210988  1
  O2-  O203  1  0.53605111  0.58477825  0.93036852  1
  O2-  O204  1  0.16561384  0.20955362  0.26320915  1
  O2-  O205  1  0.16725301  0.20780159  0.60510039  1
  O2-  O206  1  0.16268112  0.21539843  0.92866319  1
  O2-  O207  1  0.16857782  0.71191565  0.26747261  1
  O2-  O208  1  0.16760535  0.70776391  0.60234454  1
  O2-  O209  1  0.16963942  0.70838316  0.93160498  1
  O2-  O210  1  0.66775153  0.20282749  0.26463404  1
  O2-  O211  1  0.66003880  0.20867376  0.60615552  1
  O2-  O212  1  0.66951141  0.20526949  0.93823908  1
  O2-  O213  1  0.66592984  0.70027583  0.27636415  1
  O2-  O214  1  0.66044981  0.70065073  0.59846237  1
  O2-  O215  1  0.67099479  0.70245708  0.92976299  1
  O2-  O216  1  0.08785768  0.44900992  0.06385674  1
  O2-  O217  1  0.08813662  0.45962499  0.39721908  1
  O2-  O218  1  0.08153538  0.45303309  0.72888589  1
  O2-  O219  1  0.08857561  0.96031353  0.07019072  1
  O2-  O220  1  0.08615950  0.94775077  0.39607740  1
  O2-  O221  1  0.08476967  0.95070180  0.72667565  1
  O2-  O222  1  0.57819400  0.46261508  0.06969511  1
  O2-  O223  1  0.58755625  0.46645175  0.39816591  1
  O2-  O224  1  0.58583336  0.46227406  0.73370005  1
  O2-  O225  1  0.57836550  0.95708114  0.06386863  1
  O2-  O226  1  0.57507958  0.95357126  0.40172498  1
  O2-  O227  1  0.58453277  0.95117212  0.72858696  1
  O2-  O228  1  0.21501388  0.33716732  0.06259574  1
  O2-  O229  1  0.20580078  0.33744146  0.39730574  1
  O2-  O230  1  0.20188640  0.33593137  0.73163451  1
  O2-  O231  1  0.21527944  0.83260875  0.06838600  1
  O2-  O232  1  0.21475713  0.83779581  0.40050425  1
  O2-  O233  1  0.20906578  0.83661060  0.72934634  1
  O2-  O234  1  0.69984804  0.33116785  0.07285500  1
  O2-  O235  1  0.69803220  0.33738779  0.39261527  1
  O2-  O236  1  0.70812892  0.33282282  0.73562019  1
  O2-  O237  1  0.70204867  0.82910483  0.06316693  1
  O2-  O238  1  0.70285847  0.82816308  0.40498097  1
  O2-  O239  1  0.69940000  0.82830306  0.72193538  1
  O2-  O240  1  0.45682211  0.42211506  0.26763069  1
  O2-  O241  1  0.45892449  0.41393195  0.60566055  1
  O2-  O242  1  0.45841967  0.41776895  0.93054893  1
  O2-  O243  1  0.44642325  0.91390756  0.27440979  1
  O2-  O244  1  0.45573753  0.91371900  0.60269139  1
  O2-  O245  1  0.44825312  0.92652293  0.93387030  1
  O2-  O246  1  0.96180320  0.41761585  0.26428373  1
  O2-  O247  1  0.95509374  0.41678057  0.60012107  1
  O2-  O248  1  0.95909505  0.41152732  0.93520746  1
  O2-  O249  1  0.95011584  0.91523502  0.27535829  1
  O2-  O250  1  0.96342692  0.91600757  0.59267083  1
  O2-  O251  1  0.96583207  0.91500666  0.93316690  1
  O2-  O252  1  0.32999069  0.29747522  0.26808649  1
  O2-  O253  1  0.33470206  0.29886815  0.60764964  1
  O2-  O254  1  0.33592897  0.28862539  0.92640707  1
  O2-  O255  1  0.34035115  0.78517079  0.27237725  1
  O2-  O256  1  0.33733067  0.79148721  0.60179673  1
  O2-  O257  1  0.33429474  0.78970773  0.92895476  1
  O2-  O258  1  0.82533126  0.30513958  0.26681410  1
  O2-  O259  1  0.83065792  0.28647227  0.60204251  1
  O2-  O260  1  0.82899494  0.30302747  0.94408438  1
  O2-  O261  1  0.83224969  0.79280961  0.27507417  1
  O2-  O262  1  0.83227039  0.79147294  0.59236406  1
  O2-  O263  1  0.83140924  0.79469049  0.93261717  1
  O2-  O264  1  0.41789231  0.05783272  0.05982808  1
  O2-  O265  1  0.40854177  0.04277897  0.39573714  1
  O2-  O266  1  0.41679922  0.03991151  0.73576991  1
  O2-  O267  1  0.41036003  0.54067289  0.06377076  1
  O2-  O268  1  0.41295823  0.54519263  0.39658724  1
  O2-  O269  1  0.41453689  0.53833055  0.73790925  1
  O2-  O270  1  0.92253417  0.03995584  0.06748681  1
  O2-  O271  1  0.91934403  0.04378404  0.40550979  1
  O2-  O272  1  0.92055324  0.04123888  0.72857042  1
  O2-  O273  1  0.92268286  0.54126523  0.06614662  1
  O2-  O274  1  0.91669553  0.54426972  0.39653064  1
  O2-  O275  1  0.91903095  0.55433902  0.72244461  1
  O2-  O276  1  0.28960835  0.16803283  0.06189669  1
  O2-  O277  1  0.29094725  0.16462364  0.39361629  1
  O2-  O278  1  0.29506643  0.17025381  0.73488540  1
  O2-  O279  1  0.29422165  0.66335173  0.06320273  1
  O2-  O280  1  0.29073497  0.66164973  0.39849586  1
  O2-  O281  1  0.29249476  0.66789267  0.73552320  1
  O2-  O282  1  0.79945722  0.16948548  0.06848669  1
  O2-  O283  1  0.79096030  0.17303466  0.39993677  1
  O2-  O284  1  0.78657093  0.16195134  0.73696565  1
  O2-  O285  1  0.79531355  0.66823817  0.06750710  1
  O2-  O286  1  0.79361194  0.66006957  0.40015193  1
  O2-  O287  1  0.79241957  0.66645414  0.72347043  1
