# generated using pymatgen
data_Ca2Al2SiO7
_symmetry_space_group_name_H-M   'P 1'
_cell_length_a   15.45767534
_cell_length_b   15.45852800
_cell_length_c   15.28335663
_cell_angle_alpha   89.99216765
_cell_angle_beta   89.99378780
_cell_angle_gamma   90.00945672
_symmetry_Int_Tables_number   1
_chemical_formula_structural   Ca2Al2SiO7
_chemical_formula_sum   'Ca48 Al48 Si24 O168'
_cell_volume   3652.00239160
_cell_formula_units_Z   24
loop_
 _symmetry_equiv_pos_site_id
 _symmetry_equiv_pos_as_xyz
  1  'x, y, z'
loop_
 _atom_type_symbol
 _atom_type_oxidation_number
  Ca2+  2.0
  Al0+  0.0
  Si0+  0.0
  O2-  -2.0
loop_
 _atom_site_type_symbol
 _atom_site_label
 _atom_site_symmetry_multiplicity
 _atom_site_fract_x
 _atom_site_fract_y
 _atom_site_fract_z
 _atom_site_occupancy
  Ca2+  Ca0  1  0.17708363  0.08679034  0.17342140  1
  Ca2+  Ca1  1  0.17380327  0.09368734  0.50253693  1
  Ca2+  Ca2  1  0.17571873  0.09223383  0.83524882  1
  Ca2+  Ca3  1  0.16979380  0.57634714  0.17527339  1
  Ca2+  Ca4  1  0.17028480  0.59241511  0.50222979  1
  Ca2+  Ca5  1  0.16540787  0.57688271  0.83916121  1
  Ca2+  Ca6  1  0.67718677  0.08041652  0.17557721  1
  Ca2+  Ca7  1  0.67473730  0.07325146  0.50407022  1
  Ca2+  Ca8  1  0.67831997  0.07942279  0.83375312  1
  Ca2+  Ca9  1  0.66268247  0.58375314  0.16736959  1
  Ca2+  Ca10  1  0.66413434  0.57759213  0.50362858  1
  Ca2+  Ca11  1  0.66927862  0.57458907  0.84262994  1
  Ca2+  Ca12  1  0.08038598  0.32984370  0.16676167  1
  Ca2+  Ca13  1  0.06930121  0.32122351  0.49509507  1
  Ca2+  Ca14  1  0.07549298  0.33026161  0.82426733  1
  Ca2+  Ca15  1  0.08580790  0.82738801  0.16784807  1
  Ca2+  Ca16  1  0.08646886  0.82366741  0.49600309  1
  Ca2+  Ca17  1  0.08229316  0.82445205  0.82630833  1
  Ca2+  Ca18  1  0.57542784  0.33400494  0.15771690  1
  Ca2+  Ca19  1  0.58576974  0.33177760  0.49771294  1
  Ca2+  Ca20  1  0.58218259  0.33806393  0.83258347  1
  Ca2+  Ca21  1  0.58481410  0.82746803  0.16631346  1
  Ca2+  Ca22  1  0.57830484  0.83953256  0.49304127  1
  Ca2+  Ca23  1  0.58238096  0.83174284  0.82783344  1
  Ca2+  Ca24  1  0.32908845  0.41802337  0.16936900  1
  Ca2+  Ca25  1  0.33278250  0.42777683  0.50109900  1
  Ca2+  Ca26  1  0.32379414  0.41291630  0.84382182  1
  Ca2+  Ca27  1  0.33842298  0.92543035  0.17391557  1
  Ca2+  Ca28  1  0.34032473  0.92409405  0.50468332  1
  Ca2+  Ca29  1  0.33684583  0.92577132  0.83148915  1
  Ca2+  Ca30  1  0.82992864  0.41951037  0.16770805  1
  Ca2+  Ca31  1  0.83239384  0.41129655  0.50549872  1
  Ca2+  Ca32  1  0.82371524  0.41654883  0.83840310  1
  Ca2+  Ca33  1  0.82788116  0.92619420  0.17486952  1
  Ca2+  Ca34  1  0.82456182  0.92290387  0.50533846  1
  Ca2+  Ca35  1  0.83543467  0.92709236  0.83693736  1
  Ca2+  Ca36  1  0.41469250  0.16693566  0.15935420  1
  Ca2+  Ca37  1  0.41544150  0.16298054  0.49542378  1
  Ca2+  Ca38  1  0.41108879  0.16985634  0.83073654  1
  Ca2+  Ca39  1  0.42605596  0.66666289  0.16663294  1
  Ca2+  Ca40  1  0.42112018  0.68133500  0.48804355  1
  Ca2+  Ca41  1  0.42470969  0.67338493  0.82751668  1
  Ca2+  Ca42  1  0.91624392  0.16499651  0.16559871  1
  Ca2+  Ca43  1  0.91455129  0.17053734  0.49289706  1
  Ca2+  Ca44  1  0.91811001  0.16933234  0.82122757  1
  Ca2+  Ca45  1  0.91785372  0.66444031  0.16302748  1
  Ca2+  Ca46  1  0.92935751  0.66395093  0.49454164  1
  Ca2+  Ca47  1  0.91996011  0.66208497  0.82962884  1
  Al0+  Al48  1  0.00163948  -0.00164173  0.00305001  1
  Al0+  Al49  1  0.00245723  0.00033014  0.33299363  1
  Al0+  Al50  1  0.00381865  -0.00231137  0.66558539  1
  Al0+  Al51  1  -0.00049867  0.49745786  0.00711181  1
  Al0+  Al52  1  -0.00145973  0.49743641  0.32644757  1
  Al0+  Al53  1  0.00129893  0.49858137  0.65758918  1
  Al0+  Al54  1  0.50087397  0.00032884  0.00160021  1
  Al0+  Al55  1  0.50015564  0.00120687  0.33507253  1
  Al0+  Al56  1  0.49994259  0.00169124  0.67288246  1
  Al0+  Al57  1  0.49824418  0.50010255  -0.00692452  1
  Al0+  Al58  1  0.49803815  0.50110397  0.33538491  1
  Al0+  Al59  1  0.49963535  0.50125455  0.67049811  1
  Al0+  Al60  1  0.24961894  0.24994369  0.00464412  1
  Al0+  Al61  1  0.24691033  0.25159144  0.33565087  1
  Al0+  Al62  1  0.24961712  0.25315079  0.66535250  1
  Al0+  Al63  1  0.25036624  0.75052632  -0.00259088  1
  Al0+  Al64  1  0.25156932  0.75071213  0.32677981  1
  Al0+  Al65  1  0.25325525  0.75241771  0.66169116  1
  Al0+  Al66  1  0.74925162  0.25026039  0.00696941  1
  Al0+  Al67  1  0.74879669  0.25151980  0.33146686  1
  Al0+  Al68  1  0.74689081  0.25079077  0.67137941  1
  Al0+  Al69  1  0.75146419  0.74982695  -0.00304938  1
  Al0+  Al70  1  0.75001178  0.74741791  0.33522227  1
  Al0+  Al71  1  0.75039306  0.74808404  0.66953766  1
  Al0+  Al72  1  0.43349884  0.82226083  0.65296405  1
  Al0+  Al73  1  0.07169326  0.67914480  0.31725844  1
  Al0+  Al74  1  0.82257614  0.07087434  0.01451633  1
  Al0+  Al75  1  0.57196384  0.67705376  0.31896668  1
  Al0+  Al76  1  0.07062615  0.67899866  0.65421582  1
  Al0+  Al77  1  0.92551787  0.31944917  0.31379055  1
  Al0+  Al78  1  0.67838088  0.92723525  0.68351486  1
  Al0+  Al79  1  0.57141022  0.68022741  0.98374591  1
  Al0+  Al80  1  0.82350070  0.07012456  0.68053493  1
  Al0+  Al81  1  0.17858841  0.42880255  0.01402495  1
  Al0+  Al82  1  0.67988830  0.92707074  0.34745840  1
  Al0+  Al83  1  0.31981559  0.57092075  0.34633797  1
  Al0+  Al84  1  0.31949574  0.07190331  0.34767331  1
  Al0+  Al85  1  0.43060511  0.82439277  0.31619169  1
  Al0+  Al86  1  0.92578172  0.31822375  0.65323350  1
  Al0+  Al87  1  0.31869667  0.07286841  0.68091629  1
  Al0+  Al88  1  0.07149999  0.17771014  0.31558196  1
  Al0+  Al89  1  0.82042811  0.57154388  0.01533016  1
  Al0+  Al90  1  0.67777435  0.42978705  0.68065886  1
  Al0+  Al91  1  0.42826037  0.31859179  0.98665139  1
  Al0+  Al92  1  0.31980969  0.06899614  0.01354563  1
  Al0+  Al93  1  0.07313206  0.17716609  0.65294006  1
  Al0+  Al94  1  0.82273096  0.07257570  0.34899827  1
  Al0+  Al95  1  0.67596449  0.43003167  0.01703540  1
  Si0+  Si96  1  0.56935223  0.18015551  0.31955262  1
  Si0+  Si97  1  0.17866079  0.92647658  0.35009448  1
  Si0+  Si98  1  0.18053590  0.43222473  0.67981891  1
  Si0+  Si99  1  0.17974565  0.92444249  0.68315046  1
  Si0+  Si100  1  0.42843580  0.32200222  0.32088440  1
  Si0+  Si101  1  0.67899124  0.92758371  0.01635396  1
  Si0+  Si102  1  0.57297978  0.67653265  0.65014355  1
  Si0+  Si103  1  0.17562034  0.42922515  0.35331253  1
  Si0+  Si104  1  0.92827779  0.32034412  0.98492808  1
  Si0+  Si105  1  0.07021515  0.17845608  0.98557161  1
  Si0+  Si106  1  0.67734345  0.43026605  0.34786151  1
  Si0+  Si107  1  0.93065308  0.82145337  0.98518042  1
  Si0+  Si108  1  0.56862366  0.18089795  0.65314687  1
  Si0+  Si109  1  0.07066401  0.67676438  0.98607573  1
  Si0+  Si110  1  0.32104256  0.57392000  0.01470052  1
  Si0+  Si111  1  0.17789928  0.92492759  0.01703218  1
  Si0+  Si112  1  0.32060495  0.57407190  0.68236248  1
  Si0+  Si113  1  0.92655076  0.82221539  0.65039792  1
  Si0+  Si114  1  0.42740957  0.82447750  0.98105931  1
  Si0+  Si115  1  0.82527390  0.57009784  0.68056501  1
  Si0+  Si116  1  0.82267093  0.56983032  0.34917193  1
  Si0+  Si117  1  0.92765412  0.82093042  0.31742450  1
  Si0+  Si118  1  0.57370474  0.17718993  0.98282409  1
  Si0+  Si119  1  0.42740099  0.32363656  0.65082087  1
  O2-  O120  1  0.24860541  -0.00845207  0.06024481  1
  O2-  O121  1  0.24537914  -0.00312254  0.39456667  1
  O2-  O122  1  0.24135465  0.00005384  0.72694148  1
  O2-  O123  1  0.25182622  0.50591599  0.05886511  1
  O2-  O124  1  0.24171092  0.50123930  0.39687078  1
  O2-  O125  1  0.24986064  0.50333028  0.72516706  1
  O2-  O126  1  0.74516212  -0.00140274  0.06019741  1
  O2-  O127  1  0.75361628  -0.00265597  0.39723156  1
  O2-  O128  1  0.75550385  -0.00524412  0.73233745  1
  O2-  O129  1  0.74616978  0.50324301  0.06757164  1
  O2-  O130  1  0.75024802  0.49948364  0.39003994  1
  O2-  O131  1  0.75407987  0.50418471  0.72463863  1
  O2-  O132  1  -0.00365859  0.24574788  0.26431466  1
  O2-  O133  1  -0.00766857  0.24025797  0.60454595  1
  O2-  O134  1  -0.00369909  0.24624666  0.94271907  1
  O2-  O135  1  -0.00371116  0.75302085  0.27060219  1
  O2-  O136  1  -0.00509065  0.75242863  0.60707655  1
  O2-  O137  1  0.00026438  0.74792613  0.94334156  1
  O2-  O138  1  0.49571136  0.24856781  0.27775510  1
  O2-  O139  1  0.49813254  0.25253239  0.60928055  1
  O2-  O140  1  0.50393209  0.24531486  0.93828561  1
  O2-  O141  1  0.50294106  0.75157105  0.26830896  1
  O2-  O142  1  0.51036308  0.75008612  0.60602815  1
  O2-  O143  1  0.49665656  0.75577345  0.93775726  1
  O2-  O144  1  0.07034816  0.17944414  0.09023225  1
  O2-  O145  1  0.07434462  0.18237548  0.42871505  1
  O2-  O146  1  0.07621996  0.18464716  0.76720791  1
  O2-  O147  1  0.07142619  0.67869067  0.09073476  1
  O2-  O148  1  0.07066991  0.68073836  0.43062668  1
  O2-  O149  1  0.06953651  0.67790009  0.76805412  1
  O2-  O150  1  0.57187226  0.17729398  0.08868786  1
  O2-  O151  1  0.56976482  0.18239256  0.42505168  1
  O2-  O152  1  0.56774222  0.18223844  0.75830364  1
  O2-  O153  1  0.56959328  0.68145219  0.09656720  1
  O2-  O154  1  0.56847949  0.67248385  0.43239476  1
  O2-  O155  1  0.56885184  0.67448920  0.75575738  1
  O2-  O156  1  0.17911285  0.42884540  0.24739271  1
  O2-  O157  1  0.18370167  0.43368757  0.57519368  1
  O2-  O158  1  0.17767996  0.43054085  0.90005311  1
  O2-  O159  1  0.18000028  0.92630782  0.24415870  1
  O2-  O160  1  0.18378444  0.91756215  0.57832204  1
  O2-  O161  1  0.17572169  0.92269774  0.91148858  1
  O2-  O162  1  0.67442080  0.43100363  0.24329693  1
  O2-  O163  1  0.67473266  0.43141325  0.56718063  1
  O2-  O164  1  0.67928342  0.43014385  0.90331088  1
  O2-  O165  1  0.68149913  0.92949265  0.23343553  1
  O2-  O166  1  0.67762491  0.93033183  0.57028580  1
  O2-  O167  1  0.68100377  0.92845761  0.91070005  1
  O2-  O168  1  0.42767408  0.31651105  0.10012816  1
  O2-  O169  1  0.43186618  0.32359379  0.42642987  1
  O2-  O170  1  0.42475430  0.32328400  0.75582918  1
  O2-  O171  1  0.42589436  0.82517154  0.08604739  1
  O2-  O172  1  0.43156464  0.82457810  0.43004500  1
  O2-  O173  1  0.43191926  0.81868162  0.76639654  1
  O2-  O174  1  0.93010000  0.32097354  0.08952461  1
  O2-  O175  1  0.92472081  0.31999627  0.42747939  1
  O2-  O176  1  0.92914534  0.32194997  0.76742288  1
  O2-  O177  1  0.93247555  0.82246717  0.09000375  1
  O2-  O178  1  0.92839374  0.81728849  0.42304032  1
  O2-  O179  1  0.92857201  0.82126972  0.75647990  1
  O2-  O180  1  0.31973842  0.07238493  0.23445073  1
  O2-  O181  1  0.31966399  0.07301167  0.56819362  1
  O2-  O182  1  0.31699280  0.07045722  0.90033611  1
  O2-  O183  1  0.32065393  0.56506250  0.23324728  1
  O2-  O184  1  0.32069499  0.57259036  0.57730657  1
  O2-  O185  1  0.31693750  0.57505995  0.90853156  1
  O2-  O186  1  0.81870308  0.07113478  0.23506376  1
  O2-  O187  1  0.81917709  0.07063914  0.56758535  1
  O2-  O188  1  0.82505336  0.06933999  0.90146054  1
  O2-  O189  1  0.82329853  0.57011923  0.24439486  1
  O2-  O190  1  0.82596509  0.56935790  0.57486028  1
  O2-  O191  1  0.82371747  0.56816473  0.90135019  1
  O2-  O192  1  0.05131238  0.07655148  0.26424589  1
  O2-  O193  1  0.06095445  0.07376741  0.60529790  1
  O2-  O194  1  0.04771727  0.08410134  0.94018020  1
  O2-  O195  1  0.04130790  0.58247322  0.26437951  1
  O2-  O196  1  0.04272376  0.58418816  0.59561580  1
  O2-  O197  1  0.04188100  0.58434677  0.94010284  1
  O2-  O198  1  0.54350539  0.08894084  0.27122694  1
  O2-  O199  1  0.53890682  0.08990667  0.60623034  1
  O2-  O200  1  0.54941624  0.08284213  0.93743965  1
  O2-  O201  1  0.53731721  0.58017791  0.26497196  1
  O2-  O202  1  0.54157391  0.58438076  0.60393021  1
  O2-  O203  1  0.53923356  0.58465176  0.92808998  1
  O2-  O204  1  0.16908028  0.21327381  0.26272723  1
  O2-  O205  1  0.16755654  0.21646034  0.59811164  1
  O2-  O206  1  0.16105507  0.21079030  0.93926498  1
  O2-  O207  1  0.16691778  0.70955701  0.26102590  1
  O2-  O208  1  0.16666107  0.71183344  0.60049916  1
  O2-  O209  1  0.16266069  0.70392815  0.93733632  1
  O2-  O210  1  0.65902373  0.21075709  0.27021531  1
  O2-  O211  1  0.65937040  0.20987170  0.60492135  1
  O2-  O212  1  0.66736614  0.20496253  0.93771528  1
  O2-  O213  1  0.67243569  0.70017889  0.26756407  1
  O2-  O214  1  0.67014481  0.69309760  0.60819564  1
  O2-  O215  1  0.66906039  0.70898663  0.92964907  1
  O2-  O216  1  0.08412976  0.45833872  0.07125670  1
  O2-  O217  1  0.08023304  0.45290001  0.39539029  1
  O2-  O218  1  0.08767560  0.45956622  0.72572743  1
  O2-  O219  1  0.08579181  0.95121374  0.06520686  1
  O2-  O220  1  0.08386128  0.94714173  0.39563642  1
  O2-  O221  1  0.08356019  0.94046994  0.72765597  1
  O2-  O222  1  0.57507992  0.45691808  0.06531865  1
  O2-  O223  1  0.58677629  0.45867048  0.39782023  1
  O2-  O224  1  0.58134087  0.46077152  0.73643480  1
  O2-  O225  1  0.58417472  0.94950255  0.06098023  1
  O2-  O226  1  0.58332606  0.96089495  0.40028174  1
  O2-  O227  1  0.58325206  0.96179402  0.73923083  1
  O2-  O228  1  0.21241317  0.33501068  0.07035568  1
  O2-  O229  1  0.20535830  0.33784809  0.40055298  1
  O2-  O230  1  0.21014214  0.34192198  0.72902134  1
  O2-  O231  1  0.20167395  0.83032830  0.06274927  1
  O2-  O232  1  0.20527151  0.83261566  0.39483253  1
  O2-  O233  1  0.21331579  0.83438372  0.73365145  1
  O2-  O234  1  0.70315053  0.33184375  0.07021776  1
  O2-  O235  1  0.70388874  0.33808918  0.39514897  1
  O2-  O236  1  0.70461513  0.33384820  0.73733965  1
  O2-  O237  1  0.70811805  0.83502199  0.06125062  1
  O2-  O238  1  0.70469224  0.82756355  0.40062391  1
  O2-  O239  1  0.70103395  0.82590957  0.73408632  1
  O2-  O240  1  0.45946607  0.41168926  0.27200259  1
  O2-  O241  1  0.45651896  0.41604161  0.60463284  1
  O2-  O242  1  0.45338791  0.41556886  0.93009541  1
  O2-  O243  1  0.46002676  0.92276342  0.26332260  1
  O2-  O244  1  0.46121907  0.92105072  0.60212777  1
  O2-  O245  1  0.45389441  0.91833395  0.93513337  1
  O2-  O246  1  0.95630201  0.41679765  0.26003154  1
  O2-  O247  1  0.95969733  0.41354286  0.59684572  1
  O2-  O248  1  0.95990045  0.41181162  0.93855857  1
  O2-  O249  1  0.95310015  0.91460245  0.27158037  1
  O2-  O250  1  0.95238946  0.91478260  0.60323593  1
  O2-  O251  1  0.96269502  0.91160310  0.93579448  1
  O2-  O252  1  0.33487499  0.29838429  0.27607818  1
  O2-  O253  1  0.33657546  0.29712403  0.60156691  1
  O2-  O254  1  0.33145542  0.28548562  0.93234973  1
  O2-  O255  1  0.33286026  0.79634620  0.26248526  1
  O2-  O256  1  0.33838517  0.78984177  0.59769400  1
  O2-  O257  1  0.33338178  0.79834503  0.93442609  1
  O2-  O258  1  0.82581950  0.29483034  0.26113585  1
  O2-  O259  1  0.82478497  0.29632027  0.60258177  1
  O2-  O260  1  0.83420585  0.29546622  0.94066213  1
  O2-  O261  1  0.83483749  0.79364746  0.27093385  1
  O2-  O262  1  0.83244683  0.79699979  0.60525901  1
  O2-  O263  1  0.83955973  0.79611816  0.93559560  1
  O2-  O264  1  0.41865005  0.04344519  0.06608106  1
  O2-  O265  1  0.41690450  0.04350888  0.40088330  1
  O2-  O266  1  0.41377222  0.04147734  0.73708276  1
  O2-  O267  1  0.41426013  0.54630670  0.05811280  1
  O2-  O268  1  0.41347578  0.53524364  0.40394552  1
  O2-  O269  1  0.41178970  0.54576190  0.73028224  1
  O2-  O270  1  0.91833720  0.03692033  0.06828161  1
  O2-  O271  1  0.92353759  0.04854161  0.39783957  1
  O2-  O272  1  0.92458663  0.04529023  0.73162263  1
  O2-  O273  1  0.91714174  0.54099466  0.07032409  1
  O2-  O274  1  0.91438237  0.53960924  0.39577790  1
  O2-  O275  1  0.91892619  0.54243190  0.72602544  1
  O2-  O276  1  0.28656198  0.16372617  0.06870714  1
  O2-  O277  1  0.29006081  0.16954446  0.40138859  1
  O2-  O278  1  0.28910813  0.17120944  0.73393775  1
  O2-  O279  1  0.29685629  0.66791530  0.06037979  1
  O2-  O280  1  0.29164276  0.66953768  0.39752922  1
  O2-  O281  1  0.29240661  0.66552271  0.72956968  1
  O2-  O282  1  0.79355953  0.16693222  0.06911816  1
  O2-  O283  1  0.78839144  0.17052949  0.39918160  1
  O2-  O284  1  0.78968947  0.16670543  0.73464726  1
  O2-  O285  1  0.79726734  0.67236194  0.06567783  1
  O2-  O286  1  0.79780404  0.66130371  0.39826452  1
  O2-  O287  1  0.80460144  0.66460216  0.72704267  1
