# generated using pymatgen
data_Ca2Al2SiO7
_symmetry_space_group_name_H-M   'P 1'
_cell_length_a   15.46128280
_cell_length_b   15.46120815
_cell_length_c   15.28685272
_cell_angle_alpha   89.99455188
_cell_angle_beta   90.00293023
_cell_angle_gamma   89.99976765
_symmetry_Int_Tables_number   1
_chemical_formula_structural   Ca2Al2SiO7
_chemical_formula_sum   'Ca48 Al48 Si24 O168'
_cell_volume   3654.32382958
_cell_formula_units_Z   24
loop_
 _symmetry_equiv_pos_site_id
 _symmetry_equiv_pos_as_xyz
  1  'x, y, z'
loop_
 _atom_type_symbol
 _atom_type_oxidation_number
  Ca2+  2.0
  Al0+  0.0
  Si0+  0.0
  O2-  -2.0
loop_
 _atom_site_type_symbol
 _atom_site_label
 _atom_site_symmetry_multiplicity
 _atom_site_fract_x
 _atom_site_fract_y
 _atom_site_fract_z
 _atom_site_occupancy
  Ca2+  Ca0  1  0.17321795  0.07713938  0.17561746  1
  Ca2+  Ca1  1  0.16414826  0.08818866  0.49832179  1
  Ca2+  Ca2  1  0.16586605  0.07773953  0.84409010  1
  Ca2+  Ca3  1  0.16177582  0.57940706  0.17457678  1
  Ca2+  Ca4  1  0.16259700  0.57155267  0.50253788  1
  Ca2+  Ca5  1  0.16681757  0.57827375  0.83579932  1
  Ca2+  Ca6  1  0.67223087  0.09205178  0.16583389  1
  Ca2+  Ca7  1  0.66795214  0.08501552  0.50489952  1
  Ca2+  Ca8  1  0.67084663  0.08921238  0.84146140  1
  Ca2+  Ca9  1  0.67688476  0.58237921  0.17399513  1
  Ca2+  Ca10  1  0.67246120  0.57428077  0.49745184  1
  Ca2+  Ca11  1  0.67507741  0.58214237  0.84344982  1
  Ca2+  Ca12  1  0.08386281  0.33089875  0.16980437  1
  Ca2+  Ca13  1  0.08324624  0.33181926  0.49148577  1
  Ca2+  Ca14  1  0.07716093  0.32626175  0.82279136  1
  Ca2+  Ca15  1  0.08949868  0.82527499  0.16547561  1
  Ca2+  Ca16  1  0.07499686  0.82863045  0.48878692  1
  Ca2+  Ca17  1  0.08122742  0.83105333  0.83070420  1
  Ca2+  Ca18  1  0.57126977  0.33581984  0.16101602  1
  Ca2+  Ca19  1  0.57779350  0.33226036  0.49325833  1
  Ca2+  Ca20  1  0.57865693  0.32183967  0.83226636  1
  Ca2+  Ca21  1  0.58256603  0.82632016  0.16118334  1
  Ca2+  Ca22  1  0.57929108  0.83041660  0.49501389  1
  Ca2+  Ca23  1  0.58529829  0.82644009  0.83297207  1
  Ca2+  Ca24  1  0.33091445  0.41197233  0.17495804  1
  Ca2+  Ca25  1  0.32080338  0.41488728  0.50204750  1
  Ca2+  Ca26  1  0.32828377  0.41439300  0.83274112  1
  Ca2+  Ca27  1  0.32450165  0.92724034  0.17199745  1
  Ca2+  Ca28  1  0.32359984  0.92107995  0.49868738  1
  Ca2+  Ca29  1  0.32398702  0.92574254  0.84531669  1
  Ca2+  Ca30  1  0.83023533  0.42698455  0.17822982  1
  Ca2+  Ca31  1  0.84021060  0.41662738  0.49960288  1
  Ca2+  Ca32  1  0.83402639  0.41830171  0.84066399  1
  Ca2+  Ca33  1  0.83607725  0.92086196  0.16983130  1
  Ca2+  Ca34  1  0.83991416  0.91402555  0.50225748  1
  Ca2+  Ca35  1  0.83563549  0.92351423  0.83896450  1
  Ca2+  Ca36  1  0.41250096  0.17497502  0.16082759  1
  Ca2+  Ca37  1  0.42044505  0.16918224  0.49029303  1
  Ca2+  Ca38  1  0.42184684  0.16511288  0.83383617  1
  Ca2+  Ca39  1  0.42531930  0.66511574  0.15736170  1
  Ca2+  Ca40  1  0.41337956  0.66173485  0.49746356  1
  Ca2+  Ca41  1  0.42010796  0.66321880  0.83035618  1
  Ca2+  Ca42  1  0.91927052  0.16960383  0.16652118  1
  Ca2+  Ca43  1  0.93100371  0.17959675  0.49524593  1
  Ca2+  Ca44  1  0.92084899  0.16920796  0.82306475  1
  Ca2+  Ca45  1  0.92545586  0.66273177  0.16503428  1
  Ca2+  Ca46  1  0.91924778  0.67518591  0.48912867  1
  Ca2+  Ca47  1  0.92151008  0.66978908  0.83269337  1
  Al0+  Al48  1  -0.00196463  -0.00119613  0.00935978  1
  Al0+  Al49  1  -0.00051375  -0.00009862  0.33054055  1
  Al0+  Al50  1  -0.00091430  0.00024796  0.66048408  1
  Al0+  Al51  1  0.00002575  0.50168678  -0.00123736  1
  Al0+  Al52  1  -0.00014790  0.50187172  0.33549292  1
  Al0+  Al53  1  -0.00075601  0.50155678  0.67047245  1
  Al0+  Al54  1  0.49977353  -0.00004444  0.00066633  1
  Al0+  Al55  1  0.50111883  -0.00029643  0.33598318  1
  Al0+  Al56  1  0.50030322  -0.00347208  0.66395307  1
  Al0+  Al57  1  0.49857132  0.49932302  -0.01121114  1
  Al0+  Al58  1  0.50279443  0.49913688  0.33327564  1
  Al0+  Al59  1  0.50236353  0.49931692  0.67085323  1
  Al0+  Al60  1  0.24790974  0.25070374  -0.00233068  1
  Al0+  Al61  1  0.25251665  0.25086602  0.33375163  1
  Al0+  Al62  1  0.25236970  0.24927246  0.67006797  1
  Al0+  Al63  1  0.24936682  0.74721254  -0.00214593  1
  Al0+  Al64  1  0.25074208  0.75355512  0.33337643  1
  Al0+  Al65  1  0.25165810  0.75096122  0.67119958  1
  Al0+  Al66  1  0.74770405  0.25149338  0.00262019  1
  Al0+  Al67  1  0.74974934  0.24940960  0.33541921  1
  Al0+  Al68  1  0.74961325  0.24945507  0.65974564  1
  Al0+  Al69  1  0.75160489  0.75069935  -0.00060549  1
  Al0+  Al70  1  0.74979766  0.75104828  0.33442805  1
  Al0+  Al71  1  0.74798523  0.74936360  0.66358981  1
  Al0+  Al72  1  0.92793073  0.32228730  0.31686600  1
  Al0+  Al73  1  0.67817555  0.42754858  0.34837515  1
  Al0+  Al74  1  0.07267434  0.18030528  0.31624884  1
  Al0+  Al75  1  0.43123933  0.32077103  0.32166456  1
  Al0+  Al76  1  0.56945056  0.17709980  0.65174784  1
  Al0+  Al77  1  0.07226747  0.67991751  0.31962689  1
  Al0+  Al78  1  0.42455944  0.32138264  0.98145624  1
  Al0+  Al79  1  0.92648878  0.82183752  0.31545439  1
  Al0+  Al80  1  0.92879688  0.81931276  0.65442747  1
  Al0+  Al81  1  0.81970618  0.07342399  0.01318156  1
  Al0+  Al82  1  0.17768095  0.92619989  0.01576695  1
  Al0+  Al83  1  0.07397517  0.17883158  0.65357154  1
  Al0+  Al84  1  0.32128905  0.07173103  0.34991960  1
  Al0+  Al85  1  0.92907811  0.32360438  0.65320250  1
  Al0+  Al86  1  0.18014893  0.43078371  0.34437764  1
  Al0+  Al87  1  0.17740473  0.92885464  0.35075577  1
  Al0+  Al88  1  0.82134629  0.57156354  0.35023136  1
  Al0+  Al89  1  0.82143309  0.57116096  0.01349810  1
  Al0+  Al90  1  0.07163889  0.67784724  0.98377284  1
  Al0+  Al91  1  0.32155511  0.57158346  0.68292879  1
  Al0+  Al92  1  0.57131525  0.17875923  0.98638348  1
  Al0+  Al93  1  0.32115243  0.07295901  0.01485014  1
  Al0+  Al94  1  0.17704626  0.42751093  0.68362158  1
  Al0+  Al95  1  0.57282839  0.67990322  0.98600982  1
  Si0+  Si96  1  0.56933472  0.67980727  0.31955018  1
  Si0+  Si97  1  0.32494338  0.57398543  0.34539887  1
  Si0+  Si98  1  0.81848825  0.06898747  0.67908356  1
  Si0+  Si99  1  0.42957070  0.82305582  0.31827863  1
  Si0+  Si100  1  0.81883615  0.57325683  0.68269587  1
  Si0+  Si101  1  0.92897911  0.82322187  0.98320477  1
  Si0+  Si102  1  0.57242498  0.17522059  0.31652821  1
  Si0+  Si103  1  0.32424626  0.06917523  0.68165821  1
  Si0+  Si104  1  0.68035707  0.42716208  0.68378496  1
  Si0+  Si105  1  0.43001171  0.32237257  0.64891163  1
  Si0+  Si106  1  0.17854482  0.42995258  0.01490751  1
  Si0+  Si107  1  0.57081354  0.67780975  0.64985787  1
  Si0+  Si108  1  0.42875102  0.81962176  0.65120288  1
  Si0+  Si109  1  0.17775163  0.93092421  0.68148136  1
  Si0+  Si110  1  0.67941992  0.92908876  0.34932106  1
  Si0+  Si111  1  0.82169439  0.07185112  0.35102180  1
  Si0+  Si112  1  0.06788799  0.17776924  0.98732999  1
  Si0+  Si113  1  0.67802683  0.92733204  0.01578431  1
  Si0+  Si114  1  0.42799790  0.82088553  0.98323440  1
  Si0+  Si115  1  0.92899572  0.32125741  0.98764815  1
  Si0+  Si116  1  0.67732318  0.92692669  0.68213858  1
  Si0+  Si117  1  0.32233341  0.56936847  0.01379486  1
  Si0+  Si118  1  0.67653294  0.42952899  0.01511181  1
  Si0+  Si119  1  0.07390446  0.67934195  0.65113265  1
  O2-  O120  1  0.24928645  0.00003635  0.06305221  1
  O2-  O121  1  0.24638090  0.00354198  0.40171874  1
  O2-  O122  1  0.24663229  0.00458172  0.72330047  1
  O2-  O123  1  0.25273229  0.49832366  0.05663982  1
  O2-  O124  1  0.25327780  0.50874578  0.38899412  1
  O2-  O125  1  0.24883780  0.50070105  0.73364271  1
  O2-  O126  1  0.74270820  -0.00014864  0.05929951  1
  O2-  O127  1  0.75072658  -0.00078752  0.39203882  1
  O2-  O128  1  0.74730202  -0.00122022  0.72371121  1
  O2-  O129  1  0.74369130  0.49940020  0.05900054  1
  O2-  O130  1  0.75421294  0.49449767  0.40037908  1
  O2-  O131  1  0.75372491  0.49656469  0.72533460  1
  O2-  O132  1  -0.00049649  0.25099498  0.26517315  1
  O2-  O133  1  0.00871398  0.25840736  0.60586441  1
  O2-  O134  1  -0.00465712  0.24657912  0.94418601  1
  O2-  O135  1  0.00043761  0.75127409  0.26733247  1
  O2-  O136  1  0.00330127  0.74560520  0.60724383  1
  O2-  O137  1  -0.00091705  0.75597243  0.93894077  1
  O2-  O138  1  0.50520625  0.24555766  0.27439564  1
  O2-  O139  1  0.49453032  0.25019351  0.60412454  1
  O2-  O140  1  0.49655906  0.24692464  0.93484884  1
  O2-  O141  1  0.49605812  0.74772646  0.27635123  1
  O2-  O142  1  0.49569426  0.74466780  0.60806360  1
  O2-  O143  1  0.49803339  0.75397066  0.93749281  1
  O2-  O144  1  0.06885137  0.18016447  0.09175277  1
  O2-  O145  1  0.07128768  0.18299351  0.42992453  1
  O2-  O146  1  0.06744520  0.17363554  0.76798095  1
  O2-  O147  1  0.07125534  0.67434037  0.09598105  1
  O2-  O148  1  0.07249815  0.68096739  0.43360439  1
  O2-  O149  1  0.07261360  0.68164825  0.75710919  1
  O2-  O150  1  0.57422222  0.18325049  0.09932104  1
  O2-  O151  1  0.57001474  0.17260765  0.42253768  1
  O2-  O152  1  0.57011455  0.17694526  0.76458090  1
  O2-  O153  1  0.57080184  0.68131229  0.09935737  1
  O2-  O154  1  0.56805961  0.68166453  0.42507271  1
  O2-  O155  1  0.57386727  0.68138995  0.75482666  1
  O2-  O156  1  0.18257418  0.43098003  0.23091155  1
  O2-  O157  1  0.17849692  0.42884193  0.57019691  1
  O2-  O158  1  0.17717476  0.43110721  0.90991026  1
  O2-  O159  1  0.18375252  0.92605863  0.23772245  1
  O2-  O160  1  0.17957453  0.92820862  0.57705436  1
  O2-  O161  1  0.17715682  0.92944709  0.90077596  1
  O2-  O162  1  0.67404000  0.43435862  0.23496382  1
  O2-  O163  1  0.67706475  0.42959226  0.57916466  1
  O2-  O164  1  0.68071664  0.42882994  0.90886739  1
  O2-  O165  1  0.67658869  0.92811127  0.24445170  1
  O2-  O166  1  0.67594095  0.92551114  0.57711727  1
  O2-  O167  1  0.68079500  0.92466292  0.90981664  1
  O2-  O168  1  0.42618376  0.32461264  0.09490515  1
  O2-  O169  1  0.43277284  0.32102300  0.43487397  1
  O2-  O170  1  0.43241690  0.32155330  0.75440995  1
  O2-  O171  1  0.42984869  0.81787195  0.08888941  1
  O2-  O172  1  0.43286293  0.82312346  0.42382812  1
  O2-  O173  1  0.43216287  0.82170309  0.75603815  1
  O2-  O174  1  0.93103751  0.32200116  0.09210410  1
  O2-  O175  1  0.92996586  0.31971319  0.43035131  1
  O2-  O176  1  0.92511628  0.31798555  0.76777400  1
  O2-  O177  1  0.92612502  0.82239809  0.08790594  1
  O2-  O178  1  0.92566410  0.81815887  0.42963046  1
  O2-  O179  1  0.92874207  0.82024613  0.76769229  1
  O2-  O180  1  0.32416121  0.06850704  0.23674202  1
  O2-  O181  1  0.32846376  0.06476186  0.57717819  1
  O2-  O182  1  0.31846814  0.07004452  0.90016924  1
  O2-  O183  1  0.32858713  0.57235328  0.23963959  1
  O2-  O184  1  0.32224464  0.57156465  0.56926714  1
  O2-  O185  1  0.32123426  0.57008949  0.90892150  1
  O2-  O186  1  0.81841930  0.07296764  0.24575484  1
  O2-  O187  1  0.81623467  0.06590094  0.57436082  1
  O2-  O188  1  0.82096323  0.07178625  0.89927605  1
  O2-  O189  1  0.81711707  0.57351455  0.23659628  1
  O2-  O190  1  0.81445123  0.57694554  0.57829749  1
  O2-  O191  1  0.82062309  0.56868445  0.89945802  1
  O2-  O192  1  0.04429984  0.08135809  0.26553918  1
  O2-  O193  1  0.03870365  0.08430020  0.59750903  1
  O2-  O194  1  0.04065813  0.08442102  0.94240733  1
  O2-  O195  1  0.04379069  0.58184482  0.26682745  1
  O2-  O196  1  0.04992665  0.58429434  0.60891545  1
  O2-  O197  1  0.03562081  0.58345732  0.92743426  1
  O2-  O198  1  0.54762250  0.08129906  0.27072137  1
  O2-  O199  1  0.54199235  0.07864566  0.59894957  1
  O2-  O200  1  0.54963862  0.07739326  0.93465407  1
  O2-  O201  1  0.54456942  0.58836982  0.27118011  1
  O2-  O202  1  0.54654603  0.58438026  0.60450315  1
  O2-  O203  1  0.54295474  0.58517900  0.92838715  1
  O2-  O204  1  0.17101239  0.20972578  0.26478900  1
  O2-  O205  1  0.17624011  0.19751580  0.60534423  1
  O2-  O206  1  0.15848295  0.20620727  0.93816929  1
  O2-  O207  1  0.17196116  0.70754800  0.26680776  1
  O2-  O208  1  0.16786408  0.70617766  0.60759383  1
  O2-  O209  1  0.16908684  0.70507021  0.92899442  1
  O2-  O210  1  0.66725385  0.19828669  0.27357598  1
  O2-  O211  1  0.66510801  0.20760349  0.59673826  1
  O2-  O212  1  0.66897944  0.21132012  0.93127454  1
  O2-  O213  1  0.65923493  0.71243320  0.27242177  1
  O2-  O214  1  0.65915335  0.71146606  0.59977456  1
  O2-  O215  1  0.66831449  0.71309873  0.93012765  1
  O2-  O216  1  0.08815524  0.46139884  0.06193010  1
  O2-  O217  1  0.08445481  0.45973244  0.40030343  1
  O2-  O218  1  0.07803192  0.45519629  0.73787517  1
  O2-  O219  1  0.07979172  0.95113129  0.06918853  1
  O2-  O220  1  0.07664933  0.95317172  0.40031698  1
  O2-  O221  1  0.08477469  0.95748423  0.72765814  1
  O2-  O222  1  0.58095587  0.45530581  0.05585067  1
  O2-  O223  1  0.58314595  0.46398978  0.40527377  1
  O2-  O224  1  0.59035639  0.45734827  0.73334483  1
  O2-  O225  1  0.58272547  0.94616866  0.06069011  1
  O2-  O226  1  0.58854370  0.95687213  0.39962994  1
  O2-  O227  1  0.58504980  0.95224911  0.72996034  1
  O2-  O228  1  0.20310984  0.33700382  0.06062509  1
  O2-  O229  1  0.21460761  0.33665738  0.40004300  1
  O2-  O230  1  0.20637306  0.32867691  0.73745664  1
  O2-  O231  1  0.20873892  0.82726891  0.06552212  1
  O2-  O232  1  0.21216991  0.83227009  0.40574402  1
  O2-  O233  1  0.20830672  0.84040874  0.73052209  1
  O2-  O234  1  0.70106276  0.33722639  0.06270370  1
  O2-  O235  1  0.69852117  0.32677959  0.40004425  1
  O2-  O236  1  0.70771219  0.33405876  0.72918444  1
  O2-  O237  1  0.70743016  0.83579800  0.06401479  1
  O2-  O238  1  0.70494374  0.83756286  0.39900952  1
  O2-  O239  1  0.70632210  0.83522402  0.72984503  1
  O2-  O240  1  0.46282766  0.41715151  0.26619612  1
  O2-  O241  1  0.46100218  0.41526272  0.60480664  1
  O2-  O242  1  0.45402984  0.41791106  0.92491290  1
  O2-  O243  1  0.46465298  0.91185547  0.27005031  1
  O2-  O244  1  0.46198216  0.90781061  0.60035522  1
  O2-  O245  1  0.45209225  0.91490329  0.93725646  1
  O2-  O246  1  0.95408942  0.42211377  0.26725746  1
  O2-  O247  1  0.94819982  0.42592313  0.60507232  1
  O2-  O248  1  0.96030555  0.41086991  0.93794197  1
  O2-  O249  1  0.94947379  0.92186056  0.26540954  1
  O2-  O250  1  0.95746465  0.91514006  0.59896675  1
  O2-  O251  1  0.95392181  0.91798391  0.93798752  1
  O2-  O252  1  0.33597535  0.29122345  0.26603034  1
  O2-  O253  1  0.33417469  0.30090364  0.60698166  1
  O2-  O254  1  0.32613574  0.29311091  0.92749596  1
  O2-  O255  1  0.33734526  0.80073803  0.27109025  1
  O2-  O256  1  0.33589655  0.79498965  0.60430924  1
  O2-  O257  1  0.33592019  0.79306113  0.93553235  1
  O2-  O258  1  0.82808528  0.29318681  0.26643158  1
  O2-  O259  1  0.83378075  0.29021570  0.59777141  1
  O2-  O260  1  0.83506200  0.29819833  0.94228415  1
  O2-  O261  1  0.82639965  0.79496731  0.26463424  1
  O2-  O262  1  0.83143331  0.78979713  0.60051312  1
  O2-  O263  1  0.83600263  0.79693043  0.93542315  1
  O2-  O264  1  0.42072424  0.04631036  0.06602659  1
  O2-  O265  1  0.41921319  0.03792295  0.40301204  1
  O2-  O266  1  0.41308312  0.03240890  0.73039462  1
  O2-  O267  1  0.41618274  0.54362047  0.05849660  1
  O2-  O268  1  0.41696975  0.54641818  0.39369834  1
  O2-  O269  1  0.42156222  0.54409750  0.73515204  1
  O2-  O270  1  0.91316910  0.04165279  0.07115666  1
  O2-  O271  1  0.91319391  0.04403518  0.39771703  1
  O2-  O272  1  0.91032550  0.03988132  0.72636428  1
  O2-  O273  1  0.91689205  0.53765322  0.06680369  1
  O2-  O274  1  0.92018017  0.54846230  0.40343209  1
  O2-  O275  1  0.91285978  0.55356007  0.72904996  1
  O2-  O276  1  0.29144550  0.17171283  0.06523168  1
  O2-  O277  1  0.29670316  0.17057488  0.40266966  1
  O2-  O278  1  0.30647625  0.16360808  0.72715381  1
  O2-  O279  1  0.29733942  0.66187352  0.06064305  1
  O2-  O280  1  0.30501520  0.66926237  0.39030381  1
  O2-  O281  1  0.29726022  0.67155110  0.73691467  1
  O2-  O282  1  0.78870012  0.16906052  0.06936905  1
  O2-  O283  1  0.79243298  0.16211598  0.40030215  1
  O2-  O284  1  0.79054110  0.16141502  0.72532904  1
  O2-  O285  1  0.79199769  0.66861480  0.06527638  1
  O2-  O286  1  0.78489630  0.66825686  0.40330890  1
  O2-  O287  1  0.78299005  0.66253208  0.73124374  1
