# generated using pymatgen
data_Ca2Al2SiO7
_symmetry_space_group_name_H-M   'P 1'
_cell_length_a   15.46169583
_cell_length_b   15.46192508
_cell_length_c   15.28658678
_cell_angle_alpha   89.99104847
_cell_angle_beta   90.00497169
_cell_angle_gamma   89.97495572
_symmetry_Int_Tables_number   1
_chemical_formula_structural   Ca2Al2SiO7
_chemical_formula_sum   'Ca48 Al48 Si24 O168'
_cell_volume   3654.52693820
_cell_formula_units_Z   24
loop_
 _symmetry_equiv_pos_site_id
 _symmetry_equiv_pos_as_xyz
  1  'x, y, z'
loop_
 _atom_type_symbol
 _atom_type_oxidation_number
  Ca2+  2.0
  Al0+  0.0
  Si0+  0.0
  O2-  -2.0
loop_
 _atom_site_type_symbol
 _atom_site_label
 _atom_site_symmetry_multiplicity
 _atom_site_fract_x
 _atom_site_fract_y
 _atom_site_fract_z
 _atom_site_occupancy
  Ca2+  Ca0  1  0.16487753  0.07261200  0.17120294  1
  Ca2+  Ca1  1  0.16822965  0.07695652  0.50456549  1
  Ca2+  Ca2  1  0.16367936  0.07934970  0.84293316  1
  Ca2+  Ca3  1  0.17507935  0.58114467  0.17688850  1
  Ca2+  Ca4  1  0.17634342  0.59064261  0.50374480  1
  Ca2+  Ca5  1  0.17229496  0.58834128  0.83435460  1
  Ca2+  Ca6  1  0.66962942  0.09366397  0.17210379  1
  Ca2+  Ca7  1  0.67406277  0.09383752  0.50563347  1
  Ca2+  Ca8  1  0.66831174  0.09191476  0.83567404  1
  Ca2+  Ca9  1  0.66036906  0.58230140  0.16761197  1
  Ca2+  Ca10  1  0.65828720  0.57582063  0.50603255  1
  Ca2+  Ca11  1  0.66835563  0.57294655  0.84621449  1
  Ca2+  Ca12  1  0.07625922  0.32556986  0.15472754  1
  Ca2+  Ca13  1  0.08279425  0.32669578  0.49835523  1
  Ca2+  Ca14  1  0.07811545  0.32339603  0.83109949  1
  Ca2+  Ca15  1  0.08985710  0.83152793  0.16692670  1
  Ca2+  Ca16  1  0.08671708  0.82400994  0.49490038  1
  Ca2+  Ca17  1  0.08424304  0.82986752  0.82946411  1
  Ca2+  Ca18  1  0.57615025  0.32766634  0.16199257  1
  Ca2+  Ca19  1  0.58396909  0.32803317  0.49589353  1
  Ca2+  Ca20  1  0.58862370  0.33117980  0.83475166  1
  Ca2+  Ca21  1  0.57257664  0.82610639  0.15852022  1
  Ca2+  Ca22  1  0.56930426  0.82701938  0.49047802  1
  Ca2+  Ca23  1  0.57235869  0.82947612  0.82959027  1
  Ca2+  Ca24  1  0.34240420  0.41920524  0.17329625  1
  Ca2+  Ca25  1  0.34272766  0.42975774  0.50184079  1
  Ca2+  Ca26  1  0.33756224  0.42267927  0.83822168  1
  Ca2+  Ca27  1  0.32597368  0.90668837  0.16957758  1
  Ca2+  Ca28  1  0.33065191  0.90664695  0.50135659  1
  Ca2+  Ca29  1  0.33096122  0.91415932  0.83997335  1
  Ca2+  Ca30  1  0.82888430  0.41616010  0.16284510  1
  Ca2+  Ca31  1  0.82351614  0.41824910  0.50784409  1
  Ca2+  Ca32  1  0.82379585  0.41774038  0.84266573  1
  Ca2+  Ca33  1  0.82779763  0.92546986  0.17503184  1
  Ca2+  Ca34  1  0.82915576  0.92812561  0.50333571  1
  Ca2+  Ca35  1  0.83377897  0.92440296  0.83665731  1
  Ca2+  Ca36  1  0.42325479  0.17681559  0.15833618  1
  Ca2+  Ca37  1  0.43096218  0.17356783  0.49074491  1
  Ca2+  Ca38  1  0.42809184  0.17270417  0.82987208  1
  Ca2+  Ca39  1  0.42354144  0.67119180  0.16684256  1
  Ca2+  Ca40  1  0.41338090  0.67195888  0.49267430  1
  Ca2+  Ca41  1  0.41534417  0.67503150  0.83079570  1
  Ca2+  Ca42  1  0.91949495  0.17024987  0.15951828  1
  Ca2+  Ca43  1  0.91687248  0.15969163  0.49968957  1
  Ca2+  Ca44  1  0.92349574  0.16752618  0.82998074  1
  Ca2+  Ca45  1  0.92303976  0.66213365  0.16082637  1
  Ca2+  Ca46  1  0.93109317  0.66219398  0.49523969  1
  Ca2+  Ca47  1  0.92022497  0.66397654  0.82992066  1
  Al0+  Al48  1  0.00047163  -0.00336884  0.00302029  1
  Al0+  Al49  1  -0.00028429  -0.00152493  0.34307511  1
  Al0+  Al50  1  -0.00119418  -0.00008137  0.66702291  1
  Al0+  Al51  1  0.00115901  0.49933167  -0.00123067  1
  Al0+  Al52  1  0.00029705  0.49854848  0.33046612  1
  Al0+  Al53  1  0.00067620  0.49856282  0.66184436  1
  Al0+  Al54  1  0.49911478  0.00069172  -0.00633184  1
  Al0+  Al55  1  0.49965656  -0.00035741  0.32561166  1
  Al0+  Al56  1  0.49872941  0.00058304  0.65712601  1
  Al0+  Al57  1  0.50128630  0.50028937  -0.00094858  1
  Al0+  Al58  1  0.50016082  0.50017071  0.33295813  1
  Al0+  Al59  1  0.49864061  0.50114313  0.67911497  1
  Al0+  Al60  1  0.25120148  0.24924134  -0.00682026  1
  Al0+  Al61  1  0.24814695  0.24828297  0.33117841  1
  Al0+  Al62  1  0.24937105  0.25019043  0.66165700  1
  Al0+  Al63  1  0.24931450  0.74985423  0.00198146  1
  Al0+  Al64  1  0.24836207  0.74780363  0.33358709  1
  Al0+  Al65  1  0.24880403  0.74947929  0.66550251  1
  Al0+  Al66  1  0.75123605  0.25301594  -0.00071616  1
  Al0+  Al67  1  0.75184058  0.25209671  0.33565788  1
  Al0+  Al68  1  0.75117201  0.25081395  0.67256641  1
  Al0+  Al69  1  0.75231796  0.75110619  -0.00003027  1
  Al0+  Al70  1  0.75255957  0.75096790  0.33432191  1
  Al0+  Al71  1  0.74916526  0.75151552  0.66579775  1
  Al0+  Al72  1  0.42800160  0.32325852  0.98308602  1
  Al0+  Al73  1  0.81978356  0.06886813  0.68359120  1
  Al0+  Al74  1  0.31756215  0.57131237  0.68281836  1
  Al0+  Al75  1  0.42802478  0.32062797  0.32073889  1
  Al0+  Al76  1  0.06859949  0.67944583  0.65369115  1
  Al0+  Al77  1  0.82309665  0.57281345  0.01567348  1
  Al0+  Al78  1  0.07004950  0.17519874  0.98706497  1
  Al0+  Al79  1  0.18186968  0.92969386  0.34980237  1
  Al0+  Al80  1  0.57211663  0.17934620  0.98427712  1
  Al0+  Al81  1  0.57373433  0.67998374  0.98393254  1
  Al0+  Al82  1  0.06933995  0.67892216  0.31792960  1
  Al0+  Al83  1  0.07155428  0.17709673  0.65092256  1
  Al0+  Al84  1  0.57400916  0.67834463  0.32035110  1
  Al0+  Al85  1  0.57149621  0.18208445  0.65202445  1
  Al0+  Al86  1  0.42898467  0.81994215  0.65154028  1
  Al0+  Al87  1  0.17962168  0.92920965  0.01410173  1
  Al0+  Al88  1  0.81790104  0.07168895  0.34724944  1
  Al0+  Al89  1  0.42698352  0.82082937  0.31701834  1
  Al0+  Al90  1  0.67968238  0.43092230  0.68168666  1
  Al0+  Al91  1  0.31994212  0.56715785  0.34621561  1
  Al0+  Al92  1  0.42692718  0.81933084  0.98383723  1
  Al0+  Al93  1  0.57418911  0.17972590  0.31914698  1
  Al0+  Al94  1  0.67849996  0.42921654  0.02029558  1
  Al0+  Al95  1  0.93018280  0.32216616  0.98405240  1
  Si0+  Si96  1  0.57189131  0.67672763  0.65263548  1
  Si0+  Si97  1  0.82531405  0.57286841  0.34934840  1
  Si0+  Si98  1  0.92560928  0.82340381  0.64919231  1
  Si0+  Si99  1  0.68152420  0.43244672  0.34895417  1
  Si0+  Si100  1  0.92873749  0.82153625  0.98602044  1
  Si0+  Si101  1  0.32322576  0.07299380  0.01533534  1
  Si0+  Si102  1  0.82031678  0.06977007  0.01462874  1
  Si0+  Si103  1  0.32215851  0.07293715  0.67967940  1
  Si0+  Si104  1  0.06943450  0.17606942  0.31972315  1
  Si0+  Si105  1  0.07092755  0.67912227  0.98597096  1
  Si0+  Si106  1  0.67548408  0.92617530  0.34915808  1
  Si0+  Si107  1  0.92872399  0.32003835  0.64860688  1
  Si0+  Si108  1  0.67730228  0.92919576  0.01334514  1
  Si0+  Si109  1  0.17452063  0.42484807  0.34964119  1
  Si0+  Si110  1  0.18072547  0.93061659  0.68173272  1
  Si0+  Si111  1  0.31944619  0.57048524  0.01622761  1
  Si0+  Si112  1  0.17593490  0.42545779  0.68368219  1
  Si0+  Si113  1  0.92984562  0.82348587  0.31708444  1
  Si0+  Si114  1  0.67469873  0.92760860  0.68267333  1
  Si0+  Si115  1  0.92983562  0.32090012  0.31902200  1
  Si0+  Si116  1  0.32323718  0.07475000  0.34973498  1
  Si0+  Si117  1  0.17964004  0.42712831  0.01332656  1
  Si0+  Si118  1  0.42721586  0.32497283  0.65023878  1
  Si0+  Si119  1  0.82435248  0.57347113  0.68053558  1
  O2-  O120  1  0.25412161  0.00450893  0.06002277  1
  O2-  O121  1  0.25899777  0.00231827  0.39611630  1
  O2-  O122  1  0.24941406  0.00371536  0.72342379  1
  O2-  O123  1  0.25308456  0.49430968  0.05725624  1
  O2-  O124  1  0.24638945  0.49038372  0.39319019  1
  O2-  O125  1  0.24412629  0.49422213  0.72867625  1
  O2-  O126  1  0.74450722  0.00398198  0.05650719  1
  O2-  O127  1  0.73915938  0.00026181  0.39329416  1
  O2-  O128  1  0.74389801  -0.00515117  0.72936299  1
  O2-  O129  1  0.74891038  0.50472805  0.06855193  1
  O2-  O130  1  0.74925567  0.50735134  0.39147125  1
  O2-  O131  1  0.75227423  0.50977723  0.72498711  1
  O2-  O132  1  0.00168176  0.24999449  0.27810187  1
  O2-  O133  1  -0.00246104  0.25204559  0.60297855  1
  O2-  O134  1  0.00008093  0.24773115  0.93510820  1
  O2-  O135  1  -0.00624013  0.75194628  0.27020251  1
  O2-  O136  1  -0.00975827  0.75025234  0.60650525  1
  O2-  O137  1  -0.00284364  0.74752107  0.94465264  1
  O2-  O138  1  0.49610046  0.24531387  0.27069810  1
  O2-  O139  1  0.49634063  0.25678392  0.60629982  1
  O2-  O140  1  0.50098366  0.25199554  0.93409228  1
  O2-  O141  1  0.50541958  0.75375317  0.27064935  1
  O2-  O142  1  0.50558074  0.74623178  0.60691601  1
  O2-  O143  1  0.50026798  0.74969483  0.93290991  1
  O2-  O144  1  0.06654528  0.17532797  0.10122814  1
  O2-  O145  1  0.06839190  0.17679730  0.42498095  1
  O2-  O146  1  0.06999883  0.17612294  0.76357835  1
  O2-  O147  1  0.07192475  0.67972347  0.09091619  1
  O2-  O148  1  0.06847325  0.67954788  0.43112985  1
  O2-  O149  1  0.06850580  0.68270833  0.76724667  1
  O2-  O150  1  0.57091935  0.17956798  0.09775721  1
  O2-  O151  1  0.57685959  0.18574714  0.43291140  1
  O2-  O152  1  0.57018375  0.18193909  0.76449392  1
  O2-  O153  1  0.57245793  0.68325205  0.09746096  1
  O2-  O154  1  0.57164918  0.67728521  0.43448277  1
  O2-  O155  1  0.57212644  0.67927884  0.75773797  1
  O2-  O156  1  0.17041665  0.42673555  0.24406460  1
  O2-  O157  1  0.17504673  0.42553338  0.57809926  1
  O2-  O158  1  0.17791185  0.43078712  0.90824665  1
  O2-  O159  1  0.17907754  0.93201657  0.23678533  1
  O2-  O160  1  0.18164899  0.92988117  0.57662726  1
  O2-  O161  1  0.17840613  0.92813014  0.90057397  1
  O2-  O162  1  0.68360540  0.43000090  0.24467446  1
  O2-  O163  1  0.68081405  0.43163468  0.56752087  1
  O2-  O164  1  0.68215839  0.42929858  0.90666214  1
  O2-  O165  1  0.68109968  0.92313280  0.24362343  1
  O2-  O166  1  0.67754068  0.92690147  0.57722362  1
  O2-  O167  1  0.68114273  0.92819489  0.90818658  1
  O2-  O168  1  0.42634087  0.32073923  0.09664432  1
  O2-  O169  1  0.43217412  0.32249647  0.43464347  1
  O2-  O170  1  0.42558112  0.32253435  0.75542198  1
  O2-  O171  1  0.42551482  0.81603464  0.09690278  1
  O2-  O172  1  0.42650092  0.81657320  0.43092449  1
  O2-  O173  1  0.42749418  0.81967570  0.76434102  1
  O2-  O174  1  0.93251192  0.31994708  0.09842829  1
  O2-  O175  1  0.92961068  0.32207168  0.42423391  1
  O2-  O176  1  0.93090144  0.32026657  0.75366770  1
  O2-  O177  1  0.92967282  0.82535095  0.09083053  1
  O2-  O178  1  0.93207204  0.82277179  0.42272231  1
  O2-  O179  1  0.92710934  0.82497888  0.75508769  1
  O2-  O180  1  0.31691976  0.07917271  0.24465525  1
  O2-  O181  1  0.32054432  0.07222913  0.57460585  1
  O2-  O182  1  0.32179353  0.07159845  0.90932305  1
  O2-  O183  1  0.31821834  0.56624311  0.23297271  1
  O2-  O184  1  0.31771512  0.57147224  0.56970385  1
  O2-  O185  1  0.31424072  0.57359215  0.91095384  1
  O2-  O186  1  0.82056645  0.07088853  0.23381041  1
  O2-  O187  1  0.81961192  0.06779098  0.57033420  1
  O2-  O188  1  0.82336384  0.06583207  0.90961281  1
  O2-  O189  1  0.83000148  0.56971919  0.24502885  1
  O2-  O190  1  0.82565243  0.57046527  0.57457570  1
  O2-  O191  1  0.82480414  0.57142168  0.90169987  1
  O2-  O192  1  0.03733793  0.08481910  0.27476811  1
  O2-  O193  1  0.03867434  0.08073919  0.59750427  1
  O2-  O194  1  0.03915141  0.07727247  0.93446732  1
  O2-  O195  1  0.04011802  0.58145511  0.26472319  1
  O2-  O196  1  0.04299580  0.58197086  0.59800082  1
  O2-  O197  1  0.04663946  0.58728750  0.93769178  1
  O2-  O198  1  0.55682181  0.07835271  0.26917470  1
  O2-  O199  1  0.54231203  0.08595553  0.59629518  1
  O2-  O200  1  0.54550586  0.08123792  0.92948353  1
  O2-  O201  1  0.54191574  0.58191565  0.26690142  1
  O2-  O202  1  0.54355755  0.58246308  0.60994075  1
  O2-  O203  1  0.54668145  0.58097257  0.93394817  1
  O2-  O204  1  0.16169453  0.19930946  0.27197829  1
  O2-  O205  1  0.16782028  0.20698163  0.59503568  1
  O2-  O206  1  0.16827557  0.20090916  0.93374657  1
  O2-  O207  1  0.16445190  0.71088664  0.26387820  1
  O2-  O208  1  0.16261034  0.71546582  0.59898647  1
  O2-  O209  1  0.16042402  0.71145517  0.93743029  1
  O2-  O210  1  0.67098060  0.21480784  0.26690933  1
  O2-  O211  1  0.66944264  0.21438289  0.60147070  1
  O2-  O212  1  0.67134903  0.20703188  0.93356890  1
  O2-  O213  1  0.67568208  0.69991095  0.27090490  1
  O2-  O214  1  0.66745270  0.69726911  0.60700935  1
  O2-  O215  1  0.67278977  0.70846042  0.93216954  1
  O2-  O216  1  0.08931236  0.45745797  0.06234358  1
  O2-  O217  1  0.08206229  0.45319274  0.39755630  1
  O2-  O218  1  0.08162805  0.45145213  0.72848702  1
  O2-  O219  1  0.08305783  0.95800845  0.07057007  1
  O2-  O220  1  0.08652481  0.96145511  0.40635389  1
  O2-  O221  1  0.08741506  0.95556000  0.72758535  1
  O2-  O222  1  0.57839526  0.45591511  0.07091015  1
  O2-  O223  1  0.58946092  0.45794635  0.39690987  1
  O2-  O224  1  0.58389743  0.45724648  0.73849656  1
  O2-  O225  1  0.58353770  0.95281170  0.05849422  1
  O2-  O226  1  0.57880618  0.94509242  0.39118711  1
  O2-  O227  1  0.58034112  0.95443797  0.72590122  1
  O2-  O228  1  0.20239997  0.33292834  0.05871146  1
  O2-  O229  1  0.19531887  0.32922850  0.39415444  1
  O2-  O230  1  0.20086915  0.33094568  0.72859938  1
  O2-  O231  1  0.21059850  0.83269147  0.06921283  1
  O2-  O232  1  0.21024415  0.83190119  0.40270427  1
  O2-  O233  1  0.20984802  0.83944635  0.72917453  1
  O2-  O234  1  0.71229078  0.33145318  0.07276503  1
  O2-  O235  1  0.71524916  0.34311239  0.39846274  1
  O2-  O236  1  0.71519261  0.33705655  0.73671896  1
  O2-  O237  1  0.71008526  0.84000485  0.06246070  1
  O2-  O238  1  0.70667503  0.83519561  0.39920260  1
  O2-  O239  1  0.69913554  0.83311938  0.72903993  1
  O2-  O240  1  0.46030813  0.41698558  0.26747729  1
  O2-  O241  1  0.45466929  0.42016762  0.60879376  1
  O2-  O242  1  0.45449761  0.42210740  0.93154263  1
  O2-  O243  1  0.44647017  0.92122809  0.26459525  1
  O2-  O244  1  0.45608970  0.91598676  0.59468187  1
  O2-  O245  1  0.45203589  0.91860732  0.93174574  1
  O2-  O246  1  0.95662571  0.41154389  0.26959613  1
  O2-  O247  1  0.95293638  0.41354692  0.60058025  1
  O2-  O248  1  0.96150314  0.41909518  0.93002381  1
  O2-  O249  1  0.95994379  0.91626001  0.27179424  1
  O2-  O250  1  0.95672567  0.91440313  0.60181073  1
  O2-  O251  1  0.96116435  0.91049904  0.93565786  1
  O2-  O252  1  0.32707914  0.29825534  0.26920764  1
  O2-  O253  1  0.33350370  0.30189669  0.60340454  1
  O2-  O254  1  0.33002845  0.29651192  0.92792426  1
  O2-  O255  1  0.33065718  0.78585279  0.26530864  1
  O2-  O256  1  0.33302373  0.78594017  0.59886886  1
  O2-  O257  1  0.32880902  0.78731113  0.93120299  1
  O2-  O258  1  0.83943809  0.29135294  0.27117599  1
  O2-  O259  1  0.83566506  0.29244330  0.60317678  1
  O2-  O260  1  0.83236027  0.29498529  0.93210124  1
  O2-  O261  1  0.83459146  0.80349149  0.27279975  1
  O2-  O262  1  0.83020848  0.80408528  0.60359813  1
  O2-  O263  1  0.83777022  0.79815703  0.93540592  1
  O2-  O264  1  0.41728886  0.04799057  0.06055071  1
  O2-  O265  1  0.42012937  0.05381794  0.39112514  1
  O2-  O266  1  0.41381936  0.04276332  0.72565173  1
  O2-  O267  1  0.41310771  0.54744396  0.06063982  1
  O2-  O268  1  0.41680655  0.53828866  0.40209592  1
  O2-  O269  1  0.41305714  0.54409411  0.74026777  1
  O2-  O270  1  0.90951943  0.03597390  0.06376642  1
  O2-  O271  1  0.91199279  0.03657878  0.40436503  1
  O2-  O272  1  0.91628656  0.03523373  0.73722451  1
  O2-  O273  1  0.92198157  0.54100827  0.06816434  1
  O2-  O274  1  0.91461566  0.53778270  0.39860739  1
  O2-  O275  1  0.91756308  0.54505495  0.72622642  1
  O2-  O276  1  0.29765128  0.16727954  0.06032915  1
  O2-  O277  1  0.29337863  0.16643784  0.39896880  1
  O2-  O278  1  0.29635475  0.16598724  0.72568727  1
  O2-  O279  1  0.28492043  0.65938966  0.06464874  1
  O2-  O280  1  0.28446683  0.66198677  0.40049436  1
  O2-  O281  1  0.28096016  0.66638022  0.73725657  1
  O2-  O282  1  0.79801545  0.16350782  0.06001365  1
  O2-  O283  1  0.79180937  0.16932217  0.40294758  1
  O2-  O284  1  0.79206276  0.16580051  0.73713899  1
  O2-  O285  1  0.80258550  0.67439892  0.06659622  1
  O2-  O286  1  0.80644556  0.66742961  0.39542890  1
  O2-  O287  1  0.80597810  0.67032024  0.72332381  1
