# generated using pymatgen
data_Ca2Al2SiO7
_symmetry_space_group_name_H-M   'P 1'
_cell_length_a   15.47365213
_cell_length_b   15.46873932
_cell_length_c   15.29298237
_cell_angle_alpha   89.99359142
_cell_angle_beta   89.99502271
_cell_angle_gamma   90.02422590
_symmetry_Int_Tables_number   1
_chemical_formula_structural   Ca2Al2SiO7
_chemical_formula_sum   'Ca48 Al48 Si24 O168'
_cell_volume   3660.49564562
_cell_formula_units_Z   24
loop_
 _symmetry_equiv_pos_site_id
 _symmetry_equiv_pos_as_xyz
  1  'x, y, z'
loop_
 _atom_type_symbol
 _atom_type_oxidation_number
  Ca2+  2.0
  Al0+  0.0
  Si0+  0.0
  O2-  -2.0
loop_
 _atom_site_type_symbol
 _atom_site_label
 _atom_site_symmetry_multiplicity
 _atom_site_fract_x
 _atom_site_fract_y
 _atom_site_fract_z
 _atom_site_occupancy
  Ca2+  Ca0  1  0.16007342  0.07235049  0.16655666  1
  Ca2+  Ca1  1  0.15697667  0.06926171  0.50572365  1
  Ca2+  Ca2  1  0.15710053  0.07544879  0.84066115  1
  Ca2+  Ca3  1  0.17246779  0.58311670  0.17793245  1
  Ca2+  Ca4  1  0.15553448  0.57581908  0.50160148  1
  Ca2+  Ca5  1  0.16307048  0.57739988  0.83318485  1
  Ca2+  Ca6  1  0.68154306  0.07779789  0.17514672  1
  Ca2+  Ca7  1  0.67747555  0.08175694  0.50176351  1
  Ca2+  Ca8  1  0.67926547  0.09054260  0.83395016  1
  Ca2+  Ca9  1  0.68038340  0.58495100  0.17025174  1
  Ca2+  Ca10  1  0.67690417  0.58531913  0.49859089  1
  Ca2+  Ca11  1  0.67511228  0.57959243  0.84246529  1
  Ca2+  Ca12  1  0.08220056  0.32907869  0.16608957  1
  Ca2+  Ca13  1  0.07842484  0.33302288  0.49574237  1
  Ca2+  Ca14  1  0.08097756  0.32047840  0.82359280  1
  Ca2+  Ca15  1  0.07789968  0.83516008  0.16632689  1
  Ca2+  Ca16  1  0.08671272  0.82467847  0.49180467  1
  Ca2+  Ca17  1  0.08337192  0.83301115  0.83104151  1
  Ca2+  Ca18  1  0.58044893  0.33397870  0.16397917  1
  Ca2+  Ca19  1  0.58397453  0.32664509  0.49768893  1
  Ca2+  Ca20  1  0.57818808  0.32705736  0.82496466  1
  Ca2+  Ca21  1  0.57733601  0.84144134  0.16787755  1
  Ca2+  Ca22  1  0.57482489  0.84057961  0.48953271  1
  Ca2+  Ca23  1  0.57912623  0.83294191  0.83003454  1
  Ca2+  Ca24  1  0.32530831  0.42733804  0.17440322  1
  Ca2+  Ca25  1  0.31810996  0.42206073  0.50050387  1
  Ca2+  Ca26  1  0.32495427  0.42024449  0.83815725  1
  Ca2+  Ca27  1  0.32109519  0.91703299  0.17144996  1
  Ca2+  Ca28  1  0.32172731  0.90892875  0.50007726  1
  Ca2+  Ca29  1  0.31794196  0.92328877  0.83928990  1
  Ca2+  Ca30  1  0.84181668  0.42735554  0.17376390  1
  Ca2+  Ca31  1  0.84937099  0.42081971  0.50007595  1
  Ca2+  Ca32  1  0.83857112  0.42012934  0.83384761  1
  Ca2+  Ca33  1  0.83899361  0.92329400  0.17488332  1
  Ca2+  Ca34  1  0.84371119  0.92950327  0.49891211  1
  Ca2+  Ca35  1  0.84032288  0.92943034  0.83990447  1
  Ca2+  Ca36  1  0.41642313  0.16357599  0.16019828  1
  Ca2+  Ca37  1  0.42623484  0.15947748  0.49627215  1
  Ca2+  Ca38  1  0.42384627  0.15712063  0.82829473  1
  Ca2+  Ca39  1  0.40833447  0.67020856  0.16604087  1
  Ca2+  Ca40  1  0.41820816  0.67054420  0.48834978  1
  Ca2+  Ca41  1  0.41287553  0.66509969  0.83180100  1
  Ca2+  Ca42  1  0.91855957  0.16657162  0.16250281  1
  Ca2+  Ca43  1  0.91558135  0.17364478  0.49851591  1
  Ca2+  Ca44  1  0.92432458  0.16611643  0.82693124  1
  Ca2+  Ca45  1  0.91636790  0.67466517  0.16449749  1
  Ca2+  Ca46  1  0.92798861  0.67217636  0.48809006  1
  Ca2+  Ca47  1  0.91955503  0.67421046  0.82997638  1
  Al0+  Al48  1  -0.00224122  -0.00038685  0.00099521  1
  Al0+  Al49  1  0.00187110  0.00048739  0.33970356  1
  Al0+  Al50  1  -0.00142461  0.00067649  0.67305817  1
  Al0+  Al51  1  -0.00099187  0.50031480  0.00312766  1
  Al0+  Al52  1  0.00090483  0.49865132  0.33148104  1
  Al0+  Al53  1  0.00168477  0.50149268  0.66855838  1
  Al0+  Al54  1  0.49861830  -0.00067730  -0.00170771  1
  Al0+  Al55  1  0.50209555  -0.00039404  0.32896693  1
  Al0+  Al56  1  0.50076439  -0.00143004  0.66186479  1
  Al0+  Al57  1  0.49929518  0.49955976  0.00191291  1
  Al0+  Al58  1  0.50059907  0.49875987  0.33580899  1
  Al0+  Al59  1  0.50147281  0.50078266  0.66553864  1
  Al0+  Al60  1  0.25058816  0.25009573  -0.00209396  1
  Al0+  Al61  1  0.25265703  0.25084923  0.33615844  1
  Al0+  Al62  1  0.25172523  0.25019452  0.66641987  1
  Al0+  Al63  1  0.24918497  0.74944014  0.00380602  1
  Al0+  Al64  1  0.25337061  0.75142245  0.33117615  1
  Al0+  Al65  1  0.25027062  0.75087601  0.66862486  1
  Al0+  Al66  1  0.74777215  0.25033919  0.00294652  1
  Al0+  Al67  1  0.75080027  0.25021323  0.33062923  1
  Al0+  Al68  1  0.74787412  0.25137655  0.66290170  1
  Al0+  Al69  1  0.74859352  0.74917750  -0.00242108  1
  Al0+  Al70  1  0.74815839  0.74953739  0.33880718  1
  Al0+  Al71  1  0.74841782  0.75103956  0.66688829  1
  Al0+  Al72  1  0.92779425  0.81970476  0.98618362  1
  Al0+  Al73  1  0.82128537  0.57145019  0.01284612  1
  Al0+  Al74  1  0.82288564  0.07245952  0.35006032  1
  Al0+  Al75  1  0.81826322  0.07192149  0.68203484  1
  Al0+  Al76  1  0.17794386  0.42782729  0.68225053  1
  Al0+  Al77  1  0.07043567  0.68185802  0.65491120  1
  Al0+  Al78  1  0.17732847  0.92961665  0.01646145  1
  Al0+  Al79  1  0.81940997  0.07105891  0.01390843  1
  Al0+  Al80  1  0.82124636  0.57068046  0.34762859  1
  Al0+  Al81  1  0.32164108  0.57209568  0.34897149  1
  Al0+  Al82  1  0.32262273  0.07218308  0.01347639  1
  Al0+  Al83  1  0.92976270  0.31954895  0.31775619  1
  Al0+  Al84  1  0.93013199  0.32089987  0.65300652  1
  Al0+  Al85  1  0.43061466  0.82079881  0.31748073  1
  Al0+  Al86  1  0.17827012  0.42833636  0.34855070  1
  Al0+  Al87  1  0.56923151  0.17956280  0.65161726  1
  Al0+  Al88  1  0.17926897  0.92925690  0.68138208  1
  Al0+  Al89  1  0.92832875  0.82233391  0.32033332  1
  Al0+  Al90  1  0.06951160  0.18032845  0.98811886  1
  Al0+  Al91  1  0.07311191  0.17602523  0.65132427  1
  Al0+  Al92  1  0.67831479  0.92910730  0.34778901  1
  Al0+  Al93  1  0.18060433  0.93052605  0.34790372  1
  Al0+  Al94  1  0.07181692  0.67900714  0.31730490  1
  Al0+  Al95  1  0.32051818  0.56920954  0.01322209  1
  Si0+  Si96  1  0.67543575  0.92783075  0.68458749  1
  Si0+  Si97  1  0.07499224  0.17768170  0.31776893  1
  Si0+  Si98  1  0.57308894  0.67719613  0.65112676  1
  Si0+  Si99  1  0.32325270  0.57094219  0.68281079  1
  Si0+  Si100  1  0.92546610  0.82267829  0.65115234  1
  Si0+  Si101  1  0.92568985  0.32361127  0.98392532  1
  Si0+  Si102  1  0.42725464  0.82084465  0.98259002  1
  Si0+  Si103  1  0.57225943  0.67457641  0.31540843  1
  Si0+  Si104  1  0.67725153  0.43091197  0.68157976  1
  Si0+  Si105  1  0.42793337  0.32560144  0.64822831  1
  Si0+  Si106  1  0.67804873  0.42717174  0.35052083  1
  Si0+  Si107  1  0.82103888  0.57224816  0.68172322  1
  Si0+  Si108  1  0.32388805  0.07272004  0.34946192  1
  Si0+  Si109  1  0.43101983  0.81805349  0.65237544  1
  Si0+  Si110  1  0.67658252  0.92661020  0.01425816  1
  Si0+  Si111  1  0.07331245  0.67672286  0.98333391  1
  Si0+  Si112  1  0.17713461  0.42682374  0.01604466  1
  Si0+  Si113  1  0.43025824  0.32238674  0.98476860  1
  Si0+  Si114  1  0.56924280  0.67818281  0.98452638  1
  Si0+  Si115  1  0.57049076  0.17861425  0.98472795  1
  Si0+  Si116  1  0.32499568  0.07088532  0.68022013  1
  Si0+  Si117  1  0.57081131  0.17950116  0.31505988  1
  Si0+  Si118  1  0.42967206  0.32101957  0.31726809  1
  Si0+  Si119  1  0.67745954  0.42853767  0.01614561  1
  O2-  O120  1  0.24974361  0.00287568  0.06444837  1
  O2-  O121  1  0.25387652  0.00708335  0.39488745  1
  O2-  O122  1  0.24915364  0.01094095  0.72490673  1
  O2-  O123  1  0.24220341  0.49915819  0.05938893  1
  O2-  O124  1  0.24538177  0.50543235  0.39880171  1
  O2-  O125  1  0.25548227  0.50157414  0.72709122  1
  O2-  O126  1  0.74583906  -0.00586365  0.05793746  1
  O2-  O127  1  0.75374306  -0.00365636  0.39869743  1
  O2-  O128  1  0.74564278  -0.00595202  0.72903597  1
  O2-  O129  1  0.75010186  0.49285274  0.05894303  1
  O2-  O130  1  0.74801891  0.49397111  0.39511059  1
  O2-  O131  1  0.74927053  0.50090951  0.72351528  1
  O2-  O132  1  0.00456075  0.24441626  0.27284931  1
  O2-  O133  1  0.00314534  0.25037710  0.60218114  1
  O2-  O134  1  -0.00505516  0.25564190  0.94085790  1
  O2-  O135  1  -0.00148086  0.74997655  0.26778678  1
  O2-  O136  1  -0.00460430  0.75551059  0.60808181  1
  O2-  O137  1  0.00358373  0.74507770  0.94009382  1
  O2-  O138  1  0.49925592  0.24984322  0.27265555  1
  O2-  O139  1  0.49164609  0.25162493  0.60469598  1
  O2-  O140  1  0.49702431  0.24727026  0.94199919  1
  O2-  O141  1  0.50452219  0.74419646  0.27113061  1
  O2-  O142  1  0.50229019  0.74768272  0.60972052  1
  O2-  O143  1  0.49801525  0.74855593  0.94067226  1
  O2-  O144  1  0.06883690  0.18219677  0.10121427  1
  O2-  O145  1  0.07623749  0.17888486  0.42311083  1
  O2-  O146  1  0.06969685  0.17658076  0.76531826  1
  O2-  O147  1  0.07419287  0.67524576  0.08822474  1
  O2-  O148  1  0.07006445  0.68001846  0.43129443  1
  O2-  O149  1  0.06844135  0.68121213  0.76848748  1
  O2-  O150  1  0.57077613  0.18084021  0.08956748  1
  O2-  O151  1  0.56902241  0.18041403  0.42022860  1
  O2-  O152  1  0.56825178  0.18189016  0.76532385  1
  O2-  O153  1  0.56969932  0.67736069  0.08886334  1
  O2-  O154  1  0.56959168  0.67230303  0.42137924  1
  O2-  O155  1  0.57357286  0.67617893  0.75657454  1
  O2-  O156  1  0.18345479  0.42476804  0.23479277  1
  O2-  O157  1  0.17753518  0.43066228  0.56995280  1
  O2-  O158  1  0.17949615  0.42699001  0.91020846  1
  O2-  O159  1  0.18026246  0.93180277  0.23515507  1
  O2-  O160  1  0.18350589  0.92527193  0.56866009  1
  O2-  O161  1  0.17997220  0.92910771  0.90249195  1
  O2-  O162  1  0.67553890  0.42845250  0.24472465  1
  O2-  O163  1  0.67152697  0.43350733  0.57719167  1
  O2-  O164  1  0.67390019  0.42962161  0.91028330  1
  O2-  O165  1  0.67456992  0.93491634  0.23409359  1
  O2-  O166  1  0.67179460  0.92830282  0.57984545  1
  O2-  O167  1  0.67459813  0.92755374  0.90838610  1
  O2-  O168  1  0.43449648  0.32447160  0.08968630  1
  O2-  O169  1  0.43228934  0.32012358  0.42220148  1
  O2-  O170  1  0.43272836  0.33015986  0.75409558  1
  O2-  O171  1  0.42950729  0.82206253  0.08707433  1
  O2-  O172  1  0.43262294  0.82081142  0.43114882  1
  O2-  O173  1  0.43302131  0.81671620  0.75786141  1
  O2-  O174  1  0.92516453  0.32387972  0.08921902  1
  O2-  O175  1  0.92953777  0.31866806  0.43057985  1
  O2-  O176  1  0.92943278  0.32076350  0.76712463  1
  O2-  O177  1  0.92504659  0.81856054  0.09862699  1
  O2-  O178  1  0.93152431  0.82149125  0.43417291  1
  O2-  O179  1  0.92275711  0.81923777  0.75709920  1
  O2-  O180  1  0.32400996  0.07253439  0.24394244  1
  O2-  O181  1  0.33154113  0.06456278  0.57518501  1
  O2-  O182  1  0.32821832  0.06758998  0.90000536  1
  O2-  O183  1  0.32295836  0.56718819  0.23521935  1
  O2-  O184  1  0.32723460  0.57077458  0.57814137  1
  O2-  O185  1  0.32400623  0.56581350  0.89979401  1
  O2-  O186  1  0.82026217  0.07364128  0.23629365  1
  O2-  O187  1  0.81660770  0.07225053  0.56960876  1
  O2-  O188  1  0.81640382  0.07346790  0.90065142  1
  O2-  O189  1  0.81789124  0.56972645  0.23442141  1
  O2-  O190  1  0.81868110  0.57286779  0.57707851  1
  O2-  O191  1  0.81750312  0.57051126  0.89910064  1
  O2-  O192  1  0.04890944  0.08375760  0.27366075  1
  O2-  O193  1  0.04058701  0.07768257  0.60114880  1
  O2-  O194  1  0.03685574  0.08434447  0.93453896  1
  O2-  O195  1  0.04596258  0.57980210  0.26568149  1
  O2-  O196  1  0.03880797  0.58562198  0.60221333  1
  O2-  O197  1  0.04680286  0.58226416  0.93786696  1
  O2-  O198  1  0.54276408  0.08905817  0.26611685  1
  O2-  O199  1  0.54029752  0.08259085  0.59694801  1
  O2-  O200  1  0.54484819  0.08643245  0.93632823  1
  O2-  O201  1  0.54687280  0.58070109  0.26918341  1
  O2-  O202  1  0.54628593  0.58576599  0.60296916  1
  O2-  O203  1  0.54097555  0.58606976  0.93627451  1
  O2-  O204  1  0.16894705  0.20462210  0.27221162  1
  O2-  O205  1  0.17518330  0.19697213  0.60289169  1
  O2-  O206  1  0.16748257  0.20775544  0.93338481  1
  O2-  O207  1  0.17076876  0.70750768  0.26667034  1
  O2-  O208  1  0.16814509  0.71076817  0.60252755  1
  O2-  O209  1  0.16703008  0.70269112  0.93674562  1
  O2-  O210  1  0.66133772  0.20942918  0.26697930  1
  O2-  O211  1  0.66226871  0.21546843  0.59559498  1
  O2-  O212  1  0.66094197  0.21046246  0.93628495  1
  O2-  O213  1  0.66649128  0.69937608  0.27146635  1
  O2-  O214  1  0.66485136  0.70410555  0.60336731  1
  O2-  O215  1  0.65951811  0.70608669  0.93364205  1
  O2-  O216  1  0.08216607  0.44729225  0.06038762  1
  O2-  O217  1  0.07938994  0.45329441  0.40049778  1
  O2-  O218  1  0.08366542  0.46281406  0.73901044  1
  O2-  O219  1  0.07982705  0.95917547  0.06876756  1
  O2-  O220  1  0.08552073  0.95880069  0.40507707  1
  O2-  O221  1  0.08188761  0.95490552  0.73604697  1
  O2-  O222  1  0.58630174  0.45861625  0.06450434  1
  O2-  O223  1  0.58562886  0.45335338  0.39861751  1
  O2-  O224  1  0.58687226  0.46052233  0.73259908  1
  O2-  O225  1  0.58310202  0.95341419  0.05936497  1
  O2-  O226  1  0.58151324  0.96454944  0.40131011  1
  O2-  O227  1  0.58212778  0.95502780  0.73143012  1
  O2-  O228  1  0.20722969  0.33516646  0.06215339  1
  O2-  O229  1  0.21357528  0.33230948  0.40320805  1
  O2-  O230  1  0.20888052  0.33050207  0.73609399  1
  O2-  O231  1  0.20731002  0.83161920  0.06780879  1
  O2-  O232  1  0.21621375  0.83509474  0.40035678  1
  O2-  O233  1  0.21661863  0.83515796  0.73740564  1
  O2-  O234  1  0.69690973  0.33408680  0.06237148  1
  O2-  O235  1  0.70103067  0.33266521  0.39455136  1
  O2-  O236  1  0.70347694  0.33898671  0.72893708  1
  O2-  O237  1  0.69785999  0.83198179  0.05859806  1
  O2-  O238  1  0.69351533  0.82795689  0.39945762  1
  O2-  O239  1  0.69727455  0.83216425  0.72967391  1
  O2-  O240  1  0.46067526  0.41191518  0.26920335  1
  O2-  O241  1  0.46100979  0.41632374  0.60046402  1
  O2-  O242  1  0.46373869  0.41164608  0.93483390  1
  O2-  O243  1  0.46408733  0.91625800  0.26156136  1
  O2-  O244  1  0.45896185  0.90873748  0.60363762  1
  O2-  O245  1  0.45743397  0.91144721  0.93312829  1
  O2-  O246  1  0.96120679  0.41529298  0.26293365  1
  O2-  O247  1  0.95841946  0.42040569  0.60281468  1
  O2-  O248  1  0.94977780  0.41833012  0.93868747  1
  O2-  O249  1  0.95836365  0.92186643  0.26989311  1
  O2-  O250  1  0.95004715  0.91743710  0.60986154  1
  O2-  O251  1  0.95892348  0.91603190  0.93202532  1
  O2-  O252  1  0.33812887  0.29430454  0.26906848  1
  O2-  O253  1  0.33281718  0.30591200  0.60487943  1
  O2-  O254  1  0.33742107  0.30036666  0.93740462  1
  O2-  O255  1  0.33571085  0.79136888  0.26071934  1
  O2-  O256  1  0.33978332  0.78958545  0.60563773  1
  O2-  O257  1  0.33586102  0.79131704  0.93534159  1
  O2-  O258  1  0.83171893  0.29260946  0.26348460  1
  O2-  O259  1  0.83061031  0.29641759  0.60078164  1
  O2-  O260  1  0.83025533  0.29933092  0.93986510  1
  O2-  O261  1  0.82711198  0.79612624  0.27185649  1
  O2-  O262  1  0.83132158  0.79770813  0.60563531  1
  O2-  O263  1  0.83126202  0.78844063  0.93020348  1
  O2-  O264  1  0.42127140  0.04317917  0.06657085  1
  O2-  O265  1  0.41757757  0.04438292  0.39315594  1
  O2-  O266  1  0.41568690  0.03678521  0.72911308  1
  O2-  O267  1  0.41608897  0.53606773  0.06759639  1
  O2-  O268  1  0.41908948  0.53881418  0.40187045  1
  O2-  O269  1  0.41784676  0.54591629  0.72939150  1
  O2-  O270  1  0.91476321  0.04097092  0.06789585  1
  O2-  O271  1  0.92095436  0.04751243  0.40426223  1
  O2-  O272  1  0.91394886  0.04184509  0.73796862  1
  O2-  O273  1  0.91800379  0.54495845  0.06768149  1
  O2-  O274  1  0.91745227  0.53904834  0.40035149  1
  O2-  O275  1  0.91120524  0.54399802  0.73096466  1
  O2-  O276  1  0.30133041  0.17342831  0.06332103  1
  O2-  O277  1  0.30518050  0.16759257  0.39537077  1
  O2-  O278  1  0.31321828  0.16889864  0.72146707  1
  O2-  O279  1  0.29572086  0.66717673  0.06554430  1
  O2-  O280  1  0.30261299  0.67318484  0.39777821  1
  O2-  O281  1  0.29672709  0.66387707  0.72984726  1
  O2-  O282  1  0.78654218  0.16721159  0.06789003  1
  O2-  O283  1  0.78705886  0.16959831  0.40087284  1
  O2-  O284  1  0.78157231  0.16818324  0.73396139  1
  O2-  O285  1  0.78348070  0.66567009  0.06603113  1
  O2-  O286  1  0.78851171  0.66473359  0.40509286  1
  O2-  O287  1  0.79072680  0.66372010  0.72942653  1
