# generated using pymatgen
data_Ca2Al2SiO7
_symmetry_space_group_name_H-M   'P 1'
_cell_length_a   15.46240863
_cell_length_b   15.46180563
_cell_length_c   15.28636947
_cell_angle_alpha   90.00504060
_cell_angle_beta   89.99269992
_cell_angle_gamma   90.02022787
_symmetry_Int_Tables_number   1
_chemical_formula_structural   Ca2Al2SiO7
_chemical_formula_sum   'Ca48 Al48 Si24 O168'
_cell_volume   3654.61536408
_cell_formula_units_Z   24
loop_
 _symmetry_equiv_pos_site_id
 _symmetry_equiv_pos_as_xyz
  1  'x, y, z'
loop_
 _atom_type_symbol
 _atom_type_oxidation_number
  Ca2+  2.0
  Al0+  0.0
  Si0+  0.0
  O2-  -2.0
loop_
 _atom_site_type_symbol
 _atom_site_label
 _atom_site_symmetry_multiplicity
 _atom_site_fract_x
 _atom_site_fract_y
 _atom_site_fract_z
 _atom_site_occupancy
  Ca2+  Ca0  1  0.17132378  0.07558551  0.16809598  1
  Ca2+  Ca1  1  0.17172479  0.08062804  0.50316196  1
  Ca2+  Ca2  1  0.16407360  0.06896790  0.83805675  1
  Ca2+  Ca3  1  0.16715360  0.58693343  0.16198048  1
  Ca2+  Ca4  1  0.17307523  0.57503091  0.51101448  1
  Ca2+  Ca5  1  0.17283875  0.58066599  0.84327416  1
  Ca2+  Ca6  1  0.67571637  0.07500181  0.16580543  1
  Ca2+  Ca7  1  0.67789553  0.08795144  0.50409352  1
  Ca2+  Ca8  1  0.67630928  0.08073445  0.84005363  1
  Ca2+  Ca9  1  0.67476363  0.58428179  0.16800186  1
  Ca2+  Ca10  1  0.67185012  0.57820928  0.49649291  1
  Ca2+  Ca11  1  0.67054996  0.57942627  0.84568525  1
  Ca2+  Ca12  1  0.07867208  0.33282179  0.16156266  1
  Ca2+  Ca13  1  0.07858120  0.33363099  0.49257924  1
  Ca2+  Ca14  1  0.08652066  0.33609354  0.83188548  1
  Ca2+  Ca15  1  0.07337595  0.82876629  0.15611844  1
  Ca2+  Ca16  1  0.07459539  0.83801070  0.49890438  1
  Ca2+  Ca17  1  0.07819838  0.83367393  0.83247112  1
  Ca2+  Ca18  1  0.58306329  0.34103511  0.16366140  1
  Ca2+  Ca19  1  0.58001251  0.32907496  0.49164020  1
  Ca2+  Ca20  1  0.58744146  0.32867040  0.82867102  1
  Ca2+  Ca21  1  0.57860019  0.82909618  0.15212516  1
  Ca2+  Ca22  1  0.58112854  0.83054920  0.49606661  1
  Ca2+  Ca23  1  0.58373579  0.83126414  0.83760510  1
  Ca2+  Ca24  1  0.33097327  0.41940435  0.16729921  1
  Ca2+  Ca25  1  0.33002384  0.41880729  0.50717562  1
  Ca2+  Ca26  1  0.32351712  0.42658160  0.83944646  1
  Ca2+  Ca27  1  0.32714686  0.91188729  0.16743196  1
  Ca2+  Ca28  1  0.32632130  0.92247164  0.50571845  1
  Ca2+  Ca29  1  0.32302630  0.91011008  0.84129444  1
  Ca2+  Ca30  1  0.82523857  0.42851328  0.17229699  1
  Ca2+  Ca31  1  0.83424687  0.41760969  0.49752079  1
  Ca2+  Ca32  1  0.82679579  0.42535421  0.84610185  1
  Ca2+  Ca33  1  0.83801431  0.92033377  0.16986742  1
  Ca2+  Ca34  1  0.84168545  0.92479543  0.50434775  1
  Ca2+  Ca35  1  0.83629066  0.92435261  0.84187949  1
  Ca2+  Ca36  1  0.41319957  0.17124383  0.16416059  1
  Ca2+  Ca37  1  0.42200446  0.16969458  0.48990272  1
  Ca2+  Ca38  1  0.42782767  0.16744203  0.82631374  1
  Ca2+  Ca39  1  0.42430648  0.66891564  0.15213588  1
  Ca2+  Ca40  1  0.41587124  0.66297633  0.49857497  1
  Ca2+  Ca41  1  0.41572371  0.66337063  0.83742012  1
  Ca2+  Ca42  1  0.90399055  0.17134257  0.16614817  1
  Ca2+  Ca43  1  0.91464524  0.16871957  0.49294581  1
  Ca2+  Ca44  1  0.91253546  0.16448658  0.82970629  1
  Ca2+  Ca45  1  0.91481077  0.67316565  0.15622192  1
  Ca2+  Ca46  1  0.91485780  0.67838821  0.49150788  1
  Ca2+  Ca47  1  0.91571390  0.67707929  0.83395535  1
  Al0+  Al48  1  0.00299479  0.00344786  0.00607913  1
  Al0+  Al49  1  0.00062245  -0.00135464  0.33275366  1
  Al0+  Al50  1  0.00055633  0.00228567  0.66921740  1
  Al0+  Al51  1  -0.00063024  0.49931485  0.00240524  1
  Al0+  Al52  1  0.00063021  0.49988024  0.33357708  1
  Al0+  Al53  1  -0.00066234  0.50096177  0.66887406  1
  Al0+  Al54  1  0.50158739  0.00282331  -0.00217311  1
  Al0+  Al55  1  0.49904866  -0.00002211  0.33651658  1
  Al0+  Al56  1  0.50259680  -0.00115936  0.65911185  1
  Al0+  Al57  1  0.49701963  0.49918946  -0.00024826  1
  Al0+  Al58  1  0.50000419  0.49873889  0.33336476  1
  Al0+  Al59  1  0.50070495  0.50006965  0.66841651  1
  Al0+  Al60  1  0.24865154  0.25070256  -0.00023634  1
  Al0+  Al61  1  0.25172171  0.24879351  0.33284119  1
  Al0+  Al62  1  0.25063380  0.24997400  0.66965234  1
  Al0+  Al63  1  0.24879323  0.74968309  0.00237424  1
  Al0+  Al64  1  0.24901933  0.74881965  0.33622217  1
  Al0+  Al65  1  0.25054353  0.74964240  0.67135131  1
  Al0+  Al66  1  0.74901852  0.25032488  0.00568797  1
  Al0+  Al67  1  0.74896540  0.24774131  0.33542724  1
  Al0+  Al68  1  0.75049318  0.24949493  0.66486285  1
  Al0+  Al69  1  0.74803598  0.75166292  -0.00370392  1
  Al0+  Al70  1  0.74915470  0.74956702  0.33378855  1
  Al0+  Al71  1  0.74880360  0.75105895  0.65953316  1
  Al0+  Al72  1  0.32089584  0.07110410  0.34652699  1
  Al0+  Al73  1  0.17774388  0.42699442  0.01801842  1
  Al0+  Al74  1  0.81933507  0.07054448  0.68000036  1
  Al0+  Al75  1  0.82067033  0.57339218  0.01249828  1
  Al0+  Al76  1  0.82056851  0.06831564  0.34869676  1
  Al0+  Al77  1  0.92858426  0.82449782  0.98509460  1
  Al0+  Al78  1  0.93024485  0.82185036  0.65212669  1
  Al0+  Al79  1  0.82314764  0.57252148  0.34988981  1
  Al0+  Al80  1  0.42948185  0.32045389  0.31857684  1
  Al0+  Al81  1  0.82303829  0.07047601  0.01614010  1
  Al0+  Al82  1  0.67789620  0.92942632  0.01274154  1
  Al0+  Al83  1  0.18025066  0.92839165  0.01471787  1
  Al0+  Al84  1  0.67823235  0.42942947  0.34967554  1
  Al0+  Al85  1  0.32275382  0.57074464  0.68290312  1
  Al0+  Al86  1  0.92820944  0.32052777  0.31912534  1
  Al0+  Al87  1  0.57242528  0.17852768  0.65130667  1
  Al0+  Al88  1  0.06982586  0.67736417  0.98437047  1
  Al0+  Al89  1  0.67722398  0.42816192  0.01333544  1
  Al0+  Al90  1  0.31920767  0.57090203  0.01756716  1
  Al0+  Al91  1  0.92952273  0.82046351  0.31899008  1
  Al0+  Al92  1  0.57103248  0.67756056  0.98444951  1
  Al0+  Al93  1  0.18013845  0.93159122  0.68002885  1
  Al0+  Al94  1  0.17639868  0.42731611  0.68144619  1
  Al0+  Al95  1  0.42837636  0.82349797  0.98532206  1
  Si0+  Si96  1  0.17921712  0.92694309  0.35127334  1
  Si0+  Si97  1  0.92779219  0.31885118  0.98580425  1
  Si0+  Si98  1  0.67664005  0.92558623  0.68211679  1
  Si0+  Si99  1  0.42712156  0.81998118  0.64997416  1
  Si0+  Si100  1  0.57174031  0.17599339  0.31374008  1
  Si0+  Si101  1  0.07308764  0.18058177  0.98395719  1
  Si0+  Si102  1  0.92921598  0.32242179  0.65307051  1
  Si0+  Si103  1  0.57085365  0.67722259  0.64878387  1
  Si0+  Si104  1  0.07269535  0.67781158  0.64998543  1
  Si0+  Si105  1  0.56856307  0.67950702  0.31917290  1
  Si0+  Si106  1  0.82025985  0.57398705  0.68035474  1
  Si0+  Si107  1  0.17970935  0.42773360  0.34789976  1
  Si0+  Si108  1  0.42762306  0.82150608  0.32062973  1
  Si0+  Si109  1  0.32095846  0.57066578  0.34835478  1
  Si0+  Si110  1  0.67650811  0.92668219  0.35112134  1
  Si0+  Si111  1  0.32560852  0.07175987  0.68241504  1
  Si0+  Si112  1  0.42631181  0.32067410  0.98282632  1
  Si0+  Si113  1  0.68150074  0.42976869  0.67999700  1
  Si0+  Si114  1  0.07284974  0.17803623  0.31629529  1
  Si0+  Si115  1  0.07154835  0.17958241  0.65280944  1
  Si0+  Si116  1  0.32332277  0.07272856  0.01350065  1
  Si0+  Si117  1  0.42958567  0.32097134  0.65071923  1
  Si0+  Si118  1  0.07382764  0.67697908  0.31819998  1
  Si0+  Si119  1  0.57163305  0.18129255  0.98487631  1
  O2-  O120  1  0.25991352  -0.00021402  0.05849813  1
  O2-  O121  1  0.24771995  -0.00381589  0.39498422  1
  O2-  O122  1  0.25800070  0.00331126  0.72729134  1
  O2-  O123  1  0.24751092  0.49979851  0.06944156  1
  O2-  O124  1  0.24972408  0.49982369  0.39020897  1
  O2-  O125  1  0.24708511  0.50101843  0.72971166  1
  O2-  O126  1  0.75629657  -0.00714939  0.06458896  1
  O2-  O127  1  0.74690059  -0.00696825  0.39641171  1
  O2-  O128  1  0.74555468  -0.00544428  0.72456177  1
  O2-  O129  1  0.74554932  0.50395768  0.06145957  1
  O2-  O130  1  0.75377068  0.49752996  0.40076225  1
  O2-  O131  1  0.75112052  0.50126810  0.72234797  1
  O2-  O132  1  0.00187395  0.24438682  0.27219677  1
  O2-  O133  1  0.00487947  0.25530408  0.61168136  1
  O2-  O134  1  -0.00031791  0.24945064  0.94196112  1
  O2-  O135  1  0.00180652  0.74248446  0.27551991  1
  O2-  O136  1  0.00398428  0.74575525  0.60441963  1
  O2-  O137  1  -0.00137220  0.75047195  0.93437776  1
  O2-  O138  1  0.50443133  0.24654486  0.27013815  1
  O2-  O139  1  0.49460780  0.25008681  0.60449647  1
  O2-  O140  1  0.50039173  0.25213254  0.94182234  1
  O2-  O141  1  0.49907501  0.75223176  0.27822703  1
  O2-  O142  1  0.49797467  0.74794746  0.60783454  1
  O2-  O143  1  0.49950916  0.75081195  0.93428172  1
  O2-  O144  1  0.07788763  0.18202867  0.08873609  1
  O2-  O145  1  0.07437040  0.18010520  0.42256710  1
  O2-  O146  1  0.07009239  0.17772679  0.75773358  1
  O2-  O147  1  0.06881428  0.67969005  0.09848127  1
  O2-  O148  1  0.07808653  0.67901380  0.42407702  1
  O2-  O149  1  0.07121415  0.67724281  0.75482825  1
  O2-  O150  1  0.57036261  0.18048833  0.08964345  1
  O2-  O151  1  0.56937688  0.17648698  0.41978165  1
  O2-  O152  1  0.57235807  0.18190165  0.76467829  1
  O2-  O153  1  0.56863705  0.67772784  0.09853880  1
  O2-  O154  1  0.56619465  0.67967248  0.42509016  1
  O2-  O155  1  0.57374407  0.67585452  0.75293044  1
  O2-  O156  1  0.18067828  0.42640238  0.24347311  1
  O2-  O157  1  0.17745955  0.42724985  0.56696951  1
  O2-  O158  1  0.18183810  0.42414514  0.90467276  1
  O2-  O159  1  0.18156468  0.92539397  0.24611433  1
  O2-  O160  1  0.18169817  0.93507130  0.56646512  1
  O2-  O161  1  0.17915108  0.93241440  0.90142819  1
  O2-  O162  1  0.67617745  0.43506323  0.23698338  1
  O2-  O163  1  0.68143015  0.43014947  0.57512910  1
  O2-  O164  1  0.68226569  0.42464188  0.89873036  1
  O2-  O165  1  0.67338336  0.92774064  0.24614154  1
  O2-  O166  1  0.67600150  0.92461715  0.57622941  1
  O2-  O167  1  0.67461317  0.93611954  0.89910304  1
  O2-  O168  1  0.42387804  0.31776692  0.08792129  1
  O2-  O169  1  0.42913337  0.31922975  0.43216029  1
  O2-  O170  1  0.43219592  0.32007764  0.75618867  1
  O2-  O171  1  0.43054123  0.82314366  0.09976144  1
  O2-  O172  1  0.42745318  0.81914310  0.42623488  1
  O2-  O173  1  0.42745360  0.82310752  0.75418012  1
  O2-  O174  1  0.92774029  0.31616664  0.09068350  1
  O2-  O175  1  0.93288051  0.31957371  0.43322054  1
  O2-  O176  1  0.92593800  0.32113471  0.75802070  1
  O2-  O177  1  0.93169538  0.82401649  0.09880981  1
  O2-  O178  1  0.93323364  0.82219304  0.43273265  1
  O2-  O179  1  0.92966806  0.82200353  0.76436323  1
  O2-  O180  1  0.31917267  0.06990140  0.23364713  1
  O2-  O181  1  0.32335563  0.07164126  0.57656765  1
  O2-  O182  1  0.32081564  0.07474437  0.90773344  1
  O2-  O183  1  0.32103401  0.57295877  0.24413480  1
  O2-  O184  1  0.32295478  0.56787806  0.56802679  1
  O2-  O185  1  0.31966854  0.56721320  0.90418398  1
  O2-  O186  1  0.81890140  0.06750882  0.23641980  1
  O2-  O187  1  0.81986035  0.07132691  0.56687763  1
  O2-  O188  1  0.81963013  0.07412425  0.90224343  1
  O2-  O189  1  0.82020934  0.57467011  0.23716342  1
  O2-  O190  1  0.81944597  0.57300595  0.57530490  1
  O2-  O191  1  0.82018649  0.56900130  0.89784756  1
  O2-  O192  1  0.05077190  0.08303243  0.27245649  1
  O2-  O193  1  0.04003909  0.09072055  0.60209786  1
  O2-  O194  1  0.04591394  0.08859934  0.93715511  1
  O2-  O195  1  0.05405044  0.58189997  0.27387186  1
  O2-  O196  1  0.04728643  0.58333430  0.60383598  1
  O2-  O197  1  0.04355638  0.57742494  0.93235877  1
  O2-  O198  1  0.54248572  0.08250010  0.26933103  1
  O2-  O199  1  0.54655400  0.08132187  0.59522054  1
  O2-  O200  1  0.54399826  0.09117093  0.93407656  1
  O2-  O201  1  0.53863402  0.58884139  0.27260965  1
  O2-  O202  1  0.54210110  0.58539277  0.60051818  1
  O2-  O203  1  0.54065650  0.57892356  0.93091530  1
  O2-  O204  1  0.16520544  0.20609328  0.26959274  1
  O2-  O205  1  0.16580949  0.20224780  0.60612975  1
  O2-  O206  1  0.16308958  0.20983709  0.93282095  1
  O2-  O207  1  0.16655199  0.70627256  0.27105788  1
  O2-  O208  1  0.16743582  0.70290457  0.60483750  1
  O2-  O209  1  0.16884994  0.70593084  0.93362462  1
  O2-  O210  1  0.66614864  0.19887519  0.27002285  1
  O2-  O211  1  0.66726524  0.21390278  0.59600785  1
  O2-  O212  1  0.66291101  0.21163936  0.93700621  1
  O2-  O213  1  0.66089976  0.70543370  0.27338602  1
  O2-  O214  1  0.66039701  0.70707654  0.59725819  1
  O2-  O215  1  0.66825675  0.70449667  0.92827678  1
  O2-  O216  1  0.07820471  0.45110506  0.06888205  1
  O2-  O217  1  0.08808317  0.45411525  0.39621986  1
  O2-  O218  1  0.07665725  0.45195115  0.73346230  1
  O2-  O219  1  0.08829395  0.96594533  0.07218540  1
  O2-  O220  1  0.08641135  0.95466407  0.39700532  1
  O2-  O221  1  0.08638763  0.96729344  0.73497917  1
  O2-  O222  1  0.57636350  0.44892247  0.06207111  1
  O2-  O223  1  0.58082906  0.46205422  0.40453159  1
  O2-  O224  1  0.58923388  0.45565443  0.72682303  1
  O2-  O225  1  0.58201379  0.96508920  0.06809039  1
  O2-  O226  1  0.58330598  0.95324614  0.39894709  1
  O2-  O227  1  0.58209904  0.95081377  0.72575668  1
  O2-  O228  1  0.20931308  0.32893400  0.07054778  1
  O2-  O229  1  0.20865242  0.33649459  0.39585527  1
  O2-  O230  1  0.20437564  0.32861111  0.73448071  1
  O2-  O231  1  0.20789716  0.83298760  0.07086025  1
  O2-  O232  1  0.20612988  0.83426226  0.39961241  1
  O2-  O233  1  0.20758281  0.83430129  0.73244295  1
  O2-  O234  1  0.70827745  0.33290198  0.06970207  1
  O2-  O235  1  0.70248369  0.32902876  0.40026316  1
  O2-  O236  1  0.71055062  0.33846378  0.72700229  1
  O2-  O237  1  0.69467168  0.82796807  0.06172404  1
  O2-  O238  1  0.69887186  0.83236225  0.39711332  1
  O2-  O239  1  0.70126822  0.83115806  0.72615899  1
  O2-  O240  1  0.45887643  0.41766750  0.26518561  1
  O2-  O241  1  0.45797139  0.41409984  0.60446167  1
  O2-  O242  1  0.45115622  0.41244317  0.93512700  1
  O2-  O243  1  0.45243865  0.91437325  0.27488677  1
  O2-  O244  1  0.45580103  0.91069779  0.59926326  1
  O2-  O245  1  0.45554259  0.92270691  0.93189645  1
  O2-  O246  1  0.95925843  0.41759068  0.26678624  1
  O2-  O247  1  0.95286080  0.41551832  0.60514190  1
  O2-  O248  1  0.95374857  0.41090083  0.93836737  1
  O2-  O249  1  0.96273903  0.91632407  0.26538761  1
  O2-  O250  1  0.96509899  0.91874110  0.59947894  1
  O2-  O251  1  0.96115400  0.92422281  0.93601182  1
  O2-  O252  1  0.33354890  0.28773793  0.26430225  1
  O2-  O253  1  0.33391114  0.29867393  0.60649674  1
  O2-  O254  1  0.33628464  0.28881656  0.93390203  1
  O2-  O255  1  0.33519012  0.79315978  0.27507802  1
  O2-  O256  1  0.33542771  0.79219833  0.60128139  1
  O2-  O257  1  0.32966531  0.79446442  0.93465333  1
  O2-  O258  1  0.83089770  0.28930852  0.26749411  1
  O2-  O259  1  0.83984616  0.29045332  0.60333903  1
  O2-  O260  1  0.83625207  0.28910286  0.93791438  1
  O2-  O261  1  0.83018136  0.79412142  0.26895398  1
  O2-  O262  1  0.83310149  0.79290452  0.59661616  1
  O2-  O263  1  0.82914647  0.80076097  0.93234949  1
  O2-  O264  1  0.41835308  0.05484622  0.05845921  1
  O2-  O265  1  0.41695546  0.04131713  0.40281233  1
  O2-  O266  1  0.42071852  0.04631232  0.72469366  1
  O2-  O267  1  0.41717358  0.54033153  0.06948574  1
  O2-  O268  1  0.41192709  0.54214925  0.39665809  1
  O2-  O269  1  0.42080548  0.54064217  0.73533793  1
  O2-  O270  1  0.92295613  0.05269452  0.06903421  1
  O2-  O271  1  0.91954023  0.04039399  0.40092211  1
  O2-  O272  1  0.91635051  0.04320933  0.73354470  1
  O2-  O273  1  0.91673987  0.54218885  0.06658886  1
  O2-  O274  1  0.92278597  0.54603396  0.40255003  1
  O2-  O275  1  0.91253720  0.54865762  0.72675236  1
  O2-  O276  1  0.29107208  0.16352119  0.06104541  1
  O2-  O277  1  0.28928308  0.16680173  0.40267646  1
  O2-  O278  1  0.30221141  0.16577108  0.72795043  1
  O2-  O279  1  0.29320258  0.66932320  0.07076890  1
  O2-  O280  1  0.29357770  0.66224024  0.39806498  1
  O2-  O281  1  0.29905463  0.67008790  0.73387942  1
  O2-  O282  1  0.78593251  0.16556404  0.06982659  1
  O2-  O283  1  0.78970066  0.16484642  0.40313915  1
  O2-  O284  1  0.78768163  0.16741324  0.73350731  1
  O2-  O285  1  0.79471731  0.67246285  0.06340610  1
  O2-  O286  1  0.78860712  0.66925764  0.40433216  1
  O2-  O287  1  0.78910098  0.66542657  0.72532046  1
