# generated using pymatgen
data_Ca2Al2SiO7
_symmetry_space_group_name_H-M   'P 1'
_cell_length_a   15.45681954
_cell_length_b   15.45674337
_cell_length_c   15.28354239
_cell_angle_alpha   89.99735378
_cell_angle_beta   90.00114775
_cell_angle_gamma   90.01202202
_symmetry_Int_Tables_number   1
_chemical_formula_structural   Ca2Al2SiO7
_chemical_formula_sum   'Ca48 Al48 Si24 O168'
_cell_volume   3651.42301628
_cell_formula_units_Z   24
loop_
 _symmetry_equiv_pos_site_id
 _symmetry_equiv_pos_as_xyz
  1  'x, y, z'
loop_
 _atom_type_symbol
 _atom_type_oxidation_number
  Ca2+  2.0
  Al0+  0.0
  Si0+  0.0
  O2-  -2.0
loop_
 _atom_site_type_symbol
 _atom_site_label
 _atom_site_symmetry_multiplicity
 _atom_site_fract_x
 _atom_site_fract_y
 _atom_site_fract_z
 _atom_site_occupancy
  Ca2+  Ca0  1  0.16896146  0.07908923  0.17395379  1
  Ca2+  Ca1  1  0.16428984  0.07214804  0.50264359  1
  Ca2+  Ca2  1  0.17819621  0.07857780  0.83606772  1
  Ca2+  Ca3  1  0.17114823  0.57136885  0.17469901  1
  Ca2+  Ca4  1  0.16697595  0.57514798  0.50350284  1
  Ca2+  Ca5  1  0.15629864  0.57502155  0.83491932  1
  Ca2+  Ca6  1  0.67368268  0.08217103  0.17554853  1
  Ca2+  Ca7  1  0.67355093  0.09198481  0.49749661  1
  Ca2+  Ca8  1  0.66717277  0.07909108  0.83768968  1
  Ca2+  Ca9  1  0.67229900  0.58587729  0.17534444  1
  Ca2+  Ca10  1  0.67267999  0.57875724  0.50016556  1
  Ca2+  Ca11  1  0.67504751  0.58314566  0.83755335  1
  Ca2+  Ca12  1  0.08499079  0.33253561  0.16256804  1
  Ca2+  Ca13  1  0.09028726  0.32752931  0.49265359  1
  Ca2+  Ca14  1  0.07930468  0.34303535  0.83102968  1
  Ca2+  Ca15  1  0.07467252  0.83500887  0.16594950  1
  Ca2+  Ca16  1  0.08395712  0.83002312  0.49298857  1
  Ca2+  Ca17  1  0.07968265  0.82718351  0.82593595  1
  Ca2+  Ca18  1  0.58137727  0.33513189  0.17067466  1
  Ca2+  Ca19  1  0.57932069  0.33631701  0.48722450  1
  Ca2+  Ca20  1  0.58214717  0.33404456  0.82697407  1
  Ca2+  Ca21  1  0.58047461  0.81800134  0.15988211  1
  Ca2+  Ca22  1  0.57896437  0.82530913  0.49097030  1
  Ca2+  Ca23  1  0.57908906  0.82737137  0.83680206  1
  Ca2+  Ca24  1  0.32615460  0.41810477  0.17603388  1
  Ca2+  Ca25  1  0.32779580  0.41654029  0.49662763  1
  Ca2+  Ca26  1  0.31805697  0.41593859  0.83838480  1
  Ca2+  Ca27  1  0.33200702  0.91833716  0.17044771  1
  Ca2+  Ca28  1  0.31969987  0.92066627  0.50688139  1
  Ca2+  Ca29  1  0.33390646  0.92329194  0.83921425  1
  Ca2+  Ca30  1  0.83149223  0.42900957  0.17407477  1
  Ca2+  Ca31  1  0.82218041  0.42536123  0.50429088  1
  Ca2+  Ca32  1  0.83470816  0.42966447  0.83956079  1
  Ca2+  Ca33  1  0.83959236  0.91890919  0.17655532  1
  Ca2+  Ca34  1  0.83885889  0.92056082  0.49453872  1
  Ca2+  Ca35  1  0.83402145  0.91470015  0.83915225  1
  Ca2+  Ca36  1  0.41713848  0.17047651  0.16639254  1
  Ca2+  Ca37  1  0.42079449  0.17256231  0.49047222  1
  Ca2+  Ca38  1  0.41187517  0.16275635  0.82917249  1
  Ca2+  Ca39  1  0.42696729  0.66181852  0.16326051  1
  Ca2+  Ca40  1  0.42147211  0.66110456  0.48861180  1
  Ca2+  Ca41  1  0.41921899  0.66889114  0.83216313  1
  Ca2+  Ca42  1  0.92249426  0.17218382  0.16562789  1
  Ca2+  Ca43  1  0.92301686  0.16879432  0.48746209  1
  Ca2+  Ca44  1  0.91772452  0.17794845  0.83170257  1
  Ca2+  Ca45  1  0.90790435  0.67524828  0.16187000  1
  Ca2+  Ca46  1  0.91724313  0.66693953  0.49666388  1
  Ca2+  Ca47  1  0.91720543  0.66582491  0.82974748  1
  Al0+  Al48  1  0.00149565  0.00088942  -0.00665066  1
  Al0+  Al49  1  0.00041516  0.00087533  0.33320722  1
  Al0+  Al50  1  -0.00037205  0.00122190  0.67224543  1
  Al0+  Al51  1  -0.00253059  0.49957985  0.00699445  1
  Al0+  Al52  1  0.00051933  0.50041421  0.34121526  1
  Al0+  Al53  1  -0.00169669  0.50220536  0.66689649  1
  Al0+  Al54  1  0.50096655  -0.00029532  0.00196291  1
  Al0+  Al55  1  0.50097355  -0.00006890  0.32977102  1
  Al0+  Al56  1  0.50182335  0.00042590  0.66727337  1
  Al0+  Al57  1  0.50043804  0.49660635  -0.00779896  1
  Al0+  Al58  1  0.49922872  0.49971396  0.32978408  1
  Al0+  Al59  1  0.49988917  0.49903323  0.66923621  1
  Al0+  Al60  1  0.25116082  0.24704366  0.00680065  1
  Al0+  Al61  1  0.25107601  0.24839566  0.32757475  1
  Al0+  Al62  1  0.24986627  0.25054807  0.67317095  1
  Al0+  Al63  1  0.25000871  0.74983016  -0.00343032  1
  Al0+  Al64  1  0.24859916  0.74971520  0.33906759  1
  Al0+  Al65  1  0.24835912  0.74997439  0.66574478  1
  Al0+  Al66  1  0.75096722  0.24978748  -0.00542698  1
  Al0+  Al67  1  0.75098546  0.24978631  0.33619615  1
  Al0+  Al68  1  0.74919289  0.25026835  0.66993904  1
  Al0+  Al69  1  0.74925880  0.75018192  -0.00625327  1
  Al0+  Al70  1  0.74961776  0.75225424  0.33090353  1
  Al0+  Al71  1  0.74929887  0.75207847  0.66814545  1
  Al0+  Al72  1  0.57114192  0.67605968  0.98196962  1
  Al0+  Al73  1  0.93198522  0.81883510  0.32143251  1
  Al0+  Al74  1  0.81946920  0.57203787  0.68311337  1
  Al0+  Al75  1  0.32128253  0.06918382  0.67990282  1
  Al0+  Al76  1  0.32098305  0.57078537  0.34626074  1
  Al0+  Al77  1  0.07080020  0.17913602  0.32053721  1
  Al0+  Al78  1  0.93005518  0.82226012  0.98552772  1
  Al0+  Al79  1  0.17695003  0.92651412  0.68421112  1
  Al0+  Al80  1  0.17865793  0.42592473  0.34871057  1
  Al0+  Al81  1  0.67946546  0.42957553  0.34562202  1
  Al0+  Al82  1  0.07003454  0.67909423  0.65160782  1
  Al0+  Al83  1  0.18006973  0.43016828  0.68036081  1
  Al0+  Al84  1  0.82145429  0.57614949  0.34894597  1
  Al0+  Al85  1  0.67739304  0.42803528  0.68330105  1
  Al0+  Al86  1  0.56974897  0.67973488  0.32128148  1
  Al0+  Al87  1  0.57417462  0.17756568  0.31760129  1
  Al0+  Al88  1  0.93022956  0.32122350  0.98721800  1
  Al0+  Al89  1  0.42825736  0.82167705  0.98527755  1
  Al0+  Al90  1  0.32236963  0.06841760  0.01745087  1
  Al0+  Al91  1  0.42937986  0.32060226  0.31705589  1
  Al0+  Al92  1  0.17864089  0.43051555  0.01487049  1
  Al0+  Al93  1  0.82079220  0.07072579  0.34474957  1
  Al0+  Al94  1  0.17874602  0.93028177  0.34525469  1
  Al0+  Al95  1  0.81775415  0.57163550  0.01553531  1
  Si0+  Si96  1  0.42458696  0.82247549  0.31882623  1
  Si0+  Si97  1  0.82161628  0.07235328  0.68343452  1
  Si0+  Si98  1  0.42967606  0.82247243  0.65111283  1
  Si0+  Si99  1  0.07418745  0.17861473  0.98078129  1
  Si0+  Si100  1  0.42824786  0.31989555  0.65307823  1
  Si0+  Si101  1  0.32433997  0.07112831  0.34910966  1
  Si0+  Si102  1  0.17665245  0.92670210  0.01674297  1
  Si0+  Si103  1  0.32335997  0.57302048  0.68366151  1
  Si0+  Si104  1  0.57196661  0.17799228  0.65167654  1
  Si0+  Si105  1  0.67673775  0.42513112  0.01636370  1
  Si0+  Si106  1  0.67907266  0.93012526  0.68204189  1
  Si0+  Si107  1  0.68102911  0.93021038  0.01478103  1
  Si0+  Si108  1  0.82235190  0.07184141  0.01337063  1
  Si0+  Si109  1  0.56988015  0.67951735  0.65074478  1
  Si0+  Si110  1  0.57143066  0.17912251  0.98354612  1
  Si0+  Si111  1  0.92822837  0.32382441  0.31929230  1
  Si0+  Si112  1  0.07116056  0.67723018  0.98602750  1
  Si0+  Si113  1  0.42727420  0.31843288  0.98229458  1
  Si0+  Si114  1  0.92674183  0.82475724  0.64872213  1
  Si0+  Si115  1  0.07367986  0.67557765  0.31674055  1
  Si0+  Si116  1  0.92781865  0.32125854  0.65088759  1
  Si0+  Si117  1  0.67697060  0.92838228  0.34884156  1
  Si0+  Si118  1  0.07036965  0.18059061  0.65335963  1
  Si0+  Si119  1  0.32435350  0.57209361  0.01397094  1
  O2-  O120  1  0.24754467  -0.00725365  0.06145367  1
  O2-  O121  1  0.25639101  0.00189936  0.39264194  1
  O2-  O122  1  0.25223087  -0.00413911  0.73266569  1
  O2-  O123  1  0.25460265  0.50508431  0.05841344  1
  O2-  O124  1  0.24822610  0.50055187  0.39803054  1
  O2-  O125  1  0.25223551  0.50699851  0.72815180  1
  O2-  O126  1  0.75615947  -0.00285980  0.05627961  1
  O2-  O127  1  0.74249914  0.00020688  0.39338024  1
  O2-  O128  1  0.75183848  -0.00032084  0.72457372  1
  O2-  O129  1  0.74098793  0.49772053  0.05980973  1
  O2-  O130  1  0.75112431  0.50119267  0.39651896  1
  O2-  O131  1  0.74844020  0.49958676  0.73425468  1
  O2-  O132  1  0.00091926  0.25904813  0.27494590  1
  O2-  O133  1  -0.00089665  0.25030575  0.60909008  1
  O2-  O134  1  0.00701877  0.24939531  0.93709972  1
  O2-  O135  1  0.00178722  0.74087542  0.27233604  1
  O2-  O136  1  -0.00293192  0.75724430  0.60649373  1
  O2-  O137  1  0.00551006  0.74838968  0.94017536  1
  O2-  O138  1  0.50205254  0.24841742  0.26673544  1
  O2-  O139  1  0.50212359  0.25079618  0.61178806  1
  O2-  O140  1  0.50015664  0.24898143  0.93967139  1
  O2-  O141  1  0.49295732  0.75325271  0.27563372  1
  O2-  O142  1  0.49544256  0.74697061  0.60804334  1
  O2-  O143  1  0.49564305  0.74603831  0.93324332  1
  O2-  O144  1  0.07151787  0.17582573  0.08620316  1
  O2-  O145  1  0.06853596  0.17743725  0.43442350  1
  O2-  O146  1  0.06833189  0.18149053  0.75850106  1
  O2-  O147  1  0.07122632  0.67844351  0.09136828  1
  O2-  O148  1  0.07490971  0.67854704  0.42233732  1
  O2-  O149  1  0.06681952  0.67842132  0.76523011  1
  O2-  O150  1  0.57399254  0.17952299  0.08780650  1
  O2-  O151  1  0.57173347  0.17754387  0.43181501  1
  O2-  O152  1  0.57230749  0.17579206  0.75718019  1
  O2-  O153  1  0.57160216  0.67798336  0.09539739  1
  O2-  O154  1  0.56931721  0.68258236  0.43509362  1
  O2-  O155  1  0.56943562  0.68213656  0.75567459  1
  O2-  O156  1  0.17973693  0.42738391  0.23501658  1
  O2-  O157  1  0.18365678  0.42579467  0.56823710  1
  O2-  O158  1  0.17875497  0.43205705  0.90123728  1
  O2-  O159  1  0.17864092  0.93199826  0.23207492  1
  O2-  O160  1  0.17587126  0.92992240  0.57055332  1
  O2-  O161  1  0.17596617  0.92928156  0.91127921  1
  O2-  O162  1  0.68182570  0.42990364  0.23180289  1
  O2-  O163  1  0.67700705  0.42725323  0.57028787  1
  O2-  O164  1  0.67918565  0.42344730  0.91061880  1
  O2-  O165  1  0.67909464  0.92754649  0.24323961  1
  O2-  O166  1  0.67682373  0.93058636  0.57732336  1
  O2-  O167  1  0.68069665  0.93392785  0.90888260  1
  O2-  O168  1  0.42771161  0.31877651  0.08664610  1
  O2-  O169  1  0.42879723  0.31820718  0.43141474  1
  O2-  O170  1  0.42826786  0.31753468  0.75857115  1
  O2-  O171  1  0.43202211  0.82259551  0.09863214  1
  O2-  O172  1  0.42743212  0.82381360  0.42492325  1
  O2-  O173  1  0.43371661  0.82392298  0.75605982  1
  O2-  O174  1  0.92923535  0.31748154  0.09982525  1
  O2-  O175  1  0.92703191  0.31927294  0.42525728  1
  O2-  O176  1  0.92852509  0.31900150  0.75640103  1
  O2-  O177  1  0.93042344  0.82491819  0.09836277  1
  O2-  O178  1  0.93381731  0.82134646  0.43449411  1
  O2-  O179  1  0.92576086  0.82488812  0.75452095  1
  O2-  O180  1  0.32406543  0.06871021  0.24343694  1
  O2-  O181  1  0.32131828  0.06868388  0.56664676  1
  O2-  O182  1  0.32166283  0.06854662  0.90413754  1
  O2-  O183  1  0.31984148  0.57071417  0.23232796  1
  O2-  O184  1  0.32651210  0.57042473  0.57852040  1
  O2-  O185  1  0.32394972  0.56961404  0.90802414  1
  O2-  O186  1  0.82190351  0.06813467  0.23140199  1
  O2-  O187  1  0.82223309  0.07418095  0.57862594  1
  O2-  O188  1  0.81833607  0.07228100  0.90768238  1
  O2-  O189  1  0.81869453  0.57691279  0.23517848  1
  O2-  O190  1  0.81668885  0.57240299  0.57002104  1
  O2-  O191  1  0.81901878  0.57051572  0.90243184  1
  O2-  O192  1  0.03360542  0.08626077  0.26391480  1
  O2-  O193  1  0.04189561  0.08766546  0.60803737  1
  O2-  O194  1  0.04641270  0.08685432  0.93167157  1
  O2-  O195  1  0.05219594  0.57963744  0.27411625  1
  O2-  O196  1  0.03731422  0.58326518  0.59673627  1
  O2-  O197  1  0.04034913  0.58478267  0.94058232  1
  O2-  O198  1  0.54844257  0.07812740  0.26403081  1
  O2-  O199  1  0.54486827  0.08647704  0.60338765  1
  O2-  O200  1  0.54367122  0.08694060  0.93627446  1
  O2-  O201  1  0.54070474  0.58470730  0.26486931  1
  O2-  O202  1  0.54465825  0.58571001  0.60613674  1
  O2-  O203  1  0.54662111  0.57689437  0.92762063  1
  O2-  O204  1  0.16753494  0.20321631  0.26460045  1
  O2-  O205  1  0.16263100  0.20941598  0.60785978  1
  O2-  O206  1  0.16921239  0.20303618  0.93753358  1
  O2-  O207  1  0.16626057  0.70504037  0.27039600  1
  O2-  O208  1  0.16862513  0.70549902  0.59821433  1
  O2-  O209  1  0.16564301  0.69743586  0.93847329  1
  O2-  O210  1  0.67358835  0.20442557  0.26565209  1
  O2-  O211  1  0.66539463  0.20364429  0.60601321  1
  O2-  O212  1  0.66265283  0.20563295  0.93279393  1
  O2-  O213  1  0.66385179  0.71521774  0.26559520  1
  O2-  O214  1  0.66058943  0.71274699  0.60461767  1
  O2-  O215  1  0.66570904  0.71273518  0.92608317  1
  O2-  O216  1  0.08318637  0.45979015  0.07047139  1
  O2-  O217  1  0.08013543  0.44963743  0.40312476  1
  O2-  O218  1  0.08242025  0.46054128  0.73245586  1
  O2-  O219  1  0.08324147  0.95714070  0.06117355  1
  O2-  O220  1  0.08532296  0.96616159  0.40155830  1
  O2-  O221  1  0.07939549  0.95748474  0.73792629  1
  O2-  O222  1  0.57981470  0.44524683  0.05727701  1
  O2-  O223  1  0.58072113  0.45720324  0.39711828  1
  O2-  O224  1  0.57836894  0.45473150  0.73650062  1
  O2-  O225  1  0.59175029  0.96176154  0.06328508  1
  O2-  O226  1  0.58204160  0.94983527  0.39467912  1
  O2-  O227  1  0.58963018  0.96135434  0.73235434  1
  O2-  O228  1  0.20907817  0.33310037  0.06612526  1
  O2-  O229  1  0.21051269  0.32704001  0.39919462  1
  O2-  O230  1  0.21168078  0.33558393  0.73835512  1
  O2-  O231  1  0.19809434  0.83114983  0.06038175  1
  O2-  O232  1  0.20559410  0.83407114  0.40160132  1
  O2-  O233  1  0.20274101  0.82687381  0.73515138  1
  O2-  O234  1  0.70557119  0.33152334  0.06040375  1
  O2-  O235  1  0.70592929  0.33123966  0.40023261  1
  O2-  O236  1  0.70399834  0.32839963  0.73606760  1
  O2-  O237  1  0.70510866  0.83673280  0.05875335  1
  O2-  O238  1  0.70682807  0.83783441  0.39807914  1
  O2-  O239  1  0.70574783  0.83917895  0.73150212  1
  O2-  O240  1  0.45722854  0.41782102  0.26174001  1
  O2-  O241  1  0.45376675  0.41290565  0.60696337  1
  O2-  O242  1  0.45170164  0.40984311  0.93199642  1
  O2-  O243  1  0.45006169  0.91561984  0.27202663  1
  O2-  O244  1  0.46382751  0.91215211  0.60297615  1
  O2-  O245  1  0.46459414  0.91835589  0.93154791  1
  O2-  O246  1  0.94989038  0.41948750  0.27590208  1
  O2-  O247  1  0.95309272  0.41356945  0.60538772  1
  O2-  O248  1  0.96072394  0.41846427  0.93380919  1
  O2-  O249  1  0.96584989  0.91424569  0.26661636  1
  O2-  O250  1  0.95046468  0.92083236  0.60613162  1
  O2-  O251  1  0.95770097  0.91917498  0.92869905  1
  O2-  O252  1  0.33305477  0.29013096  0.26106971  1
  O2-  O253  1  0.33702241  0.28935207  0.60641793  1
  O2-  O254  1  0.33584569  0.28651996  0.93581448  1
  O2-  O255  1  0.33045600  0.79867139  0.27369617  1
  O2-  O256  1  0.33531434  0.80095076  0.60666959  1
  O2-  O257  1  0.32837004  0.79909243  0.93131164  1
  O2-  O258  1  0.83698280  0.29348743  0.27217389  1
  O2-  O259  1  0.83579142  0.29037795  0.60548398  1
  O2-  O260  1  0.83580886  0.28673590  0.92892900  1
  O2-  O261  1  0.83367081  0.79510470  0.26702948  1
  O2-  O262  1  0.83223183  0.79977143  0.60367427  1
  O2-  O263  1  0.83369331  0.79324832  0.93022175  1
  O2-  O264  1  0.41996430  0.03968068  0.07028354  1
  O2-  O265  1  0.41901950  0.04780587  0.39450809  1
  O2-  O266  1  0.42106945  0.04266933  0.73290276  1
  O2-  O267  1  0.41838464  0.54349581  0.05742814  1
  O2-  O268  1  0.41852013  0.54084251  0.39964087  1
  O2-  O269  1  0.41557179  0.54553347  0.73168765  1
  O2-  O270  1  0.91680110  0.04830047  0.05659298  1
  O2-  O271  1  0.91419863  0.03543398  0.40191190  1
  O2-  O272  1  0.91258395  0.04717069  0.73351658  1
  O2-  O273  1  0.91281892  0.54018828  0.07106812  1
  O2-  O274  1  0.92020304  0.55082258  0.40167691  1
  O2-  O275  1  0.91733559  0.54222558  0.73587551  1
  O2-  O276  1  0.29147769  0.16397959  0.07226565  1
  O2-  O277  1  0.29839573  0.16485558  0.39282656  1
  O2-  O278  1  0.29065480  0.16576253  0.73592684  1
  O2-  O279  1  0.30283887  0.66749960  0.05759324  1
  O2-  O280  1  0.29656811  0.66912095  0.40181352  1
  O2-  O281  1  0.30121086  0.66811214  0.72748032  1
  O2-  O282  1  0.79027056  0.16240584  0.05981019  1
  O2-  O283  1  0.79310552  0.16607440  0.40283585  1
  O2-  O284  1  0.79101656  0.16244175  0.73298424  1
  O2-  O285  1  0.78742360  0.67042933  0.06515193  1
  O2-  O286  1  0.78975062  0.67352313  0.40200031  1
  O2-  O287  1  0.79109550  0.67177297  0.73446509  1
