# generated using pymatgen
data_Ca2Al2SiO7
_symmetry_space_group_name_H-M   'P 1'
_cell_length_a   15.46899778
_cell_length_b   15.47111596
_cell_length_c   15.29238636
_cell_angle_alpha   89.98266861
_cell_angle_beta   89.99971803
_cell_angle_gamma   90.01910062
_symmetry_Int_Tables_number   1
_chemical_formula_structural   Ca2Al2SiO7
_chemical_formula_sum   'Ca48 Al48 Si24 O168'
_cell_volume   3659.81418880
_cell_formula_units_Z   24
loop_
 _symmetry_equiv_pos_site_id
 _symmetry_equiv_pos_as_xyz
  1  'x, y, z'
loop_
 _atom_type_symbol
 _atom_type_oxidation_number
  Ca2+  2.0
  Al0+  0.0
  Si0+  0.0
  O2-  -2.0
loop_
 _atom_site_type_symbol
 _atom_site_label
 _atom_site_symmetry_multiplicity
 _atom_site_fract_x
 _atom_site_fract_y
 _atom_site_fract_z
 _atom_site_occupancy
  Ca2+  Ca0  1  0.17165248  0.07162820  0.17231608  1
  Ca2+  Ca1  1  0.17024477  0.07662166  0.50468503  1
  Ca2+  Ca2  1  0.17497202  0.08283567  0.83968634  1
  Ca2+  Ca3  1  0.17081482  0.57805338  0.18229244  1
  Ca2+  Ca4  1  0.17478041  0.59138188  0.49963882  1
  Ca2+  Ca5  1  0.17111772  0.59227778  0.83188553  1
  Ca2+  Ca6  1  0.66530667  0.07893737  0.17562171  1
  Ca2+  Ca7  1  0.66892740  0.08204112  0.49485019  1
  Ca2+  Ca8  1  0.66689568  0.07585752  0.84295578  1
  Ca2+  Ca9  1  0.67555051  0.58219599  0.17953102  1
  Ca2+  Ca10  1  0.67695000  0.59398459  0.49783516  1
  Ca2+  Ca11  1  0.68204773  0.58549765  0.83845971  1
  Ca2+  Ca12  1  0.08442845  0.33569593  0.16665877  1
  Ca2+  Ca13  1  0.09056058  0.32651551  0.49505527  1
  Ca2+  Ca14  1  0.08399235  0.32507975  0.82633876  1
  Ca2+  Ca15  1  0.08193238  0.83437191  0.17025036  1
  Ca2+  Ca16  1  0.07727585  0.82295475  0.48952887  1
  Ca2+  Ca17  1  0.07614837  0.83134071  0.82428363  1
  Ca2+  Ca18  1  0.58640624  0.32536496  0.16870802  1
  Ca2+  Ca19  1  0.57833506  0.32993864  0.48413351  1
  Ca2+  Ca20  1  0.58291053  0.32471323  0.83160493  1
  Ca2+  Ca21  1  0.58420106  0.83660024  0.16917487  1
  Ca2+  Ca22  1  0.57450925  0.82890446  0.48626589  1
  Ca2+  Ca23  1  0.58411220  0.83573393  0.83248157  1
  Ca2+  Ca24  1  0.32846969  0.41887259  0.17908164  1
  Ca2+  Ca25  1  0.33539422  0.42647502  0.49592870  1
  Ca2+  Ca26  1  0.33180827  0.42282254  0.83155967  1
  Ca2+  Ca27  1  0.32516555  0.91531561  0.17317385  1
  Ca2+  Ca28  1  0.32680827  0.91272199  0.50050433  1
  Ca2+  Ca29  1  0.32417059  0.92752933  0.84157194  1
  Ca2+  Ca30  1  0.82878480  0.42792720  0.17747163  1
  Ca2+  Ca31  1  0.82711782  0.42850931  0.49750813  1
  Ca2+  Ca32  1  0.84008826  0.43031202  0.83567709  1
  Ca2+  Ca33  1  0.82250869  0.92015772  0.17878134  1
  Ca2+  Ca34  1  0.83181577  0.90857750  0.49525824  1
  Ca2+  Ca35  1  0.82942319  0.91329509  0.83760016  1
  Ca2+  Ca36  1  0.42525739  0.16766899  0.16498758  1
  Ca2+  Ca37  1  0.41967782  0.17206031  0.48929304  1
  Ca2+  Ca38  1  0.41845093  0.15717572  0.83049352  1
  Ca2+  Ca39  1  0.41880389  0.66869846  0.17347911  1
  Ca2+  Ca40  1  0.41884244  0.66668102  0.48511355  1
  Ca2+  Ca41  1  0.41789664  0.66908296  0.82623004  1
  Ca2+  Ca42  1  0.91291893  0.16529723  0.16789834  1
  Ca2+  Ca43  1  0.92100298  0.16403101  0.49267180  1
  Ca2+  Ca44  1  0.92538056  0.16846097  0.82504229  1
  Ca2+  Ca45  1  0.91610179  0.66562092  0.16785944  1
  Ca2+  Ca46  1  0.92037999  0.67226903  0.49289702  1
  Ca2+  Ca47  1  0.92035878  0.67100010  0.82167652  1
  Al0+  Al48  1  0.00003551  -0.00017350  0.00073386  1
  Al0+  Al49  1  0.00159883  -0.00095345  0.33625446  1
  Al0+  Al50  1  -0.00338039  0.00062004  0.65967587  1
  Al0+  Al51  1  0.00182306  0.50167449  0.00084373  1
  Al0+  Al52  1  -0.00004388  0.49671177  0.33833799  1
  Al0+  Al53  1  -0.00012332  0.49845935  0.66706062  1
  Al0+  Al54  1  0.49967738  0.00055614  0.00130986  1
  Al0+  Al55  1  0.50006844  0.00078548  0.32977053  1
  Al0+  Al56  1  0.49993707  -0.00098968  0.66957243  1
  Al0+  Al57  1  0.50135050  0.49970626  -0.00440823  1
  Al0+  Al58  1  0.49852844  0.49869976  0.32922956  1
  Al0+  Al59  1  0.49964322  0.49767786  0.67306657  1
  Al0+  Al60  1  0.25093651  0.25223496  0.00179308  1
  Al0+  Al61  1  0.25043254  0.24927357  0.33090584  1
  Al0+  Al62  1  0.25210440  0.24989441  0.66713281  1
  Al0+  Al63  1  0.25029392  0.75031401  0.00149824  1
  Al0+  Al64  1  0.24902886  0.74966425  0.33219174  1
  Al0+  Al65  1  0.24941490  0.75127583  0.67059026  1
  Al0+  Al66  1  0.74962825  0.25197495  -0.00918404  1
  Al0+  Al67  1  0.75254038  0.25020284  0.33730975  1
  Al0+  Al68  1  0.74921703  0.24771714  0.66844998  1
  Al0+  Al69  1  0.75112895  0.75072360  0.00643944  1
  Al0+  Al70  1  0.74990194  0.75248719  0.33389412  1
  Al0+  Al71  1  0.74796240  0.74907300  0.66904908  1
  Al0+  Al72  1  0.57372248  0.17981298  0.31911616  1
  Al0+  Al73  1  0.82114166  0.57339025  0.34937344  1
  Al0+  Al74  1  0.67652368  0.92960601  0.35015797  1
  Al0+  Al75  1  0.82176456  0.07095215  0.34854354  1
  Al0+  Al76  1  0.31981396  0.57047334  0.34581903  1
  Al0+  Al77  1  0.81962697  0.56985505  0.68122011  1
  Al0+  Al78  1  0.32012262  0.07019919  0.67892034  1
  Al0+  Al79  1  0.67805669  0.42873804  0.34601288  1
  Al0+  Al80  1  0.07314874  0.67854899  0.65157695  1
  Al0+  Al81  1  0.17718585  0.92806962  0.01542497  1
  Al0+  Al82  1  0.17986505  0.92825248  0.34883694  1
  Al0+  Al83  1  0.67997283  0.93027110  0.01353735  1
  Al0+  Al84  1  0.42697538  0.82218906  0.31826300  1
  Al0+  Al85  1  0.42768845  0.32133732  0.31748968  1
  Al0+  Al86  1  0.32095255  0.57238687  0.68116583  1
  Al0+  Al87  1  0.82211115  0.57002332  0.01424166  1
  Al0+  Al88  1  0.17756321  0.42547577  0.34896223  1
  Al0+  Al89  1  0.92485555  0.82044791  0.65124513  1
  Al0+  Al90  1  0.32113700  0.07320215  0.01718678  1
  Al0+  Al91  1  0.06934642  0.67636355  0.31758402  1
  Al0+  Al92  1  0.07214800  0.18030657  0.65287665  1
  Al0+  Al93  1  0.92966689  0.82188437  0.31570155  1
  Al0+  Al94  1  0.57185201  0.67869417  0.31890020  1
  Al0+  Al95  1  0.56953479  0.17886881  0.98399470  1
  Si0+  Si96  1  0.18055838  0.43097623  0.01300204  1
  Si0+  Si97  1  0.57042716  0.17674021  0.65172344  1
  Si0+  Si98  1  0.32157199  0.07150816  0.34895417  1
  Si0+  Si99  1  0.17526897  0.92912373  0.68271398  1
  Si0+  Si100  1  0.92642659  0.32146716  0.64897945  1
  Si0+  Si101  1  0.07222348  0.17783051  0.31691970  1
  Si0+  Si102  1  0.07141060  0.67836768  0.98465578  1
  Si0+  Si103  1  0.92988701  0.31941683  0.31880113  1
  Si0+  Si104  1  0.42610016  0.32316328  0.97924935  1
  Si0+  Si105  1  0.92857130  0.82071281  0.98571439  1
  Si0+  Si106  1  0.82150876  0.07288594  0.68364324  1
  Si0+  Si107  1  0.42818610  0.81998827  0.98318056  1
  Si0+  Si108  1  0.56850756  0.67760176  0.65552584  1
  Si0+  Si109  1  0.67732606  0.42467344  0.68571382  1
  Si0+  Si110  1  0.43086317  0.32140211  0.65170039  1
  Si0+  Si111  1  0.67805079  0.42758709  0.01495916  1
  Si0+  Si112  1  0.93029007  0.32355041  0.98448706  1
  Si0+  Si113  1  0.67946486  0.93047444  0.68225506  1
  Si0+  Si114  1  0.82236908  0.07489881  0.01291651  1
  Si0+  Si115  1  0.17925937  0.42677425  0.68387769  1
  Si0+  Si116  1  0.32348253  0.57181953  0.01397822  1
  Si0+  Si117  1  0.07079265  0.17971144  0.98635757  1
  Si0+  Si118  1  0.43011147  0.82117341  0.65539281  1
  Si0+  Si119  1  0.57258583  0.67949674  0.98374741  1
  O2-  O120  1  0.24997085  -0.00037659  0.06472906  1
  O2-  O121  1  0.25698440  0.00042603  0.39503823  1
  O2-  O122  1  0.24188456  -0.00016896  0.72716899  1
  O2-  O123  1  0.25327521  0.49980615  0.05398690  1
  O2-  O124  1  0.24650727  0.50060426  0.39737564  1
  O2-  O125  1  0.24227648  0.50115137  0.72863897  1
  O2-  O126  1  0.75179471  0.00904006  0.05636699  1
  O2-  O127  1  0.75059774  -0.00069728  0.40062448  1
  O2-  O128  1  0.75214848  -0.00004048  0.72497083  1
  O2-  O129  1  0.74562348  0.49676261  0.05843539  1
  O2-  O130  1  0.74300064  0.50621714  0.39740549  1
  O2-  O131  1  0.74704547  0.49290633  0.72961849  1
  O2-  O132  1  0.00144414  0.24934600  0.27498516  1
  O2-  O133  1  -0.00330786  0.25411656  0.60557122  1
  O2-  O134  1  -0.00148767  0.24923809  0.94267733  1
  O2-  O135  1  -0.00255541  0.74653626  0.26432138  1
  O2-  O136  1  -0.00013309  0.75021315  0.60404745  1
  O2-  O137  1  0.00093147  0.75068307  0.94346141  1
  O2-  O138  1  0.50162275  0.25114931  0.26844185  1
  O2-  O139  1  0.50296016  0.25096817  0.61096637  1
  O2-  O140  1  0.49293583  0.25194212  0.93530226  1
  O2-  O141  1  0.50176771  0.75258708  0.26799525  1
  O2-  O142  1  0.49254392  0.74281967  0.61423923  1
  O2-  O143  1  0.50012651  0.74915699  0.94028215  1
  O2-  O144  1  0.06981866  0.18121629  0.09101376  1
  O2-  O145  1  0.07307355  0.17921645  0.42208454  1
  O2-  O146  1  0.07035481  0.18215566  0.76711110  1
  O2-  O147  1  0.07106771  0.67352742  0.08869799  1
  O2-  O148  1  0.07005695  0.67842972  0.43095552  1
  O2-  O149  1  0.07268865  0.68255174  0.76661690  1
  O2-  O150  1  0.57349540  0.18260980  0.09572933  1
  O2-  O151  1  0.57141282  0.18118105  0.43351391  1
  O2-  O152  1  0.56904407  0.17597305  0.75716106  1
  O2-  O153  1  0.57194256  0.67749653  0.08780455  1
  O2-  O154  1  0.56894671  0.68018797  0.43342514  1
  O2-  O155  1  0.56971863  0.68143381  0.76137892  1
  O2-  O156  1  0.17893271  0.42564626  0.23434790  1
  O2-  O157  1  0.18374721  0.42130108  0.57963710  1
  O2-  O158  1  0.17905519  0.43046911  0.90772395  1
  O2-  O159  1  0.17953427  0.93196457  0.23577006  1
  O2-  O160  1  0.17890329  0.92820407  0.57772040  1
  O2-  O161  1  0.17613225  0.92989068  0.90110356  1
  O2-  O162  1  0.68489678  0.42680121  0.23207321  1
  O2-  O163  1  0.67594072  0.42291034  0.58107732  1
  O2-  O164  1  0.67895555  0.42878561  0.90881854  1
  O2-  O165  1  0.67772942  0.93269865  0.23650083  1
  O2-  O166  1  0.67561301  0.93186462  0.57832068  1
  O2-  O167  1  0.68297090  0.92936748  0.89923278  1
  O2-  O168  1  0.42533775  0.32581910  0.08367873  1
  O2-  O169  1  0.42666981  0.31783609  0.43181987  1
  O2-  O170  1  0.43161529  0.32226638  0.75719944  1
  O2-  O171  1  0.42593556  0.81777815  0.08733571  1
  O2-  O172  1  0.42729532  0.82062410  0.43285630  1
  O2-  O173  1  0.43358018  0.82251908  0.76100338  1
  O2-  O174  1  0.93118839  0.32445886  0.08912892  1
  O2-  O175  1  0.92934763  0.31705752  0.42368159  1
  O2-  O176  1  0.92777950  0.31935181  0.75565069  1
  O2-  O177  1  0.92785439  0.82149304  0.08975788  1
  O2-  O178  1  0.93293846  0.82119273  0.42913662  1
  O2-  O179  1  0.92445027  0.81926693  0.76632442  1
  O2-  O180  1  0.31722841  0.07265419  0.24352074  1
  O2-  O181  1  0.32212796  0.06791798  0.56656963  1
  O2-  O182  1  0.31789818  0.07128835  0.90272683  1
  O2-  O183  1  0.31819722  0.56871812  0.23159174  1
  O2-  O184  1  0.32651322  0.57100189  0.56974409  1
  O2-  O185  1  0.32166597  0.57224897  0.90827639  1
  O2-  O186  1  0.82095834  0.07184761  0.23428838  1
  O2-  O187  1  0.81977722  0.07954623  0.57984618  1
  O2-  O188  1  0.82423483  0.07288493  0.90677636  1
  O2-  O189  1  0.82258787  0.56814945  0.23552960  1
  O2-  O190  1  0.81597955  0.57116328  0.56950918  1
  O2-  O191  1  0.82262822  0.56930348  0.90047254  1
  O2-  O192  1  0.04286581  0.08723782  0.26922332  1
  O2-  O193  1  0.04236346  0.08440220  0.59858471  1
  O2-  O194  1  0.04403810  0.08789777  0.93770701  1
  O2-  O195  1  0.04364670  0.57513614  0.26787645  1
  O2-  O196  1  0.05090181  0.57666536  0.60509200  1
  O2-  O197  1  0.04335621  0.58709957  0.93490826  1
  O2-  O198  1  0.54531147  0.08250084  0.26551170  1
  O2-  O199  1  0.53982133  0.08573539  0.60540886  1
  O2-  O200  1  0.54026076  0.08114644  0.92928840  1
  O2-  O201  1  0.54314295  0.58142536  0.26400187  1
  O2-  O202  1  0.54689373  0.58291208  0.61284733  1
  O2-  O203  1  0.54682928  0.58732295  0.93416719  1
  O2-  O204  1  0.16238144  0.20643567  0.26742674  1
  O2-  O205  1  0.16882043  0.21157485  0.60001534  1
  O2-  O206  1  0.16188931  0.21109312  0.93859123  1
  O2-  O207  1  0.16733302  0.70601281  0.26490764  1
  O2-  O208  1  0.17256534  0.70788354  0.60138491  1
  O2-  O209  1  0.16420935  0.70577700  0.93765905  1
  O2-  O210  1  0.67255400  0.20935837  0.26743897  1
  O2-  O211  1  0.66447764  0.20052430  0.60788901  1
  O2-  O212  1  0.66589565  0.21035130  0.92577738  1
  O2-  O213  1  0.67058750  0.70526385  0.26668428  1
  O2-  O214  1  0.65785110  0.71052023  0.60832935  1
  O2-  O215  1  0.66436510  0.71103924  0.93694298  1
  O2-  O216  1  0.08966059  0.45940459  0.06112596  1
  O2-  O217  1  0.07827876  0.44518412  0.40183664  1
  O2-  O218  1  0.08296500  0.44408566  0.72839515  1
  O2-  O219  1  0.07897430  0.95754186  0.06766036  1
  O2-  O220  1  0.08604759  0.96285377  0.40391635  1
  O2-  O221  1  0.07956883  0.95321392  0.72527383  1
  O2-  O222  1  0.58300117  0.45105135  0.05776516  1
  O2-  O223  1  0.57664504  0.44765794  0.39442802  1
  O2-  O224  1  0.58475766  0.45020033  0.73453552  1
  O2-  O225  1  0.58204749  0.95607546  0.06438165  1
  O2-  O226  1  0.57781171  0.95903376  0.40247595  1
  O2-  O227  1  0.58939107  0.96088648  0.73295054  1
  O2-  O228  1  0.20477609  0.33898493  0.06111496  1
  O2-  O229  1  0.20929437  0.32769062  0.40104841  1
  O2-  O230  1  0.21251291  0.33670154  0.73458520  1
  O2-  O231  1  0.20618964  0.82945792  0.06682081  1
  O2-  O232  1  0.20989267  0.83208163  0.40231677  1
  O2-  O233  1  0.20296642  0.83743945  0.73195938  1
  O2-  O234  1  0.70555127  0.33348849  0.05754111  1
  O2-  O235  1  0.71345971  0.33452472  0.40261847  1
  O2-  O236  1  0.70318668  0.33061168  0.73280352  1
  O2-  O237  1  0.71156345  0.83560204  0.06841722  1
  O2-  O238  1  0.70290607  0.83102223  0.40288800  1
  O2-  O239  1  0.70565113  0.83856558  0.73116060  1
  O2-  O240  1  0.45160909  0.41908112  0.26225990  1
  O2-  O241  1  0.45860856  0.41377351  0.60581968  1
  O2-  O242  1  0.45501850  0.41601527  0.93075136  1
  O2-  O243  1  0.45220202  0.92081929  0.26502680  1
  O2-  O244  1  0.46502392  0.90960386  0.60670413  1
  O2-  O245  1  0.45617406  0.91200833  0.93604724  1
  O2-  O246  1  0.95731558  0.41034625  0.26970676  1
  O2-  O247  1  0.94854322  0.41580445  0.60501256  1
  O2-  O248  1  0.96426354  0.41316652  0.93509450  1
  O2-  O249  1  0.96241622  0.92007376  0.26405763  1
  O2-  O250  1  0.94424422  0.92129378  0.60103218  1
  O2-  O251  1  0.95453155  0.91362160  0.93732646  1
  O2-  O252  1  0.33046808  0.28982002  0.26256184  1
  O2-  O253  1  0.33964088  0.29294622  0.60567585  1
  O2-  O254  1  0.33106283  0.30025255  0.93329479  1
  O2-  O255  1  0.33084796  0.79044930  0.26318432  1
  O2-  O256  1  0.33518544  0.80163008  0.61246630  1
  O2-  O257  1  0.33679886  0.79067278  0.93388294  1
  O2-  O258  1  0.84003342  0.28973966  0.26890731  1
  O2-  O259  1  0.83262189  0.29319152  0.60588010  1
  O2-  O260  1  0.83886207  0.30040026  0.93365956  1
  O2-  O261  1  0.82899820  0.79913764  0.26614991  1
  O2-  O262  1  0.82672256  0.78897287  0.60012892  1
  O2-  O263  1  0.83689118  0.79120398  0.93789119  1
  O2-  O264  1  0.42024812  0.04695804  0.06635152  1
  O2-  O265  1  0.41690266  0.05181714  0.39221830  1
  O2-  O266  1  0.41516615  0.03492531  0.73536386  1
  O2-  O267  1  0.41686358  0.54540193  0.05744696  1
  O2-  O268  1  0.41777475  0.54122598  0.39826953  1
  O2-  O269  1  0.41570866  0.53763663  0.73923844  1
  O2-  O270  1  0.91544879  0.04986040  0.05913759  1
  O2-  O271  1  0.92040925  0.04442510  0.40113479  1
  O2-  O272  1  0.91445761  0.04668501  0.73042521  1
  O2-  O273  1  0.91837934  0.53731647  0.06662287  1
  O2-  O274  1  0.91593922  0.53696867  0.40297525  1
  O2-  O275  1  0.91740124  0.53963301  0.73556164  1
  O2-  O276  1  0.29281026  0.17224986  0.06747312  1
  O2-  O277  1  0.29131340  0.16326509  0.39550772  1
  O2-  O278  1  0.29305820  0.16759967  0.73426271  1
  O2-  O279  1  0.29626801  0.66323527  0.06011266  1
  O2-  O280  1  0.29297386  0.66851094  0.39918192  1
  O2-  O281  1  0.29301959  0.66951495  0.73820520  1
  O2-  O282  1  0.80000153  0.17109493  0.05433370  1
  O2-  O283  1  0.79474893  0.16839839  0.40397744  1
  O2-  O284  1  0.79261475  0.16330324  0.73489849  1
  O2-  O285  1  0.79259970  0.66590674  0.06739379  1
  O2-  O286  1  0.79591785  0.67231928  0.40105354  1
  O2-  O287  1  0.78422526  0.66499529  0.73763454  1
