# generated using pymatgen
data_Ca2Al2SiO7
_symmetry_space_group_name_H-M   'P 1'
_cell_length_a   15.45771710
_cell_length_b   15.45730178
_cell_length_c   15.28324120
_cell_angle_alpha   89.99777273
_cell_angle_beta   90.01260349
_cell_angle_gamma   89.98534241
_symmetry_Int_Tables_number   1
_chemical_formula_structural   Ca2Al2SiO7
_chemical_formula_sum   'Ca48 Al48 Si24 O168'
_cell_volume   3651.69488078
_cell_formula_units_Z   24
loop_
 _symmetry_equiv_pos_site_id
 _symmetry_equiv_pos_as_xyz
  1  'x, y, z'
loop_
 _atom_type_symbol
 _atom_type_oxidation_number
  Ca2+  2.0
  Al0+  0.0
  Si0+  0.0
  O2-  -2.0
loop_
 _atom_site_type_symbol
 _atom_site_label
 _atom_site_symmetry_multiplicity
 _atom_site_fract_x
 _atom_site_fract_y
 _atom_site_fract_z
 _atom_site_occupancy
  Ca2+  Ca0  1  0.17149885  0.07846059  0.18017330  1
  Ca2+  Ca1  1  0.16048859  0.07231418  0.50188963  1
  Ca2+  Ca2  1  0.16818039  0.07575947  0.83437488  1
  Ca2+  Ca3  1  0.16441001  0.57927299  0.17251688  1
  Ca2+  Ca4  1  0.17323178  0.58146150  0.50845616  1
  Ca2+  Ca5  1  0.17163140  0.59096850  0.83514267  1
  Ca2+  Ca6  1  0.67402159  0.08214520  0.17538938  1
  Ca2+  Ca7  1  0.67151689  0.08465286  0.50335919  1
  Ca2+  Ca8  1  0.67483137  0.09472862  0.83788417  1
  Ca2+  Ca9  1  0.65466525  0.58052711  0.16851440  1
  Ca2+  Ca10  1  0.66135210  0.58067289  0.50911069  1
  Ca2+  Ca11  1  0.65279535  0.57186434  0.83552853  1
  Ca2+  Ca12  1  0.08568037  0.32795882  0.16766661  1
  Ca2+  Ca13  1  0.07714334  0.33022730  0.49219890  1
  Ca2+  Ca14  1  0.07137155  0.33081469  0.82451199  1
  Ca2+  Ca15  1  0.07627665  0.83752837  0.16578644  1
  Ca2+  Ca16  1  0.08213937  0.83540759  0.49594225  1
  Ca2+  Ca17  1  0.08517180  0.82462860  0.82696925  1
  Ca2+  Ca18  1  0.59182871  0.32236702  0.16347266  1
  Ca2+  Ca19  1  0.58425590  0.32511628  0.50294469  1
  Ca2+  Ca20  1  0.58810508  0.32818882  0.82436872  1
  Ca2+  Ca21  1  0.57628275  0.83207790  0.16218504  1
  Ca2+  Ca22  1  0.58248891  0.82326440  0.48676891  1
  Ca2+  Ca23  1  0.57981332  0.82356430  0.82908577  1
  Ca2+  Ca24  1  0.32637266  0.42030412  0.17564042  1
  Ca2+  Ca25  1  0.33134086  0.41998531  0.50799258  1
  Ca2+  Ca26  1  0.34371030  0.42427139  0.83152223  1
  Ca2+  Ca27  1  0.33066000  0.90899414  0.17333487  1
  Ca2+  Ca28  1  0.32357586  0.90792411  0.50187710  1
  Ca2+  Ca29  1  0.32888301  0.90856538  0.83419939  1
  Ca2+  Ca30  1  0.82712860  0.42180768  0.16729075  1
  Ca2+  Ca31  1  0.82793987  0.41584083  0.50806472  1
  Ca2+  Ca32  1  0.82083250  0.41188814  0.83498882  1
  Ca2+  Ca33  1  0.82741695  0.92388648  0.17850317  1
  Ca2+  Ca34  1  0.83178700  0.92476180  0.49967611  1
  Ca2+  Ca35  1  0.83046549  0.93009877  0.83692221  1
  Ca2+  Ca36  1  0.43320275  0.16110739  0.16355302  1
  Ca2+  Ca37  1  0.42764077  0.16781012  0.49597070  1
  Ca2+  Ca38  1  0.43167613  0.17508101  0.82487511  1
  Ca2+  Ca39  1  0.42458393  0.67843678  0.16464396  1
  Ca2+  Ca40  1  0.42475684  0.66702652  0.49746387  1
  Ca2+  Ca41  1  0.42317923  0.66762921  0.82908512  1
  Ca2+  Ca42  1  0.91975079  0.15617252  0.16772072  1
  Ca2+  Ca43  1  0.91548266  0.16610967  0.49716646  1
  Ca2+  Ca44  1  0.90835308  0.17018777  0.82585382  1
  Ca2+  Ca45  1  0.92049279  0.67653332  0.16397161  1
  Ca2+  Ca46  1  0.92263763  0.67437947  0.49427166  1
  Ca2+  Ca47  1  0.93042665  0.66208777  0.82803282  1
  Al0+  Al48  1  0.00141499  0.00011066  0.00203645  1
  Al0+  Al49  1  0.00117860  0.00106516  0.33273940  1
  Al0+  Al50  1  -0.00063235  -0.00061949  0.67826463  1
  Al0+  Al51  1  -0.00116767  0.49927575  -0.00256100  1
  Al0+  Al52  1  -0.00145543  0.49851834  0.33696643  1
  Al0+  Al53  1  0.00028379  0.49975892  0.65759776  1
  Al0+  Al54  1  0.49946842  0.00130720  -0.01119240  1
  Al0+  Al55  1  0.50034770  -0.00009243  0.32935392  1
  Al0+  Al56  1  0.49911560  -0.00124660  0.66384174  1
  Al0+  Al57  1  0.49711744  0.50001572  0.00746559  1
  Al0+  Al58  1  0.49872286  0.49920721  0.33090883  1
  Al0+  Al59  1  0.49840340  0.50009814  0.66702955  1
  Al0+  Al60  1  0.24959823  0.24886308  -0.00014426  1
  Al0+  Al61  1  0.24810846  0.25062306  0.33476910  1
  Al0+  Al62  1  0.24920018  0.24834284  0.66596617  1
  Al0+  Al63  1  0.24897940  0.74926263  -0.00372206  1
  Al0+  Al64  1  0.25179333  0.74761584  0.33491243  1
  Al0+  Al65  1  0.24931038  0.74772168  0.67164020  1
  Al0+  Al66  1  0.75211963  0.25157789  0.00794257  1
  Al0+  Al67  1  0.75094298  0.25375997  0.33265735  1
  Al0+  Al68  1  0.75098305  0.25103585  0.66467243  1
  Al0+  Al69  1  0.75075395  0.75030374  -0.00587141  1
  Al0+  Al70  1  0.75262172  0.74889940  0.32747553  1
  Al0+  Al71  1  0.75232036  0.75145166  0.66545405  1
  Al0+  Al72  1  0.57156316  0.67657432  0.98344018  1
  Al0+  Al73  1  0.57311288  0.67686947  0.31838734  1
  Al0+  Al74  1  0.06798521  0.67886435  0.98757814  1
  Al0+  Al75  1  0.06961769  0.18023987  0.32077172  1
  Al0+  Al76  1  0.68121712  0.43265942  0.67838106  1
  Al0+  Al77  1  0.93109642  0.82203322  0.32045547  1
  Al0+  Al78  1  0.31897375  0.56815251  0.68184283  1
  Al0+  Al79  1  0.82034521  0.07221842  0.34966938  1
  Al0+  Al80  1  0.57325891  0.18239884  0.98667149  1
  Al0+  Al81  1  0.18095197  0.93015949  0.68242050  1
  Al0+  Al82  1  0.18076725  0.92836522  0.34567154  1
  Al0+  Al83  1  0.67734414  0.92708846  0.34648988  1
  Al0+  Al84  1  0.57135342  0.68069656  0.65363946  1
  Al0+  Al85  1  0.42832950  0.82142023  0.98221048  1
  Al0+  Al86  1  0.07202301  0.68028177  0.65092011  1
  Al0+  Al87  1  0.92956440  0.31969850  0.65292348  1
  Al0+  Al88  1  0.42807092  0.82122538  0.32027509  1
  Al0+  Al89  1  0.57252572  0.17804683  0.65076220  1
  Al0+  Al90  1  0.57222385  0.18078143  0.31905176  1
  Al0+  Al91  1  0.17776182  0.42816816  0.34800335  1
  Al0+  Al92  1  0.81690901  0.06947239  0.68032469  1
  Al0+  Al93  1  0.42762965  0.32202813  0.65212940  1
  Al0+  Al94  1  0.82040371  0.07036976  0.01622712  1
  Al0+  Al95  1  0.67853442  0.43183271  0.01542187  1
  Si0+  Si96  1  0.92850410  0.82542393  0.98140672  1
  Si0+  Si97  1  0.32178600  0.56985284  0.35109976  1
  Si0+  Si98  1  0.31850216  0.57147942  0.01780509  1
  Si0+  Si99  1  0.07307509  0.17749986  0.98449158  1
  Si0+  Si100  1  0.42672944  0.32137123  0.31634025  1
  Si0+  Si101  1  0.17626313  0.42796657  0.01382560  1
  Si0+  Si102  1  0.67833918  0.43126347  0.34945833  1
  Si0+  Si103  1  0.92980624  0.82453479  0.65091845  1
  Si0+  Si104  1  0.07189132  0.67642740  0.31862925  1
  Si0+  Si105  1  0.07159226  0.17507866  0.65229415  1
  Si0+  Si106  1  0.82486451  0.57500788  0.68209616  1
  Si0+  Si107  1  0.32112114  0.07222658  0.01411680  1
  Si0+  Si108  1  0.82218759  0.57175625  0.34814147  1
  Si0+  Si109  1  0.18166351  0.92854267  0.01643397  1
  Si0+  Si110  1  0.93119970  0.31960030  0.98623209  1
  Si0+  Si111  1  0.42694378  0.82110004  0.64965917  1
  Si0+  Si112  1  0.42474601  0.32131832  0.98596589  1
  Si0+  Si113  1  0.67617202  0.92687659  0.01392254  1
  Si0+  Si114  1  0.32370386  0.07331565  0.34936412  1
  Si0+  Si115  1  0.67514133  0.92484123  0.68350240  1
  Si0+  Si116  1  0.32500432  0.07405881  0.68459224  1
  Si0+  Si117  1  0.82530082  0.57270941  0.01561217  1
  Si0+  Si118  1  0.17514088  0.42562300  0.68387892  1
  Si0+  Si119  1  0.92764848  0.32447535  0.31335221  1
  O2-  O120  1  0.25313915  -0.00100002  0.05826880  1
  O2-  O121  1  0.25699159  0.00170625  0.39251512  1
  O2-  O122  1  0.25710000  0.00396407  0.72918165  1
  O2-  O123  1  0.24736900  0.49845338  0.05719810  1
  O2-  O124  1  0.25226105  0.50176825  0.39490581  1
  O2-  O125  1  0.24495465  0.49194647  0.73021726  1
  O2-  O126  1  0.74566807  -0.00572211  0.05944769  1
  O2-  O127  1  0.74597241  0.00182179  0.39819703  1
  O2-  O128  1  0.73918019  -0.00180037  0.72805933  1
  O2-  O129  1  0.74900271  0.51254461  0.06058350  1
  O2-  O130  1  0.74618447  0.50589080  0.38979523  1
  O2-  O131  1  0.75364835  0.50940809  0.72694272  1
  O2-  O132  1  -0.00490946  0.25363730  0.27033719  1
  O2-  O133  1  0.00749211  0.24756209  0.60810508  1
  O2-  O134  1  0.00010067  0.24648881  0.94344875  1
  O2-  O135  1  0.00702225  0.74780153  0.27344808  1
  O2-  O136  1  -0.00381922  0.75384375  0.60597068  1
  O2-  O137  1  -0.00675054  0.75230703  0.93852822  1
  O2-  O138  1  0.49538653  0.25347541  0.27111672  1
  O2-  O139  1  0.49603102  0.24671963  0.60249274  1
  O2-  O140  1  0.49820931  0.25799149  0.94223281  1
  O2-  O141  1  0.50506066  0.75399306  0.27078414  1
  O2-  O142  1  0.50166334  0.75937928  0.60605969  1
  O2-  O143  1  0.50194250  0.75055206  0.93317754  1
  O2-  O144  1  0.07605430  0.17849173  0.08934020  1
  O2-  O145  1  0.06859398  0.18092527  0.43368906  1
  O2-  O146  1  0.07021140  0.17609079  0.75863910  1
  O2-  O147  1  0.06697256  0.67861096  0.10078832  1
  O2-  O148  1  0.06938795  0.67600467  0.42397742  1
  O2-  O149  1  0.07101829  0.68129055  0.76453518  1
  O2-  O150  1  0.57237819  0.18194679  0.09997297  1
  O2-  O151  1  0.57260702  0.18332112  0.43162856  1
  O2-  O152  1  0.57458799  0.18300103  0.76469626  1
  O2-  O153  1  0.56733677  0.67751787  0.09666281  1
  O2-  O154  1  0.56985888  0.67399614  0.43210587  1
  O2-  O155  1  0.56788323  0.67944819  0.76658411  1
  O2-  O156  1  0.17907580  0.43055703  0.23372480  1
  O2-  O157  1  0.17540764  0.42801939  0.57845395  1
  O2-  O158  1  0.17460723  0.42696992  0.90920659  1
  O2-  O159  1  0.18064446  0.93023046  0.23203873  1
  O2-  O160  1  0.17960755  0.93107015  0.56929085  1
  O2-  O161  1  0.18086071  0.93001378  0.91130313  1
  O2-  O162  1  0.68022847  0.43028404  0.24405445  1
  O2-  O163  1  0.68298091  0.43282751  0.56511013  1
  O2-  O164  1  0.68093122  0.42894265  0.90243568  1
  O2-  O165  1  0.67924262  0.92831092  0.23233778  1
  O2-  O166  1  0.67800220  0.92173025  0.57840866  1
  O2-  O167  1  0.67880367  0.92752616  0.90819138  1
  O2-  O168  1  0.41916489  0.31719692  0.09136605  1
  O2-  O169  1  0.42789207  0.32202196  0.42153916  1
  O2-  O170  1  0.43094965  0.32170030  0.76638008  1
  O2-  O171  1  0.42565784  0.82003677  0.09552632  1
  O2-  O172  1  0.42397630  0.81592989  0.43360151  1
  O2-  O173  1  0.42661867  0.81828836  0.75536926  1
  O2-  O174  1  0.93466131  0.32289042  0.09103072  1
  O2-  O175  1  0.92813856  0.32664888  0.41872417  1
  O2-  O176  1  0.92886217  0.31808975  0.76689602  1
  O2-  O177  1  0.93173076  0.82712397  0.08705614  1
  O2-  O178  1  0.93258108  0.82054133  0.43352815  1
  O2-  O179  1  0.93163605  0.82413917  0.75678287  1
  O2-  O180  1  0.32071910  0.07526442  0.24316674  1
  O2-  O181  1  0.32426732  0.07484632  0.57930307  1
  O2-  O182  1  0.31558575  0.07584396  0.90949186  1
  O2-  O183  1  0.32004916  0.56882657  0.24504857  1
  O2-  O184  1  0.31753735  0.56827377  0.56892237  1
  O2-  O185  1  0.31906512  0.57062298  0.91278758  1
  O2-  O186  1  0.81984485  0.06946621  0.23570816  1
  O2-  O187  1  0.82007532  0.06779542  0.56792012  1
  O2-  O188  1  0.82034392  0.07226704  0.90295459  1
  O2-  O189  1  0.82780176  0.56781851  0.24304490  1
  O2-  O190  1  0.82448419  0.57432481  0.57631878  1
  O2-  O191  1  0.83356899  0.56546762  0.91084931  1
  O2-  O192  1  0.04092335  0.08461039  0.26371404  1
  O2-  O193  1  0.04020436  0.08239382  0.60871354  1
  O2-  O194  1  0.04743116  0.08475416  0.93804338  1
  O2-  O195  1  0.04160881  0.58379279  0.27255760  1
  O2-  O196  1  0.04434378  0.58384219  0.59600572  1
  O2-  O197  1  0.03903117  0.58207356  0.93189248  1
  O2-  O198  1  0.54304789  0.08420612  0.26407264  1
  O2-  O199  1  0.54773293  0.07763413  0.59984212  1
  O2-  O200  1  0.54379133  0.08745158  0.92980851  1
  O2-  O201  1  0.53837540  0.58021872  0.26425133  1
  O2-  O202  1  0.53643091  0.58542913  0.60063481  1
  O2-  O203  1  0.53693098  0.57734466  0.93511122  1
  O2-  O204  1  0.16617255  0.21169084  0.26500161  1
  O2-  O205  1  0.16695633  0.19323847  0.60774570  1
  O2-  O206  1  0.16341985  0.20745301  0.93520557  1
  O2-  O207  1  0.16705264  0.69680310  0.27469734  1
  O2-  O208  1  0.16854235  0.71228721  0.59886281  1
  O2-  O209  1  0.16338417  0.71058734  0.93287557  1
  O2-  O210  1  0.66763975  0.21632195  0.26486387  1
  O2-  O211  1  0.66793223  0.21268491  0.59706214  1
  O2-  O212  1  0.67063566  0.21628544  0.93643381  1
  O2-  O213  1  0.67359011  0.69556410  0.26635758  1
  O2-  O214  1  0.67116314  0.70467543  0.60228586  1
  O2-  O215  1  0.67297484  0.69686157  0.93224709  1
  O2-  O216  1  0.08517586  0.45667404  0.06251715  1
  O2-  O217  1  0.08084502  0.45718395  0.40179181  1
  O2-  O218  1  0.08092382  0.45386205  0.72796325  1
  O2-  O219  1  0.08975934  0.95760632  0.06287129  1
  O2-  O220  1  0.08588171  0.96243030  0.40013242  1
  O2-  O221  1  0.08672114  0.96175041  0.74137838  1
  O2-  O222  1  0.58060801  0.45579092  0.07139448  1
  O2-  O223  1  0.58450366  0.45496898  0.39433616  1
  O2-  O224  1  0.58432400  0.46087893  0.73283377  1
  O2-  O225  1  0.58091146  0.95351190  0.05573312  1
  O2-  O226  1  0.57676259  0.95036323  0.39718911  1
  O2-  O227  1  0.57872756  0.94410245  0.72658930  1
  O2-  O228  1  0.20436536  0.33557773  0.06146466  1
  O2-  O229  1  0.20608012  0.33145095  0.40237785  1
  O2-  O230  1  0.19508166  0.32970144  0.72845238  1
  O2-  O231  1  0.20777603  0.83583542  0.06256128  1
  O2-  O232  1  0.20812930  0.83047665  0.39955098  1
  O2-  O233  1  0.21196427  0.83399501  0.73743532  1
  O2-  O234  1  0.71760113  0.33941656  0.07276026  1
  O2-  O235  1  0.71053761  0.34143967  0.39730165  1
  O2-  O236  1  0.71600913  0.33726501  0.73250249  1
  O2-  O237  1  0.69967493  0.83154062  0.05808124  1
  O2-  O238  1  0.70927506  0.82801103  0.39667291  1
  O2-  O239  1  0.70702456  0.83369607  0.73265947  1
  O2-  O240  1  0.45146888  0.41476595  0.26917086  1
  O2-  O241  1  0.45794649  0.41869340  0.59807997  1
  O2-  O242  1  0.44615925  0.41766765  0.94545860  1
  O2-  O243  1  0.44812168  0.92109053  0.26635521  1
  O2-  O244  1  0.44176672  0.91773280  0.60648026  1
  O2-  O245  1  0.45087897  0.92017628  0.92689190  1
  O2-  O246  1  0.95708960  0.41699392  0.26634624  1
  O2-  O247  1  0.95651645  0.41560935  0.59588312  1
  O2-  O248  1  0.96034364  0.40952788  0.93596302  1
  O2-  O249  1  0.96375598  0.91667265  0.26415211  1
  O2-  O250  1  0.96055559  0.91726625  0.60703403  1
  O2-  O251  1  0.96092998  0.91686873  0.93413465  1
  O2-  O252  1  0.33231497  0.29761211  0.27105997  1
  O2-  O253  1  0.32634252  0.29874580  0.60187163  1
  O2-  O254  1  0.33316937  0.29298024  0.93629493  1
  O2-  O255  1  0.33122340  0.78697914  0.26480038  1
  O2-  O256  1  0.33510199  0.78812652  0.60554505  1
  O2-  O257  1  0.33056154  0.78913007  0.92973019  1
  O2-  O258  1  0.83379299  0.30186263  0.26731093  1
  O2-  O259  1  0.83570024  0.28720552  0.59645455  1
  O2-  O260  1  0.83905548  0.29153438  0.94081618  1
  O2-  O261  1  0.83751090  0.78938074  0.26171349  1
  O2-  O262  1  0.83589119  0.80191737  0.60474715  1
  O2-  O263  1  0.83353081  0.80628363  0.93629551  1
  O2-  O264  1  0.41551030  0.04700503  0.05724444  1
  O2-  O265  1  0.41810947  0.05112770  0.39372917  1
  O2-  O266  1  0.41923195  0.04959474  0.73076869  1
  O2-  O267  1  0.40833025  0.54427753  0.06897898  1
  O2-  O268  1  0.41493658  0.54170552  0.39676257  1
  O2-  O269  1  0.41456512  0.53668026  0.73784681  1
  O2-  O270  1  0.91927979  0.04036411  0.06746686  1
  O2-  O271  1  0.91895027  0.04198156  0.40026024  1
  O2-  O272  1  0.91189447  0.03865167  0.73908652  1
  O2-  O273  1  0.91468048  0.53806303  0.06656942  1
  O2-  O274  1  0.91100200  0.53941826  0.39927884  1
  O2-  O275  1  0.91842671  0.54468267  0.72626439  1
  O2-  O276  1  0.29055302  0.16244662  0.06414649  1
  O2-  O277  1  0.29541788  0.16568228  0.39599061  1
  O2-  O278  1  0.29739444  0.16688534  0.73262552  1
  O2-  O279  1  0.28653937  0.66241684  0.06434019  1
  O2-  O280  1  0.29682459  0.66259814  0.39813985  1
  O2-  O281  1  0.28619864  0.66276024  0.73879370  1
  O2-  O282  1  0.79321955  0.16686819  0.07148776  1
  O2-  O283  1  0.79573832  0.17366004  0.39822260  1
  O2-  O284  1  0.78785224  0.16706216  0.73385913  1
  O2-  O285  1  0.80884334  0.67082351  0.05576706  1
  O2-  O286  1  0.80143223  0.66543354  0.39384042  1
  O2-  O287  1  0.80606855  0.67025397  0.72772323  1
