# generated using pymatgen
data_Ca2Al2SiO7
_symmetry_space_group_name_H-M   'P 1'
_cell_length_a   15.45078151
_cell_length_b   15.45104810
_cell_length_c   15.27898198
_cell_angle_alpha   89.99839009
_cell_angle_beta   89.99215957
_cell_angle_gamma   89.99876601
_symmetry_Int_Tables_number   1
_chemical_formula_structural   Ca2Al2SiO7
_chemical_formula_sum   'Ca48 Al48 Si24 O168'
_cell_volume   3647.56307032
_cell_formula_units_Z   24
loop_
 _symmetry_equiv_pos_site_id
 _symmetry_equiv_pos_as_xyz
  1  'x, y, z'
loop_
 _atom_type_symbol
 _atom_type_oxidation_number
  Ca2+  2.0
  Al0+  0.0
  Si0+  0.0
  O2-  -2.0
loop_
 _atom_site_type_symbol
 _atom_site_label
 _atom_site_symmetry_multiplicity
 _atom_site_fract_x
 _atom_site_fract_y
 _atom_site_fract_z
 _atom_site_occupancy
  Ca2+  Ca0  1  0.15802860  0.06943864  0.16823162  1
  Ca2+  Ca1  1  0.17389572  0.07494746  0.50458787  1
  Ca2+  Ca2  1  0.17095149  0.08088996  0.83892681  1
  Ca2+  Ca3  1  0.17030458  0.58240593  0.17422943  1
  Ca2+  Ca4  1  0.17068103  0.57401692  0.50635272  1
  Ca2+  Ca5  1  0.18001958  0.58107964  0.83494759  1
  Ca2+  Ca6  1  0.68206725  0.08494285  0.17072717  1
  Ca2+  Ca7  1  0.66779343  0.08450397  0.50307759  1
  Ca2+  Ca8  1  0.67065167  0.08386328  0.84043734  1
  Ca2+  Ca9  1  0.66984867  0.58319363  0.16494416  1
  Ca2+  Ca10  1  0.67661898  0.59173067  0.50622080  1
  Ca2+  Ca11  1  0.66332816  0.58190170  0.83809749  1
  Ca2+  Ca12  1  0.07670316  0.32735817  0.15906056  1
  Ca2+  Ca13  1  0.08914109  0.33726899  0.49447262  1
  Ca2+  Ca14  1  0.08296961  0.33263155  0.83289357  1
  Ca2+  Ca15  1  0.08550124  0.82972591  0.16028626  1
  Ca2+  Ca16  1  0.08230855  0.82545604  0.49378788  1
  Ca2+  Ca17  1  0.07414524  0.83870502  0.83418293  1
  Ca2+  Ca18  1  0.58079336  0.33846085  0.16315914  1
  Ca2+  Ca19  1  0.56827122  0.33263737  0.49933370  1
  Ca2+  Ca20  1  0.58057723  0.32967311  0.82538006  1
  Ca2+  Ca21  1  0.57094193  0.82737169  0.15836657  1
  Ca2+  Ca22  1  0.57562503  0.82746343  0.49686627  1
  Ca2+  Ca23  1  0.58045650  0.82055237  0.82907769  1
  Ca2+  Ca24  1  0.32972770  0.42340822  0.17204736  1
  Ca2+  Ca25  1  0.32516998  0.41292758  0.50892834  1
  Ca2+  Ca26  1  0.33771393  0.42476876  0.83369909  1
  Ca2+  Ca27  1  0.32510494  0.90853299  0.17065342  1
  Ca2+  Ca28  1  0.33023508  0.91541023  0.50298871  1
  Ca2+  Ca29  1  0.33087367  0.92122735  0.84194475  1
  Ca2+  Ca30  1  0.82733396  0.41651986  0.17070045  1
  Ca2+  Ca31  1  0.83564411  0.43449277  0.50554400  1
  Ca2+  Ca32  1  0.82671491  0.42149532  0.84092208  1
  Ca2+  Ca33  1  0.84396308  0.92760008  0.16692485  1
  Ca2+  Ca34  1  0.83532849  0.92047482  0.50392785  1
  Ca2+  Ca35  1  0.83701070  0.91840420  0.84112038  1
  Ca2+  Ca36  1  0.41440279  0.17555954  0.16523243  1
  Ca2+  Ca37  1  0.41341510  0.17341156  0.50010736  1
  Ca2+  Ca38  1  0.42042827  0.17247591  0.81896942  1
  Ca2+  Ca39  1  0.41526019  0.67594259  0.15664526  1
  Ca2+  Ca40  1  0.41993258  0.66386262  0.49641313  1
  Ca2+  Ca41  1  0.42252900  0.66151680  0.83224129  1
  Ca2+  Ca42  1  0.91975256  0.16714585  0.15423122  1
  Ca2+  Ca43  1  0.91736064  0.16971682  0.49528148  1
  Ca2+  Ca44  1  0.92022535  0.16880777  0.83727905  1
  Ca2+  Ca45  1  0.92400882  0.66642511  0.16382796  1
  Ca2+  Ca46  1  0.91853423  0.66803180  0.49461608  1
  Ca2+  Ca47  1  0.91049778  0.67932616  0.82532737  1
  Al0+  Al48  1  0.00197820  0.00024681  -0.00084461  1
  Al0+  Al49  1  0.00089410  0.00034641  0.34552941  1
  Al0+  Al50  1  -0.00126552  0.00108487  0.66103865  1
  Al0+  Al51  1  0.00022889  0.49960974  -0.00554594  1
  Al0+  Al52  1  -0.00070435  0.49998849  0.33555575  1
  Al0+  Al53  1  -0.00062279  0.50129396  0.67757269  1
  Al0+  Al54  1  0.49949415  0.00070729  -0.00119213  1
  Al0+  Al55  1  0.50167019  0.00050988  0.32727756  1
  Al0+  Al56  1  0.50146932  -0.00083396  0.66707732  1
  Al0+  Al57  1  0.50020282  0.50026976  0.00759548  1
  Al0+  Al58  1  0.50107686  0.49917353  0.32829521  1
  Al0+  Al59  1  0.50096353  0.49933226  0.65842473  1
  Al0+  Al60  1  0.25025900  0.25011222  -0.00388889  1
  Al0+  Al61  1  0.25008318  0.24895445  0.32954340  1
  Al0+  Al62  1  0.24802488  0.24692242  0.67176698  1
  Al0+  Al63  1  0.25005564  0.75092723  0.00212048  1
  Al0+  Al64  1  0.24882501  0.74877253  0.33174016  1
  Al0+  Al65  1  0.24714195  0.74874089  0.67203273  1
  Al0+  Al66  1  0.74968127  0.25173742  0.00534001  1
  Al0+  Al67  1  0.74910457  0.25041056  0.34026046  1
  Al0+  Al68  1  0.75209945  0.25012125  0.66081374  1
  Al0+  Al69  1  0.74924471  0.74970432  -0.00487248  1
  Al0+  Al70  1  0.74989360  0.75251284  0.33497549  1
  Al0+  Al71  1  0.74948506  0.75344645  0.66098209  1
  Al0+  Al72  1  0.81917820  0.57436358  0.68186140  1
  Al0+  Al73  1  0.18096995  0.93186963  0.01272259  1
  Al0+  Al74  1  0.56944990  0.67906436  0.65139191  1
  Al0+  Al75  1  0.92976892  0.82174993  0.65064025  1
  Al0+  Al76  1  0.42637265  0.82243278  0.98281892  1
  Al0+  Al77  1  0.06861822  0.67774334  0.32116198  1
  Al0+  Al78  1  0.42913692  0.82042924  0.32038964  1
  Al0+  Al79  1  0.81936302  0.57088759  0.34535096  1
  Al0+  Al80  1  0.32161078  0.06774088  0.67927314  1
  Al0+  Al81  1  0.68009148  0.43006911  0.01307937  1
  Al0+  Al82  1  0.07099069  0.17881322  0.98450213  1
  Al0+  Al83  1  0.92622877  0.32229061  0.98500800  1
  Al0+  Al84  1  0.32389797  0.57121137  0.68043836  1
  Al0+  Al85  1  0.56942888  0.67787321  0.98526082  1
  Al0+  Al86  1  0.42761602  0.32023171  0.31722290  1
  Al0+  Al87  1  0.81895940  0.06839426  0.01114609  1
  Al0+  Al88  1  0.93130007  0.81958258  0.98924992  1
  Al0+  Al89  1  0.31967818  0.56905503  0.01562865  1
  Al0+  Al90  1  0.82110509  0.07127944  0.34937716  1
  Al0+  Al91  1  0.18042650  0.92685160  0.34872160  1
  Al0+  Al92  1  0.57386241  0.17615280  0.65145795  1
  Al0+  Al93  1  0.17810376  0.42657198  0.68441217  1
  Al0+  Al94  1  0.18031794  0.42834153  0.34369350  1
  Al0+  Al95  1  0.42775985  0.31963713  0.65259331  1
  Si0+  Si96  1  0.07365157  0.67606487  0.98178162  1
  Si0+  Si97  1  0.92986490  0.32290917  0.65062513  1
  Si0+  Si98  1  0.67594217  0.92561571  0.01651496  1
  Si0+  Si99  1  0.32262562  0.57148958  0.34876436  1
  Si0+  Si100  1  0.57512437  0.67851968  0.31510454  1
  Si0+  Si101  1  0.57174285  0.18004375  0.98792755  1
  Si0+  Si102  1  0.06968757  0.17792620  0.32029269  1
  Si0+  Si103  1  0.17592203  0.92800967  0.68363085  1
  Si0+  Si104  1  0.82175230  0.07255372  0.68252047  1
  Si0+  Si105  1  0.32507750  0.07472322  0.01781973  1
  Si0+  Si106  1  0.42539064  0.82184704  0.65168109  1
  Si0+  Si107  1  0.82369256  0.57488063  0.01553152  1
  Si0+  Si108  1  0.67630608  0.92943730  0.35019556  1
  Si0+  Si109  1  0.68014930  0.93039651  0.68181579  1
  Si0+  Si110  1  0.92856837  0.32095717  0.32094817  1
  Si0+  Si111  1  0.42972676  0.32082543  0.98578026  1
  Si0+  Si112  1  0.06997649  0.17954342  0.64936120  1
  Si0+  Si113  1  0.17662144  0.42646864  0.01783243  1
  Si0+  Si114  1  0.57373415  0.17906203  0.31399988  1
  Si0+  Si115  1  0.07169387  0.67702778  0.65112462  1
  Si0+  Si116  1  0.32348518  0.07154249  0.34780832  1
  Si0+  Si117  1  0.67578150  0.42774053  0.35366396  1
  Si0+  Si118  1  0.68024915  0.42810040  0.68022659  1
  Si0+  Si119  1  0.92837814  0.82398280  0.31723096  1
  O2-  O120  1  0.25741819  0.00468753  0.06127428  1
  O2-  O121  1  0.25833174  -0.00030075  0.39277320  1
  O2-  O122  1  0.24972396  -0.00882032  0.72725400  1
  O2-  O123  1  0.24218447  0.49720500  0.06294220  1
  O2-  O124  1  0.25732994  0.49946074  0.39223485  1
  O2-  O125  1  0.25325425  0.49743490  0.73078282  1
  O2-  O126  1  0.74597518  -0.00676315  0.06074328  1
  O2-  O127  1  0.74622379  -0.00339104  0.39574690  1
  O2-  O128  1  0.74897343  0.00378654  0.72417478  1
  O2-  O129  1  0.75716526  0.50353997  0.05897754  1
  O2-  O130  1  0.74219591  0.49987624  0.39536271  1
  O2-  O131  1  0.74482110  0.49893166  0.72716122  1
  O2-  O132  1  -0.00276765  0.24776859  0.27852191  1
  O2-  O133  1  0.00285243  0.25438467  0.60687856  1
  O2-  O134  1  0.00139433  0.25358334  0.93440542  1
  O2-  O135  1  -0.00443467  0.75411028  0.27330641  1
  O2-  O136  1  0.00374610  0.74596212  0.60553349  1
  O2-  O137  1  0.00006660  0.74089391  0.93944260  1
  O2-  O138  1  0.50497446  0.24777152  0.26974654  1
  O2-  O139  1  0.49924416  0.24620140  0.60286849  1
  O2-  O140  1  0.49677825  0.24579157  0.94459616  1
  O2-  O141  1  0.50214799  0.74382072  0.27335352  1
  O2-  O142  1  0.48875507  0.74869639  0.60619095  1
  O2-  O143  1  0.49904229  0.75084690  0.93411422  1
  O2-  O144  1  0.06775367  0.17794260  0.09884755  1
  O2-  O145  1  0.07018416  0.17944919  0.42567504  1
  O2-  O146  1  0.06684695  0.17583850  0.75400161  1
  O2-  O147  1  0.07278745  0.67596588  0.08788324  1
  O2-  O148  1  0.06770532  0.67774419  0.43426865  1
  O2-  O149  1  0.07131433  0.67945844  0.75661238  1
  O2-  O150  1  0.57237588  0.18186299  0.09312498  1
  O2-  O151  1  0.57369213  0.17874401  0.41932324  1
  O2-  O152  1  0.57601644  0.17841645  0.76559570  1
  O2-  O153  1  0.56910474  0.67972416  0.09915228  1
  O2-  O154  1  0.57637043  0.68057217  0.42092989  1
  O2-  O155  1  0.57137680  0.68060124  0.76401343  1
  O2-  O156  1  0.17941533  0.42910050  0.23074479  1
  O2-  O157  1  0.17773738  0.42794927  0.57008964  1
  O2-  O158  1  0.17971695  0.42618669  0.91254965  1
  O2-  O159  1  0.17710808  0.92935221  0.23580639  1
  O2-  O160  1  0.17609177  0.92953894  0.57772691  1
  O2-  O161  1  0.17987543  0.93543301  0.89954817  1
  O2-  O162  1  0.67825818  0.42530337  0.24788837  1
  O2-  O163  1  0.68441136  0.42820041  0.57468014  1
  O2-  O164  1  0.67910792  0.42827472  0.89985486  1
  O2-  O165  1  0.67618665  0.93079416  0.24479821  1
  O2-  O166  1  0.68118352  0.93066347  0.57646736  1
  O2-  O167  1  0.67625411  0.92821891  0.91071798  1
  O2-  O168  1  0.42996946  0.31933708  0.09120118  1
  O2-  O169  1  0.42596557  0.31718680  0.42989046  1
  O2-  O170  1  0.43215860  0.31905552  0.76658549  1
  O2-  O171  1  0.42764142  0.82083694  0.09679666  1
  O2-  O172  1  0.43114749  0.82007710  0.43394555  1
  O2-  O173  1  0.42928241  0.82455293  0.75668109  1
  O2-  O174  1  0.92636890  0.31976286  0.09945326  1
  O2-  O175  1  0.93102793  0.32095517  0.42631509  1
  O2-  O176  1  0.92610572  0.31877294  0.75519298  1
  O2-  O177  1  0.93415211  0.82079996  0.10250493  1
  O2-  O178  1  0.92938059  0.82254212  0.42300171  1
  O2-  O179  1  0.93048304  0.82443257  0.76391837  1
  O2-  O180  1  0.32102847  0.07329838  0.24227813  1
  O2-  O181  1  0.31818591  0.06710507  0.56567934  1
  O2-  O182  1  0.32556277  0.07488369  0.91217883  1
  O2-  O183  1  0.32001024  0.57129541  0.24306965  1
  O2-  O184  1  0.32070082  0.57223269  0.56655022  1
  O2-  O185  1  0.32209445  0.56560889  0.90269282  1
  O2-  O186  1  0.82263425  0.07164855  0.23617196  1
  O2-  O187  1  0.82207837  0.07131631  0.57725076  1
  O2-  O188  1  0.81694722  0.06851666  0.89783460  1
  O2-  O189  1  0.82001551  0.56797530  0.23226326  1
  O2-  O190  1  0.82004957  0.57248033  0.56823253  1
  O2-  O191  1  0.82086166  0.57585662  0.91008974  1
  O2-  O192  1  0.03992154  0.08507468  0.27615438  1
  O2-  O193  1  0.03797497  0.09022357  0.59867469  1
  O2-  O194  1  0.03810795  0.08323960  0.92950824  1
  O2-  O195  1  0.03522805  0.58257507  0.26499332  1
  O2-  O196  1  0.04446270  0.58242441  0.60799405  1
  O2-  O197  1  0.05509412  0.58122282  0.93599992  1
  O2-  O198  1  0.55084422  0.08559137  0.26660799  1
  O2-  O199  1  0.54691007  0.07722398  0.59847731  1
  O2-  O200  1  0.55050348  0.08643216  0.94105678  1
  O2-  O201  1  0.55527891  0.58268440  0.27168060  1
  O2-  O202  1  0.54668561  0.58225205  0.59397933  1
  O2-  O203  1  0.53856428  0.57888736  0.93489380  1
  O2-  O204  1  0.16043148  0.20403554  0.27080636  1
  O2-  O205  1  0.16304435  0.20323646  0.60310400  1
  O2-  O206  1  0.17040213  0.20442771  0.93122703  1
  O2-  O207  1  0.16503584  0.70720830  0.26635991  1
  O2-  O208  1  0.16567208  0.70206957  0.60451201  1
  O2-  O209  1  0.16489192  0.70798722  0.93589716  1
  O2-  O210  1  0.66823707  0.20731092  0.27006105  1
  O2-  O211  1  0.67142649  0.20569247  0.59612970  1
  O2-  O212  1  0.66171354  0.21168731  0.93998369  1
  O2-  O213  1  0.66727696  0.70835879  0.26805121  1
  O2-  O214  1  0.66258512  0.71838351  0.59558320  1
  O2-  O215  1  0.66812431  0.70395857  0.93141805  1
  O2-  O216  1  0.08015426  0.44830490  0.06015640  1
  O2-  O217  1  0.08457449  0.45933033  0.39922981  1
  O2-  O218  1  0.08128213  0.45577193  0.73991865  1
  O2-  O219  1  0.08598829  0.96516833  0.06884362  1
  O2-  O220  1  0.08707300  0.96042048  0.40731539  1
  O2-  O221  1  0.08373764  0.96217066  0.72761392  1
  O2-  O222  1  0.58644272  0.46212824  0.07247477  1
  O2-  O223  1  0.58041657  0.45140212  0.39676264  1
  O2-  O224  1  0.58476155  0.44995332  0.72268204  1
  O2-  O225  1  0.58268905  0.95307485  0.06278474  1
  O2-  O226  1  0.58333860  0.95734341  0.39719409  1
  O2-  O227  1  0.58826970  0.95470330  0.73039013  1
  O2-  O228  1  0.20431003  0.33243393  0.06248003  1
  O2-  O229  1  0.20907959  0.33040789  0.39720017  1
  O2-  O230  1  0.20233039  0.32727242  0.73673087  1
  O2-  O231  1  0.20785841  0.83457717  0.06746264  1
  O2-  O232  1  0.21037161  0.83011024  0.40290105  1
  O2-  O233  1  0.19253279  0.83274954  0.72877035  1
  O2-  O234  1  0.70998161  0.33531481  0.07230153  1
  O2-  O235  1  0.70226658  0.33533246  0.40090525  1
  O2-  O236  1  0.70935610  0.33469329  0.72577364  1
  O2-  O237  1  0.70049869  0.83145942  0.06129714  1
  O2-  O238  1  0.70055513  0.83580129  0.39728136  1
  O2-  O239  1  0.71191486  0.84031950  0.72941794  1
  O2-  O240  1  0.45753575  0.41744003  0.26282935  1
  O2-  O241  1  0.45662390  0.41566407  0.59518587  1
  O2-  O242  1  0.46285827  0.41142483  0.94108637  1
  O2-  O243  1  0.45906962  0.91676301  0.26461144  1
  O2-  O244  1  0.45698413  0.91297749  0.60370053  1
  O2-  O245  1  0.45344392  0.92268149  0.93235007  1
  O2-  O246  1  0.95742038  0.41112916  0.27202582  1
  O2-  O247  1  0.95667190  0.41700152  0.60722786  1
  O2-  O248  1  0.95017204  0.42137149  0.93092095  1
  O2-  O249  1  0.95710162  0.91895891  0.27604631  1
  O2-  O250  1  0.96047249  0.91802458  0.59487900  1
  O2-  O251  1  0.96575827  0.91392067  0.93309427  1
  O2-  O252  1  0.33277798  0.28659413  0.26031013  1
  O2-  O253  1  0.32844378  0.28820791  0.60263477  1
  O2-  O254  1  0.33726199  0.29803156  0.93786937  1
  O2-  O255  1  0.33255888  0.78999713  0.26656556  1
  O2-  O256  1  0.32844231  0.80208004  0.60959646  1
  O2-  O257  1  0.32760769  0.79476579  0.93160962  1
  O2-  O258  1  0.83459744  0.29512740  0.27687866  1
  O2-  O259  1  0.84046053  0.29306674  0.59925451  1
  O2-  O260  1  0.82878199  0.28946682  0.93274665  1
  O2-  O261  1  0.83304452  0.80279039  0.27324260  1
  O2-  O262  1  0.83379530  0.79300221  0.59494481  1
  O2-  O263  1  0.83326332  0.79543485  0.93404305  1
  O2-  O264  1  0.41959484  0.05239853  0.06407474  1
  O2-  O265  1  0.41931072  0.05022699  0.39083879  1
  O2-  O266  1  0.41981344  0.04222474  0.73327995  1
  O2-  O267  1  0.41373633  0.53616424  0.07302741  1
  O2-  O268  1  0.41920333  0.54983183  0.39031749  1
  O2-  O269  1  0.42381105  0.54225915  0.73035459  1
  O2-  O270  1  0.91523834  0.03692471  0.06530011  1
  O2-  O271  1  0.91564671  0.04168835  0.40809559  1
  O2-  O272  1  0.91355937  0.04196324  0.72792112  1
  O2-  O273  1  0.91958508  0.55176786  0.05840673  1
  O2-  O274  1  0.91351422  0.53602624  0.40210002  1
  O2-  O275  1  0.91441072  0.54552596  0.73797373  1
  O2-  O276  1  0.29812798  0.16891359  0.06259887  1
  O2-  O277  1  0.29216364  0.16315776  0.39463196  1
  O2-  O278  1  0.28857634  0.16189615  0.73592036  1
  O2-  O279  1  0.28996190  0.66663218  0.06814451  1
  O2-  O280  1  0.29460593  0.66351340  0.39550193  1
  O2-  O281  1  0.29407723  0.66875411  0.73598200  1
  O2-  O282  1  0.78742757  0.16361269  0.06767386  1
  O2-  O283  1  0.79063451  0.16759251  0.40518841  1
  O2-  O284  1  0.79642292  0.16598914  0.72755237  1
  O2-  O285  1  0.79584788  0.66751023  0.06294700  1
  O2-  O286  1  0.79263808  0.66943111  0.39892182  1
  O2-  O287  1  0.78716399  0.67219712  0.73168113  1
