# generated using pymatgen
data_Ca2Al2SiO7
_symmetry_space_group_name_H-M   'P 1'
_cell_length_a   15.45995473
_cell_length_b   15.45887821
_cell_length_c   15.28405078
_cell_angle_alpha   90.01362528
_cell_angle_beta   89.98600630
_cell_angle_gamma   89.97323608
_symmetry_Int_Tables_number   1
_chemical_formula_structural   Ca2Al2SiO7
_chemical_formula_sum   'Ca48 Al48 Si24 O168'
_cell_volume   3652.78905401
_cell_formula_units_Z   24
loop_
 _symmetry_equiv_pos_site_id
 _symmetry_equiv_pos_as_xyz
  1  'x, y, z'
loop_
 _atom_type_symbol
 _atom_type_oxidation_number
  Ca2+  2.0
  Al0+  0.0
  Si0+  0.0
  O2-  -2.0
loop_
 _atom_site_type_symbol
 _atom_site_label
 _atom_site_symmetry_multiplicity
 _atom_site_fract_x
 _atom_site_fract_y
 _atom_site_fract_z
 _atom_site_occupancy
  Ca2+  Ca0  1  0.16685291  0.07683492  0.17689672  1
  Ca2+  Ca1  1  0.15926515  0.08058929  0.50203815  1
  Ca2+  Ca2  1  0.16749858  0.08579403  0.83367954  1
  Ca2+  Ca3  1  0.16578568  0.58420746  0.17354921  1
  Ca2+  Ca4  1  0.16993225  0.57808421  0.50697792  1
  Ca2+  Ca5  1  0.17212116  0.57861456  0.83040210  1
  Ca2+  Ca6  1  0.67080520  0.07941748  0.17514976  1
  Ca2+  Ca7  1  0.67011287  0.08271159  0.49972024  1
  Ca2+  Ca8  1  0.66064654  0.08553990  0.83594889  1
  Ca2+  Ca9  1  0.68134860  0.58447721  0.17251299  1
  Ca2+  Ca10  1  0.67282446  0.57812326  0.50342774  1
  Ca2+  Ca11  1  0.66904364  0.57485104  0.83649524  1
  Ca2+  Ca12  1  0.07121583  0.32970536  0.16893022  1
  Ca2+  Ca13  1  0.08655010  0.32444476  0.49303237  1
  Ca2+  Ca14  1  0.07994202  0.33184684  0.82786249  1
  Ca2+  Ca15  1  0.07323452  0.83320426  0.17080734  1
  Ca2+  Ca16  1  0.07509266  0.82808380  0.49047065  1
  Ca2+  Ca17  1  0.07010555  0.83197526  0.82826505  1
  Ca2+  Ca18  1  0.57515480  0.32750975  0.16012651  1
  Ca2+  Ca19  1  0.57654351  0.33940529  0.49873909  1
  Ca2+  Ca20  1  0.58171981  0.32551952  0.82381298  1
  Ca2+  Ca21  1  0.57562165  0.84203392  0.16523006  1
  Ca2+  Ca22  1  0.57282426  0.83707741  0.49540313  1
  Ca2+  Ca23  1  0.57221873  0.83051107  0.82793404  1
  Ca2+  Ca24  1  0.33571850  0.41342793  0.17223991  1
  Ca2+  Ca25  1  0.33133270  0.41924985  0.51265303  1
  Ca2+  Ca26  1  0.33171258  0.40941667  0.83302881  1
  Ca2+  Ca27  1  0.33011907  0.91523390  0.17649802  1
  Ca2+  Ca28  1  0.32684768  0.90981193  0.50311046  1
  Ca2+  Ca29  1  0.33572631  0.91517029  0.83830523  1
  Ca2+  Ca30  1  0.84210275  0.42315704  0.17329338  1
  Ca2+  Ca31  1  0.83544868  0.42150268  0.50372308  1
  Ca2+  Ca32  1  0.82849133  0.41754626  0.84142805  1
  Ca2+  Ca33  1  0.83074811  0.92037518  0.18119513  1
  Ca2+  Ca34  1  0.83580954  0.91822405  0.50013620  1
  Ca2+  Ca35  1  0.83501672  0.91622543  0.83875253  1
  Ca2+  Ca36  1  0.42169653  0.17568459  0.16147759  1
  Ca2+  Ca37  1  0.42034531  0.17945936  0.49733624  1
  Ca2+  Ca38  1  0.42867024  0.17562205  0.82796177  1
  Ca2+  Ca39  1  0.41807470  0.67969469  0.16557689  1
  Ca2+  Ca40  1  0.41193765  0.67250357  0.49617842  1
  Ca2+  Ca41  1  0.40920400  0.67538293  0.82755971  1
  Ca2+  Ca42  1  0.91446028  0.17145729  0.16782986  1
  Ca2+  Ca43  1  0.92577584  0.17118926  0.49129469  1
  Ca2+  Ca44  1  0.92170992  0.17319694  0.82795494  1
  Ca2+  Ca45  1  0.91555032  0.67058314  0.16437477  1
  Ca2+  Ca46  1  0.91992286  0.67305387  0.48966765  1
  Ca2+  Ca47  1  0.90654438  0.67698232  0.83283191  1
  Al0+  Al48  1  0.00019946  -0.00224228  -0.00227124  1
  Al0+  Al49  1  0.00157228  -0.00117453  0.33507708  1
  Al0+  Al50  1  -0.00135118  0.00088556  0.66216082  1
  Al0+  Al51  1  0.00197273  0.49920626  -0.00085366  1
  Al0+  Al52  1  0.00249630  0.49930263  0.33326904  1
  Al0+  Al53  1  0.00116122  0.50279308  0.67489147  1
  Al0+  Al54  1  0.49845260  0.00060306  -0.00590681  1
  Al0+  Al55  1  0.49915494  0.00226980  0.33489798  1
  Al0+  Al56  1  0.50012371  -0.00018415  0.65937092  1
  Al0+  Al57  1  0.49853298  0.50069359  0.00052929  1
  Al0+  Al58  1  0.50046305  0.50251535  0.32780513  1
  Al0+  Al59  1  0.50274667  0.50253699  0.67406939  1
  Al0+  Al60  1  0.25060699  0.24859647  0.00025156  1
  Al0+  Al61  1  0.25025508  0.24960088  0.32471281  1
  Al0+  Al62  1  0.25062995  0.24761461  0.66533814  1
  Al0+  Al63  1  0.24801818  0.74851806  -0.00246970  1
  Al0+  Al64  1  0.25023961  0.75041783  0.32978395  1
  Al0+  Al65  1  0.24636199  0.75007632  0.66953140  1
  Al0+  Al66  1  0.75104993  0.24844746  -0.00550610  1
  Al0+  Al67  1  0.74863179  0.25052069  0.33482884  1
  Al0+  Al68  1  0.75206126  0.24881851  0.66731576  1
  Al0+  Al69  1  0.74880003  0.74959785  0.00075164  1
  Al0+  Al70  1  0.74828341  0.74879312  0.34119522  1
  Al0+  Al71  1  0.74703016  0.75335165  0.66353382  1
  Al0+  Al72  1  0.82372465  0.56923507  0.34808069  1
  Al0+  Al73  1  0.42828816  0.81933581  0.98632624  1
  Al0+  Al74  1  0.82188102  0.07245483  0.34931536  1
  Al0+  Al75  1  0.82018665  0.56987067  0.01413279  1
  Al0+  Al76  1  0.43135120  0.32264568  0.65238976  1
  Al0+  Al77  1  0.32148395  0.57237334  0.68196482  1
  Al0+  Al78  1  0.57131943  0.17968868  0.98551505  1
  Al0+  Al79  1  0.42688703  0.81916259  0.65238379  1
  Al0+  Al80  1  0.07134395  0.17675547  0.31699559  1
  Al0+  Al81  1  0.93062212  0.32162803  0.98564913  1
  Al0+  Al82  1  0.92641679  0.81960846  0.31941007  1
  Al0+  Al83  1  0.92722308  0.82052010  0.65169757  1
  Al0+  Al84  1  0.43017393  0.82176111  0.32073800  1
  Al0+  Al85  1  0.67632319  0.92842532  0.34996184  1
  Al0+  Al86  1  0.68190683  0.42848476  0.68075356  1
  Al0+  Al87  1  0.18105317  0.92855872  0.34744412  1
  Al0+  Al88  1  0.42738068  0.32314717  0.98332154  1
  Al0+  Al89  1  0.07107530  0.18083338  0.65384380  1
  Al0+  Al90  1  0.42976909  0.32336370  0.31974261  1
  Al0+  Al91  1  0.92837432  0.81982122  0.98750600  1
  Al0+  Al92  1  0.07157859  0.67790132  0.31924720  1
  Al0+  Al93  1  0.17952010  0.42529333  0.68210460  1
  Al0+  Al94  1  0.92733055  0.32115300  0.32128636  1
  Al0+  Al95  1  0.57442535  0.17843975  0.64744770  1
  Si0+  Si96  1  0.92923369  0.32487716  0.65269011  1
  Si0+  Si97  1  0.32066065  0.57318638  0.01801070  1
  Si0+  Si98  1  0.07221514  0.67653991  0.98062828  1
  Si0+  Si99  1  0.57235452  0.67831193  0.64992582  1
  Si0+  Si100  1  0.32127775  0.07447913  0.35069302  1
  Si0+  Si101  1  0.18161561  0.42805474  0.34618048  1
  Si0+  Si102  1  0.82191542  0.57529626  0.68396832  1
  Si0+  Si103  1  0.67783361  0.93028088  0.01233370  1
  Si0+  Si104  1  0.57184681  0.17880865  0.31674074  1
  Si0+  Si105  1  0.67601160  0.42936921  0.34787980  1
  Si0+  Si106  1  0.32177869  0.57077963  0.34568948  1
  Si0+  Si107  1  0.82283293  0.07017962  0.01333177  1
  Si0+  Si108  1  0.82199472  0.06878583  0.68349768  1
  Si0+  Si109  1  0.57282143  0.67869210  0.98392654  1
  Si0+  Si110  1  0.18061888  0.42754254  0.01780982  1
  Si0+  Si111  1  0.32076107  0.06902948  0.01450188  1
  Si0+  Si112  1  0.32241369  0.06911096  0.68152728  1
  Si0+  Si113  1  0.17721136  0.93013873  0.68313574  1
  Si0+  Si114  1  0.67800053  0.42533990  0.01744613  1
  Si0+  Si115  1  0.67706409  0.93012409  0.68365373  1
  Si0+  Si116  1  0.17810359  0.92771864  0.01469177  1
  Si0+  Si117  1  0.57214096  0.67745899  0.31650958  1
  Si0+  Si118  1  0.07125555  0.17624045  0.98374205  1
  Si0+  Si119  1  0.07044636  0.67819102  0.65130004  1
  O2-  O120  1  0.24977054  -0.00189022  0.05688723  1
  O2-  O121  1  0.25414743  0.00456684  0.39561178  1
  O2-  O122  1  0.25117860  -0.00190709  0.72563159  1
  O2-  O123  1  0.25367999  0.49765734  0.05953450  1
  O2-  O124  1  0.25382604  0.49764760  0.38820413  1
  O2-  O125  1  0.25443608  0.49517486  0.73253346  1
  O2-  O126  1  0.75013574  0.00010123  0.05403224  1
  O2-  O127  1  0.75151896  -0.00197083  0.39942174  1
  O2-  O128  1  0.74862198  0.00020555  0.72692561  1
  O2-  O129  1  0.74723961  0.49334087  0.06206965  1
  O2-  O130  1  0.74976246  0.49248381  0.39257862  1
  O2-  O131  1  0.75844556  0.50183164  0.72805949  1
  O2-  O132  1  -0.00527479  0.24523767  0.26963897  1
  O2-  O133  1  0.00291452  0.26197118  0.60907535  1
  O2-  O134  1  0.00417055  0.24576064  0.93908972  1
  O2-  O135  1  -0.00386545  0.74591668  0.26839211  1
  O2-  O136  1  -0.00233425  0.74169433  0.60739324  1
  O2-  O137  1  0.00047155  0.74352051  0.93856706  1
  O2-  O138  1  0.50427664  0.24879611  0.27323758  1
  O2-  O139  1  0.50505930  0.25407027  0.59974872  1
  O2-  O140  1  0.50446664  0.25621899  0.93519308  1
  O2-  O141  1  0.50898873  0.75208608  0.27312296  1
  O2-  O142  1  0.49854938  0.74181720  0.60632821  1
  O2-  O143  1  0.50043022  0.74308185  0.93877564  1
  O2-  O144  1  0.07030488  0.17428285  0.08873173  1
  O2-  O145  1  0.07419599  0.18164953  0.43046928  1
  O2-  O146  1  0.06704060  0.17760521  0.76753321  1
  O2-  O147  1  0.07499546  0.67754639  0.08586867  1
  O2-  O148  1  0.07267369  0.67792165  0.43288552  1
  O2-  O149  1  0.07211288  0.68121324  0.75716287  1
  O2-  O150  1  0.56874178  0.17757581  0.09913368  1
  O2-  O151  1  0.57075257  0.17941456  0.42196346  1
  O2-  O152  1  0.57135404  0.17741183  0.76117691  1
  O2-  O153  1  0.57369964  0.68228839  0.08940729  1
  O2-  O154  1  0.56659706  0.67119398  0.42171507  1
  O2-  O155  1  0.57662567  0.68333822  0.75565016  1
  O2-  O156  1  0.18262904  0.42928914  0.24068369  1
  O2-  O157  1  0.17915630  0.42692731  0.56831977  1
  O2-  O158  1  0.18055736  0.42709332  0.91287676  1
  O2-  O159  1  0.18402675  0.92823851  0.23362453  1
  O2-  O160  1  0.17761316  0.92979125  0.57839193  1
  O2-  O161  1  0.17728595  0.92963869  0.90921716  1
  O2-  O162  1  0.67289784  0.43297002  0.24233981  1
  O2-  O163  1  0.68289010  0.43148120  0.56746055  1
  O2-  O164  1  0.67988573  0.42692408  0.91178750  1
  O2-  O165  1  0.67413601  0.93259507  0.23531915  1
  O2-  O166  1  0.67706476  0.92952551  0.57924696  1
  O2-  O167  1  0.67796330  0.93055421  0.90695800  1
  O2-  O168  1  0.42733637  0.31946121  0.09719258  1
  O2-  O169  1  0.42952500  0.32576953  0.43241766  1
  O2-  O170  1  0.43186893  0.31821487  0.76569308  1
  O2-  O171  1  0.42917944  0.82108816  0.09921600  1
  O2-  O172  1  0.42754194  0.81685848  0.43356174  1
  O2-  O173  1  0.42923543  0.81997208  0.76593017  1
  O2-  O174  1  0.93162150  0.32105087  0.09829691  1
  O2-  O175  1  0.93201905  0.32345862  0.43492439  1
  O2-  O176  1  0.92863179  0.32118875  0.75870817  1
  O2-  O177  1  0.92907953  0.82230592  0.09957825  1
  O2-  O178  1  0.92992414  0.81785832  0.43290427  1
  O2-  O179  1  0.92825689  0.82079672  0.76568563  1
  O2-  O180  1  0.32068596  0.07290760  0.24442711  1
  O2-  O181  1  0.32140632  0.06850676  0.57673407  1
  O2-  O182  1  0.31959889  0.06785767  0.90923274  1
  O2-  O183  1  0.32112990  0.57031558  0.24023577  1
  O2-  O184  1  0.31697911  0.57450850  0.56799860  1
  O2-  O185  1  0.31750571  0.57786610  0.91349252  1
  O2-  O186  1  0.81830900  0.07254109  0.23466862  1
  O2-  O187  1  0.82410502  0.06701699  0.57908258  1
  O2-  O188  1  0.82567792  0.06798501  0.90801881  1
  O2-  O189  1  0.82228347  0.56894836  0.23466905  1
  O2-  O190  1  0.82163741  0.57474772  0.57854025  1
  O2-  O191  1  0.81566724  0.57085307  0.90086368  1
  O2-  O192  1  0.04791787  0.07707227  0.26577964  1
  O2-  O193  1  0.03503528  0.08690667  0.59896374  1
  O2-  O194  1  0.04551384  0.08331205  0.93591582  1
  O2-  O195  1  0.04751136  0.57898906  0.26589301  1
  O2-  O196  1  0.05074292  0.58195169  0.60836382  1
  O2-  O197  1  0.05011874  0.58234715  0.93521448  1
  O2-  O198  1  0.54412177  0.08624281  0.26992565  1
  O2-  O199  1  0.54298859  0.08142266  0.59483137  1
  O2-  O200  1  0.53759913  0.08392165  0.92955439  1
  O2-  O201  1  0.54135450  0.58861610  0.26354977  1
  O2-  O202  1  0.55342944  0.58280212  0.60665698  1
  O2-  O203  1  0.55105935  0.58322147  0.94060281  1
  O2-  O204  1  0.16706007  0.20867186  0.26009646  1
  O2-  O205  1  0.16919294  0.20269630  0.59997733  1
  O2-  O206  1  0.16554738  0.20149846  0.93916157  1
  O2-  O207  1  0.16782625  0.70959931  0.26330839  1
  O2-  O208  1  0.16180044  0.70824737  0.60430760  1
  O2-  O209  1  0.16358086  0.70660460  0.93243891  1
  O2-  O210  1  0.66540133  0.20262364  0.27021780  1
  O2-  O211  1  0.67533237  0.20268703  0.59871679  1
  O2-  O212  1  0.67084362  0.20076461  0.93162833  1
  O2-  O213  1  0.66775385  0.69834508  0.27414391  1
  O2-  O214  1  0.66250676  0.70948199  0.60020715  1
  O2-  O215  1  0.66361778  0.70788642  0.93463940  1
  O2-  O216  1  0.08945882  0.45769938  0.06490573  1
  O2-  O217  1  0.09116835  0.45556354  0.39527735  1
  O2-  O218  1  0.08241666  0.45693890  0.73891759  1
  O2-  O219  1  0.08667681  0.95684822  0.06237066  1
  O2-  O220  1  0.08460795  0.95619134  0.40248966  1
  O2-  O221  1  0.08640743  0.96297312  0.73059191  1
  O2-  O222  1  0.58300863  0.45072478  0.06170201  1
  O2-  O223  1  0.58476270  0.46319720  0.39539944  1
  O2-  O224  1  0.58747560  0.46050822  0.73887164  1
  O2-  O225  1  0.58587515  0.96015855  0.05902161  1
  O2-  O226  1  0.57848263  0.96026341  0.40358577  1
  O2-  O227  1  0.58468468  0.95881479  0.73045375  1
  O2-  O228  1  0.20678833  0.33473459  0.06473956  1
  O2-  O229  1  0.20944829  0.33535299  0.39123997  1
  O2-  O230  1  0.20535715  0.32580896  0.73560648  1
  O2-  O231  1  0.20526345  0.83518825  0.06026053  1
  O2-  O232  1  0.21512691  0.83246736  0.40145419  1
  O2-  O233  1  0.20143514  0.83811792  0.73199944  1
  O2-  O234  1  0.70278435  0.33039212  0.06102426  1
  O2-  O235  1  0.69334638  0.33396495  0.39235701  1
  O2-  O236  1  0.71221932  0.33129641  0.73520028  1
  O2-  O237  1  0.70243087  0.83803271  0.05967611  1
  O2-  O238  1  0.69679594  0.82859754  0.40315494  1
  O2-  O239  1  0.70400156  0.83775662  0.73151956  1
  O2-  O240  1  0.45961079  0.41925968  0.26343240  1
  O2-  O241  1  0.45672541  0.42432911  0.60506538  1
  O2-  O242  1  0.44599534  0.42569190  0.93590668  1
  O2-  O243  1  0.45581268  0.92059761  0.26811705  1
  O2-  O244  1  0.45925096  0.91395407  0.59769107  1
  O2-  O245  1  0.45943413  0.91468874  0.93088527  1
  O2-  O246  1  0.96325075  0.41619813  0.26624183  1
  O2-  O247  1  0.94811460  0.42238548  0.61280388  1
  O2-  O248  1  0.96277835  0.41717142  0.93070045  1
  O2-  O249  1  0.95745577  0.91753205  0.26788742  1
  O2-  O250  1  0.96249845  0.91506811  0.59881599  1
  O2-  O251  1  0.96191459  0.91486094  0.93067863  1
  O2-  O252  1  0.33540831  0.29124997  0.26269088  1
  O2-  O253  1  0.33317489  0.29141297  0.60094791  1
  O2-  O254  1  0.33000929  0.28873274  0.93195074  1
  O2-  O255  1  0.33689006  0.78603162  0.26386351  1
  O2-  O256  1  0.32792684  0.79121792  0.60238751  1
  O2-  O257  1  0.33104021  0.78964381  0.93277593  1
  O2-  O258  1  0.82686393  0.29942152  0.26905631  1
  O2-  O259  1  0.83828878  0.29444182  0.60593534  1
  O2-  O260  1  0.83463019  0.29148965  0.93086191  1
  O2-  O261  1  0.82530198  0.79472823  0.27100314  1
  O2-  O262  1  0.82883246  0.79596433  0.59971194  1
  O2-  O263  1  0.83095881  0.79067138  0.93322338  1
  O2-  O264  1  0.41236750  0.04016029  0.06178244  1
  O2-  O265  1  0.41539595  0.05246244  0.39598527  1
  O2-  O266  1  0.41417424  0.03922406  0.72843625  1
  O2-  O267  1  0.41490729  0.55169441  0.06430885  1
  O2-  O268  1  0.41484238  0.54616896  0.39187893  1
  O2-  O269  1  0.42225267  0.55561745  0.73446378  1
  O2-  O270  1  0.91416578  0.04093319  0.06100790  1
  O2-  O271  1  0.92122984  0.04631064  0.40079945  1
  O2-  O272  1  0.91251518  0.03718069  0.73255500  1
  O2-  O273  1  0.91945772  0.54208539  0.06436795  1
  O2-  O274  1  0.92031582  0.53872132  0.40276495  1
  O2-  O275  1  0.91706244  0.55830704  0.73055657  1
  O2-  O276  1  0.29343962  0.16077785  0.06288249  1
  O2-  O277  1  0.29321487  0.16831413  0.39479738  1
  O2-  O278  1  0.29374823  0.15971082  0.73082747  1
  O2-  O279  1  0.28771237  0.66368749  0.06644556  1
  O2-  O280  1  0.29179016  0.66152898  0.39299824  1
  O2-  O281  1  0.28434029  0.66819397  0.73817691  1
  O2-  O282  1  0.79631549  0.16291486  0.05936357  1
  O2-  O283  1  0.79243848  0.17094094  0.40289505  1
  O2-  O284  1  0.79766339  0.16162326  0.73100135  1
  O2-  O285  1  0.78683420  0.66639700  0.06827845  1
  O2-  O286  1  0.79105026  0.66373217  0.40461622  1
  O2-  O287  1  0.78872867  0.66783404  0.72901182  1
