# generated using pymatgen
data_Ca2Al2SiO7
_symmetry_space_group_name_H-M   'P 1'
_cell_length_a   15.45097919
_cell_length_b   15.45112235
_cell_length_c   15.27897629
_cell_angle_alpha   90.00103611
_cell_angle_beta   90.00300694
_cell_angle_gamma   89.99547743
_symmetry_Int_Tables_number   1
_chemical_formula_structural   Ca2Al2SiO7
_chemical_formula_sum   'Ca48 Al48 Si24 O168'
_cell_volume   3647.62592667
_cell_formula_units_Z   24
loop_
 _symmetry_equiv_pos_site_id
 _symmetry_equiv_pos_as_xyz
  1  'x, y, z'
loop_
 _atom_type_symbol
 _atom_type_oxidation_number
  Ca2+  2.0
  Al0+  0.0
  Si0+  0.0
  O2-  -2.0
loop_
 _atom_site_type_symbol
 _atom_site_label
 _atom_site_symmetry_multiplicity
 _atom_site_fract_x
 _atom_site_fract_y
 _atom_site_fract_z
 _atom_site_occupancy
  Ca2+  Ca0  1  0.17416290  0.09133454  0.16982428  1
  Ca2+  Ca1  1  0.15987082  0.07884367  0.50728796  1
  Ca2+  Ca2  1  0.16504135  0.07930320  0.83765351  1
  Ca2+  Ca3  1  0.16445186  0.57334751  0.17074587  1
  Ca2+  Ca4  1  0.16549054  0.58140644  0.50215745  1
  Ca2+  Ca5  1  0.16247127  0.58073189  0.84131416  1
  Ca2+  Ca6  1  0.67316824  0.08252701  0.16879420  1
  Ca2+  Ca7  1  0.67300872  0.07847327  0.50593650  1
  Ca2+  Ca8  1  0.67441924  0.09223931  0.83925361  1
  Ca2+  Ca9  1  0.66258412  0.57082894  0.17509490  1
  Ca2+  Ca10  1  0.67134576  0.58010377  0.50158208  1
  Ca2+  Ca11  1  0.67686240  0.57740925  0.83928627  1
  Ca2+  Ca12  1  0.07457169  0.33947178  0.16278107  1
  Ca2+  Ca13  1  0.07784285  0.32276375  0.49005675  1
  Ca2+  Ca14  1  0.07965869  0.32928396  0.83114424  1
  Ca2+  Ca15  1  0.07185432  0.82693005  0.16010102  1
  Ca2+  Ca16  1  0.07904431  0.83092269  0.49547125  1
  Ca2+  Ca17  1  0.08199803  0.82612771  0.82940056  1
  Ca2+  Ca18  1  0.57941142  0.33407158  0.15488059  1
  Ca2+  Ca19  1  0.58850760  0.32859195  0.49660677  1
  Ca2+  Ca20  1  0.58502163  0.32459354  0.83677188  1
  Ca2+  Ca21  1  0.58488875  0.82973227  0.17063653  1
  Ca2+  Ca22  1  0.58051098  0.82697444  0.48497041  1
  Ca2+  Ca23  1  0.58054360  0.83525299  0.83162721  1
  Ca2+  Ca24  1  0.32052756  0.41553313  0.17348630  1
  Ca2+  Ca25  1  0.32858039  0.42245063  0.49605901  1
  Ca2+  Ca26  1  0.32511084  0.41222752  0.84397949  1
  Ca2+  Ca27  1  0.33674967  0.92231837  0.17029040  1
  Ca2+  Ca28  1  0.32727562  0.91399660  0.50458364  1
  Ca2+  Ca29  1  0.32460166  0.92288273  0.83801214  1
  Ca2+  Ca30  1  0.82448432  0.40776774  0.17061436  1
  Ca2+  Ca31  1  0.83287569  0.41762795  0.49979601  1
  Ca2+  Ca32  1  0.83301438  0.41942253  0.84162101  1
  Ca2+  Ca33  1  0.83609746  0.91972025  0.17132168  1
  Ca2+  Ca34  1  0.83140333  0.91829160  0.50306930  1
  Ca2+  Ca35  1  0.83860706  0.93091159  0.83926136  1
  Ca2+  Ca36  1  0.42382142  0.17239914  0.15423441  1
  Ca2+  Ca37  1  0.42421648  0.16601638  0.49765447  1
  Ca2+  Ca38  1  0.42468074  0.16669394  0.83463674  1
  Ca2+  Ca39  1  0.41627502  0.66504549  0.17093661  1
  Ca2+  Ca40  1  0.42124093  0.67189734  0.48651555  1
  Ca2+  Ca41  1  0.41871089  0.66643490  0.83050728  1
  Ca2+  Ca42  1  0.91989449  0.17559113  0.16297328  1
  Ca2+  Ca43  1  0.92653603  0.16511747  0.49428315  1
  Ca2+  Ca44  1  0.91078456  0.17206985  0.82919311  1
  Ca2+  Ca45  1  0.91647523  0.67943221  0.15889179  1
  Ca2+  Ca46  1  0.91798505  0.66931444  0.49602835  1
  Ca2+  Ca47  1  0.92740875  0.66606851  0.82994767  1
  Al0+  Al48  1  -0.00051243  -0.00073796  0.00283274  1
  Al0+  Al49  1  0.00320931  0.00073444  0.32419492  1
  Al0+  Al50  1  -0.00099064  -0.00032419  0.67301656  1
  Al0+  Al51  1  -0.00045012  0.50092015  -0.00281204  1
  Al0+  Al52  1  -0.00122431  0.49779902  0.33502085  1
  Al0+  Al53  1  -0.00008973  0.50121331  0.66559126  1
  Al0+  Al54  1  0.50036556  -0.00103164  -0.00058753  1
  Al0+  Al55  1  0.50124340  -0.00098682  0.33486396  1
  Al0+  Al56  1  0.49899501  0.00110609  0.66197725  1
  Al0+  Al57  1  0.49947969  0.50062194  -0.00302167  1
  Al0+  Al58  1  0.50028988  0.49872737  0.34046132  1
  Al0+  Al59  1  0.49877817  0.50033624  0.66705806  1
  Al0+  Al60  1  0.25028423  0.25065780  0.00526559  1
  Al0+  Al61  1  0.25262354  0.24924570  0.33804339  1
  Al0+  Al62  1  0.25057960  0.25095268  0.66137484  1
  Al0+  Al63  1  0.25093989  0.75029599  -0.00265470  1
  Al0+  Al64  1  0.25116895  0.75186738  0.33157868  1
  Al0+  Al65  1  0.24906011  0.74944206  0.66781579  1
  Al0+  Al66  1  0.75138253  0.24955237  0.00116153  1
  Al0+  Al67  1  0.75234426  0.24896714  0.33729784  1
  Al0+  Al68  1  0.74708108  0.25024819  0.66435364  1
  Al0+  Al69  1  0.74973441  0.75221801  -0.00662134  1
  Al0+  Al70  1  0.74897644  0.75006002  0.32855943  1
  Al0+  Al71  1  0.74921915  0.74861700  0.67312043  1
  Al0+  Al72  1  0.32072764  0.06981455  0.01295483  1
  Al0+  Al73  1  0.81931679  0.07031751  0.67903541  1
  Al0+  Al74  1  0.57068504  0.67664897  0.31846128  1
  Al0+  Al75  1  0.57066525  0.18003856  0.65056188  1
  Al0+  Al76  1  0.82139578  0.07095409  0.01551133  1
  Al0+  Al77  1  0.07118360  0.67898900  0.65061897  1
  Al0+  Al78  1  0.07071388  0.67989571  0.98586979  1
  Al0+  Al79  1  0.31916463  0.57183773  0.34833185  1
  Al0+  Al80  1  0.92692838  0.82384749  0.98114911  1
  Al0+  Al81  1  0.68023620  0.92903541  0.34621070  1
  Al0+  Al82  1  0.07005389  0.17825370  0.65554035  1
  Al0+  Al83  1  0.42758857  0.82254448  0.31719076  1
  Al0+  Al84  1  0.92862474  0.82047014  0.32126326  1
  Al0+  Al85  1  0.17960121  0.92890808  0.68013758  1
  Al0+  Al86  1  0.67889851  0.42711375  0.34794921  1
  Al0+  Al87  1  0.57137138  0.17808878  0.98692139  1
  Al0+  Al88  1  0.07422897  0.17879098  0.31675132  1
  Al0+  Al89  1  0.68060621  0.43104771  0.01211049  1
  Al0+  Al90  1  0.82167669  0.57078257  0.68128531  1
  Al0+  Al91  1  0.17802119  0.43033870  0.01241441  1
  Al0+  Al92  1  0.92917693  0.31948563  0.98570908  1
  Al0+  Al93  1  0.92860904  0.32114000  0.31826392  1
  Al0+  Al94  1  0.17597352  0.42763203  0.35145281  1
  Al0+  Al95  1  0.42678986  0.32249725  0.98656634  1
  Si0+  Si96  1  0.32091651  0.57088284  0.68253675  1
  Si0+  Si97  1  0.82415287  0.07005905  0.35025951  1
  Si0+  Si98  1  0.07274937  0.67730971  0.31807685  1
  Si0+  Si99  1  0.82111330  0.57351564  0.34764002  1
  Si0+  Si100  1  0.67696500  0.92615789  0.01690382  1
  Si0+  Si101  1  0.82188686  0.57378514  0.01683126  1
  Si0+  Si102  1  0.17888902  0.93058528  0.34659188  1
  Si0+  Si103  1  0.92759956  0.82152651  0.65100116  1
  Si0+  Si104  1  0.32341814  0.07344801  0.68277950  1
  Si0+  Si105  1  0.67538460  0.92762398  0.68307304  1
  Si0+  Si106  1  0.92732256  0.32266805  0.65030362  1
  Si0+  Si107  1  0.42700854  0.32423187  0.64686309  1
  Si0+  Si108  1  0.42950850  0.82148879  0.98308622  1
  Si0+  Si109  1  0.57077629  0.67762980  0.98295225  1
  Si0+  Si110  1  0.07347743  0.17851447  0.98453415  1
  Si0+  Si111  1  0.43139204  0.32020913  0.32014497  1
  Si0+  Si112  1  0.32297246  0.07090157  0.35006770  1
  Si0+  Si113  1  0.18017123  0.42852648  0.68141334  1
  Si0+  Si114  1  0.17893158  0.92636259  0.01863770  1
  Si0+  Si115  1  0.57164376  0.17819933  0.31956404  1
  Si0+  Si116  1  0.42927225  0.81966060  0.65273237  1
  Si0+  Si117  1  0.32344934  0.57451734  0.01592596  1
  Si0+  Si118  1  0.67647956  0.42838787  0.68512763  1
  Si0+  Si119  1  0.57162722  0.67902603  0.65245677  1
  O2-  O120  1  0.24491861  -0.00232725  0.06274178  1
  O2-  O121  1  0.24982419  0.00120274  0.39072376  1
  O2-  O122  1  0.25174262  0.00725297  0.72593879  1
  O2-  O123  1  0.25441939  0.50497039  0.05719262  1
  O2-  O124  1  0.24422486  0.50416133  0.40095302  1
  O2-  O125  1  0.25106005  0.49936045  0.72496703  1
  O2-  O126  1  0.74758684  -0.00640925  0.05957102  1
  O2-  O127  1  0.75650746  0.00052115  0.39487401  1
  O2-  O128  1  0.74329434  -0.00323845  0.72692490  1
  O2-  O129  1  0.75315720  0.50604690  0.06184502  1
  O2-  O130  1  0.75442082  0.50246977  0.39235530  1
  O2-  O131  1  0.74802883  0.49468470  0.72798130  1
  O2-  O132  1  0.00446772  0.25328356  0.26813656  1
  O2-  O133  1  -0.00549878  0.25159422  0.60792094  1
  O2-  O134  1  0.00356885  0.24468533  0.93844595  1
  O2-  O135  1  0.00085566  0.74292914  0.27505356  1
  O2-  O136  1  -0.00470803  0.75294690  0.60471453  1
  O2-  O137  1  -0.00006188  0.75185078  0.93336727  1
  O2-  O138  1  0.50390836  0.25155090  0.27699709  1
  O2-  O139  1  0.49646181  0.25541161  0.60354195  1
  O2-  O140  1  0.49867719  0.25005239  0.93716015  1
  O2-  O141  1  0.49809209  0.74840264  0.26827855  1
  O2-  O142  1  0.50314917  0.75217807  0.61025030  1
  O2-  O143  1  0.49978542  0.74947302  0.94080033  1
  O2-  O144  1  0.07355246  0.18140340  0.08989839  1
  O2-  O145  1  0.07034329  0.17534711  0.43095615  1
  O2-  O146  1  0.07264128  0.18132371  0.76838187  1
  O2-  O147  1  0.06972057  0.68144913  0.09965684  1
  O2-  O148  1  0.07265344  0.68089225  0.42414001  1
  O2-  O149  1  0.07297526  0.67928408  0.76319834  1
  O2-  O150  1  0.56962369  0.17849635  0.10083402  1
  O2-  O151  1  0.56864312  0.17848254  0.42507989  1
  O2-  O152  1  0.56979410  0.18045490  0.76327973  1
  O2-  O153  1  0.57070556  0.67592853  0.08745924  1
  O2-  O154  1  0.57048201  0.67939178  0.43284625  1
  O2-  O155  1  0.56886985  0.67898011  0.75789899  1
  O2-  O156  1  0.17812540  0.42837849  0.23787601  1
  O2-  O157  1  0.18192511  0.42965846  0.57669704  1
  O2-  O158  1  0.17983889  0.43025128  0.89850360  1
  O2-  O159  1  0.18006868  0.93093116  0.24177530  1
  O2-  O160  1  0.18159640  0.92816231  0.56656563  1
  O2-  O161  1  0.18240234  0.92558156  0.91259533  1
  O2-  O162  1  0.67670319  0.42686708  0.23491008  1
  O2-  O163  1  0.67530158  0.43029987  0.57936972  1
  O2-  O164  1  0.68183250  0.43366622  0.89872965  1
  O2-  O165  1  0.67923509  0.93206872  0.23341992  1
  O2-  O166  1  0.67550992  0.92608608  0.57746514  1
  O2-  O167  1  0.67446847  0.92601883  0.91095699  1
  O2-  O168  1  0.42809667  0.32214214  0.10045582  1
  O2-  O169  1  0.43154779  0.31717735  0.42569179  1
  O2-  O170  1  0.42473083  0.32542779  0.75207818  1
  O2-  O171  1  0.42909514  0.82241445  0.08758824  1
  O2-  O172  1  0.42915674  0.82282915  0.43151599  1
  O2-  O173  1  0.43001191  0.81816380  0.75826649  1
  O2-  O174  1  0.92841980  0.31936773  0.09826975  1
  O2-  O175  1  0.92743384  0.31741748  0.43241364  1
  O2-  O176  1  0.92856686  0.32307257  0.75612655  1
  O2-  O177  1  0.92711379  0.82142586  0.09509628  1
  O2-  O178  1  0.93045159  0.82125711  0.43491053  1
  O2-  O179  1  0.92986105  0.82049908  0.75610382  1
  O2-  O180  1  0.32463907  0.07095822  0.24504979  1
  O2-  O181  1  0.32571145  0.06997312  0.57698026  1
  O2-  O182  1  0.32063385  0.06615727  0.89956540  1
  O2-  O183  1  0.31921913  0.56873660  0.23484028  1
  O2-  O184  1  0.32244345  0.57157886  0.57795751  1
  O2-  O185  1  0.32371960  0.57557278  0.90961420  1
  O2-  O186  1  0.82153376  0.07062981  0.24483365  1
  O2-  O187  1  0.81937167  0.06672502  0.56579125  1
  O2-  O188  1  0.81842874  0.07179419  0.90192058  1
  O2-  O189  1  0.81907965  0.57490601  0.24230810  1
  O2-  O190  1  0.81856655  0.57235628  0.56802458  1
  O2-  O191  1  0.81980518  0.57155153  0.91076504  1
  O2-  O192  1  0.04717818  0.08221332  0.26016758  1
  O2-  O193  1  0.03892914  0.08068269  0.60276628  1
  O2-  O194  1  0.05135292  0.08254930  0.94251978  1
  O2-  O195  1  0.05079593  0.58181041  0.27576797  1
  O2-  O196  1  0.04021159  0.58238565  0.59661784  1
  O2-  O197  1  0.04111530  0.58296166  0.93034224  1
  O2-  O198  1  0.54115526  0.08778280  0.27251853  1
  O2-  O199  1  0.53946327  0.08325940  0.59524748  1
  O2-  O200  1  0.54313343  0.07976054  0.93278604  1
  O2-  O201  1  0.54043398  0.57746878  0.26839448  1
  O2-  O202  1  0.54222847  0.58736065  0.60577595  1
  O2-  O203  1  0.54164275  0.58816988  0.93139417  1
  O2-  O204  1  0.17588403  0.20368065  0.26952566  1
  O2-  O205  1  0.16695413  0.20684005  0.59972620  1
  O2-  O206  1  0.16677967  0.20477750  0.93874878  1
  O2-  O207  1  0.16474270  0.70571836  0.27151060  1
  O2-  O208  1  0.16835047  0.71079260  0.59781428  1
  O2-  O209  1  0.17040960  0.70660371  0.93241047  1
  O2-  O210  1  0.66571464  0.20193156  0.27646777  1
  O2-  O211  1  0.66648851  0.21052014  0.59407876  1
  O2-  O212  1  0.66777965  0.21078625  0.93336735  1
  O2-  O213  1  0.66703074  0.70589667  0.26308631  1
  O2-  O214  1  0.66460947  0.70470706  0.60672797  1
  O2-  O215  1  0.66152671  0.70616111  0.93337946  1
  O2-  O216  1  0.08222132  0.46371018  0.06660056  1
  O2-  O217  1  0.07617008  0.45137511  0.40431062  1
  O2-  O218  1  0.08756440  0.45562864  0.72703766  1
  O2-  O219  1  0.08398522  0.94769677  0.06251873  1
  O2-  O220  1  0.08718523  0.95925512  0.39445360  1
  O2-  O221  1  0.08397009  0.95722213  0.73652449  1
  O2-  O222  1  0.58246670  0.46167641  0.06374245  1
  O2-  O223  1  0.58425702  0.45690706  0.40615109  1
  O2-  O224  1  0.58311236  0.45685373  0.73062656  1
  O2-  O225  1  0.58380460  0.95190612  0.06326785  1
  O2-  O226  1  0.58443891  0.96101421  0.40243268  1
  O2-  O227  1  0.58055288  0.95318382  0.72734708  1
  O2-  O228  1  0.20766635  0.33497433  0.06865934  1
  O2-  O229  1  0.21174430  0.33103002  0.40526092  1
  O2-  O230  1  0.20911009  0.33636064  0.72797695  1
  O2-  O231  1  0.20914108  0.83393571  0.06427591  1
  O2-  O232  1  0.20589469  0.83880046  0.39481577  1
  O2-  O233  1  0.21540385  0.83425838  0.73579954  1
  O2-  O234  1  0.71071362  0.33487068  0.06593193  1
  O2-  O235  1  0.71151062  0.33153170  0.40461905  1
  O2-  O236  1  0.69962894  0.33353057  0.72860753  1
  O2-  O237  1  0.70084665  0.83114612  0.06105146  1
  O2-  O238  1  0.70836119  0.83094898  0.39926393  1
  O2-  O239  1  0.69825906  0.83405297  0.73070478  1
  O2-  O240  1  0.45668907  0.41277580  0.27519977  1
  O2-  O241  1  0.45388681  0.41825949  0.60122168  1
  O2-  O242  1  0.45387496  0.42053068  0.93128775  1
  O2-  O243  1  0.45979833  0.92022507  0.26487223  1
  O2-  O244  1  0.45118195  0.91281473  0.60551761  1
  O2-  O245  1  0.45943333  0.91131926  0.93286704  1
  O2-  O246  1  0.95079066  0.42176064  0.26660895  1
  O2-  O247  1  0.95522360  0.41504393  0.60357773  1
  O2-  O248  1  0.95880890  0.41645447  0.93176910  1
  O2-  O249  1  0.96232527  0.91418953  0.26414046  1
  O2-  O250  1  0.95395883  0.91523327  0.60633532  1
  O2-  O251  1  0.95744183  0.92276299  0.93058725  1
  O2-  O252  1  0.33982157  0.29064138  0.27421836  1
  O2-  O253  1  0.33472291  0.29798350  0.59810768  1
  O2-  O254  1  0.32918235  0.29115750  0.93351024  1
  O2-  O255  1  0.32926472  0.79695669  0.26279455  1
  O2-  O256  1  0.33885519  0.78843055  0.60531088  1
  O2-  O257  1  0.33823807  0.79413140  0.93387290  1
  O2-  O258  1  0.83061485  0.28818181  0.26625450  1
  O2-  O259  1  0.83229245  0.30057684  0.60603690  1
  O2-  O260  1  0.83383403  0.28772760  0.93014766  1
  O2-  O261  1  0.83303094  0.79242201  0.26474520  1
  O2-  O262  1  0.83205948  0.79556333  0.60819711  1
  O2-  O263  1  0.82804741  0.79852787  0.92735287  1
  O2-  O264  1  0.41684206  0.03641329  0.06707336  1
  O2-  O265  1  0.41346974  0.04061712  0.39922207  1
  O2-  O266  1  0.41578233  0.04347752  0.72936438  1
  O2-  O267  1  0.41757910  0.55054775  0.06045082  1
  O2-  O268  1  0.41550512  0.53980157  0.40470990  1
  O2-  O269  1  0.41364037  0.54496249  0.73061120  1
  O2-  O270  1  0.91849609  0.04213828  0.06999799  1
  O2-  O271  1  0.91931161  0.04316775  0.39238662  1
  O2-  O272  1  0.91418045  0.04089796  0.73690143  1
  O2-  O273  1  0.91576739  0.55002172  0.06106162  1
  O2-  O274  1  0.91491985  0.55006267  0.39488426  1
  O2-  O275  1  0.91881299  0.54061584  0.73504852  1
  O2-  O276  1  0.29272720  0.16589854  0.06941356  1
  O2-  O277  1  0.29888013  0.16224756  0.40015548  1
  O2-  O278  1  0.30122253  0.16926260  0.72498685  1
  O2-  O279  1  0.29902509  0.66855419  0.06156932  1
  O2-  O280  1  0.29583260  0.67297910  0.39984245  1
  O2-  O281  1  0.29355981  0.66232961  0.73106279  1
  O2-  O282  1  0.78794183  0.16566052  0.07067690  1
  O2-  O283  1  0.79723440  0.16202342  0.39873562  1
  O2-  O284  1  0.78813412  0.16826405  0.73101586  1
  O2-  O285  1  0.79529179  0.66906862  0.05837584  1
  O2-  O286  1  0.79295049  0.66566934  0.39563910  1
  O2-  O287  1  0.78913987  0.66567543  0.73882846  1
