# generated using pymatgen
data_Ca2Al2SiO7
_symmetry_space_group_name_H-M   'P 1'
_cell_length_a   15.45367002
_cell_length_b   15.45347710
_cell_length_c   15.28021336
_cell_angle_alpha   89.99748599
_cell_angle_beta   89.99936823
_cell_angle_gamma   89.99697176
_symmetry_Int_Tables_number   1
_chemical_formula_structural   Ca2Al2SiO7
_chemical_formula_sum   'Ca48 Al48 Si24 O168'
_cell_volume   3649.11260325
_cell_formula_units_Z   24
loop_
 _symmetry_equiv_pos_site_id
 _symmetry_equiv_pos_as_xyz
  1  'x, y, z'
loop_
 _atom_type_symbol
 _atom_type_oxidation_number
  Ca2+  2.0
  Al0+  0.0
  Si0+  0.0
  O2-  -2.0
loop_
 _atom_site_type_symbol
 _atom_site_label
 _atom_site_symmetry_multiplicity
 _atom_site_fract_x
 _atom_site_fract_y
 _atom_site_fract_z
 _atom_site_occupancy
  Ca2+  Ca0  1  0.17807285  0.08962723  0.16848542  1
  Ca2+  Ca1  1  0.17008766  0.08625712  0.50212397  1
  Ca2+  Ca2  1  0.16979971  0.08872773  0.84152395  1
  Ca2+  Ca3  1  0.17362281  0.57608639  0.17354563  1
  Ca2+  Ca4  1  0.16740035  0.58281307  0.50255271  1
  Ca2+  Ca5  1  0.17164316  0.57804091  0.84385033  1
  Ca2+  Ca6  1  0.67114799  0.07745058  0.17753760  1
  Ca2+  Ca7  1  0.67091064  0.07195328  0.50464983  1
  Ca2+  Ca8  1  0.65989877  0.07887366  0.83597971  1
  Ca2+  Ca9  1  0.66681281  0.58214902  0.16088305  1
  Ca2+  Ca10  1  0.66698980  0.58588121  0.50566889  1
  Ca2+  Ca11  1  0.66657708  0.58122387  0.84386746  1
  Ca2+  Ca12  1  0.08494009  0.33481371  0.16498392  1
  Ca2+  Ca13  1  0.07999443  0.32990281  0.49353892  1
  Ca2+  Ca14  1  0.09345368  0.32419987  0.83247177  1
  Ca2+  Ca15  1  0.06943563  0.83820876  0.16154154  1
  Ca2+  Ca16  1  0.07437365  0.83025540  0.49582952  1
  Ca2+  Ca17  1  0.07080785  0.82622369  0.82564692  1
  Ca2+  Ca18  1  0.58368483  0.32574595  0.15648156  1
  Ca2+  Ca19  1  0.57730921  0.32820984  0.49966797  1
  Ca2+  Ca20  1  0.58094157  0.32510191  0.82791437  1
  Ca2+  Ca21  1  0.57990219  0.83134029  0.16419336  1
  Ca2+  Ca22  1  0.58508694  0.83359192  0.49620697  1
  Ca2+  Ca23  1  0.58587322  0.82113945  0.82857363  1
  Ca2+  Ca24  1  0.32300489  0.42554632  0.17090897  1
  Ca2+  Ca25  1  0.33097811  0.41862853  0.50116770  1
  Ca2+  Ca26  1  0.33130145  0.41928697  0.84256289  1
  Ca2+  Ca27  1  0.33853614  0.92665776  0.17413301  1
  Ca2+  Ca28  1  0.33940713  0.92082371  0.49951510  1
  Ca2+  Ca29  1  0.32955745  0.92470101  0.83984276  1
  Ca2+  Ca30  1  0.83107968  0.41816883  0.16957243  1
  Ca2+  Ca31  1  0.83526285  0.41540217  0.50170476  1
  Ca2+  Ca32  1  0.82517614  0.42638505  0.84487023  1
  Ca2+  Ca33  1  0.83034564  0.92011032  0.17561255  1
  Ca2+  Ca34  1  0.82729717  0.91144308  0.50338544  1
  Ca2+  Ca35  1  0.83046141  0.90916123  0.83437960  1
  Ca2+  Ca36  1  0.42047276  0.16199239  0.15837421  1
  Ca2+  Ca37  1  0.41950341  0.16690884  0.49868223  1
  Ca2+  Ca38  1  0.42414421  0.17149052  0.82908774  1
  Ca2+  Ca39  1  0.41523368  0.66724957  0.16342930  1
  Ca2+  Ca40  1  0.42269023  0.67120589  0.49174855  1
  Ca2+  Ca41  1  0.42751917  0.65664709  0.83138754  1
  Ca2+  Ca42  1  0.92011487  0.17032140  0.16213904  1
  Ca2+  Ca43  1  0.92069407  0.16754205  0.49206198  1
  Ca2+  Ca44  1  0.93022864  0.16846703  0.82946396  1
  Ca2+  Ca45  1  0.90914696  0.67873899  0.16032261  1
  Ca2+  Ca46  1  0.91973443  0.67670626  0.49788036  1
  Ca2+  Ca47  1  0.91399112  0.67410382  0.82908322  1
  Al0+  Al48  1  -0.00192964  0.00086847  -0.01009338  1
  Al0+  Al49  1  0.00223331  0.00104760  0.33123409  1
  Al0+  Al50  1  -0.00001938  0.00115289  0.65920483  1
  Al0+  Al51  1  -0.00186279  0.50229879  0.00841202  1
  Al0+  Al52  1  -0.00057539  0.49818904  0.33323080  1
  Al0+  Al53  1  0.00130327  0.50033338  0.66697013  1
  Al0+  Al54  1  0.49932410  -0.00087056  -0.00140515  1
  Al0+  Al55  1  0.50107956  -0.00206424  0.33823599  1
  Al0+  Al56  1  0.50154250  -0.00000280  0.67070993  1
  Al0+  Al57  1  0.49980387  0.49997028  0.00533677  1
  Al0+  Al58  1  0.49987957  0.49836189  0.33552494  1
  Al0+  Al59  1  0.49991858  0.49977823  0.65812671  1
  Al0+  Al60  1  0.25057432  0.24987395  0.00493523  1
  Al0+  Al61  1  0.25140416  0.25107807  0.34155457  1
  Al0+  Al62  1  0.24997223  0.25147883  0.65903998  1
  Al0+  Al63  1  0.24688976  0.75287244  0.00373438  1
  Al0+  Al64  1  0.25240592  0.75045119  0.33218238  1
  Al0+  Al65  1  0.25024972  0.75036734  0.66662860  1
  Al0+  Al66  1  0.75082703  0.24840692  -0.00311529  1
  Al0+  Al67  1  0.75157721  0.24968782  0.33396786  1
  Al0+  Al68  1  0.74997814  0.24887082  0.66547787  1
  Al0+  Al69  1  0.74669674  0.75051114  -0.00364533  1
  Al0+  Al70  1  0.75004605  0.74752736  0.33231593  1
  Al0+  Al71  1  0.74873003  0.75056341  0.66341409  1
  Al0+  Al72  1  0.82334343  0.07236313  0.34737410  1
  Al0+  Al73  1  0.07118485  0.17976700  0.65143218  1
  Al0+  Al74  1  0.32050452  0.06859247  0.01183315  1
  Al0+  Al75  1  0.42938102  0.32086701  0.65089547  1
  Al0+  Al76  1  0.92790504  0.82041362  0.98491035  1
  Al0+  Al77  1  0.92862498  0.81986166  0.64974625  1
  Al0+  Al78  1  0.81923173  0.57370003  0.01516120  1
  Al0+  Al79  1  0.17821574  0.42788538  0.01502221  1
  Al0+  Al80  1  0.68030626  0.92935327  0.68390490  1
  Al0+  Al81  1  0.07349120  0.67693822  0.65281833  1
  Al0+  Al82  1  0.56986925  0.67946520  0.65282888  1
  Al0+  Al83  1  0.67910773  0.42583474  0.01418809  1
  Al0+  Al84  1  0.57251762  0.17623047  0.64971578  1
  Al0+  Al85  1  0.32186419  0.07016877  0.34886277  1
  Al0+  Al86  1  0.68109658  0.92742520  0.34799088  1
  Al0+  Al87  1  0.17783850  0.43067028  0.35260325  1
  Al0+  Al88  1  0.92851008  0.32063928  0.31852465  1
  Al0+  Al89  1  0.92938786  0.82063592  0.31825762  1
  Al0+  Al90  1  0.43052620  0.82116254  0.31963930  1
  Al0+  Al91  1  0.32209977  0.57402543  0.01455088  1
  Al0+  Al92  1  0.07102940  0.18275322  0.98800199  1
  Al0+  Al93  1  0.56635184  0.67997378  0.98764160  1
  Al0+  Al94  1  0.32207253  0.57274944  0.35165016  1
  Al0+  Al95  1  0.57299463  0.17678427  0.98766620  1
  Si0+  Si96  1  0.31929121  0.07194778  0.68226689  1
  Si0+  Si97  1  0.81983346  0.57013297  0.34940532  1
  Si0+  Si98  1  0.17726159  0.92885117  0.68118561  1
  Si0+  Si99  1  0.67951992  0.92980981  0.01410605  1
  Si0+  Si100  1  0.92706233  0.32497395  0.98330403  1
  Si0+  Si101  1  0.07455152  0.17907951  0.31556870  1
  Si0+  Si102  1  0.92793880  0.32262472  0.65271582  1
  Si0+  Si103  1  0.32213647  0.57165747  0.68114106  1
  Si0+  Si104  1  0.42489200  0.82361844  0.98302765  1
  Si0+  Si105  1  0.82307865  0.07018311  0.01216655  1
  Si0+  Si106  1  0.07222821  0.67784560  0.31560412  1
  Si0+  Si107  1  0.17409496  0.92967103  0.01506447  1
  Si0+  Si108  1  0.67897314  0.42700034  0.34969176  1
  Si0+  Si109  1  0.07262536  0.67730717  0.98573980  1
  Si0+  Si110  1  0.42921852  0.32062653  0.98730436  1
  Si0+  Si111  1  0.57223151  0.67484616  0.31458956  1
  Si0+  Si112  1  0.42718604  0.82286800  0.65249557  1
  Si0+  Si113  1  0.82034139  0.56987666  0.67997587  1
  Si0+  Si114  1  0.17937325  0.42936039  0.68224513  1
  Si0+  Si115  1  0.56937612  0.17970482  0.31950152  1
  Si0+  Si116  1  0.82409501  0.07333546  0.68528328  1
  Si0+  Si117  1  0.42856769  0.32104695  0.31643144  1
  Si0+  Si118  1  0.17755772  0.92787922  0.34965486  1
  Si0+  Si119  1  0.67749549  0.42856615  0.67997339  1
  O2-  O120  1  0.24628760  -0.00590972  0.05986097  1
  O2-  O121  1  0.24630626  -0.00393247  0.39529717  1
  O2-  O122  1  0.24742326  0.00114934  0.72412006  1
  O2-  O123  1  0.24693487  0.50430585  0.06278930  1
  O2-  O124  1  0.24858861  0.50350974  0.40355930  1
  O2-  O125  1  0.24987676  0.50156502  0.72346293  1
  O2-  O126  1  0.74896009  0.00276774  0.05493693  1
  O2-  O127  1  0.75606596  -0.00343121  0.39810853  1
  O2-  O128  1  0.75508699  0.00506110  0.73058393  1
  O2-  O129  1  0.75209610  0.49665504  0.06525398  1
  O2-  O130  1  0.74858946  0.49933930  0.39220734  1
  O2-  O131  1  0.74993423  0.49800152  0.72187989  1
  O2-  O132  1  0.00358147  0.24592289  0.27238886  1
  O2-  O133  1  -0.00618360  0.25240844  0.60718838  1
  O2-  O134  1  0.00017268  0.26083928  0.93933641  1
  O2-  O135  1  0.00499108  0.74747019  0.27020484  1
  O2-  O136  1  0.00308178  0.74938034  0.60151039  1
  O2-  O137  1  0.00213266  0.74369320  0.94065832  1
  O2-  O138  1  0.49852690  0.24922998  0.27410674  1
  O2-  O139  1  0.50019885  0.24775473  0.59989825  1
  O2-  O140  1  0.50031384  0.25448870  0.94257020  1
  O2-  O141  1  0.50268799  0.74391951  0.27289734  1
  O2-  O142  1  0.49516026  0.75417076  0.60780012  1
  O2-  O143  1  0.48731541  0.74946232  0.93900653  1
  O2-  O144  1  0.06930673  0.18030579  0.10059772  1
  O2-  O145  1  0.07388137  0.18037577  0.42138711  1
  O2-  O146  1  0.07397661  0.18206708  0.76479993  1
  O2-  O147  1  0.07358148  0.68112387  0.09106043  1
  O2-  O148  1  0.06950818  0.67906905  0.42142198  1
  O2-  O149  1  0.07276629  0.67647457  0.76656528  1
  O2-  O150  1  0.57146944  0.17497541  0.10120850  1
  O2-  O151  1  0.56802805  0.18230669  0.42441603  1
  O2-  O152  1  0.56952736  0.17834125  0.76362636  1
  O2-  O153  1  0.56895661  0.68417982  0.10040370  1
  O2-  O154  1  0.57273810  0.67423435  0.42046350  1
  O2-  O155  1  0.56924442  0.67697434  0.76594352  1
  O2-  O156  1  0.17992352  0.43075673  0.23917262  1
  O2-  O157  1  0.17803417  0.42986941  0.57766974  1
  O2-  O158  1  0.18268382  0.42643021  0.90058035  1
  O2-  O159  1  0.17656929  0.93041292  0.24397389  1
  O2-  O160  1  0.17920459  0.92845967  0.57622521  1
  O2-  O161  1  0.17538915  0.93082986  0.90904612  1
  O2-  O162  1  0.67895716  0.42535027  0.24484464  1
  O2-  O163  1  0.67902334  0.42939338  0.57453039  1
  O2-  O164  1  0.67959928  0.42715886  0.89990410  1
  O2-  O165  1  0.68003668  0.93016809  0.23368992  1
  O2-  O166  1  0.68122856  0.92825277  0.57120677  1
  O2-  O167  1  0.67995454  0.92908494  0.90888757  1
  O2-  O168  1  0.42945385  0.31743485  0.09300701  1
  O2-  O169  1  0.43127303  0.32118277  0.42150863  1
  O2-  O170  1  0.42936860  0.32142243  0.76498993  1
  O2-  O171  1  0.42963126  0.82803031  0.08834738  1
  O2-  O172  1  0.43357802  0.82149834  0.43302919  1
  O2-  O173  1  0.42563910  0.82194018  0.75813876  1
  O2-  O174  1  0.92405064  0.32015735  0.08863814  1
  O2-  O175  1  0.92856765  0.31972239  0.43207592  1
  O2-  O176  1  0.92912602  0.32382279  0.75821357  1
  O2-  O177  1  0.92814072  0.82273019  0.09811987  1
  O2-  O178  1  0.92940151  0.81714493  0.43092404  1
  O2-  O179  1  0.92888780  0.81667683  0.76356183  1
  O2-  O180  1  0.32241802  0.07027596  0.23561719  1
  O2-  O181  1  0.31936184  0.06985491  0.57716343  1
  O2-  O182  1  0.31918587  0.06904893  0.89827737  1
  O2-  O183  1  0.32164883  0.57004303  0.23826672  1
  O2-  O184  1  0.32204570  0.57171456  0.57653687  1
  O2-  O185  1  0.32253753  0.57022655  0.90003967  1
  O2-  O186  1  0.81937441  0.07299679  0.23298083  1
  O2-  O187  1  0.82308759  0.07394171  0.57993045  1
  O2-  O188  1  0.82487573  0.06890694  0.90714265  1
  O2-  O189  1  0.81796844  0.57128371  0.24460916  1
  O2-  O190  1  0.82010458  0.56757181  0.57452361  1
  O2-  O191  1  0.81662693  0.57336636  0.90081978  1
  O2-  O192  1  0.05374223  0.08453670  0.26975187  1
  O2-  O193  1  0.04449743  0.08363409  0.59534943  1
  O2-  O194  1  0.03798789  0.08864114  0.92959227  1
  O2-  O195  1  0.04488655  0.58425069  0.27156543  1
  O2-  O196  1  0.04374852  0.57923600  0.59905049  1
  O2-  O197  1  0.05004686  0.58174571  0.94211644  1
  O2-  O198  1  0.54208644  0.08703200  0.27442988  1
  O2-  O199  1  0.54269447  0.07750967  0.59915540  1
  O2-  O200  1  0.53806741  0.08217793  0.93191461  1
  O2-  O201  1  0.54659562  0.58048285  0.26982646  1
  O2-  O202  1  0.54114952  0.58449801  0.59522935  1
  O2-  O203  1  0.54055833  0.58077650  0.93473372  1
  O2-  O204  1  0.16863865  0.20843959  0.27237230  1
  O2-  O205  1  0.16546292  0.21199203  0.59496963  1
  O2-  O206  1  0.16888443  0.21175401  0.93394118  1
  O2-  O207  1  0.16709691  0.70119982  0.27177151  1
  O2-  O208  1  0.17186474  0.70534680  0.59970675  1
  O2-  O209  1  0.16567330  0.70444392  0.93788317  1
  O2-  O210  1  0.66138902  0.20842315  0.27328870  1
  O2-  O211  1  0.67141815  0.20452355  0.59812474  1
  O2-  O212  1  0.66962308  0.20361482  0.93141639  1
  O2-  O213  1  0.66569569  0.70060477  0.26906930  1
  O2-  O214  1  0.66529267  0.70982375  0.59730799  1
  O2-  O215  1  0.66036091  0.71473962  0.93086203  1
  O2-  O216  1  0.07842916  0.45024473  0.06746977  1
  O2-  O217  1  0.07773888  0.45662756  0.40405813  1
  O2-  O218  1  0.08715116  0.45477479  0.73079783  1
  O2-  O219  1  0.08119549  0.96024481  0.05935801  1
  O2-  O220  1  0.08486694  0.95433265  0.39730826  1
  O2-  O221  1  0.08452833  0.95635108  0.72677865  1
  O2-  O222  1  0.58208667  0.45422378  0.06912369  1
  O2-  O223  1  0.58711837  0.45375668  0.39747691  1
  O2-  O224  1  0.58566203  0.45844200  0.72550211  1
  O2-  O225  1  0.58704914  0.95634101  0.06056052  1
  O2-  O226  1  0.58508584  0.95890995  0.40314142  1
  O2-  O227  1  0.58300844  0.95848577  0.73909342  1
  O2-  O228  1  0.21021587  0.33223730  0.07107540  1
  O2-  O229  1  0.20842457  0.33315973  0.40607726  1
  O2-  O230  1  0.21005368  0.33704837  0.72764324  1
  O2-  O231  1  0.19283592  0.83539580  0.06224738  1
  O2-  O232  1  0.20251404  0.83405684  0.39489332  1
  O2-  O233  1  0.20587366  0.83753199  0.73049544  1
  O2-  O234  1  0.70717646  0.32651484  0.06646647  1
  O2-  O235  1  0.70889366  0.33685835  0.39884102  1
  O2-  O236  1  0.70283697  0.33564675  0.72681631  1
  O2-  O237  1  0.70845100  0.83920441  0.06166754  1
  O2-  O238  1  0.70635347  0.82712233  0.39913285  1
  O2-  O239  1  0.71234539  0.83147619  0.73638239  1
  O2-  O240  1  0.45797814  0.41265388  0.26978318  1
  O2-  O241  1  0.45982956  0.41659034  0.59364024  1
  O2-  O242  1  0.45174608  0.41516971  0.94234994  1
  O2-  O243  1  0.46451860  0.91735590  0.26540265  1
  O2-  O244  1  0.45397655  0.91637834  0.60770431  1
  O2-  O245  1  0.45637828  0.91395032  0.93340828  1
  O2-  O246  1  0.95753563  0.41772526  0.26438117  1
  O2-  O247  1  0.95531041  0.41517276  0.60537021  1
  O2-  O248  1  0.94631687  0.42202054  0.94182303  1
  O2-  O249  1  0.95941230  0.91842746  0.26510411  1
  O2-  O250  1  0.95450131  0.91865329  0.59778481  1
  O2-  O251  1  0.95920376  0.91481539  0.92698768  1
  O2-  O252  1  0.33545224  0.29356855  0.27273640  1
  O2-  O253  1  0.33252766  0.29309007  0.59521963  1
  O2-  O254  1  0.33710528  0.29196781  0.94013438  1
  O2-  O255  1  0.33245996  0.79616438  0.26496881  1
  O2-  O256  1  0.33372321  0.79939272  0.60539972  1
  O2-  O257  1  0.32744788  0.80678230  0.94101552  1
  O2-  O258  1  0.83153108  0.29052621  0.26400051  1
  O2-  O259  1  0.83336507  0.30099034  0.60666012  1
  O2-  O260  1  0.83617077  0.29489736  0.93380108  1
  O2-  O261  1  0.83285498  0.78723392  0.26504651  1
  O2-  O262  1  0.83233630  0.78705800  0.59646409  1
  O2-  O263  1  0.83195575  0.78834215  0.93078138  1
  O2-  O264  1  0.41680540  0.03694726  0.06678872  1
  O2-  O265  1  0.41647273  0.03681065  0.40471479  1
  O2-  O266  1  0.41091059  0.04432930  0.73005208  1
  O2-  O267  1  0.41857773  0.54508952  0.06990857  1
  O2-  O268  1  0.42083604  0.54118984  0.40331699  1
  O2-  O269  1  0.41431453  0.54013437  0.72636082  1
  O2-  O270  1  0.91366581  0.03926277  0.05996899  1
  O2-  O271  1  0.92476249  0.05054494  0.39640133  1
  O2-  O272  1  0.91932550  0.04766398  0.72881027  1
  O2-  O273  1  0.91837637  0.55380918  0.06964710  1
  O2-  O274  1  0.91121706  0.54162401  0.39664434  1
  O2-  O275  1  0.91242785  0.54319875  0.72830805  1
  O2-  O276  1  0.29065782  0.16385534  0.06807833  1
  O2-  O277  1  0.29267919  0.16596547  0.40471289  1
  O2-  O278  1  0.29020042  0.16488683  0.72655852  1
  O2-  O279  1  0.29694871  0.67433243  0.06611453  1
  O2-  O280  1  0.29786094  0.67338200  0.40216584  1
  O2-  O281  1  0.29779613  0.66439182  0.72900882  1
  O2-  O282  1  0.79949130  0.16337041  0.05823064  1
  O2-  O283  1  0.79192472  0.16927778  0.40203689  1
  O2-  O284  1  0.80022710  0.16815719  0.73107397  1
  O2-  O285  1  0.78258569  0.66979696  0.06828811  1
  O2-  O286  1  0.79109118  0.66074061  0.39860399  1
  O2-  O287  1  0.79069547  0.66115295  0.72601126  1
