# generated using pymatgen
data_Ca2Al2SiO7
_symmetry_space_group_name_H-M   'P 1'
_cell_length_a   15.47072935
_cell_length_b   15.47234275
_cell_length_c   15.29455885
_cell_angle_alpha   89.99771511
_cell_angle_beta   89.99751278
_cell_angle_gamma   89.98880210
_symmetry_Int_Tables_number   1
_chemical_formula_structural   Ca2Al2SiO7
_chemical_formula_sum   'Ca48 Al48 Si24 O168'
_cell_volume   3661.03441942
_cell_formula_units_Z   24
loop_
 _symmetry_equiv_pos_site_id
 _symmetry_equiv_pos_as_xyz
  1  'x, y, z'
loop_
 _atom_type_symbol
 _atom_type_oxidation_number
  Ca2+  2.0
  Al0+  0.0
  Si0+  0.0
  O2-  -2.0
loop_
 _atom_site_type_symbol
 _atom_site_label
 _atom_site_symmetry_multiplicity
 _atom_site_fract_x
 _atom_site_fract_y
 _atom_site_fract_z
 _atom_site_occupancy
  Ca2+  Ca0  1  0.17341193  0.07980317  0.16823436  1
  Ca2+  Ca1  1  0.16669576  0.07646243  0.51311599  1
  Ca2+  Ca2  1  0.17252780  0.07653746  0.82917877  1
  Ca2+  Ca3  1  0.16911678  0.58618982  0.17105948  1
  Ca2+  Ca4  1  0.17459579  0.58344210  0.50903456  1
  Ca2+  Ca5  1  0.16094201  0.57744307  0.83521809  1
  Ca2+  Ca6  1  0.66735695  0.07259968  0.17561480  1
  Ca2+  Ca7  1  0.66811102  0.07527267  0.50078638  1
  Ca2+  Ca8  1  0.66800770  0.08139520  0.83632598  1
  Ca2+  Ca9  1  0.67301331  0.58164023  0.18292612  1
  Ca2+  Ca10  1  0.67632265  0.59279733  0.50288439  1
  Ca2+  Ca11  1  0.67087376  0.59255055  0.82729485  1
  Ca2+  Ca12  1  0.07636769  0.34215104  0.16442938  1
  Ca2+  Ca13  1  0.08801984  0.32877980  0.49852664  1
  Ca2+  Ca14  1  0.09685792  0.32931928  0.82563003  1
  Ca2+  Ca15  1  0.08201503  0.81831170  0.16632299  1
  Ca2+  Ca16  1  0.08032722  0.82338164  0.49691045  1
  Ca2+  Ca17  1  0.08069797  0.82349429  0.82202000  1
  Ca2+  Ca18  1  0.57528536  0.34263886  0.16961977  1
  Ca2+  Ca19  1  0.57144244  0.34100634  0.49417573  1
  Ca2+  Ca20  1  0.57358992  0.32784626  0.82239229  1
  Ca2+  Ca21  1  0.58330157  0.82697930  0.16715420  1
  Ca2+  Ca22  1  0.57898358  0.82261555  0.49926803  1
  Ca2+  Ca23  1  0.57014462  0.83097118  0.82568087  1
  Ca2+  Ca24  1  0.32609721  0.42202513  0.17482005  1
  Ca2+  Ca25  1  0.33500538  0.42513227  0.50682856  1
  Ca2+  Ca26  1  0.32599772  0.42309195  0.82813507  1
  Ca2+  Ca27  1  0.34168969  0.92082007  0.16792457  1
  Ca2+  Ca28  1  0.32753519  0.92346783  0.51250475  1
  Ca2+  Ca29  1  0.33624871  0.92012866  0.83537095  1
  Ca2+  Ca30  1  0.82634113  0.42238218  0.18135423  1
  Ca2+  Ca31  1  0.83366712  0.42731652  0.50110997  1
  Ca2+  Ca32  1  0.83523791  0.42654132  0.83281093  1
  Ca2+  Ca33  1  0.82877961  0.91368398  0.17960978  1
  Ca2+  Ca34  1  0.83057253  0.89982328  0.50269475  1
  Ca2+  Ca35  1  0.83557582  0.91263474  0.83150656  1
  Ca2+  Ca36  1  0.41383850  0.17212509  0.16410907  1
  Ca2+  Ca37  1  0.40741100  0.17991627  0.49926697  1
  Ca2+  Ca38  1  0.40351858  0.17093766  0.82547262  1
  Ca2+  Ca39  1  0.42059848  0.66722905  0.16655665  1
  Ca2+  Ca40  1  0.42291475  0.65816854  0.49522213  1
  Ca2+  Ca41  1  0.41945461  0.67534065  0.82128605  1
  Ca2+  Ca42  1  0.91411356  0.17526966  0.16790143  1
  Ca2+  Ca43  1  0.92389573  0.17364097  0.49638374  1
  Ca2+  Ca44  1  0.92653227  0.17270031  0.82230400  1
  Ca2+  Ca45  1  0.92423006  0.66224277  0.16957578  1
  Ca2+  Ca46  1  0.92707396  0.66466666  0.49660259  1
  Ca2+  Ca47  1  0.92682523  0.66809582  0.82408959  1
  Al0+  Al48  1  0.00086373  0.00250170  0.00257133  1
  Al0+  Al49  1  0.00116050  0.00010277  0.32773726  1
  Al0+  Al50  1  -0.00090439  0.00244705  0.66418328  1
  Al0+  Al51  1  -0.00242885  0.49981271  0.00038642  1
  Al0+  Al52  1  0.00028612  0.49664296  0.32924057  1
  Al0+  Al53  1  -0.00290570  0.49991913  0.67243560  1
  Al0+  Al54  1  0.50186736  0.00105563  0.00173438  1
  Al0+  Al55  1  0.50157518  0.00168653  0.33976856  1
  Al0+  Al56  1  0.50238543  0.00081991  0.66714085  1
  Al0+  Al57  1  0.49983908  0.49911967  -0.00350116  1
  Al0+  Al58  1  0.49789862  0.49949455  0.32811819  1
  Al0+  Al59  1  0.50085028  0.49805445  0.66567643  1
  Al0+  Al60  1  0.24877270  0.25009493  0.00960972  1
  Al0+  Al61  1  0.25176006  0.24934788  0.32629638  1
  Al0+  Al62  1  0.24983829  0.25008501  0.66304329  1
  Al0+  Al63  1  0.24962217  0.74973669  -0.00712344  1
  Al0+  Al64  1  0.25095723  0.75200446  0.33275727  1
  Al0+  Al65  1  0.24961444  0.75193721  0.66722683  1
  Al0+  Al66  1  0.74933689  0.25045215  -0.00006364  1
  Al0+  Al67  1  0.74959739  0.24697241  0.33321298  1
  Al0+  Al68  1  0.74918792  0.24936932  0.66725970  1
  Al0+  Al69  1  0.75062085  0.75029976  0.00137135  1
  Al0+  Al70  1  0.74891581  0.75005837  0.33421027  1
  Al0+  Al71  1  0.74782664  0.75034068  0.66955013  1
  Al0+  Al72  1  0.67694905  0.42669812  0.34811823  1
  Al0+  Al73  1  0.32149078  0.07004026  0.67952792  1
  Al0+  Al74  1  0.17955987  0.43068801  0.01543710  1
  Al0+  Al75  1  0.81931822  0.57202159  0.68190429  1
  Al0+  Al76  1  0.07051936  0.18187373  0.65418639  1
  Al0+  Al77  1  0.56944505  0.67961068  0.31998796  1
  Al0+  Al78  1  0.07194618  0.67594212  0.65248601  1
  Al0+  Al79  1  0.31878294  0.57177695  0.34455090  1
  Al0+  Al80  1  0.42663120  0.82379368  0.65116431  1
  Al0+  Al81  1  0.43174099  0.82181590  0.98782868  1
  Al0+  Al82  1  0.32391314  0.57317002  0.68107066  1
  Al0+  Al83  1  0.92904720  0.31897585  0.32051748  1
  Al0+  Al84  1  0.07412997  0.67702920  0.31878698  1
  Al0+  Al85  1  0.92906972  0.81993468  0.31832097  1
  Al0+  Al86  1  0.32082220  0.06877460  0.01541417  1
  Al0+  Al87  1  0.67982018  0.92834648  0.34931194  1
  Al0+  Al88  1  0.06871652  0.67823354  0.98497032  1
  Al0+  Al89  1  0.92917646  0.82152277  0.65377892  1
  Al0+  Al90  1  0.17605070  0.92781442  0.68080325  1
  Al0+  Al91  1  0.17864938  0.43090894  0.67837684  1
  Al0+  Al92  1  0.56842398  0.67920618  0.65166913  1
  Al0+  Al93  1  0.42960956  0.32090372  0.31675901  1
  Al0+  Al94  1  0.42960203  0.31839306  0.65378949  1
  Al0+  Al95  1  0.82209491  0.57026866  0.34939473  1
  Si0+  Si96  1  0.82085909  0.07405157  0.68230381  1
  Si0+  Si97  1  0.42878686  0.82523409  0.31803342  1
  Si0+  Si98  1  0.17809504  0.42593163  0.34843028  1
  Si0+  Si99  1  0.67819372  0.42703453  0.01411854  1
  Si0+  Si100  1  0.67809419  0.42574612  0.68455455  1
  Si0+  Si101  1  0.68057612  0.93004112  0.68424529  1
  Si0+  Si102  1  0.17887474  0.93034707  0.34678123  1
  Si0+  Si103  1  0.82209121  0.07345949  0.01550381  1
  Si0+  Si104  1  0.92705788  0.82437834  0.98490582  1
  Si0+  Si105  1  0.42697322  0.32005003  0.98405086  1
  Si0+  Si106  1  0.68143760  0.93079391  0.01514705  1
  Si0+  Si107  1  0.57120682  0.17596543  0.31603112  1
  Si0+  Si108  1  0.57102869  0.18029474  0.98583108  1
  Si0+  Si109  1  0.92737197  0.31944807  0.98413734  1
  Si0+  Si110  1  0.57593658  0.17714219  0.64879065  1
  Si0+  Si111  1  0.07345027  0.17723879  0.31301691  1
  Si0+  Si112  1  0.07162857  0.17995248  0.98510254  1
  Si0+  Si113  1  0.92438397  0.32268795  0.65112820  1
  Si0+  Si114  1  0.32099387  0.07161658  0.34869538  1
  Si0+  Si115  1  0.81813079  0.57033751  0.01597700  1
  Si0+  Si116  1  0.57402603  0.67642104  0.98350703  1
  Si0+  Si117  1  0.82452005  0.07091038  0.35080641  1
  Si0+  Si118  1  0.32358777  0.57374037  0.01582194  1
  Si0+  Si119  1  0.17660968  0.92612619  0.01818310  1
  O2-  O120  1  0.24923196  -0.00878656  0.06313518  1
  O2-  O121  1  0.24925426  0.00182325  0.38900848  1
  O2-  O122  1  0.25454488  -0.00600576  0.73076946  1
  O2-  O123  1  0.25402670  0.50608632  0.06068262  1
  O2-  O124  1  0.24248349  0.49848042  0.39067951  1
  O2-  O125  1  0.24523272  0.50726951  0.73057184  1
  O2-  O126  1  0.75637669  -0.00217390  0.05767120  1
  O2-  O127  1  0.76010575  -0.00151270  0.39490086  1
  O2-  O128  1  0.75201411  0.00156134  0.72592232  1
  O2-  O129  1  0.74322233  0.50281552  0.05664222  1
  O2-  O130  1  0.74848824  0.49856264  0.39823423  1
  O2-  O131  1  0.74527525  0.49568628  0.72926798  1
  O2-  O132  1  0.00505444  0.24691882  0.26980882  1
  O2-  O133  1  -0.00233324  0.25859330  0.60844829  1
  O2-  O134  1  0.00023793  0.25056432  0.94254086  1
  O2-  O135  1  -0.00104466  0.74645379  0.26816399  1
  O2-  O136  1  0.00209119  0.75110703  0.60410025  1
  O2-  O137  1  -0.00311289  0.75762059  0.94156451  1
  O2-  O138  1  0.50626604  0.24722356  0.27013887  1
  O2-  O139  1  0.50520333  0.24404169  0.60702486  1
  O2-  O140  1  0.49945540  0.24967640  0.94276999  1
  O2-  O141  1  0.49518684  0.75481899  0.27301299  1
  O2-  O142  1  0.49050197  0.74450472  0.60135448  1
  O2-  O143  1  0.50238632  0.74284184  0.94201118  1
  O2-  O144  1  0.06904311  0.17865585  0.09010608  1
  O2-  O145  1  0.07408990  0.17657635  0.41830400  1
  O2-  O146  1  0.06890035  0.18236809  0.76795626  1
  O2-  O147  1  0.06644934  0.67771316  0.09799235  1
  O2-  O148  1  0.07658759  0.67889435  0.43137285  1
  O2-  O149  1  0.06620597  0.67488167  0.76654128  1
  O2-  O150  1  0.57301262  0.18045152  0.09050940  1
  O2-  O151  1  0.56862731  0.17235915  0.42100449  1
  O2-  O152  1  0.58090243  0.17950799  0.75501845  1
  O2-  O153  1  0.57709101  0.67653633  0.08894361  1
  O2-  O154  1  0.56910014  0.68024144  0.43211740  1
  O2-  O155  1  0.57063427  0.68463731  0.76617383  1
  O2-  O156  1  0.18051858  0.42454973  0.24229936  1
  O2-  O157  1  0.18056777  0.42766515  0.56510674  1
  O2-  O158  1  0.18186115  0.42729106  0.90299731  1
  O2-  O159  1  0.18066930  0.93181998  0.24124717  1
  O2-  O160  1  0.17279692  0.93423593  0.56700653  1
  O2-  O161  1  0.17248096  0.93056806  0.91348677  1
  O2-  O162  1  0.67941999  0.42955691  0.23317028  1
  O2-  O163  1  0.68028405  0.42064789  0.57993802  1
  O2-  O164  1  0.68079961  0.42208436  0.90949205  1
  O2-  O165  1  0.67857367  0.93237691  0.23513075  1
  O2-  O166  1  0.68104338  0.93087417  0.57959499  1
  O2-  O167  1  0.68176263  0.93337840  0.91021712  1
  O2-  O168  1  0.42957869  0.32023736  0.08899193  1
  O2-  O169  1  0.42664487  0.31763734  0.42922513  1
  O2-  O170  1  0.43092356  0.31566966  0.76778481  1
  O2-  O171  1  0.43717555  0.82347386  0.10114843  1
  O2-  O172  1  0.42944636  0.82810859  0.42271585  1
  O2-  O173  1  0.43458815  0.82751780  0.76521457  1
  O2-  O174  1  0.92498784  0.31695886  0.08907365  1
  O2-  O175  1  0.92999944  0.31647568  0.43311527  1
  O2-  O176  1  0.91946104  0.31747131  0.75718374  1
  O2-  O177  1  0.92397145  0.82412290  0.09001421  1
  O2-  O178  1  0.93324239  0.82194675  0.43093150  1
  O2-  O179  1  0.92950028  0.82039187  0.76835451  1
  O2-  O180  1  0.32185295  0.07031305  0.24305045  1
  O2-  O181  1  0.31775895  0.07177855  0.56581331  1
  O2-  O182  1  0.31923529  0.07110870  0.90324166  1
  O2-  O183  1  0.31870288  0.57043895  0.23061676  1
  O2-  O184  1  0.32636637  0.56644872  0.56770466  1
  O2-  O185  1  0.32654269  0.57122639  0.91091143  1
  O2-  O186  1  0.82136016  0.07164993  0.24436750  1
  O2-  O187  1  0.81804945  0.07970799  0.57807343  1
  O2-  O188  1  0.82006889  0.07657688  0.91061557  1
  O2-  O189  1  0.82045832  0.56806585  0.23461278  1
  O2-  O190  1  0.81981214  0.57111620  0.56969524  1
  O2-  O191  1  0.81745448  0.56999529  0.91100371  1
  O2-  O192  1  0.04672265  0.08521196  0.26408513  1
  O2-  O193  1  0.03558678  0.08837875  0.59792045  1
  O2-  O194  1  0.04393733  0.08777552  0.93819322  1
  O2-  O195  1  0.04836688  0.57776949  0.26584282  1
  O2-  O196  1  0.03940687  0.57769852  0.60184400  1
  O2-  O197  1  0.03227759  0.58269834  0.93213528  1
  O2-  O198  1  0.54032448  0.08407215  0.26774955  1
  O2-  O199  1  0.55397450  0.08277625  0.60480777  1
  O2-  O200  1  0.54660152  0.08791007  0.93852738  1
  O2-  O201  1  0.53863168  0.58473401  0.26233943  1
  O2-  O202  1  0.55131125  0.57744228  0.60294542  1
  O2-  O203  1  0.55294696  0.58145453  0.93758990  1
  O2-  O204  1  0.16666424  0.20184879  0.26558225  1
  O2-  O205  1  0.16485818  0.21120491  0.59653528  1
  O2-  O206  1  0.16367865  0.21028146  0.94082236  1
  O2-  O207  1  0.17020891  0.71251379  0.26291196  1
  O2-  O208  1  0.17175264  0.70004414  0.60262541  1
  O2-  O209  1  0.16684934  0.70254808  0.93212364  1
  O2-  O210  1  0.66653058  0.19511384  0.27056817  1
  O2-  O211  1  0.66836141  0.20366733  0.60122386  1
  O2-  O212  1  0.66255073  0.20909646  0.93683714  1
  O2-  O213  1  0.66500003  0.71199457  0.26451978  1
  O2-  O214  1  0.66468583  0.71584984  0.60095513  1
  O2-  O215  1  0.66699568  0.70608078  0.93759394  1
  O2-  O216  1  0.08038632  0.45939486  0.06666013  1
  O2-  O217  1  0.08214917  0.44292340  0.39072027  1
  O2-  O218  1  0.07833745  0.44899793  0.73347929  1
  O2-  O219  1  0.08477462  0.95744170  0.06658817  1
  O2-  O220  1  0.08687370  0.95934789  0.39206861  1
  O2-  O221  1  0.08010330  0.96534559  0.73533967  1
  O2-  O222  1  0.58344327  0.44981433  0.05836723  1
  O2-  O223  1  0.57677638  0.45305126  0.39536773  1
  O2-  O224  1  0.58501117  0.45007413  0.73192403  1
  O2-  O225  1  0.59256525  0.96360853  0.06451429  1
  O2-  O226  1  0.58638669  0.96563729  0.40506675  1
  O2-  O227  1  0.59060964  0.96110009  0.73372235  1
  O2-  O228  1  0.20930913  0.33538841  0.07274007  1
  O2-  O229  1  0.20781874  0.33191137  0.39144145  1
  O2-  O230  1  0.21428363  0.33411359  0.73179727  1
  O2-  O231  1  0.19992106  0.83069572  0.06094562  1
  O2-  O232  1  0.20637690  0.83937094  0.39411252  1
  O2-  O233  1  0.19664107  0.82834819  0.73359435  1
  O2-  O234  1  0.70957049  0.33691157  0.06343394  1
  O2-  O235  1  0.70160170  0.32596191  0.39715980  1
  O2-  O236  1  0.70561071  0.33261751  0.73315299  1
  O2-  O237  1  0.70529545  0.83733464  0.06186667  1
  O2-  O238  1  0.70639898  0.83179007  0.40311948  1
  O2-  O239  1  0.70867415  0.84043123  0.73528872  1
  O2-  O240  1  0.45927057  0.41542892  0.25823956  1
  O2-  O241  1  0.46198428  0.41355148  0.59958276  1
  O2-  O242  1  0.45383061  0.41210299  0.93657075  1
  O2-  O243  1  0.45896229  0.91846992  0.27230220  1
  O2-  O244  1  0.46337664  0.92032592  0.59874700  1
  O2-  O245  1  0.46803475  0.91727330  0.93412940  1
  O2-  O246  1  0.95742084  0.41383091  0.26147967  1
  O2-  O247  1  0.94455681  0.41793043  0.60963108  1
  O2-  O248  1  0.95197660  0.41227004  0.93858020  1
  O2-  O249  1  0.95661248  0.91908539  0.26364788  1
  O2-  O250  1  0.94845296  0.92245864  0.60311477  1
  O2-  O251  1  0.94906348  0.92064670  0.94178761  1
  O2-  O252  1  0.33519214  0.28633151  0.25921240  1
  O2-  O253  1  0.33567325  0.28625807  0.59697533  1
  O2-  O254  1  0.33512643  0.28788525  0.94089588  1
  O2-  O255  1  0.33530187  0.80239979  0.27067790  1
  O2-  O256  1  0.32432347  0.80954282  0.60360784  1
  O2-  O257  1  0.33326709  0.79909976  0.93501154  1
  O2-  O258  1  0.83323003  0.28463506  0.26431723  1
  O2-  O259  1  0.83364387  0.29082514  0.60345314  1
  O2-  O260  1  0.83662137  0.28863247  0.93589384  1
  O2-  O261  1  0.82936842  0.79487438  0.26642669  1
  O2-  O262  1  0.82991166  0.79227850  0.60520489  1
  O2-  O263  1  0.83310201  0.79814090  0.93873577  1
  O2-  O264  1  0.41931166  0.04112329  0.06926392  1
  O2-  O265  1  0.41228995  0.04612521  0.39654146  1
  O2-  O266  1  0.42315083  0.05023045  0.73123419  1
  O2-  O267  1  0.41823997  0.54649861  0.06093886  1
  O2-  O268  1  0.41452243  0.53701374  0.39569627  1
  O2-  O269  1  0.41999237  0.53702246  0.73614082  1
  O2-  O270  1  0.91547038  0.05248389  0.06288492  1
  O2-  O271  1  0.92102624  0.05155311  0.39230408  1
  O2-  O272  1  0.91231609  0.04815037  0.73095784  1
  O2-  O273  1  0.90800644  0.53799693  0.06339539  1
  O2-  O274  1  0.92093731  0.53823187  0.39893208  1
  O2-  O275  1  0.91300637  0.53915403  0.74080298  1
  O2-  O276  1  0.28698367  0.16313110  0.07270418  1
  O2-  O277  1  0.29259926  0.16457110  0.39240967  1
  O2-  O278  1  0.28605517  0.16635314  0.73244495  1
  O2-  O279  1  0.29890211  0.66840604  0.06014048  1
  O2-  O280  1  0.29459514  0.67029742  0.39732447  1
  O2-  O281  1  0.30533223  0.67479957  0.72991345  1
  O2-  O282  1  0.78841001  0.16320164  0.06446667  1
  O2-  O283  1  0.79463100  0.16218867  0.39803467  1
  O2-  O284  1  0.79036600  0.16381913  0.73411225  1
  O2-  O285  1  0.79451514  0.66384650  0.06259314  1
  O2-  O286  1  0.79348676  0.66864740  0.39968695  1
  O2-  O287  1  0.78452718  0.66655716  0.73914185  1
