# generated using pymatgen
data_Ca2Al2SiO7
_symmetry_space_group_name_H-M   'P 1'
_cell_length_a   15.47003957
_cell_length_b   15.46828441
_cell_length_c   15.29054828
_cell_angle_alpha   90.00861849
_cell_angle_beta   90.01714328
_cell_angle_gamma   89.97837148
_symmetry_Int_Tables_number   1
_chemical_formula_structural   Ca2Al2SiO7
_chemical_formula_sum   'Ca48 Al48 Si24 O168'
_cell_volume   3658.95085383
_cell_formula_units_Z   24
loop_
 _symmetry_equiv_pos_site_id
 _symmetry_equiv_pos_as_xyz
  1  'x, y, z'
loop_
 _atom_type_symbol
 _atom_type_oxidation_number
  Ca2+  2.0
  Al0+  0.0
  Si0+  0.0
  O2-  -2.0
loop_
 _atom_site_type_symbol
 _atom_site_label
 _atom_site_symmetry_multiplicity
 _atom_site_fract_x
 _atom_site_fract_y
 _atom_site_fract_z
 _atom_site_occupancy
  Ca2+  Ca0  1  0.15824078  0.08117445  0.16792003  1
  Ca2+  Ca1  1  0.16235943  0.08018032  0.50508674  1
  Ca2+  Ca2  1  0.15549648  0.07380283  0.83738889  1
  Ca2+  Ca3  1  0.15576023  0.57275283  0.17132586  1
  Ca2+  Ca4  1  0.16795780  0.57272896  0.50687450  1
  Ca2+  Ca5  1  0.17231404  0.57573574  0.84102657  1
  Ca2+  Ca6  1  0.67766324  0.08136456  0.17428346  1
  Ca2+  Ca7  1  0.66609894  0.07374102  0.50125896  1
  Ca2+  Ca8  1  0.67703895  0.08412285  0.84525434  1
  Ca2+  Ca9  1  0.66353036  0.58544817  0.16772915  1
  Ca2+  Ca10  1  0.66448951  0.59013342  0.50114413  1
  Ca2+  Ca11  1  0.66494025  0.58341322  0.84098967  1
  Ca2+  Ca12  1  0.08036562  0.32627144  0.15844254  1
  Ca2+  Ca13  1  0.08850092  0.32712185  0.49053447  1
  Ca2+  Ca14  1  0.09222022  0.32411381  0.83220079  1
  Ca2+  Ca15  1  0.08746997  0.82293147  0.16046724  1
  Ca2+  Ca16  1  0.08163743  0.82725937  0.49185080  1
  Ca2+  Ca17  1  0.09226996  0.83095844  0.83202594  1
  Ca2+  Ca18  1  0.56990639  0.34409290  0.15948871  1
  Ca2+  Ca19  1  0.57327744  0.33229442  0.49316000  1
  Ca2+  Ca20  1  0.57821444  0.33963606  0.83664203  1
  Ca2+  Ca21  1  0.58389889  0.82731375  0.16637282  1
  Ca2+  Ca22  1  0.57301103  0.82547754  0.48962321  1
  Ca2+  Ca23  1  0.57733356  0.82111210  0.82412774  1
  Ca2+  Ca24  1  0.32377658  0.41185524  0.17168419  1
  Ca2+  Ca25  1  0.32464826  0.42138803  0.50335372  1
  Ca2+  Ca26  1  0.32549336  0.42032216  0.83757850  1
  Ca2+  Ca27  1  0.33110964  0.91679226  0.16945853  1
  Ca2+  Ca28  1  0.33101202  0.91289782  0.50597316  1
  Ca2+  Ca29  1  0.32445691  0.91320525  0.83505634  1
  Ca2+  Ca30  1  0.83027299  0.40892189  0.17035348  1
  Ca2+  Ca31  1  0.83522602  0.41669472  0.50004653  1
  Ca2+  Ca32  1  0.82528976  0.41389234  0.84480300  1
  Ca2+  Ca33  1  0.83192217  0.91851327  0.17313560  1
  Ca2+  Ca34  1  0.82838973  0.90752081  0.49884085  1
  Ca2+  Ca35  1  0.83365606  0.92565078  0.84269862  1
  Ca2+  Ca36  1  0.41538106  0.17985889  0.16371025  1
  Ca2+  Ca37  1  0.41334216  0.17429511  0.49201512  1
  Ca2+  Ca38  1  0.40904071  0.17583020  0.83475797  1
  Ca2+  Ca39  1  0.42586787  0.66843070  0.16397370  1
  Ca2+  Ca40  1  0.41963460  0.67161479  0.49729555  1
  Ca2+  Ca41  1  0.42439545  0.66556485  0.82483109  1
  Ca2+  Ca42  1  0.92361860  0.17402364  0.16140982  1
  Ca2+  Ca43  1  0.93075687  0.17425681  0.49297508  1
  Ca2+  Ca44  1  0.92399224  0.16976200  0.83503371  1
  Ca2+  Ca45  1  0.92722191  0.67105395  0.16876479  1
  Ca2+  Ca46  1  0.92528001  0.67187957  0.48978917  1
  Ca2+  Ca47  1  0.92564795  0.66348705  0.83652868  1
  Al0+  Al48  1  -0.00128695  0.00077414  0.00729268  1
  Al0+  Al49  1  -0.00104659  0.00133975  0.33063769  1
  Al0+  Al50  1  -0.00082259  0.00188609  0.66568895  1
  Al0+  Al51  1  -0.00162516  0.50239278  -0.00417844  1
  Al0+  Al52  1  -0.00302486  0.49917969  0.33379666  1
  Al0+  Al53  1  -0.00341884  0.49864112  0.67215604  1
  Al0+  Al54  1  0.49900447  0.00003594  0.00037783  1
  Al0+  Al55  1  0.50055292  -0.00034796  0.33506441  1
  Al0+  Al56  1  0.50022643  -0.00054829  0.66677836  1
  Al0+  Al57  1  0.50039026  0.50160676  -0.00534257  1
  Al0+  Al58  1  0.49923493  0.50025037  0.32846360  1
  Al0+  Al59  1  0.50100967  0.49872997  0.66477380  1
  Al0+  Al60  1  0.25054909  0.24990165  -0.00559172  1
  Al0+  Al61  1  0.25084151  0.24884354  0.33026268  1
  Al0+  Al62  1  0.25027317  0.24824677  0.66465705  1
  Al0+  Al63  1  0.25103168  0.75045696  0.00063989  1
  Al0+  Al64  1  0.25309869  0.74871694  0.32655679  1
  Al0+  Al65  1  0.25082387  0.74889807  0.66997031  1
  Al0+  Al66  1  0.74884732  0.25055556  0.00766465  1
  Al0+  Al67  1  0.75103467  0.24860271  0.33739225  1
  Al0+  Al68  1  0.75065303  0.24982835  0.66590736  1
  Al0+  Al69  1  0.75003338  0.74989155  -0.00407729  1
  Al0+  Al70  1  0.75061383  0.74932144  0.33155591  1
  Al0+  Al71  1  0.75045856  0.74888882  0.66670218  1
  Al0+  Al72  1  0.42882029  0.32130484  0.98420344  1
  Al0+  Al73  1  0.18050526  0.92945295  0.01525024  1
  Al0+  Al74  1  0.17838194  0.93012129  0.67750965  1
  Al0+  Al75  1  0.67923751  0.43200313  0.01444100  1
  Al0+  Al76  1  0.42822183  0.82427079  0.31583912  1
  Al0+  Al77  1  0.42733872  0.82151131  0.65149527  1
  Al0+  Al78  1  0.92924433  0.82125328  0.31975284  1
  Al0+  Al79  1  0.57045871  0.68160119  0.98422810  1
  Al0+  Al80  1  0.17727234  0.42678049  0.68234392  1
  Al0+  Al81  1  0.43037278  0.32051151  0.32050643  1
  Al0+  Al82  1  0.68038158  0.92857906  0.34785002  1
  Al0+  Al83  1  0.82028139  0.07174517  0.01618444  1
  Al0+  Al84  1  0.57100652  0.67932452  0.31676222  1
  Al0+  Al85  1  0.07285658  0.17970756  0.31733826  1
  Al0+  Al86  1  0.07343234  0.67817943  0.32112751  1
  Al0+  Al87  1  0.32165972  0.57006667  0.68109123  1
  Al0+  Al88  1  0.57203293  0.67761755  0.64966338  1
  Al0+  Al89  1  0.92744581  0.32173195  0.31942168  1
  Al0+  Al90  1  0.07004484  0.17849761  0.98317178  1
  Al0+  Al91  1  0.07253999  0.67954949  0.98456592  1
  Al0+  Al92  1  0.17821118  0.42939148  0.34536039  1
  Al0+  Al93  1  0.17896629  0.42952007  0.01416554  1
  Al0+  Al94  1  0.92631088  0.32189465  0.98482326  1
  Al0+  Al95  1  0.07025581  0.18010639  0.65192673  1
  Si0+  Si96  1  0.57485606  0.17850731  0.65267545  1
  Si0+  Si97  1  0.81865515  0.07027002  0.68167835  1
  Si0+  Si98  1  0.57119005  0.17747519  0.98569931  1
  Si0+  Si99  1  0.81938978  0.57026539  0.34906934  1
  Si0+  Si100  1  0.32384373  0.07283230  0.01744625  1
  Si0+  Si101  1  0.68043228  0.42797141  0.68028556  1
  Si0+  Si102  1  0.32059266  0.07006593  0.34757244  1
  Si0+  Si103  1  0.32461215  0.07256981  0.68276919  1
  Si0+  Si104  1  0.67757193  0.92715212  0.01541002  1
  Si0+  Si105  1  0.32425027  0.57186902  0.34872407  1
  Si0+  Si106  1  0.57224116  0.17749034  0.31894973  1
  Si0+  Si107  1  0.82056413  0.57302880  0.68319720  1
  Si0+  Si108  1  0.93003941  0.82178653  0.65407498  1
  Si0+  Si109  1  0.92924037  0.82195565  0.98355129  1
  Si0+  Si110  1  0.07015063  0.67710984  0.65424715  1
  Si0+  Si111  1  0.17881198  0.92732842  0.34676303  1
  Si0+  Si112  1  0.92533429  0.32210980  0.65026632  1
  Si0+  Si113  1  0.43024973  0.31863942  0.65066931  1
  Si0+  Si114  1  0.82316006  0.07273753  0.35529547  1
  Si0+  Si115  1  0.32248800  0.57171155  0.01746896  1
  Si0+  Si116  1  0.82218966  0.57496823  0.01858972  1
  Si0+  Si117  1  0.67659101  0.42830989  0.34924550  1
  Si0+  Si118  1  0.67901295  0.92759462  0.68268631  1
  Si0+  Si119  1  0.42758501  0.82459114  0.98154246  1
  O2-  O120  1  0.25421078  0.00544374  0.06167780  1
  O2-  O121  1  0.24983274  -0.00162985  0.38957149  1
  O2-  O122  1  0.25586762  0.00276252  0.72428623  1
  O2-  O123  1  0.25173013  0.50568884  0.06224740  1
  O2-  O124  1  0.25064225  0.50715359  0.39158988  1
  O2-  O125  1  0.24745755  0.50074740  0.73192321  1
  O2-  O126  1  0.74394315  -0.00290618  0.06032068  1
  O2-  O127  1  0.75572298  0.00165489  0.39842371  1
  O2-  O128  1  0.74764772  0.00006002  0.72594855  1
  O2-  O129  1  0.75637699  0.50328396  0.06240189  1
  O2-  O130  1  0.74822573  0.49848547  0.39177583  1
  O2-  O131  1  0.74893442  0.50119220  0.72250467  1
  O2-  O132  1  0.00179387  0.25326893  0.26950203  1
  O2-  O133  1  0.00096223  0.26087986  0.60743219  1
  O2-  O134  1  0.00139551  0.25422261  0.93291179  1
  O2-  O135  1  0.00757993  0.75620100  0.27089062  1
  O2-  O136  1  0.00085872  0.75027230  0.61235840  1
  O2-  O137  1  -0.00047931  0.75630131  0.93720731  1
  O2-  O138  1  0.50835214  0.24924591  0.27382144  1
  O2-  O139  1  0.50038691  0.24546513  0.60976828  1
  O2-  O140  1  0.50281041  0.24450878  0.93826688  1
  O2-  O141  1  0.49966457  0.75157355  0.26702731  1
  O2-  O142  1  0.50002304  0.75014110  0.60164105  1
  O2-  O143  1  0.49689213  0.75678112  0.93775114  1
  O2-  O144  1  0.06924835  0.17866320  0.09618909  1
  O2-  O145  1  0.07237224  0.17961106  0.43163778  1
  O2-  O146  1  0.06595420  0.17613207  0.76431311  1
  O2-  O147  1  0.07057388  0.68018693  0.09726739  1
  O2-  O148  1  0.07073136  0.67865290  0.43573787  1
  O2-  O149  1  0.06736735  0.67776233  0.75920905  1
  O2-  O150  1  0.56852265  0.17648789  0.09096630  1
  O2-  O151  1  0.56929917  0.17824932  0.42542415  1
  O2-  O152  1  0.57945006  0.18108493  0.75739994  1
  O2-  O153  1  0.57062530  0.68292299  0.09683392  1
  O2-  O154  1  0.56961567  0.67937740  0.43029986  1
  O2-  O155  1  0.57396247  0.67938192  0.76318778  1
  O2-  O156  1  0.17965015  0.42870891  0.23246988  1
  O2-  O157  1  0.17897271  0.42754255  0.56828105  1
  O2-  O158  1  0.18269804  0.42992401  0.90098937  1
  O2-  O159  1  0.17984183  0.92873494  0.24196938  1
  O2-  O160  1  0.17611473  0.93154905  0.56416503  1
  O2-  O161  1  0.18168797  0.93002980  0.90168704  1
  O2-  O162  1  0.67593111  0.42816991  0.24467530  1
  O2-  O163  1  0.68201859  0.42495607  0.57508710  1
  O2-  O164  1  0.67933669  0.43309395  0.90046789  1
  O2-  O165  1  0.68198168  0.93199947  0.23484238  1
  O2-  O166  1  0.68088253  0.92808053  0.57776877  1
  O2-  O167  1  0.67982165  0.92901750  0.90920692  1
  O2-  O168  1  0.43006366  0.32034027  0.09713645  1
  O2-  O169  1  0.43156997  0.31843923  0.43426351  1
  O2-  O170  1  0.43183919  0.31839487  0.75559443  1
  O2-  O171  1  0.42921237  0.82579894  0.08683548  1
  O2-  O172  1  0.42809516  0.82478886  0.42933836  1
  O2-  O173  1  0.43151476  0.82309157  0.76497607  1
  O2-  O174  1  0.92601751  0.31848649  0.09788807  1
  O2-  O175  1  0.92632421  0.31976849  0.43367401  1
  O2-  O176  1  0.91635002  0.31781807  0.75479646  1
  O2-  O177  1  0.92753010  0.81912153  0.08865363  1
  O2-  O178  1  0.92973605  0.81706138  0.43441247  1
  O2-  O179  1  0.92857427  0.82291898  0.75901149  1
  O2-  O180  1  0.32217975  0.07095759  0.24284222  1
  O2-  O181  1  0.32579344  0.07495365  0.57706801  1
  O2-  O182  1  0.32769871  0.07053371  0.91185625  1
  O2-  O183  1  0.32873672  0.56892579  0.24354744  1
  O2-  O184  1  0.32060492  0.56776148  0.56722399  1
  O2-  O185  1  0.32216740  0.56999526  0.91159407  1
  O2-  O186  1  0.81959261  0.07520336  0.25016268  1
  O2-  O187  1  0.81617172  0.06978025  0.57705217  1
  O2-  O188  1  0.81845680  0.06963475  0.90184407  1
  O2-  O189  1  0.81909347  0.57125140  0.24456260  1
  O2-  O190  1  0.82304231  0.57433975  0.57817102  1
  O2-  O191  1  0.81857340  0.57706925  0.91240036  1
  O2-  O192  1  0.04364423  0.08139294  0.26630193  1
  O2-  O193  1  0.03346017  0.08544971  0.59680738  1
  O2-  O194  1  0.03589810  0.07964872  0.93347120  1
  O2-  O195  1  0.03551603  0.58340273  0.26846444  1
  O2-  O196  1  0.03881520  0.58555646  0.60798469  1
  O2-  O197  1  0.03875458  0.58566666  0.92740365  1
  O2-  O198  1  0.54486655  0.08573942  0.27235113  1
  O2-  O199  1  0.55083018  0.08500161  0.60706959  1
  O2-  O200  1  0.54853279  0.08311375  0.93829671  1
  O2-  O201  1  0.54348781  0.58106540  0.26399581  1
  O2-  O202  1  0.54669831  0.57770988  0.59824865  1
  O2-  O203  1  0.53934663  0.58604416  0.92893838  1
  O2-  O204  1  0.17121054  0.20408754  0.26446256  1
  O2-  O205  1  0.16931505  0.20391879  0.59896203  1
  O2-  O206  1  0.16982099  0.20187340  0.93043655  1
  O2-  O207  1  0.17217169  0.69804010  0.26714296  1
  O2-  O208  1  0.16254604  0.70234190  0.60851448  1
  O2-  O209  1  0.16965607  0.71029767  0.93144993  1
  O2-  O210  1  0.66785037  0.19854546  0.27733250  1
  O2-  O211  1  0.66390693  0.20955838  0.60138961  1
  O2-  O212  1  0.66432721  0.20503735  0.94053936  1
  O2-  O213  1  0.66925249  0.70730028  0.26519416  1
  O2-  O214  1  0.67163272  0.70700224  0.59889586  1
  O2-  O215  1  0.66754043  0.71083275  0.92920645  1
  O2-  O216  1  0.08014775  0.46025733  0.06346645  1
  O2-  O217  1  0.08049741  0.45708755  0.39975580  1
  O2-  O218  1  0.07672726  0.45007542  0.73327938  1
  O2-  O219  1  0.08366230  0.95716193  0.06938951  1
  O2-  O220  1  0.08597704  0.95427982  0.39331974  1
  O2-  O221  1  0.08228629  0.96301583  0.73267319  1
  O2-  O222  1  0.58268190  0.46633606  0.06624956  1
  O2-  O223  1  0.58492942  0.45708146  0.39702444  1
  O2-  O224  1  0.58783314  0.45266066  0.72686915  1
  O2-  O225  1  0.58261047  0.94938616  0.05956874  1
  O2-  O226  1  0.58461154  0.96231795  0.40361142  1
  O2-  O227  1  0.58651931  0.95345499  0.72921413  1
  O2-  O228  1  0.21200579  0.33159682  0.06408694  1
  O2-  O229  1  0.21428290  0.33315431  0.39832713  1
  O2-  O230  1  0.21040499  0.32853305  0.73264774  1
  O2-  O231  1  0.21252801  0.83296690  0.06900718  1
  O2-  O232  1  0.20621734  0.83428456  0.39247193  1
  O2-  O233  1  0.20634640  0.83338971  0.73262026  1
  O2-  O234  1  0.70309465  0.33464058  0.06964866  1
  O2-  O235  1  0.70279509  0.33601051  0.39809748  1
  O2-  O236  1  0.70974358  0.33683851  0.72895599  1
  O2-  O237  1  0.70657256  0.83437937  0.06043623  1
  O2-  O238  1  0.71244624  0.83202635  0.40216797  1
  O2-  O239  1  0.70962612  0.83662223  0.73017394  1
  O2-  O240  1  0.45954886  0.41556073  0.26483677  1
  O2-  O241  1  0.46120781  0.40869867  0.60246002  1
  O2-  O242  1  0.46362191  0.41540875  0.92853040  1
  O2-  O243  1  0.45830902  0.92268344  0.26422792  1
  O2-  O244  1  0.45453718  0.92172136  0.60012445  1
  O2-  O245  1  0.45087554  0.91912160  0.93566040  1
  O2-  O246  1  0.94666243  0.42197726  0.26904174  1
  O2-  O247  1  0.94312115  0.41935344  0.60846759  1
  O2-  O248  1  0.94504169  0.42328371  0.93449492  1
  O2-  O249  1  0.94698427  0.92228768  0.27040880  1
  O2-  O250  1  0.95596036  0.91281026  0.60500307  1
  O2-  O251  1  0.95255754  0.91686035  0.94014992  1
  O2-  O252  1  0.33703876  0.28509695  0.26525877  1
  O2-  O253  1  0.33923657  0.29058424  0.60232851  1
  O2-  O254  1  0.33490151  0.28891966  0.92658377  1
  O2-  O255  1  0.33092752  0.79745975  0.26117992  1
  O2-  O256  1  0.32822233  0.79331645  0.59948061  1
  O2-  O257  1  0.33444464  0.79753168  0.93648291  1
  O2-  O258  1  0.82819420  0.29128955  0.26911996  1
  O2-  O259  1  0.83479187  0.29005969  0.60004191  1
  O2-  O260  1  0.82713544  0.28901343  0.93412647  1
  O2-  O261  1  0.83429880  0.78734916  0.26529901  1
  O2-  O262  1  0.83855423  0.79223690  0.60669834  1
  O2-  O263  1  0.83671889  0.79507795  0.93482015  1
  O2-  O264  1  0.41714669  0.04705259  0.06548811  1
  O2-  O265  1  0.41258815  0.04509155  0.39707208  1
  O2-  O266  1  0.41897989  0.05065445  0.73016506  1
  O2-  O267  1  0.41578095  0.54318431  0.06145869  1
  O2-  O268  1  0.41559637  0.54032259  0.39711513  1
  O2-  O269  1  0.42042970  0.53831690  0.73287900  1
  O2-  O270  1  0.91417089  0.03979415  0.07272891  1
  O2-  O271  1  0.91763851  0.04805100  0.40013678  1
  O2-  O272  1  0.90948711  0.04055416  0.72903079  1
  O2-  O273  1  0.91740470  0.55452384  0.06176174  1
  O2-  O274  1  0.90961670  0.54253965  0.40064095  1
  O2-  O275  1  0.91095510  0.54592658  0.73381388  1
  O2-  O276  1  0.29964931  0.16757358  0.06061850  1
  O2-  O277  1  0.29212216  0.16115057  0.39691944  1
  O2-  O278  1  0.29790090  0.16544672  0.72911892  1
  O2-  O279  1  0.30136742  0.66688242  0.06134167  1
  O2-  O280  1  0.30342703  0.66785816  0.39224353  1
  O2-  O281  1  0.29708101  0.66860274  0.73512246  1
  O2-  O282  1  0.78704602  0.16550539  0.07309129  1
  O2-  O283  1  0.79437863  0.16472351  0.40445011  1
  O2-  O284  1  0.78936396  0.16194263  0.72902439  1
  O2-  O285  1  0.79194868  0.66753838  0.06426425  1
  O2-  O286  1  0.79067025  0.66105802  0.39862205  1
  O2-  O287  1  0.79308441  0.66421618  0.73257678  1
