# generated using pymatgen
data_Ca2Al2SiO7
_symmetry_space_group_name_H-M   'P 1'
_cell_length_a   15.45479018
_cell_length_b   15.45394931
_cell_length_c   15.28128172
_cell_angle_alpha   89.98847287
_cell_angle_beta   90.00494522
_cell_angle_gamma   89.99938801
_symmetry_Int_Tables_number   1
_chemical_formula_structural   Ca2Al2SiO7
_chemical_formula_sum   'Ca48 Al48 Si24 O168'
_cell_volume   3649.74370680
_cell_formula_units_Z   24
loop_
 _symmetry_equiv_pos_site_id
 _symmetry_equiv_pos_as_xyz
  1  'x, y, z'
loop_
 _atom_type_symbol
 _atom_type_oxidation_number
  Ca2+  2.0
  Al0+  0.0
  Si0+  0.0
  O2-  -2.0
loop_
 _atom_site_type_symbol
 _atom_site_label
 _atom_site_symmetry_multiplicity
 _atom_site_fract_x
 _atom_site_fract_y
 _atom_site_fract_z
 _atom_site_occupancy
  Ca2+  Ca0  1  0.16771732  0.08284060  0.16784410  1
  Ca2+  Ca1  1  0.16825262  0.09139034  0.50317800  1
  Ca2+  Ca2  1  0.16754324  0.07912320  0.84534972  1
  Ca2+  Ca3  1  0.16245060  0.58250986  0.17343969  1
  Ca2+  Ca4  1  0.16719738  0.58088698  0.50142844  1
  Ca2+  Ca5  1  0.15848771  0.57173606  0.84059005  1
  Ca2+  Ca6  1  0.67178874  0.08120054  0.17823478  1
  Ca2+  Ca7  1  0.68164388  0.09178158  0.50154649  1
  Ca2+  Ca8  1  0.67763211  0.08078718  0.83502116  1
  Ca2+  Ca9  1  0.67926107  0.58380182  0.17287054  1
  Ca2+  Ca10  1  0.66962833  0.57344539  0.50467961  1
  Ca2+  Ca11  1  0.66682098  0.58713339  0.83741769  1
  Ca2+  Ca12  1  0.08188637  0.32733665  0.16305948  1
  Ca2+  Ca13  1  0.07955743  0.32501561  0.49270935  1
  Ca2+  Ca14  1  0.09131828  0.32513468  0.82939449  1
  Ca2+  Ca15  1  0.07955763  0.82274624  0.15844789  1
  Ca2+  Ca16  1  0.07735834  0.82816906  0.49591906  1
  Ca2+  Ca17  1  0.07664418  0.83414640  0.83272170  1
  Ca2+  Ca18  1  0.58715841  0.33075165  0.16989527  1
  Ca2+  Ca19  1  0.59028942  0.33201729  0.49170228  1
  Ca2+  Ca20  1  0.58093354  0.33577248  0.82782954  1
  Ca2+  Ca21  1  0.58127028  0.82681859  0.15841323  1
  Ca2+  Ca22  1  0.57844918  0.82971395  0.50114638  1
  Ca2+  Ca23  1  0.57854853  0.82162587  0.82611044  1
  Ca2+  Ca24  1  0.32424714  0.42298048  0.16989095  1
  Ca2+  Ca25  1  0.32777321  0.42311117  0.50341875  1
  Ca2+  Ca26  1  0.32082746  0.41620570  0.83701206  1
  Ca2+  Ca27  1  0.32568053  0.92445656  0.17065294  1
  Ca2+  Ca28  1  0.33361967  0.92078567  0.50241245  1
  Ca2+  Ca29  1  0.32850477  0.92089094  0.84155943  1
  Ca2+  Ca30  1  0.83391946  0.42678587  0.17580126  1
  Ca2+  Ca31  1  0.82813325  0.41453914  0.49968630  1
  Ca2+  Ca32  1  0.82658206  0.42537146  0.83852456  1
  Ca2+  Ca33  1  0.83634189  0.91955857  0.16939198  1
  Ca2+  Ca34  1  0.84136797  0.92822855  0.50460599  1
  Ca2+  Ca35  1  0.84414277  0.91694418  0.83448339  1
  Ca2+  Ca36  1  0.41696449  0.16065786  0.16579362  1
  Ca2+  Ca37  1  0.42379152  0.16912628  0.48936951  1
  Ca2+  Ca38  1  0.41419557  0.16575378  0.83176024  1
  Ca2+  Ca39  1  0.42216038  0.66152797  0.16250484  1
  Ca2+  Ca40  1  0.41692363  0.66762946  0.49716527  1
  Ca2+  Ca41  1  0.42680607  0.66964245  0.82497794  1
  Ca2+  Ca42  1  0.92238141  0.17166474  0.16693807  1
  Ca2+  Ca43  1  0.92382507  0.16788243  0.49020933  1
  Ca2+  Ca44  1  0.93167601  0.16218952  0.82674519  1
  Ca2+  Ca45  1  0.92141813  0.66536505  0.15802623  1
  Ca2+  Ca46  1  0.91906189  0.66894078  0.49346592  1
  Ca2+  Ca47  1  0.91538920  0.67586396  0.83471236  1
  Al0+  Al48  1  0.00122509  0.00118448  -0.00090862  1
  Al0+  Al49  1  0.00009934  -0.00192225  0.33271850  1
  Al0+  Al50  1  0.00310191  0.00025936  0.66188674  1
  Al0+  Al51  1  -0.00280053  0.49907429  0.00393828  1
  Al0+  Al52  1  -0.00089926  0.49995171  0.33239569  1
  Al0+  Al53  1  -0.00150853  0.49881201  0.67203668  1
  Al0+  Al54  1  0.50231710  0.00068662  0.00155735  1
  Al0+  Al55  1  0.49746326  -0.00033328  0.33320693  1
  Al0+  Al56  1  0.50220494  -0.00015364  0.66384727  1
  Al0+  Al57  1  0.49913083  0.49658597  -0.00476507  1
  Al0+  Al58  1  0.49804906  0.50022485  0.33943318  1
  Al0+  Al59  1  0.49986539  0.49945925  0.66721274  1
  Al0+  Al60  1  0.25172007  0.25202080  0.00512109  1
  Al0+  Al61  1  0.25152039  0.24932744  0.33327771  1
  Al0+  Al62  1  0.25205875  0.25055522  0.66551420  1
  Al0+  Al63  1  0.25005326  0.74989723  -0.00091309  1
  Al0+  Al64  1  0.24921091  0.75068777  0.33389147  1
  Al0+  Al65  1  0.25086910  0.75145109  0.66444698  1
  Al0+  Al66  1  0.74924094  0.25006452  -0.00161379  1
  Al0+  Al67  1  0.75000062  0.24856576  0.33019929  1
  Al0+  Al68  1  0.75183885  0.25070129  0.67984109  1
  Al0+  Al69  1  0.74906976  0.75040145  -0.00413978  1
  Al0+  Al70  1  0.74792119  0.74992053  0.33825766  1
  Al0+  Al71  1  0.74943883  0.75140487  0.65603395  1
  Al0+  Al72  1  0.07220892  0.18096755  0.65298568  1
  Al0+  Al73  1  0.07295032  0.67575110  0.98455164  1
  Al0+  Al74  1  0.17930822  0.42918967  0.67924520  1
  Al0+  Al75  1  0.82347501  0.06938842  0.68179659  1
  Al0+  Al76  1  0.81698682  0.57161671  0.01248302  1
  Al0+  Al77  1  0.31994664  0.07110261  0.34925487  1
  Al0+  Al78  1  0.68018569  0.42970677  0.34650347  1
  Al0+  Al79  1  0.42745128  0.82241446  0.65064643  1
  Al0+  Al80  1  0.31975955  0.57226760  0.34651838  1
  Al0+  Al81  1  0.82066944  0.06832272  0.34480591  1
  Al0+  Al82  1  0.32251516  0.07113685  0.01542473  1
  Al0+  Al83  1  0.07094163  0.18296996  0.98671499  1
  Al0+  Al84  1  0.92957084  0.82133695  0.98590232  1
  Al0+  Al85  1  0.17799540  0.43045657  0.01516882  1
  Al0+  Al86  1  0.67875586  0.42982239  0.68275532  1
  Al0+  Al87  1  0.57059128  0.67661738  0.64741600  1
  Al0+  Al88  1  0.57007530  0.17919530  0.32056502  1
  Al0+  Al89  1  0.82374173  0.57294652  0.35035344  1
  Al0+  Al90  1  0.92792938  0.32057104  0.31845549  1
  Al0+  Al91  1  0.07029668  0.68000874  0.32129528  1
  Al0+  Al92  1  0.93101419  0.82107500  0.65065613  1
  Al0+  Al93  1  0.17693116  0.92714687  0.01561457  1
  Al0+  Al94  1  0.56931744  0.67829533  0.98816598  1
  Al0+  Al95  1  0.07349870  0.17730811  0.31645430  1
  Si0+  Si96  1  0.42858627  0.82097068  0.31625085  1
  Si0+  Si97  1  0.18023300  0.92906250  0.68071089  1
  Si0+  Si98  1  0.67473796  0.92667836  0.35091140  1
  Si0+  Si99  1  0.82164985  0.07221419  0.01508318  1
  Si0+  Si100  1  0.42934697  0.31950236  0.65148605  1
  Si0+  Si101  1  0.92524141  0.32245022  0.98112799  1
  Si0+  Si102  1  0.92649137  0.32229201  0.65301551  1
  Si0+  Si103  1  0.42789808  0.32409708  0.31617272  1
  Si0+  Si104  1  0.17746308  0.42754294  0.34980446  1
  Si0+  Si105  1  0.17857429  0.92816245  0.35199151  1
  Si0+  Si106  1  0.32330258  0.07066526  0.68037724  1
  Si0+  Si107  1  0.82114370  0.57544557  0.68400203  1
  Si0+  Si108  1  0.32359478  0.57140303  0.01320152  1
  Si0+  Si109  1  0.57333732  0.18053327  0.65404870  1
  Si0+  Si110  1  0.67512631  0.42629756  0.01753538  1
  Si0+  Si111  1  0.68005741  0.92996331  0.01345368  1
  Si0+  Si112  1  0.43018321  0.31914946  0.98406441  1
  Si0+  Si113  1  0.56943023  0.67812023  0.31847628  1
  Si0+  Si114  1  0.67797241  0.92824961  0.68296048  1
  Si0+  Si115  1  0.42854983  0.82411142  0.98512927  1
  Si0+  Si116  1  0.57303811  0.17692008  0.98311051  1
  Si0+  Si117  1  0.07141157  0.67462368  0.65108969  1
  Si0+  Si118  1  0.92545992  0.82109772  0.31708476  1
  Si0+  Si119  1  0.32079607  0.57344001  0.68420339  1
  O2-  O120  1  0.25030863  -0.00103948  0.06441936  1
  O2-  O121  1  0.24201919  0.00131804  0.39794131  1
  O2-  O122  1  0.25342620  -0.00111968  0.72197398  1
  O2-  O123  1  0.24748914  0.51195503  0.05870338  1
  O2-  O124  1  0.24470239  0.49819508  0.39349211  1
  O2-  O125  1  0.24903715  0.50810123  0.72814457  1
  O2-  O126  1  0.75036384  0.00099063  0.05643757  1
  O2-  O127  1  0.74596520  -0.00611194  0.39329264  1
  O2-  O128  1  0.75007918  -0.00733465  0.72884402  1
  O2-  O129  1  0.74344364  0.49550475  0.05956726  1
  O2-  O130  1  0.75196452  0.50007418  0.39911211  1
  O2-  O131  1  0.75033748  0.50808139  0.72799281  1
  O2-  O132  1  0.00241804  0.25088561  0.26788746  1
  O2-  O133  1  -0.00345991  0.25532675  0.60839523  1
  O2-  O134  1  -0.00403315  0.25587727  0.93666950  1
  O2-  O135  1  -0.00933789  0.74909365  0.27410513  1
  O2-  O136  1  0.00220425  0.74226707  0.60593137  1
  O2-  O137  1  0.00334862  0.75079759  0.93545138  1
  O2-  O138  1  0.49551937  0.25374232  0.27244054  1
  O2-  O139  1  0.50424342  0.25235041  0.61025016  1
  O2-  O140  1  0.50132932  0.24751066  0.94166179  1
  O2-  O141  1  0.50021137  0.75026570  0.27442493  1
  O2-  O142  1  0.49638099  0.74801878  0.59933966  1
  O2-  O143  1  0.49148498  0.74996717  0.94147308  1
  O2-  O144  1  0.06890609  0.18330464  0.09918725  1
  O2-  O145  1  0.07257303  0.17990139  0.43053465  1
  O2-  O146  1  0.07465725  0.18020899  0.76626677  1
  O2-  O147  1  0.07044220  0.67643143  0.09817925  1
  O2-  O148  1  0.07212307  0.68359238  0.43488217  1
  O2-  O149  1  0.07146300  0.67469954  0.75633881  1
  O2-  O150  1  0.57529124  0.17603033  0.08785213  1
  O2-  O151  1  0.57009233  0.18088475  0.43420512  1
  O2-  O152  1  0.56999229  0.17998946  0.75957568  1
  O2-  O153  1  0.56888788  0.68044138  0.10170102  1
  O2-  O154  1  0.56709664  0.67915651  0.42309647  1
  O2-  O155  1  0.56862841  0.67839897  0.76162210  1
  O2-  O156  1  0.17998399  0.42806930  0.24415820  1
  O2-  O157  1  0.18314125  0.42884057  0.56637309  1
  O2-  O158  1  0.18297188  0.42715439  0.90174484  1
  O2-  O159  1  0.18184806  0.92572793  0.24685710  1
  O2-  O160  1  0.18047982  0.92947203  0.57563270  1
  O2-  O161  1  0.17830770  0.93043147  0.90116700  1
  O2-  O162  1  0.67841663  0.43342079  0.23277652  1
  O2-  O163  1  0.68067639  0.42588498  0.57027309  1
  O2-  O164  1  0.67507111  0.42562689  0.91169435  1
  O2-  O165  1  0.67397541  0.92615359  0.24468123  1
  O2-  O166  1  0.67507485  0.93319417  0.57765337  1
  O2-  O167  1  0.67702662  0.93249367  0.90851476  1
  O2-  O168  1  0.43213313  0.32216905  0.08878025  1
  O2-  O169  1  0.42779730  0.32329859  0.42214731  1
  O2-  O170  1  0.42742873  0.31626949  0.75689461  1
  O2-  O171  1  0.43322287  0.82644623  0.09084248  1
  O2-  O172  1  0.42950994  0.82135661  0.42126568  1
  O2-  O173  1  0.42919624  0.82315229  0.76451192  1
  O2-  O174  1  0.92233602  0.31922662  0.08637302  1
  O2-  O175  1  0.92834040  0.31803356  0.43273130  1
  O2-  O176  1  0.92729070  0.32102430  0.75871725  1
  O2-  O177  1  0.92665157  0.81982378  0.09934033  1
  O2-  O178  1  0.92874774  0.82276187  0.42288996  1
  O2-  O179  1  0.93396467  0.82153926  0.76351136  1
  O2-  O180  1  0.32330019  0.06635248  0.23681599  1
  O2-  O181  1  0.32347186  0.07173750  0.57548395  1
  O2-  O182  1  0.32387524  0.06960624  0.90086469  1
  O2-  O183  1  0.32165156  0.57050491  0.23323113  1
  O2-  O184  1  0.32049468  0.57173898  0.57842538  1
  O2-  O185  1  0.32796670  0.56548352  0.90780235  1
  O2-  O186  1  0.81829091  0.06609616  0.23128636  1
  O2-  O187  1  0.82141437  0.07135133  0.56879611  1
  O2-  O188  1  0.81993061  0.07218978  0.90973362  1
  O2-  O189  1  0.82003795  0.57573059  0.23661741  1
  O2-  O190  1  0.82280043  0.57280699  0.57872197  1
  O2-  O191  1  0.81345489  0.57216601  0.89910428  1
  O2-  O192  1  0.04425611  0.07788629  0.26642171  1
  O2-  O193  1  0.04348359  0.08498472  0.59803762  1
  O2-  O194  1  0.04029229  0.08604395  0.93292577  1
  O2-  O195  1  0.04629889  0.58162293  0.26909937  1
  O2-  O196  1  0.04647005  0.58034743  0.60570596  1
  O2-  O197  1  0.04026596  0.57752172  0.93326721  1
  O2-  O198  1  0.53861895  0.08227260  0.26646100  1
  O2-  O199  1  0.54650068  0.08934290  0.60611014  1
  O2-  O200  1  0.54588521  0.08523332  0.93458692  1
  O2-  O201  1  0.53864878  0.58681985  0.27216962  1
  O2-  O202  1  0.54143649  0.57728155  0.59681798  1
  O2-  O203  1  0.54168030  0.58088026  0.93338397  1
  O2-  O204  1  0.17344686  0.20391525  0.26591463  1
  O2-  O205  1  0.16891081  0.21272605  0.59916839  1
  O2-  O206  1  0.16938621  0.21362132  0.93543650  1
  O2-  O207  1  0.16593240  0.71372198  0.26664528  1
  O2-  O208  1  0.16542787  0.70138399  0.60641108  1
  O2-  O209  1  0.17394093  0.69806008  0.93290267  1
  O2-  O210  1  0.66481144  0.20862389  0.26305763  1
  O2-  O211  1  0.66679244  0.20919229  0.61117338  1
  O2-  O212  1  0.66408663  0.20566476  0.93378566  1
  O2-  O213  1  0.66232860  0.70589649  0.27281888  1
  O2-  O214  1  0.66740267  0.70585297  0.59282216  1
  O2-  O215  1  0.66209974  0.71430463  0.93106070  1
  O2-  O216  1  0.07961583  0.45310990  0.06812985  1
  O2-  O217  1  0.08391667  0.45136279  0.39554528  1
  O2-  O218  1  0.08149867  0.45329974  0.73470659  1
  O2-  O219  1  0.07938295  0.95759655  0.06890875  1
  O2-  O220  1  0.08286496  0.94798574  0.39587617  1
  O2-  O221  1  0.08991324  0.95985296  0.72829345  1
  O2-  O222  1  0.58036444  0.44943802  0.06141395  1
  O2-  O223  1  0.58178124  0.45668590  0.40081067  1
  O2-  O224  1  0.57982316  0.45665596  0.73584534  1
  O2-  O225  1  0.58949646  0.95781807  0.06383801  1
  O2-  O226  1  0.58189050  0.95393274  0.39665086  1
  O2-  O227  1  0.58600013  0.95815056  0.73148032  1
  O2-  O228  1  0.21744786  0.33834881  0.07130834  1
  O2-  O229  1  0.20635508  0.33497954  0.39591039  1
  O2-  O230  1  0.21824963  0.33469965  0.73398536  1
  O2-  O231  1  0.20410928  0.82760580  0.06786085  1
  O2-  O232  1  0.21076993  0.83747630  0.40037315  1
  O2-  O233  1  0.20561058  0.83652016  0.72836791  1
  O2-  O234  1  0.70057371  0.33148897  0.06163680  1
  O2-  O235  1  0.70721770  0.33004732  0.39755951  1
  O2-  O236  1  0.70938510  0.33557465  0.74256961  1
  O2-  O237  1  0.70728436  0.83855866  0.06141444  1
  O2-  O238  1  0.69689317  0.83320460  0.39819321  1
  O2-  O239  1  0.69978703  0.83193538  0.72444198  1
  O2-  O240  1  0.45507991  0.41731703  0.26993924  1
  O2-  O241  1  0.45213933  0.41305284  0.60627224  1
  O2-  O242  1  0.45808690  0.40875220  0.93159864  1
  O2-  O243  1  0.45676829  0.91210226  0.26815666  1
  O2-  O244  1  0.45988186  0.92005656  0.59635448  1
  O2-  O245  1  0.46083008  0.91534093  0.93715163  1
  O2-  O246  1  0.95396366  0.41976310  0.26625405  1
  O2-  O247  1  0.94884931  0.41718694  0.60825991  1
  O2-  O248  1  0.94799468  0.41713697  0.93738570  1
  O2-  O249  1  0.95378378  0.91313214  0.26985524  1
  O2-  O250  1  0.96745739  0.91499526  0.59490751  1
  O2-  O251  1  0.95694967  0.92028311  0.93265757  1
  O2-  O252  1  0.33476857  0.29869566  0.26973270  1
  O2-  O253  1  0.34071510  0.28797239  0.60067852  1
  O2-  O254  1  0.33930081  0.29000521  0.93558771  1
  O2-  O255  1  0.33732012  0.79199607  0.26938888  1
  O2-  O256  1  0.32844651  0.79729930  0.59632212  1
  O2-  O257  1  0.33312247  0.80570134  0.94090412  1
  O2-  O258  1  0.83176135  0.28969696  0.26261150  1
  O2-  O259  1  0.83246706  0.29362960  0.60992803  1
  O2-  O260  1  0.83155442  0.29554631  0.93417188  1
  O2-  O261  1  0.82878495  0.80122964  0.27460563  1
  O2-  O262  1  0.83298745  0.79903713  0.59609671  1
  O2-  O263  1  0.83179908  0.79261484  0.93047621  1
  O2-  O264  1  0.42233389  0.04347558  0.06722139  1
  O2-  O265  1  0.41593264  0.03694230  0.40364381  1
  O2-  O266  1  0.41601229  0.04442593  0.72758803  1
  O2-  O267  1  0.41385196  0.53600208  0.06170286  1
  O2-  O268  1  0.41382857  0.54016194  0.40454758  1
  O2-  O269  1  0.41316476  0.54325788  0.73003308  1
  O2-  O270  1  0.91288507  0.04504916  0.06207135  1
  O2-  O271  1  0.91713433  0.03792459  0.40004169  1
  O2-  O272  1  0.92094399  0.03689620  0.73338101  1
  O2-  O273  1  0.91281809  0.54154078  0.06728624  1
  O2-  O274  1  0.92234162  0.54554892  0.40318283  1
  O2-  O275  1  0.91370905  0.54874637  0.73194998  1
  O2-  O276  1  0.29723806  0.16968163  0.06798059  1
  O2-  O277  1  0.29631876  0.17026686  0.40238940  1
  O2-  O278  1  0.29567214  0.16255881  0.72765413  1
  O2-  O279  1  0.31066984  0.66871637  0.05521990  1
  O2-  O280  1  0.28994725  0.66860728  0.40159349  1
  O2-  O281  1  0.30083549  0.66920801  0.72803740  1
  O2-  O282  1  0.79128093  0.16388171  0.06102322  1
  O2-  O283  1  0.78782385  0.16399529  0.39861861  1
  O2-  O284  1  0.79086736  0.16282794  0.74095354  1
  O2-  O285  1  0.78419604  0.66789788  0.06622655  1
  O2-  O286  1  0.79383806  0.67109861  0.40358913  1
  O2-  O287  1  0.79496301  0.67069800  0.72609461  1
