# generated using pymatgen
data_Ca2Al2SiO7
_symmetry_space_group_name_H-M   'P 1'
_cell_length_a   15.45247588
_cell_length_b   15.45351182
_cell_length_c   15.27935232
_cell_angle_alpha   90.00291874
_cell_angle_beta   89.99645751
_cell_angle_gamma   89.98850625
_symmetry_Int_Tables_number   1
_chemical_formula_structural   Ca2Al2SiO7
_chemical_formula_sum   'Ca48 Al48 Si24 O168'
_cell_volume   3648.63313755
_cell_formula_units_Z   24
loop_
 _symmetry_equiv_pos_site_id
 _symmetry_equiv_pos_as_xyz
  1  'x, y, z'
loop_
 _atom_type_symbol
 _atom_type_oxidation_number
  Ca2+  2.0
  Al0+  0.0
  Si0+  0.0
  O2-  -2.0
loop_
 _atom_site_type_symbol
 _atom_site_label
 _atom_site_symmetry_multiplicity
 _atom_site_fract_x
 _atom_site_fract_y
 _atom_site_fract_z
 _atom_site_occupancy
  Ca2+  Ca0  1  0.16937967  0.08741090  0.16763268  1
  Ca2+  Ca1  1  0.17468452  0.07933500  0.50678007  1
  Ca2+  Ca2  1  0.17855260  0.08818069  0.84110434  1
  Ca2+  Ca3  1  0.16783849  0.58671230  0.17008429  1
  Ca2+  Ca4  1  0.15815810  0.58022181  0.50122051  1
  Ca2+  Ca5  1  0.17054571  0.58812991  0.83824423  1
  Ca2+  Ca6  1  0.67310331  0.08514174  0.17156688  1
  Ca2+  Ca7  1  0.67271381  0.07834773  0.50274121  1
  Ca2+  Ca8  1  0.66208326  0.07736301  0.83672919  1
  Ca2+  Ca9  1  0.66190180  0.57319222  0.16970948  1
  Ca2+  Ca10  1  0.67584268  0.57383879  0.50822808  1
  Ca2+  Ca11  1  0.66567812  0.57247775  0.84042514  1
  Ca2+  Ca12  1  0.07861309  0.33368698  0.16657648  1
  Ca2+  Ca13  1  0.06956410  0.33784236  0.49347844  1
  Ca2+  Ca14  1  0.08031841  0.32946549  0.82806051  1
  Ca2+  Ca15  1  0.07367665  0.82651092  0.16164246  1
  Ca2+  Ca16  1  0.08017140  0.81854316  0.49112232  1
  Ca2+  Ca17  1  0.07970197  0.82303852  0.83149220  1
  Ca2+  Ca18  1  0.58301392  0.33276437  0.16165434  1
  Ca2+  Ca19  1  0.57492563  0.34320809  0.49640705  1
  Ca2+  Ca20  1  0.58275012  0.33184611  0.82975604  1
  Ca2+  Ca21  1  0.57891035  0.82560628  0.16118388  1
  Ca2+  Ca22  1  0.57557412  0.84101954  0.49931387  1
  Ca2+  Ca23  1  0.58084629  0.82828363  0.82737787  1
  Ca2+  Ca24  1  0.32846560  0.42341185  0.17381532  1
  Ca2+  Ca25  1  0.32853570  0.41101622  0.50181840  1
  Ca2+  Ca26  1  0.33420811  0.42146459  0.84011963  1
  Ca2+  Ca27  1  0.33587051  0.92176410  0.16959836  1
  Ca2+  Ca28  1  0.33879707  0.91998816  0.50901722  1
  Ca2+  Ca29  1  0.33886552  0.92711712  0.83673494  1
  Ca2+  Ca30  1  0.82125256  0.41038982  0.17451010  1
  Ca2+  Ca31  1  0.82547049  0.41454962  0.50883650  1
  Ca2+  Ca32  1  0.82768461  0.41852794  0.83242326  1
  Ca2+  Ca33  1  0.84091793  0.92018424  0.17394191  1
  Ca2+  Ca34  1  0.83340645  0.92000025  0.50312213  1
  Ca2+  Ca35  1  0.82868857  0.91115115  0.83729261  1
  Ca2+  Ca36  1  0.42124929  0.17385731  0.16014211  1
  Ca2+  Ca37  1  0.41653113  0.17580251  0.49867733  1
  Ca2+  Ca38  1  0.41821308  0.16837655  0.82769758  1
  Ca2+  Ca39  1  0.41822062  0.66894738  0.16098422  1
  Ca2+  Ca40  1  0.41818166  0.68029034  0.49455576  1
  Ca2+  Ca41  1  0.42192043  0.66559595  0.83005993  1
  Ca2+  Ca42  1  0.91914009  0.16948892  0.16317685  1
  Ca2+  Ca43  1  0.90957708  0.17607300  0.49490926  1
  Ca2+  Ca44  1  0.92378987  0.17266404  0.83083564  1
  Ca2+  Ca45  1  0.92479846  0.67415486  0.16040157  1
  Ca2+  Ca46  1  0.92376407  0.66315653  0.49478321  1
  Ca2+  Ca47  1  0.92575737  0.66138281  0.82841096  1
  Al0+  Al48  1  0.00002825  0.00147000  -0.00965755  1
  Al0+  Al49  1  0.00228635  0.00025509  0.33851563  1
  Al0+  Al50  1  0.00201214  -0.00171311  0.66820720  1
  Al0+  Al51  1  -0.00187693  0.50125062  -0.00270923  1
  Al0+  Al52  1  0.00049677  0.49793916  0.32625436  1
  Al0+  Al53  1  -0.00000352  0.49754973  0.66394434  1
  Al0+  Al54  1  0.50083057  0.00223617  0.00374403  1
  Al0+  Al55  1  0.50098456  0.00088342  0.32892623  1
  Al0+  Al56  1  0.50141143  0.00084845  0.67083007  1
  Al0+  Al57  1  0.49808181  0.50111395  0.00563237  1
  Al0+  Al58  1  0.49770662  0.50065847  0.33504612  1
  Al0+  Al59  1  0.49958332  0.49958994  0.66469473  1
  Al0+  Al60  1  0.24932197  0.25098273  0.00256227  1
  Al0+  Al61  1  0.25145732  0.25218261  0.33434239  1
  Al0+  Al62  1  0.25142021  0.24914262  0.66739835  1
  Al0+  Al63  1  0.24835811  0.75271298  0.00177988  1
  Al0+  Al64  1  0.25203164  0.75184696  0.32556752  1
  Al0+  Al65  1  0.24931411  0.74965854  0.65824097  1
  Al0+  Al66  1  0.74774127  0.24874520  -0.00146148  1
  Al0+  Al67  1  0.74925572  0.24839944  0.33954335  1
  Al0+  Al68  1  0.74999465  0.24791005  0.66833767  1
  Al0+  Al69  1  0.74745037  0.74856506  -0.00552510  1
  Al0+  Al70  1  0.74888243  0.74948882  0.33160451  1
  Al0+  Al71  1  0.75218226  0.74946278  0.67413621  1
  Al0+  Al72  1  0.43216866  0.82078951  0.65550304  1
  Al0+  Al73  1  0.92657767  0.31890378  0.31988557  1
  Al0+  Al74  1  0.06992866  0.67938805  0.65104182  1
  Al0+  Al75  1  0.67633876  0.42821870  0.68350943  1
  Al0+  Al76  1  0.57116735  0.17914558  0.98638888  1
  Al0+  Al77  1  0.31908860  0.57246316  0.01273544  1
  Al0+  Al78  1  0.82279742  0.06937777  0.34643989  1
  Al0+  Al79  1  0.07071818  0.67697523  0.31577610  1
  Al0+  Al80  1  0.93000348  0.31745043  0.65354479  1
  Al0+  Al81  1  0.82368097  0.56950805  0.68219389  1
  Al0+  Al82  1  0.43036923  0.82359943  0.31777379  1
  Al0+  Al83  1  0.92764518  0.82203538  0.98281171  1
  Al0+  Al84  1  0.07194123  0.18107927  0.98695631  1
  Al0+  Al85  1  0.92778911  0.82269323  0.32070802  1
  Al0+  Al86  1  0.67778031  0.42889623  0.34838178  1
  Al0+  Al87  1  0.31947120  0.07033559  0.68036906  1
  Al0+  Al88  1  0.68040524  0.93018677  0.68087221  1
  Al0+  Al89  1  0.32195663  0.07219955  0.01656656  1
  Al0+  Al90  1  0.17906983  0.43001947  0.34730913  1
  Al0+  Al91  1  0.07184685  0.67838636  0.98304095  1
  Al0+  Al92  1  0.56788445  0.67717282  0.98635339  1
  Al0+  Al93  1  0.68050414  0.42876627  0.01513908  1
  Al0+  Al94  1  0.42930339  0.32197183  0.65382353  1
  Al0+  Al95  1  0.42818049  0.32178954  0.31858896  1
  Si0+  Si96  1  0.57131991  0.17902660  0.31739524  1
  Si0+  Si97  1  0.32256451  0.07108328  0.34848879  1
  Si0+  Si98  1  0.67710134  0.92656525  0.34792909  1
  Si0+  Si99  1  0.07336299  0.17791648  0.31963478  1
  Si0+  Si100  1  0.18107336  0.92853904  0.34833897  1
  Si0+  Si101  1  0.92616131  0.82302999  0.64933957  1
  Si0+  Si102  1  0.57435165  0.67698431  0.65029542  1
  Si0+  Si103  1  0.82234423  0.57290077  0.01825163  1
  Si0+  Si104  1  0.42858863  0.32178026  0.98516783  1
  Si0+  Si105  1  0.17546179  0.42787855  0.01592010  1
  Si0+  Si106  1  0.32104326  0.57459007  0.35200617  1
  Si0+  Si107  1  0.82170437  0.57213989  0.34695791  1
  Si0+  Si108  1  0.67895747  0.92715707  0.01612436  1
  Si0+  Si109  1  0.07393126  0.17649330  0.64957894  1
  Si0+  Si110  1  0.57159433  0.17723370  0.64950131  1
  Si0+  Si111  1  0.17692650  0.93079777  0.01706407  1
  Si0+  Si112  1  0.42845936  0.82358128  0.98383947  1
  Si0+  Si113  1  0.82456737  0.07210080  0.68598680  1
  Si0+  Si114  1  0.17981679  0.42926922  0.68080208  1
  Si0+  Si115  1  0.17836547  0.92507660  0.68346066  1
  Si0+  Si116  1  0.32006598  0.57295328  0.67823040  1
  Si0+  Si117  1  0.92565632  0.32166453  0.98373716  1
  Si0+  Si118  1  0.82123970  0.06931539  0.01311285  1
  Si0+  Si119  1  0.57131813  0.67757063  0.31812117  1
  O2-  O120  1  0.24639407  -0.00172944  0.06334752  1
  O2-  O121  1  0.25346395  -0.00155724  0.39113508  1
  O2-  O122  1  0.24431842  -0.00370447  0.72797164  1
  O2-  O123  1  0.24108292  0.50036692  0.05844836  1
  O2-  O124  1  0.25075847  0.50730194  0.39610305  1
  O2-  O125  1  0.25174588  0.49975975  0.72179719  1
  O2-  O126  1  0.75316741  -0.00419829  0.05685715  1
  O2-  O127  1  0.75043112  -0.00910695  0.39124087  1
  O2-  O128  1  0.75833155  0.00091099  0.72964653  1
  O2-  O129  1  0.75606127  0.50214517  0.06318763  1
  O2-  O130  1  0.75441286  0.50272197  0.39262170  1
  O2-  O131  1  0.74738230  0.50170693  0.73260629  1
  O2-  O132  1  0.00232325  0.24401414  0.27506782  1
  O2-  O133  1  0.00156361  0.24008866  0.60483465  1
  O2-  O134  1  -0.00022683  0.25806747  0.94037802  1
  O2-  O135  1  -0.00289113  0.74938548  0.26937475  1
  O2-  O136  1  -0.00599073  0.75370882  0.60544380  1
  O2-  O137  1  -0.00300123  0.74729768  0.93312653  1
  O2-  O138  1  0.50478791  0.24930984  0.27258541  1
  O2-  O139  1  0.50760336  0.25082995  0.60626608  1
  O2-  O140  1  0.49532621  0.25228444  0.93965780  1
  O2-  O141  1  0.50430448  0.74791017  0.27334941  1
  O2-  O142  1  0.50749154  0.74779820  0.60604089  1
  O2-  O143  1  0.49350795  0.75220340  0.93909296  1
  O2-  O144  1  0.06933636  0.18017519  0.10030252  1
  O2-  O145  1  0.07468519  0.17825426  0.42522522  1
  O2-  O146  1  0.07526668  0.18013351  0.75531488  1
  O2-  O147  1  0.07118367  0.68060341  0.09616404  1
  O2-  O148  1  0.06978922  0.67836869  0.42970368  1
  O2-  O149  1  0.07287132  0.68072577  0.76376120  1
  O2-  O150  1  0.57245967  0.17993022  0.09959096  1
  O2-  O151  1  0.56829781  0.17461854  0.42285917  1
  O2-  O152  1  0.56859118  0.17546309  0.75520937  1
  O2-  O153  1  0.56688752  0.67927137  0.09971317  1
  O2-  O154  1  0.57050225  0.67858774  0.42377099  1
  O2-  O155  1  0.56972891  0.67597558  0.75593166  1
  O2-  O156  1  0.18180736  0.42794688  0.23430164  1
  O2-  O157  1  0.17923235  0.42889282  0.57575693  1
  O2-  O158  1  0.17805811  0.42498160  0.90986324  1
  O2-  O159  1  0.18002471  0.93112235  0.24340038  1
  O2-  O160  1  0.17956445  0.92651940  0.57747138  1
  O2-  O161  1  0.17947316  0.93137557  0.91142843  1
  O2-  O162  1  0.67814225  0.42867494  0.23496578  1
  O2-  O163  1  0.67675218  0.43062720  0.56977790  1
  O2-  O164  1  0.68078899  0.42842747  0.90238723  1
  O2-  O165  1  0.67448537  0.92870601  0.24236472  1
  O2-  O166  1  0.67924088  0.93412699  0.56741961  1
  O2-  O167  1  0.67703408  0.92956967  0.91107334  1
  O2-  O168  1  0.42979503  0.32029942  0.09088252  1
  O2-  O169  1  0.42727463  0.31805028  0.43183574  1
  O2-  O170  1  0.42632926  0.32066982  0.76690426  1
  O2-  O171  1  0.43204596  0.82373589  0.08970981  1
  O2-  O172  1  0.43198024  0.82569343  0.43118742  1
  O2-  O173  1  0.43221348  0.81926913  0.76840897  1
  O2-  O174  1  0.92380799  0.31800691  0.08945872  1
  O2-  O175  1  0.92688603  0.31793843  0.43300514  1
  O2-  O176  1  0.93402652  0.31660358  0.76689956  1
  O2-  O177  1  0.93029607  0.82427070  0.09657737  1
  O2-  O178  1  0.92995992  0.82265186  0.43427339  1
  O2-  O179  1  0.92893314  0.82434008  0.75462792  1
  O2-  O180  1  0.32121923  0.07076318  0.24344333  1
  O2-  O181  1  0.31877197  0.06935158  0.56664714  1
  O2-  O182  1  0.32190893  0.07126739  0.90341626  1
  O2-  O183  1  0.32170343  0.57297782  0.24624581  1
  O2-  O184  1  0.31881204  0.57412799  0.57338127  1
  O2-  O185  1  0.32043617  0.56946356  0.89884932  1
  O2-  O186  1  0.82157612  0.07009812  0.23281084  1
  O2-  O187  1  0.82349699  0.07198657  0.58019923  1
  O2-  O188  1  0.81925216  0.07001825  0.90814569  1
  O2-  O189  1  0.81790267  0.57304501  0.24145676  1
  O2-  O190  1  0.82349064  0.56717133  0.56797224  1
  O2-  O191  1  0.82228140  0.57069423  0.91278809  1
  O2-  O192  1  0.05035281  0.08356220  0.27446959  1
  O2-  O193  1  0.05413609  0.07984160  0.60683255  1
  O2-  O194  1  0.04097529  0.08744600  0.92806096  1
  O2-  O195  1  0.04555507  0.57912048  0.26142553  1
  O2-  O196  1  0.03953774  0.58216709  0.59841763  1
  O2-  O197  1  0.04705626  0.57813789  0.93080527  1
  O2-  O198  1  0.54516887  0.08687573  0.26813630  1
  O2-  O199  1  0.54023651  0.08623308  0.60181667  1
  O2-  O200  1  0.54049031  0.08196703  0.93338478  1
  O2-  O201  1  0.54201042  0.58555624  0.27118862  1
  O2-  O202  1  0.54654862  0.58501051  0.60265503  1
  O2-  O203  1  0.53432094  0.58141919  0.93247224  1
  O2-  O204  1  0.16560616  0.20639729  0.27247611  1
  O2-  O205  1  0.16622391  0.20492315  0.60300641  1
  O2-  O206  1  0.16888055  0.21130356  0.93254248  1
  O2-  O207  1  0.16892946  0.70774589  0.26451457  1
  O2-  O208  1  0.16486169  0.71046601  0.59339241  1
  O2-  O209  1  0.17031596  0.71032451  0.93116490  1
  O2-  O210  1  0.66553176  0.20365315  0.27312026  1
  O2-  O211  1  0.66767518  0.19593756  0.60618955  1
  O2-  O212  1  0.66663559  0.20863884  0.92983170  1
  O2-  O213  1  0.66479730  0.70037238  0.27053349  1
  O2-  O214  1  0.66973792  0.70113505  0.60803357  1
  O2-  O215  1  0.66364665  0.70596343  0.93087895  1
  O2-  O216  1  0.07959689  0.44922397  0.05962973  1
  O2-  O217  1  0.08023287  0.45816321  0.39939642  1
  O2-  O218  1  0.08908220  0.45716413  0.72915969  1
  O2-  O219  1  0.08307018  0.96024784  0.06054129  1
  O2-  O220  1  0.09126503  0.95646459  0.39983855  1
  O2-  O221  1  0.08374559  0.94699618  0.72943901  1
  O2-  O222  1  0.58412327  0.46090305  0.06900174  1
  O2-  O223  1  0.58089778  0.46128053  0.40126395  1
  O2-  O224  1  0.57667130  0.45593664  0.73523250  1
  O2-  O225  1  0.58905121  0.95829403  0.06544015  1
  O2-  O226  1  0.58542493  0.95939357  0.39535160  1
  O2-  O227  1  0.58628295  0.96440973  0.73788821  1
  O2-  O228  1  0.20342007  0.33631072  0.06475572  1
  O2-  O229  1  0.21236107  0.33426657  0.40303648  1
  O2-  O230  1  0.20771737  0.33752987  0.72872302  1
  O2-  O231  1  0.20113408  0.83764453  0.06471955  1
  O2-  O232  1  0.20996233  0.83625521  0.39420916  1
  O2-  O233  1  0.20736603  0.83202615  0.72797376  1
  O2-  O234  1  0.71087522  0.33089046  0.06821078  1
  O2-  O235  1  0.70611851  0.33226757  0.40292000  1
  O2-  O236  1  0.70483110  0.32831779  0.73351668  1
  O2-  O237  1  0.70234505  0.83347306  0.06181729  1
  O2-  O238  1  0.69571231  0.83145955  0.39390276  1
  O2-  O239  1  0.70545682  0.83268778  0.73624234  1
  O2-  O240  1  0.45495019  0.42026263  0.26698627  1
  O2-  O241  1  0.45510041  0.41920470  0.59775623  1
  O2-  O242  1  0.45507077  0.41524851  0.94053860  1
  O2-  O243  1  0.46128750  0.91924605  0.26180706  1
  O2-  O244  1  0.46417038  0.91760349  0.60165163  1
  O2-  O245  1  0.45872778  0.91633262  0.93925175  1
  O2-  O246  1  0.95657570  0.41348040  0.26275874  1
  O2-  O247  1  0.96380833  0.41176201  0.59796311  1
  O2-  O248  1  0.94593031  0.41688847  0.93955365  1
  O2-  O249  1  0.96021355  0.92125513  0.26934590  1
  O2-  O250  1  0.95184449  0.91791951  0.60455849  1
  O2-  O251  1  0.95664409  0.91897156  0.92685827  1
  O2-  O252  1  0.33299356  0.28830912  0.26373471  1
  O2-  O253  1  0.33378661  0.28676685  0.59902654  1
  O2-  O254  1  0.33399221  0.29821100  0.94063409  1
  O2-  O255  1  0.33496042  0.79519618  0.26129556  1
  O2-  O256  1  0.33672232  0.79098183  0.59834673  1
  O2-  O257  1  0.33258361  0.80411330  0.94148578  1
  O2-  O258  1  0.83037719  0.28494417  0.26718827  1
  O2-  O259  1  0.83210055  0.28798856  0.60081708  1
  O2-  O260  1  0.83555133  0.28904123  0.93562113  1
  O2-  O261  1  0.82727315  0.80029653  0.26874383  1
  O2-  O262  1  0.83083550  0.80053580  0.60575091  1
  O2-  O263  1  0.82759196  0.79715451  0.93222861  1
  O2-  O264  1  0.41794345  0.04074269  0.07197182  1
  O2-  O265  1  0.41536308  0.04360628  0.39416944  1
  O2-  O266  1  0.41526270  0.03914357  0.73496270  1
  O2-  O267  1  0.41273117  0.53961739  0.07121727  1
  O2-  O268  1  0.41384147  0.54828319  0.39900438  1
  O2-  O269  1  0.41262577  0.54724758  0.72520584  1
  O2-  O270  1  0.91487116  0.04443744  0.05848146  1
  O2-  O271  1  0.91961506  0.04393454  0.40378242  1
  O2-  O272  1  0.92045307  0.05012467  0.72992475  1
  O2-  O273  1  0.91754540  0.55044077  0.06294897  1
  O2-  O274  1  0.91665529  0.54716205  0.38932157  1
  O2-  O275  1  0.92010140  0.53399946  0.73603490  1
  O2-  O276  1  0.29032705  0.16893886  0.07031319  1
  O2-  O277  1  0.29317623  0.16213247  0.39617837  1
  O2-  O278  1  0.28836531  0.16647240  0.73595276  1
  O2-  O279  1  0.29265346  0.67060978  0.06703016  1
  O2-  O280  1  0.29794449  0.67065918  0.39463092  1
  O2-  O281  1  0.28971322  0.66384600  0.72600812  1
  O2-  O282  1  0.79040415  0.15998474  0.06128890  1
  O2-  O283  1  0.78641016  0.16202098  0.40475538  1
  O2-  O284  1  0.79693396  0.16415486  0.73339296  1
  O2-  O285  1  0.79376571  0.66678012  0.06211660  1
  O2-  O286  1  0.79605985  0.66558559  0.39499220  1
  O2-  O287  1  0.80381909  0.66976599  0.73443731  1
