# generated using pymatgen
data_Ca2Al2SiO7
_symmetry_space_group_name_H-M   'P 1'
_cell_length_a   15.46422624
_cell_length_b   15.46414050
_cell_length_c   15.28791862
_cell_angle_alpha   90.00828422
_cell_angle_beta   90.00411060
_cell_angle_gamma   89.97871619
_symmetry_Int_Tables_number   1
_chemical_formula_structural   Ca2Al2SiO7
_chemical_formula_sum   'Ca48 Al48 Si24 O168'
_cell_volume   3655.96734791
_cell_formula_units_Z   24
loop_
 _symmetry_equiv_pos_site_id
 _symmetry_equiv_pos_as_xyz
  1  'x, y, z'
loop_
 _atom_type_symbol
 _atom_type_oxidation_number
  Ca2+  2.0
  Al0+  0.0
  Si0+  0.0
  O2-  -2.0
loop_
 _atom_site_type_symbol
 _atom_site_label
 _atom_site_symmetry_multiplicity
 _atom_site_fract_x
 _atom_site_fract_y
 _atom_site_fract_z
 _atom_site_occupancy
  Ca2+  Ca0  1  0.17268726  0.06908146  0.17747803  1
  Ca2+  Ca1  1  0.16987497  0.07968783  0.49819128  1
  Ca2+  Ca2  1  0.17134416  0.07339032  0.84139468  1
  Ca2+  Ca3  1  0.17016719  0.59116525  0.16914091  1
  Ca2+  Ca4  1  0.16245088  0.58756319  0.50241115  1
  Ca2+  Ca5  1  0.17032993  0.58938407  0.84188633  1
  Ca2+  Ca6  1  0.66796362  0.07669096  0.17142687  1
  Ca2+  Ca7  1  0.66707131  0.08166308  0.49457277  1
  Ca2+  Ca8  1  0.67220119  0.07762384  0.84472655  1
  Ca2+  Ca9  1  0.66524869  0.58178204  0.17595969  1
  Ca2+  Ca10  1  0.66080245  0.57903721  0.50869343  1
  Ca2+  Ca11  1  0.65694839  0.57639616  0.83141988  1
  Ca2+  Ca12  1  0.07748312  0.32992451  0.16797943  1
  Ca2+  Ca13  1  0.06966262  0.33433619  0.49358291  1
  Ca2+  Ca14  1  0.07572053  0.32981230  0.82680399  1
  Ca2+  Ca15  1  0.09002021  0.83074179  0.16308634  1
  Ca2+  Ca16  1  0.07525052  0.82781955  0.49394161  1
  Ca2+  Ca17  1  0.08357700  0.82550239  0.82767394  1
  Ca2+  Ca18  1  0.57775198  0.31847124  0.16725087  1
  Ca2+  Ca19  1  0.57571318  0.33051588  0.49318826  1
  Ca2+  Ca20  1  0.58135534  0.32762830  0.82735013  1
  Ca2+  Ca21  1  0.58311211  0.83665718  0.16185995  1
  Ca2+  Ca22  1  0.58656173  0.82471650  0.49272700  1
  Ca2+  Ca23  1  0.57275856  0.83389754  0.82793683  1
  Ca2+  Ca24  1  0.33807118  0.42426372  0.17203474  1
  Ca2+  Ca25  1  0.33736928  0.41501884  0.50602039  1
  Ca2+  Ca26  1  0.33555814  0.42503545  0.83713813  1
  Ca2+  Ca27  1  0.32514335  0.91341986  0.17231555  1
  Ca2+  Ca28  1  0.33212231  0.91673090  0.49898236  1
  Ca2+  Ca29  1  0.33032390  0.90656348  0.84088819  1
  Ca2+  Ca30  1  0.83358036  0.41898477  0.17347389  1
  Ca2+  Ca31  1  0.82899667  0.41543827  0.50788049  1
  Ca2+  Ca32  1  0.82909651  0.41572747  0.83282177  1
  Ca2+  Ca33  1  0.82503787  0.92511999  0.17868972  1
  Ca2+  Ca34  1  0.83273934  0.91267911  0.50032081  1
  Ca2+  Ca35  1  0.82801242  0.91903738  0.84208374  1
  Ca2+  Ca36  1  0.42803815  0.15313899  0.16746699  1
  Ca2+  Ca37  1  0.41839567  0.17659279  0.48766302  1
  Ca2+  Ca38  1  0.42565925  0.16917419  0.82792313  1
  Ca2+  Ca39  1  0.42092048  0.67202048  0.16169833  1
  Ca2+  Ca40  1  0.42810158  0.67138075  0.49997540  1
  Ca2+  Ca41  1  0.41687307  0.67666593  0.82995688  1
  Ca2+  Ca42  1  0.90094249  0.16912646  0.16688944  1
  Ca2+  Ca43  1  0.90741186  0.17787949  0.49378463  1
  Ca2+  Ca44  1  0.91474768  0.16742624  0.82996450  1
  Ca2+  Ca45  1  0.92715863  0.67872351  0.16737775  1
  Ca2+  Ca46  1  0.92343758  0.67758509  0.49295705  1
  Ca2+  Ca47  1  0.92838105  0.67447554  0.82543936  1
  Al0+  Al48  1  0.00002863  0.00255421  0.00733569  1
  Al0+  Al49  1  -0.00082727  0.00269665  0.34079453  1
  Al0+  Al50  1  0.00244975  -0.00051668  0.66614549  1
  Al0+  Al51  1  -0.00036525  0.49919869  -0.00357322  1
  Al0+  Al52  1  0.00048473  0.50070281  0.32533490  1
  Al0+  Al53  1  -0.00016650  0.49762719  0.66274060  1
  Al0+  Al54  1  0.50101356  -0.00003616  -0.00823367  1
  Al0+  Al55  1  0.49973369  -0.00027652  0.33943593  1
  Al0+  Al56  1  0.50042139  0.00133697  0.66408114  1
  Al0+  Al57  1  0.49909175  0.49929461  0.00581525  1
  Al0+  Al58  1  0.49960631  0.50075316  0.32692648  1
  Al0+  Al59  1  0.49892149  0.49868464  0.66770119  1
  Al0+  Al60  1  0.24797580  0.25189661  -0.00080192  1
  Al0+  Al61  1  0.24671034  0.25460493  0.33285798  1
  Al0+  Al62  1  0.25072463  0.24967893  0.66736127  1
  Al0+  Al63  1  0.25224325  0.74803314  0.00141455  1
  Al0+  Al64  1  0.25216472  0.74783213  0.33807560  1
  Al0+  Al65  1  0.25170468  0.74972784  0.65924920  1
  Al0+  Al66  1  0.74723985  0.25162762  -0.00249443  1
  Al0+  Al67  1  0.74586838  0.25090482  0.32895859  1
  Al0+  Al68  1  0.74986555  0.25006713  0.66925007  1
  Al0+  Al69  1  0.75091392  0.74654918  0.00150418  1
  Al0+  Al70  1  0.75336609  0.74874239  0.32849975  1
  Al0+  Al71  1  0.75154913  0.74928909  0.66497013  1
  Al0+  Al72  1  0.67861684  0.42955990  0.68051973  1
  Al0+  Al73  1  0.07052144  0.68115644  0.98617520  1
  Al0+  Al74  1  0.42884242  0.82396698  0.64929540  1
  Al0+  Al75  1  0.92995789  0.82543876  0.31702593  1
  Al0+  Al76  1  0.18102488  0.92885080  0.01159232  1
  Al0+  Al77  1  0.57036955  0.67930649  0.65464829  1
  Al0+  Al78  1  0.56944100  0.17994808  0.98406393  1
  Al0+  Al79  1  0.07265372  0.68107652  0.31670488  1
  Al0+  Al80  1  0.68001062  0.92609655  0.34995655  1
  Al0+  Al81  1  0.42936584  0.31931564  0.65521350  1
  Al0+  Al82  1  0.92872787  0.31796838  0.65436679  1
  Al0+  Al83  1  0.82034559  0.07247936  0.01424451  1
  Al0+  Al84  1  0.43184433  0.81905246  0.98875268  1
  Al0+  Al85  1  0.92863010  0.82350530  0.65336880  1
  Al0+  Al86  1  0.07192677  0.67793625  0.65225825  1
  Al0+  Al87  1  0.81954812  0.07404309  0.35071559  1
  Al0+  Al88  1  0.17865399  0.92621691  0.35191806  1
  Al0+  Al89  1  0.92734417  0.31967410  0.31878078  1
  Al0+  Al90  1  0.56788395  0.17744975  0.31818244  1
  Al0+  Al91  1  0.57237431  0.67972914  0.31931344  1
  Al0+  Al92  1  0.67769069  0.92682448  0.01274242  1
  Al0+  Al93  1  0.31975044  0.56914542  0.01423530  1
  Al0+  Al94  1  0.42511381  0.32250718  0.31705149  1
  Al0+  Al95  1  0.32077071  0.07287831  0.34817586  1
  Si0+  Si96  1  0.18207195  0.92913953  0.68235761  1
  Si0+  Si97  1  0.92883803  0.32022142  0.98369016  1
  Si0+  Si98  1  0.32212278  0.07496126  0.01288569  1
  Si0+  Si99  1  0.32311859  0.56905568  0.35141272  1
  Si0+  Si100  1  0.82106435  0.07028066  0.68149143  1
  Si0+  Si101  1  0.82415459  0.57178611  0.68360691  1
  Si0+  Si102  1  0.67856330  0.43169055  0.34734080  1
  Si0+  Si103  1  0.67844805  0.92684193  0.68177760  1
  Si0+  Si104  1  0.17696649  0.42731930  0.68175171  1
  Si0+  Si105  1  0.57333833  0.17825049  0.64918189  1
  Si0+  Si106  1  0.82442290  0.56912623  0.01523276  1
  Si0+  Si107  1  0.42689123  0.32424055  0.98307045  1
  Si0+  Si108  1  0.07250713  0.17777089  0.98549391  1
  Si0+  Si109  1  0.92762412  0.82433949  0.98532463  1
  Si0+  Si110  1  0.57466310  0.67414005  0.98388203  1
  Si0+  Si111  1  0.17505600  0.42671583  0.01746114  1
  Si0+  Si112  1  0.07196046  0.17905345  0.31708147  1
  Si0+  Si113  1  0.31925756  0.56993106  0.68130991  1
  Si0+  Si114  1  0.17677188  0.43158178  0.34900779  1
  Si0+  Si115  1  0.42975063  0.82116205  0.31767909  1
  Si0+  Si116  1  0.82287557  0.56901866  0.34735515  1
  Si0+  Si117  1  0.67916134  0.43038014  0.01681200  1
  Si0+  Si118  1  0.07322239  0.17742254  0.65060292  1
  Si0+  Si119  1  0.32198537  0.07321288  0.68286792  1
  O2-  O120  1  0.25364357  0.00638627  0.05642636  1
  O2-  O121  1  0.25031936  0.00030108  0.40059179  1
  O2-  O122  1  0.25516593  -0.00182206  0.72566127  1
  O2-  O123  1  0.24531647  0.49368102  0.06104003  1
  O2-  O124  1  0.25029362  0.49920469  0.39271524  1
  O2-  O125  1  0.24505221  0.50129296  0.72377233  1
  O2-  O126  1  0.75274415  -0.00421154  0.06231988  1
  O2-  O127  1  0.75280026  -0.00260839  0.40142678  1
  O2-  O128  1  0.75138022  -0.00258337  0.72292203  1
  O2-  O129  1  0.74821142  0.50360181  0.05822453  1
  O2-  O130  1  0.74916229  0.50183432  0.39126430  1
  O2-  O131  1  0.75231126  0.50570506  0.72858527  1
  O2-  O132  1  -0.00286102  0.24077854  0.27143969  1
  O2-  O133  1  0.00313951  0.24436584  0.60656998  1
  O2-  O134  1  -0.00079237  0.24739515  0.94345379  1
  O2-  O135  1  0.00839279  0.76001856  0.26705360  1
  O2-  O136  1  -0.00200316  0.74840450  0.60478565  1
  O2-  O137  1  -0.00244267  0.75740847  0.93965407  1
  O2-  O138  1  0.48991979  0.24395339  0.26816166  1
  O2-  O139  1  0.50195451  0.24456846  0.60686590  1
  O2-  O140  1  0.49203045  0.25291639  0.93821688  1
  O2-  O141  1  0.50223856  0.75765879  0.27215468  1
  O2-  O142  1  0.50596639  0.75618419  0.60196042  1
  O2-  O143  1  0.51027080  0.74745974  0.94193948  1
  O2-  O144  1  0.07762313  0.18032259  0.08961748  1
  O2-  O145  1  0.07503929  0.18604106  0.42270402  1
  O2-  O146  1  0.07277632  0.17816630  0.75687728  1
  O2-  O147  1  0.06972677  0.68076011  0.09849223  1
  O2-  O148  1  0.06759508  0.67678967  0.42993631  1
  O2-  O149  1  0.07310618  0.68045193  0.76641024  1
  O2-  O150  1  0.56941709  0.18063450  0.09645074  1
  O2-  O151  1  0.57015536  0.18339055  0.43187568  1
  O2-  O152  1  0.57282919  0.17934551  0.75519492  1
  O2-  O153  1  0.57261648  0.67090295  0.08916749  1
  O2-  O154  1  0.56889206  0.67491919  0.43219219  1
  O2-  O155  1  0.56601736  0.67810936  0.76845447  1
  O2-  O156  1  0.17465412  0.43309819  0.24394068  1
  O2-  O157  1  0.17738847  0.42498134  0.57702245  1
  O2-  O158  1  0.17366021  0.42611559  0.91143141  1
  O2-  O159  1  0.18304219  0.92567488  0.23782877  1
  O2-  O160  1  0.18111595  0.93170750  0.57814037  1
  O2-  O161  1  0.18193425  0.92966064  0.89774666  1
  O2-  O162  1  0.68030503  0.43375036  0.24187090  1
  O2-  O163  1  0.67920980  0.42936861  0.56753447  1
  O2-  O164  1  0.67942583  0.42992318  0.91144572  1
  O2-  O165  1  0.67945519  0.92662418  0.23644433  1
  O2-  O166  1  0.67764107  0.92697548  0.57739298  1
  O2-  O167  1  0.67892184  0.92892691  0.89821194  1
  O2-  O168  1  0.42902344  0.32663827  0.08792015  1
  O2-  O169  1  0.42999682  0.32472655  0.43091318  1
  O2-  O170  1  0.42962795  0.31808266  0.76858044  1
  O2-  O171  1  0.43020958  0.81725650  0.10150111  1
  O2-  O172  1  0.42973628  0.81702983  0.42320444  1
  O2-  O173  1  0.42678377  0.82048665  0.76323374  1
  O2-  O174  1  0.92899830  0.32218525  0.08861759  1
  O2-  O175  1  0.92883500  0.32225055  0.43189045  1
  O2-  O176  1  0.93012363  0.31617844  0.76800320  1
  O2-  O177  1  0.92780166  0.82212372  0.09012186  1
  O2-  O178  1  0.92854823  0.81819034  0.43046812  1
  O2-  O179  1  0.93141286  0.82518071  0.76769061  1
  O2-  O180  1  0.31868917  0.06998347  0.23406035  1
  O2-  O181  1  0.31828001  0.07769902  0.57868251  1
  O2-  O182  1  0.31851950  0.07713000  0.90675582  1
  O2-  O183  1  0.32356369  0.56870053  0.24631539  1
  O2-  O184  1  0.32071785  0.56688992  0.57642705  1
  O2-  O185  1  0.31911491  0.56793164  0.90054145  1
  O2-  O186  1  0.81350419  0.07575162  0.23738294  1
  O2-  O187  1  0.81963391  0.07380183  0.57726658  1
  O2-  O188  1  0.81977381  0.07290834  0.89965461  1
  O2-  O189  1  0.82216352  0.56497826  0.24180956  1
  O2-  O190  1  0.82531869  0.56835957  0.57823733  1
  O2-  O191  1  0.82735694  0.56570137  0.91024969  1
  O2-  O192  1  0.05495800  0.08230819  0.27632178  1
  O2-  O193  1  0.05053342  0.08375200  0.60546839  1
  O2-  O194  1  0.04563997  0.08583841  0.93695737  1
  O2-  O195  1  0.03868545  0.58532876  0.26141594  1
  O2-  O196  1  0.04745500  0.57809699  0.60128939  1
  O2-  O197  1  0.03971206  0.58339861  0.93289618  1
  O2-  O198  1  0.54244634  0.07726645  0.26705260  1
  O2-  O199  1  0.55115850  0.08410708  0.60438752  1
  O2-  O200  1  0.54116293  0.08483678  0.92573059  1
  O2-  O201  1  0.53739608  0.58580113  0.26256152  1
  O2-  O202  1  0.53632710  0.58263852  0.60182229  1
  O2-  O203  1  0.54259867  0.58161849  0.93836719  1
  O2-  O204  1  0.16115401  0.21273483  0.26716338  1
  O2-  O205  1  0.16579438  0.20538059  0.60513112  1
  O2-  O206  1  0.16264306  0.20744708  0.93388235  1
  O2-  O207  1  0.17498036  0.70250337  0.26889929  1
  O2-  O208  1  0.16885571  0.70552399  0.59805386  1
  O2-  O209  1  0.16775882  0.71049463  0.93324456  1
  O2-  O210  1  0.66197932  0.21393580  0.26237568  1
  O2-  O211  1  0.66569716  0.20738811  0.60455915  1
  O2-  O212  1  0.66411787  0.21634088  0.92834247  1
  O2-  O213  1  0.67052963  0.70194065  0.26551271  1
  O2-  O214  1  0.67166018  0.69772125  0.60469574  1
  O2-  O215  1  0.67091659  0.69066388  0.93932965  1
  O2-  O216  1  0.08149891  0.45324065  0.06289755  1
  O2-  O217  1  0.08548863  0.46317784  0.39636439  1
  O2-  O218  1  0.08392730  0.45108337  0.72956555  1
  O2-  O219  1  0.08507792  0.95795370  0.06683548  1
  O2-  O220  1  0.08051396  0.95482825  0.40495118  1
  O2-  O221  1  0.09070635  0.95871252  0.73108391  1
  O2-  O222  1  0.58742618  0.45520102  0.06517036  1
  O2-  O223  1  0.58636855  0.46096560  0.39324777  1
  O2-  O224  1  0.58242543  0.46037965  0.73712532  1
  O2-  O225  1  0.57914264  0.95877114  0.06290417  1
  O2-  O226  1  0.58158982  0.95338545  0.40363168  1
  O2-  O227  1  0.58616849  0.95676802  0.72851005  1
  O2-  O228  1  0.19812492  0.33246611  0.06350278  1
  O2-  O229  1  0.19882285  0.33934746  0.39783411  1
  O2-  O230  1  0.20687011  0.33649816  0.73157358  1
  O2-  O231  1  0.21538941  0.83440922  0.06604639  1
  O2-  O232  1  0.20984375  0.82842451  0.40523596  1
  O2-  O233  1  0.21011161  0.83568654  0.72714719  1
  O2-  O234  1  0.71077487  0.33993852  0.06348471  1
  O2-  O235  1  0.70543371  0.33986510  0.39345698  1
  O2-  O236  1  0.71215669  0.33404933  0.73699541  1
  O2-  O237  1  0.69847715  0.82490724  0.06196933  1
  O2-  O238  1  0.71014842  0.82608788  0.40030294  1
  O2-  O239  1  0.70396627  0.83448126  0.72978472  1
  O2-  O240  1  0.46194256  0.41687708  0.26169090  1
  O2-  O241  1  0.45944717  0.41536743  0.60156871  1
  O2-  O242  1  0.45757105  0.41674096  0.93677279  1
  O2-  O243  1  0.44813757  0.91719140  0.27558909  1
  O2-  O244  1  0.45039556  0.92478711  0.59961278  1
  O2-  O245  1  0.45622155  0.91520059  0.92994257  1
  O2-  O246  1  0.96382100  0.41302881  0.26187725  1
  O2-  O247  1  0.95789689  0.41375324  0.59936516  1
  O2-  O248  1  0.95903057  0.41018954  0.93391970  1
  O2-  O249  1  0.94842035  0.92854699  0.27131795  1
  O2-  O250  1  0.95947404  0.92051906  0.59989308  1
  O2-  O251  1  0.95050590  0.92014851  0.94238989  1
  O2-  O252  1  0.32281061  0.30716964  0.26815061  1
  O2-  O253  1  0.33178141  0.29146086  0.60176778  1
  O2-  O254  1  0.33054757  0.30468488  0.93926159  1
  O2-  O255  1  0.33783312  0.78890735  0.27257516  1
  O2-  O256  1  0.33393336  0.79047867  0.59436468  1
  O2-  O257  1  0.33758958  0.78254201  0.93294446  1
  O2-  O258  1  0.83019522  0.29404215  0.26381479  1
  O2-  O259  1  0.83209924  0.28788692  0.60093016  1
  O2-  O260  1  0.83683581  0.29413254  0.93602326  1
  O2-  O261  1  0.83582018  0.78839523  0.26115579  1
  O2-  O262  1  0.82985949  0.79818261  0.60115473  1
  O2-  O263  1  0.83468667  0.79507299  0.93847300  1
  O2-  O264  1  0.41634182  0.04779563  0.05442632  1
  O2-  O265  1  0.41871977  0.04819604  0.40337503  1
  O2-  O266  1  0.41644881  0.05032557  0.72813238  1
  O2-  O267  1  0.41573864  0.53903671  0.07069091  1
  O2-  O268  1  0.41445432  0.53756660  0.39783554  1
  O2-  O269  1  0.40862977  0.53821797  0.73123646  1
  O2-  O270  1  0.92085802  0.05543151  0.06691381  1
  O2-  O271  1  0.92116132  0.05860706  0.40202208  1
  O2-  O272  1  0.91503242  0.04568772  0.72791416  1
  O2-  O273  1  0.91307145  0.53413719  0.06426421  1
  O2-  O274  1  0.91348628  0.53630585  0.39364146  1
  O2-  O275  1  0.91631091  0.54046536  0.73095878  1
  O2-  O276  1  0.29837843  0.16902406  0.05859273  1
  O2-  O277  1  0.28978242  0.17294761  0.39854387  1
  O2-  O278  1  0.29059478  0.16300960  0.73376614  1
  O2-  O279  1  0.28830081  0.66374697  0.07032477  1
  O2-  O280  1  0.29776288  0.66031412  0.40041891  1
  O2-  O281  1  0.29300650  0.66335744  0.72686146  1
  O2-  O282  1  0.78731701  0.17098092  0.06428704  1
  O2-  O283  1  0.78409233  0.17238076  0.40227894  1
  O2-  O284  1  0.79179431  0.16107208  0.73120033  1
  O2-  O285  1  0.80301326  0.66252732  0.06174028  1
  O2-  O286  1  0.79949229  0.66201224  0.39266589  1
  O2-  O287  1  0.80310449  0.66671282  0.72939466  1
