# generated using pymatgen
data_Ca2Al2SiO7
_symmetry_space_group_name_H-M   'P 1'
_cell_length_a   15.45722130
_cell_length_b   15.45731833
_cell_length_c   15.28280728
_cell_angle_alpha   90.00307554
_cell_angle_beta   90.01187459
_cell_angle_gamma   90.01124266
_symmetry_Int_Tables_number   1
_chemical_formula_structural   Ca2Al2SiO7
_chemical_formula_sum   'Ca48 Al48 Si24 O168'
_cell_volume   3651.47804464
_cell_formula_units_Z   24
loop_
 _symmetry_equiv_pos_site_id
 _symmetry_equiv_pos_as_xyz
  1  'x, y, z'
loop_
 _atom_type_symbol
 _atom_type_oxidation_number
  Ca2+  2.0
  Al0+  0.0
  Si0+  0.0
  O2-  -2.0
loop_
 _atom_site_type_symbol
 _atom_site_label
 _atom_site_symmetry_multiplicity
 _atom_site_fract_x
 _atom_site_fract_y
 _atom_site_fract_z
 _atom_site_occupancy
  Ca2+  Ca0  1  0.16079236  0.07295780  0.16799681  1
  Ca2+  Ca1  1  0.16551182  0.07126198  0.50487782  1
  Ca2+  Ca2  1  0.16313313  0.07414528  0.84246711  1
  Ca2+  Ca3  1  0.17170215  0.58125551  0.17928064  1
  Ca2+  Ca4  1  0.17509954  0.58063871  0.50002367  1
  Ca2+  Ca5  1  0.17304332  0.58021983  0.83309829  1
  Ca2+  Ca6  1  0.66769882  0.08732773  0.17135967  1
  Ca2+  Ca7  1  0.65845847  0.07167996  0.49948956  1
  Ca2+  Ca8  1  0.66943189  0.07941489  0.84086981  1
  Ca2+  Ca9  1  0.66863897  0.58370446  0.16381396  1
  Ca2+  Ca10  1  0.67313211  0.57958896  0.51440238  1
  Ca2+  Ca11  1  0.67018956  0.58047017  0.84118148  1
  Ca2+  Ca12  1  0.07320778  0.33350608  0.15936021  1
  Ca2+  Ca13  1  0.07873086  0.34396932  0.49208202  1
  Ca2+  Ca14  1  0.08044016  0.33184201  0.83007647  1
  Ca2+  Ca15  1  0.09212571  0.82849196  0.16354458  1
  Ca2+  Ca16  1  0.08791780  0.82885782  0.49350879  1
  Ca2+  Ca17  1  0.08278756  0.83762926  0.82984815  1
  Ca2+  Ca18  1  0.58797378  0.32449977  0.15877829  1
  Ca2+  Ca19  1  0.58600402  0.32919086  0.49542125  1
  Ca2+  Ca20  1  0.59604430  0.33121358  0.83271653  1
  Ca2+  Ca21  1  0.57101016  0.83237829  0.15925904  1
  Ca2+  Ca22  1  0.58135183  0.82861476  0.49263658  1
  Ca2+  Ca23  1  0.58496880  0.82229580  0.82703686  1
  Ca2+  Ca24  1  0.32619284  0.42465121  0.17684473  1
  Ca2+  Ca25  1  0.32535441  0.42790151  0.50755998  1
  Ca2+  Ca26  1  0.33322431  0.42139872  0.83351550  1
  Ca2+  Ca27  1  0.32842186  0.90929045  0.17125516  1
  Ca2+  Ca28  1  0.32619618  0.91008414  0.49846632  1
  Ca2+  Ca29  1  0.32247940  0.90874641  0.83755074  1
  Ca2+  Ca30  1  0.83428195  0.41391978  0.16405190  1
  Ca2+  Ca31  1  0.83062058  0.42113194  0.50569393  1
  Ca2+  Ca32  1  0.82565723  0.42628507  0.84039692  1
  Ca2+  Ca33  1  0.82540569  0.92626655  0.17014442  1
  Ca2+  Ca34  1  0.81835410  0.91400301  0.50368825  1
  Ca2+  Ca35  1  0.82596485  0.92089042  0.83876403  1
  Ca2+  Ca36  1  0.42918247  0.16420453  0.16245770  1
  Ca2+  Ca37  1  0.42257877  0.16890536  0.49380350  1
  Ca2+  Ca38  1  0.42228638  0.16798513  0.83309923  1
  Ca2+  Ca39  1  0.41612813  0.67595323  0.16116492  1
  Ca2+  Ca40  1  0.41611294  0.66648385  0.49640744  1
  Ca2+  Ca41  1  0.42722684  0.66612316  0.83078565  1
  Ca2+  Ca42  1  0.91764052  0.17754849  0.15581413  1
  Ca2+  Ca43  1  0.91918604  0.17695673  0.49234498  1
  Ca2+  Ca44  1  0.91528992  0.16925749  0.83735988  1
  Ca2+  Ca45  1  0.92270106  0.66544723  0.16355648  1
  Ca2+  Ca46  1  0.92297053  0.66382214  0.49543021  1
  Ca2+  Ca47  1  0.91238196  0.66240336  0.82967949  1
  Al0+  Al48  1  -0.00121240  -0.00125182  0.00639243  1
  Al0+  Al49  1  -0.00226457  0.00117037  0.33906630  1
  Al0+  Al50  1  -0.00031848  0.00037478  0.66662451  1
  Al0+  Al51  1  -0.00076004  0.50049478  -0.00217333  1
  Al0+  Al52  1  -0.00078481  0.50146340  0.32704223  1
  Al0+  Al53  1  0.00079113  0.50019888  0.67179422  1
  Al0+  Al54  1  0.49522743  0.00072960  -0.01069800  1
  Al0+  Al55  1  0.50007028  -0.00108520  0.32920807  1
  Al0+  Al56  1  0.49888368  -0.00098169  0.66983721  1
  Al0+  Al57  1  0.49980913  0.50058518  0.00289172  1
  Al0+  Al58  1  0.50172286  0.49973141  0.33676393  1
  Al0+  Al59  1  0.50021933  0.49815162  0.66815971  1
  Al0+  Al60  1  0.25055693  0.24767436  -0.00245629  1
  Al0+  Al61  1  0.24934874  0.24867092  0.33597707  1
  Al0+  Al62  1  0.25057300  0.24819459  0.66720646  1
  Al0+  Al63  1  0.24927850  0.74929612  -0.00165258  1
  Al0+  Al64  1  0.25083929  0.74963497  0.33369197  1
  Al0+  Al65  1  0.25013772  0.74999690  0.67419349  1
  Al0+  Al66  1  0.75069969  0.25052584  -0.00246720  1
  Al0+  Al67  1  0.75213799  0.25104036  0.32722382  1
  Al0+  Al68  1  0.75248866  0.24933964  0.66537641  1
  Al0+  Al69  1  0.75101373  0.74946262  0.00272751  1
  Al0+  Al70  1  0.75115494  0.75055798  0.33589530  1
  Al0+  Al71  1  0.75012539  0.75163434  0.66812782  1
  Al0+  Al72  1  0.67908235  0.42645814  0.67978675  1
  Al0+  Al73  1  0.17927477  0.93051391  0.68071934  1
  Al0+  Al74  1  0.93160035  0.32130667  0.31868078  1
  Al0+  Al75  1  0.17855991  0.42723288  0.68271409  1
  Al0+  Al76  1  0.92949651  0.32241485  0.98001254  1
  Al0+  Al77  1  0.17681368  0.42829934  0.34547774  1
  Al0+  Al78  1  0.56879076  0.18096596  0.32062364  1
  Al0+  Al79  1  0.18028023  0.92925968  0.01546829  1
  Al0+  Al80  1  0.82292825  0.57305500  0.01888356  1
  Al0+  Al81  1  0.82106168  0.57197613  0.68020223  1
  Al0+  Al82  1  0.06934547  0.68308730  0.32113678  1
  Al0+  Al83  1  0.67817254  0.92995204  0.34463717  1
  Al0+  Al84  1  0.57181845  0.67985061  0.98572218  1
  Al0+  Al85  1  0.67865205  0.42991948  0.01734270  1
  Al0+  Al86  1  0.57126762  0.18026806  0.98427639  1
  Al0+  Al87  1  0.07072571  0.17710285  0.98531926  1
  Al0+  Al88  1  0.67734024  0.92952065  0.68077064  1
  Al0+  Al89  1  0.81859890  0.06993124  0.01367739  1
  Al0+  Al90  1  0.57146902  0.67843503  0.65200561  1
  Al0+  Al91  1  0.17864044  0.92990616  0.34714919  1
  Al0+  Al92  1  0.32215265  0.57130909  0.68413626  1
  Al0+  Al93  1  0.43076344  0.81792885  0.32092468  1
  Al0+  Al94  1  0.32294238  0.57153503  0.34787579  1
  Al0+  Al95  1  0.42606359  0.82088189  0.98180429  1
  Si0+  Si96  1  0.17944802  0.42711871  0.01410407  1
  Si0+  Si97  1  0.32264232  0.07289489  0.68427981  1
  Si0+  Si98  1  0.57626724  0.67529219  0.31787225  1
  Si0+  Si99  1  0.57199381  0.17824010  0.65096554  1
  Si0+  Si100  1  0.42736356  0.82129836  0.64865325  1
  Si0+  Si101  1  0.42746493  0.32021018  0.65054633  1
  Si0+  Si102  1  0.32393820  0.07150914  0.34911429  1
  Si0+  Si103  1  0.07143196  0.67970748  0.65291265  1
  Si0+  Si104  1  0.31965205  0.56992810  0.01599335  1
  Si0+  Si105  1  0.92944614  0.82344969  0.65120601  1
  Si0+  Si106  1  0.82176643  0.07148687  0.68209409  1
  Si0+  Si107  1  0.82013648  0.07474718  0.35115676  1
  Si0+  Si108  1  0.42711248  0.32308811  0.98394959  1
  Si0+  Si109  1  0.42652500  0.32409434  0.31856103  1
  Si0+  Si110  1  0.92949145  0.82095685  0.98672435  1
  Si0+  Si111  1  0.32286192  0.07386259  0.01756739  1
  Si0+  Si112  1  0.07093218  0.67904915  0.98352686  1
  Si0+  Si113  1  0.82064647  0.57145070  0.34802935  1
  Si0+  Si114  1  0.93178029  0.32048372  0.65083541  1
  Si0+  Si115  1  0.68077627  0.42720791  0.34762098  1
  Si0+  Si116  1  0.67458888  0.92832932  0.01503020  1
  Si0+  Si117  1  0.07216801  0.17698008  0.65023448  1
  Si0+  Si118  1  0.07352120  0.17454647  0.31823263  1
  Si0+  Si119  1  0.92515998  0.82438867  0.31703550  1
  O2-  O120  1  0.25502349  0.00422017  0.06146112  1
  O2-  O121  1  0.25068503  0.00751865  0.39372171  1
  O2-  O122  1  0.25321417  0.00490134  0.72779336  1
  O2-  O123  1  0.25004311  0.49741106  0.05756253  1
  O2-  O124  1  0.25310912  0.49563460  0.39545071  1
  O2-  O125  1  0.25114639  0.49764481  0.73393911  1
  O2-  O126  1  0.73875569  0.00051855  0.06061092  1
  O2-  O127  1  0.75323110  0.00379583  0.39434542  1
  O2-  O128  1  0.75127726  0.00504803  0.72617223  1
  O2-  O129  1  0.75079017  0.50123643  0.06893362  1
  O2-  O130  1  0.74652886  0.50325414  0.38944377  1
  O2-  O131  1  0.74546249  0.50361168  0.72900653  1
  O2-  O132  1  0.00897647  0.24737808  0.27535483  1
  O2-  O133  1  0.00552645  0.25211152  0.60761160  1
  O2-  O134  1  0.00289707  0.25057580  0.93121698  1
  O2-  O135  1  -0.00210879  0.76042424  0.27261390  1
  O2-  O136  1  -0.00019299  0.75069032  0.61059469  1
  O2-  O137  1  -0.00227766  0.74820656  0.94236371  1
  O2-  O138  1  0.49456087  0.25574523  0.27315172  1
  O2-  O139  1  0.50149674  0.25048471  0.60957851  1
  O2-  O140  1  0.49799023  0.25706377  0.93824691  1
  O2-  O141  1  0.50534460  0.74236270  0.27538765  1
  O2-  O142  1  0.49655620  0.75315306  0.60427765  1
  O2-  O143  1  0.50320508  0.75391041  0.93339757  1
  O2-  O144  1  0.06929576  0.17829384  0.09906576  1
  O2-  O145  1  0.07002178  0.17156629  0.42424724  1
  O2-  O146  1  0.06976545  0.17386631  0.75472922  1
  O2-  O147  1  0.07336057  0.68020433  0.08870668  1
  O2-  O148  1  0.06736100  0.68274014  0.43471283  1
  O2-  O149  1  0.07079634  0.68112301  0.75819798  1
  O2-  O150  1  0.56930991  0.17973909  0.09760778  1
  O2-  O151  1  0.56774484  0.18183274  0.43444892  1
  O2-  O152  1  0.57209815  0.17817079  0.75569976  1
  O2-  O153  1  0.56883842  0.68097251  0.09978335  1
  O2-  O154  1  0.57888005  0.67648347  0.42355897  1
  O2-  O155  1  0.57238907  0.68047505  0.76459517  1
  O2-  O156  1  0.17780756  0.43097039  0.23148568  1
  O2-  O157  1  0.17810618  0.42927492  0.56920100  1
  O2-  O158  1  0.18165690  0.42872780  0.90904043  1
  O2-  O159  1  0.18012350  0.92996576  0.23443037  1
  O2-  O160  1  0.17938401  0.93050176  0.56749260  1
  O2-  O161  1  0.17935687  0.92973252  0.90218528  1
  O2-  O162  1  0.68142330  0.42506755  0.24318567  1
  O2-  O163  1  0.68402302  0.42372849  0.56533022  1
  O2-  O164  1  0.67990291  0.43146565  0.90392332  1
  O2-  O165  1  0.67936668  0.93204137  0.23188093  1
  O2-  O166  1  0.67695075  0.93094284  0.56722037  1
  O2-  O167  1  0.68004507  0.92850459  0.90924404  1
  O2-  O168  1  0.42528487  0.32080449  0.08960798  1
  O2-  O169  1  0.42888694  0.32269733  0.42437621  1
  O2-  O170  1  0.42374541  0.31721335  0.75533645  1
  O2-  O171  1  0.42469525  0.81792200  0.09577179  1
  O2-  O172  1  0.43149193  0.81835896  0.43423692  1
  O2-  O173  1  0.42786339  0.82109611  0.75382007  1
  O2-  O174  1  0.93244531  0.32159819  0.09390183  1
  O2-  O175  1  0.93001284  0.32076335  0.43268336  1
  O2-  O176  1  0.93075044  0.31789768  0.75503325  1
  O2-  O177  1  0.93110066  0.82113695  0.09180067  1
  O2-  O178  1  0.92257339  0.82093062  0.42292637  1
  O2-  O179  1  0.93109889  0.82713249  0.75635567  1
  O2-  O180  1  0.32613841  0.07077089  0.24395427  1
  O2-  O181  1  0.32295305  0.07405774  0.57840356  1
  O2-  O182  1  0.32127650  0.07625532  0.91195499  1
  O2-  O183  1  0.32015990  0.57111618  0.23379810  1
  O2-  O184  1  0.31923933  0.57180738  0.57059651  1
  O2-  O185  1  0.31843599  0.56915005  0.91100986  1
  O2-  O186  1  0.81930608  0.07488943  0.24578218  1
  O2-  O187  1  0.82205789  0.07156475  0.57627788  1
  O2-  O188  1  0.81883264  0.06542130  0.90018633  1
  O2-  O189  1  0.82104088  0.57282320  0.24352149  1
  O2-  O190  1  0.82391712  0.56858681  0.56575759  1
  O2-  O191  1  0.82292856  0.57325437  0.90557318  1
  O2-  O192  1  0.04353583  0.08200285  0.27194992  1
  O2-  O193  1  0.03923359  0.08712452  0.60047755  1
  O2-  O194  1  0.03800201  0.07836876  0.93455937  1
  O2-  O195  1  0.03637701  0.58897088  0.26396473  1
  O2-  O196  1  0.04351380  0.58744148  0.60620948  1
  O2-  O197  1  0.04568887  0.58717620  0.93559719  1
  O2-  O198  1  0.53811368  0.08546127  0.26526761  1
  O2-  O199  1  0.54085411  0.08646557  0.60422026  1
  O2-  O200  1  0.53886413  0.08555002  0.92716077  1
  O2-  O201  1  0.55391395  0.58002925  0.27373782  1
  O2-  O202  1  0.54368946  0.57953631  0.59982155  1
  O2-  O203  1  0.54024529  0.58128979  0.93473636  1
  O2-  O204  1  0.16982723  0.19239926  0.27489126  1
  O2-  O205  1  0.16636572  0.19832957  0.60440393  1
  O2-  O206  1  0.17083664  0.20104272  0.93286777  1
  O2-  O207  1  0.16573145  0.71209534  0.26613876  1
  O2-  O208  1  0.16327714  0.70979582  0.60689431  1
  O2-  O209  1  0.16087114  0.70944120  0.93449693  1
  O2-  O210  1  0.66511465  0.21151413  0.26679145  1
  O2-  O211  1  0.66444331  0.20440459  0.60317300  1
  O2-  O212  1  0.66748620  0.20888853  0.92938154  1
  O2-  O213  1  0.66932552  0.70285792  0.27178494  1
  O2-  O214  1  0.66889151  0.71078090  0.59854775  1
  O2-  O215  1  0.67219739  0.70560212  0.93490695  1
  O2-  O216  1  0.08729375  0.45604809  0.05884818  1
  O2-  O217  1  0.07970223  0.46319673  0.39764306  1
  O2-  O218  1  0.08191137  0.45700894  0.73708067  1
  O2-  O219  1  0.08406279  0.95812801  0.07080930  1
  O2-  O220  1  0.08044796  0.95613037  0.40210113  1
  O2-  O221  1  0.08206500  0.96174912  0.73334100  1
  O2-  O222  1  0.57903557  0.45573490  0.07074518  1
  O2-  O223  1  0.58708122  0.44782951  0.39480523  1
  O2-  O224  1  0.57803422  0.44378068  0.72940897  1
  O2-  O225  1  0.57748497  0.95090303  0.05387368  1
  O2-  O226  1  0.58278850  0.96282558  0.39997948  1
  O2-  O227  1  0.58121885  0.95874360  0.73532694  1
  O2-  O228  1  0.20603018  0.33449494  0.06021841  1
  O2-  O229  1  0.19675638  0.32705392  0.39720880  1
  O2-  O230  1  0.20511553  0.32715620  0.73295387  1
  O2-  O231  1  0.21188466  0.83154164  0.06733936  1
  O2-  O232  1  0.21294932  0.83486064  0.40135165  1
  O2-  O233  1  0.20760438  0.83484822  0.73658200  1
  O2-  O234  1  0.70841456  0.33064520  0.06746123  1
  O2-  O235  1  0.71405547  0.33717675  0.39573529  1
  O2-  O236  1  0.71264690  0.32936477  0.73236209  1
  O2-  O237  1  0.70375134  0.83676183  0.06214428  1
  O2-  O238  1  0.71000487  0.83388597  0.40070204  1
  O2-  O239  1  0.71205099  0.83540387  0.73528705  1
  O2-  O240  1  0.45190183  0.41793718  0.27279981  1
  O2-  O241  1  0.45286663  0.41207033  0.60261190  1
  O2-  O242  1  0.44956912  0.41776017  0.93951588  1
  O2-  O243  1  0.46109126  0.91368102  0.26501509  1
  O2-  O244  1  0.45126709  0.91675253  0.60453426  1
  O2-  O245  1  0.44331135  0.92126869  0.92910368  1
  O2-  O246  1  0.95971332  0.41690800  0.26230560  1
  O2-  O247  1  0.95840050  0.41364170  0.60468556  1
  O2-  O248  1  0.95829902  0.42131825  0.92832131  1
  O2-  O249  1  0.94545076  0.92101411  0.27556724  1
  O2-  O250  1  0.95825736  0.91415774  0.60130776  1
  O2-  O251  1  0.96012789  0.91114173  0.93816072  1
  O2-  O252  1  0.33179908  0.30012875  0.27365925  1
  O2-  O253  1  0.33708827  0.28912430  0.60070598  1
  O2-  O254  1  0.33529295  0.29460807  0.93502446  1
  O2-  O255  1  0.33471443  0.78758294  0.26605315  1
  O2-  O256  1  0.33246592  0.79410020  0.60510682  1
  O2-  O257  1  0.32970204  0.78546221  0.92843720  1
  O2-  O258  1  0.83712858  0.28787897  0.26273094  1
  O2-  O259  1  0.84117342  0.28928645  0.60120354  1
  O2-  O260  1  0.83201527  0.29137732  0.92819308  1
  O2-  O261  1  0.83374972  0.79469931  0.26873537  1
  O2-  O262  1  0.83765353  0.79641319  0.60332011  1
  O2-  O263  1  0.83696277  0.79626503  0.93904304  1
  O2-  O264  1  0.41755722  0.04804756  0.06144306  1
  O2-  O265  1  0.41502696  0.04090542  0.39759613  1
  O2-  O266  1  0.41567452  0.04773587  0.73119259  1
  O2-  O267  1  0.41123171  0.54503656  0.06434485  1
  O2-  O268  1  0.42251350  0.54661519  0.40122107  1
  O2-  O269  1  0.41978361  0.54096772  0.73631641  1
  O2-  O270  1  0.91183635  0.03479140  0.07121853  1
  O2-  O271  1  0.91376277  0.05207648  0.39878507  1
  O2-  O272  1  0.91417589  0.04371574  0.72857619  1
  O2-  O273  1  0.92297698  0.54422531  0.06946802  1
  O2-  O274  1  0.91149036  0.53986774  0.39461579  1
  O2-  O275  1  0.91796778  0.54275562  0.73442348  1
  O2-  O276  1  0.29879297  0.16743685  0.06516003  1
  O2-  O277  1  0.30402951  0.16660247  0.39573187  1
  O2-  O278  1  0.29844688  0.16604081  0.73106925  1
  O2-  O279  1  0.28733004  0.66067106  0.06221337  1
  O2-  O280  1  0.28951014  0.66727773  0.40222017  1
  O2-  O281  1  0.29120488  0.66755082  0.73915514  1
  O2-  O282  1  0.79176330  0.16774281  0.06595114  1
  O2-  O283  1  0.79205459  0.16770563  0.39760996  1
  O2-  O284  1  0.79747113  0.16496204  0.72781984  1
  O2-  O285  1  0.79654225  0.67228790  0.07245418  1
  O2-  O286  1  0.79759878  0.66403251  0.39675560  1
  O2-  O287  1  0.79905209  0.67213088  0.73103780  1
