# generated using pymatgen
data_Ca2Al2SiO7
_symmetry_space_group_name_H-M   'P 1'
_cell_length_a   15.45770173
_cell_length_b   15.45704978
_cell_length_c   15.28321089
_cell_angle_alpha   89.98967909
_cell_angle_beta   90.00335745
_cell_angle_gamma   90.00865986
_symmetry_Int_Tables_number   1
_chemical_formula_structural   Ca2Al2SiO7
_chemical_formula_sum   'Ca48 Al48 Si24 O168'
_cell_volume   3651.62457874
_cell_formula_units_Z   24
loop_
 _symmetry_equiv_pos_site_id
 _symmetry_equiv_pos_as_xyz
  1  'x, y, z'
loop_
 _atom_type_symbol
 _atom_type_oxidation_number
  Ca2+  2.0
  Al0+  0.0
  Si0+  0.0
  O2-  -2.0
loop_
 _atom_site_type_symbol
 _atom_site_label
 _atom_site_symmetry_multiplicity
 _atom_site_fract_x
 _atom_site_fract_y
 _atom_site_fract_z
 _atom_site_occupancy
  Ca2+  Ca0  1  0.17491995  0.08417263  0.17658789  1
  Ca2+  Ca1  1  0.17539046  0.08537050  0.49746780  1
  Ca2+  Ca2  1  0.18133416  0.08794740  0.83966276  1
  Ca2+  Ca3  1  0.15804116  0.57902854  0.16732955  1
  Ca2+  Ca4  1  0.17378359  0.58465585  0.50464525  1
  Ca2+  Ca5  1  0.17173620  0.58039038  0.84195703  1
  Ca2+  Ca6  1  0.67800440  0.08556849  0.17200449  1
  Ca2+  Ca7  1  0.66266322  0.07200281  0.50465168  1
  Ca2+  Ca8  1  0.66283119  0.08023613  0.84103400  1
  Ca2+  Ca9  1  0.66887131  0.57403240  0.17125331  1
  Ca2+  Ca10  1  0.65520754  0.57825932  0.50110603  1
  Ca2+  Ca11  1  0.67009890  0.57679556  0.84270240  1
  Ca2+  Ca12  1  0.07800204  0.32831638  0.15920623  1
  Ca2+  Ca13  1  0.08041352  0.32604025  0.49143767  1
  Ca2+  Ca14  1  0.07846656  0.34011313  0.83848612  1
  Ca2+  Ca15  1  0.08469791  0.82544928  0.15992230  1
  Ca2+  Ca16  1  0.08691839  0.82970373  0.48835873  1
  Ca2+  Ca17  1  0.07599887  0.83353091  0.83623242  1
  Ca2+  Ca18  1  0.57497008  0.33339238  0.15896713  1
  Ca2+  Ca19  1  0.57639932  0.32719881  0.49193813  1
  Ca2+  Ca20  1  0.58851019  0.31934691  0.83509341  1
  Ca2+  Ca21  1  0.59294188  0.82941525  0.16724006  1
  Ca2+  Ca22  1  0.59190515  0.82516710  0.49564335  1
  Ca2+  Ca23  1  0.58577276  0.82782383  0.82460031  1
  Ca2+  Ca24  1  0.33072953  0.40847105  0.16829128  1
  Ca2+  Ca25  1  0.33719442  0.42078036  0.50174196  1
  Ca2+  Ca26  1  0.33045887  0.41942929  0.84063606  1
  Ca2+  Ca27  1  0.32946078  0.93014947  0.17302661  1
  Ca2+  Ca28  1  0.33100489  0.92640729  0.50138720  1
  Ca2+  Ca29  1  0.33809901  0.92967570  0.83771281  1
  Ca2+  Ca30  1  0.82149177  0.41219555  0.16588634  1
  Ca2+  Ca31  1  0.82504796  0.41686348  0.49895846  1
  Ca2+  Ca32  1  0.82805478  0.42207855  0.84931243  1
  Ca2+  Ca33  1  0.83484848  0.92522695  0.17131173  1
  Ca2+  Ca34  1  0.82507333  0.92064839  0.49787799  1
  Ca2+  Ca35  1  0.82804646  0.92063935  0.84041827  1
  Ca2+  Ca36  1  0.41798651  0.17271377  0.15858135  1
  Ca2+  Ca37  1  0.41616324  0.16666260  0.49500784  1
  Ca2+  Ca38  1  0.42267205  0.16675223  0.83214023  1
  Ca2+  Ca39  1  0.42350200  0.66942994  0.16551220  1
  Ca2+  Ca40  1  0.42490007  0.66516378  0.49418975  1
  Ca2+  Ca41  1  0.42173716  0.66624721  0.82525989  1
  Ca2+  Ca42  1  0.91893691  0.16311297  0.15960102  1
  Ca2+  Ca43  1  0.92293437  0.16301882  0.49166041  1
  Ca2+  Ca44  1  0.90729367  0.17441973  0.83550273  1
  Ca2+  Ca45  1  0.92399723  0.67252124  0.15541207  1
  Ca2+  Ca46  1  0.92493451  0.67124736  0.49013616  1
  Ca2+  Ca47  1  0.91736032  0.66651828  0.83705788  1
  Al0+  Al48  1  0.00079574  -0.00253855  -0.00378370  1
  Al0+  Al49  1  0.00130849  -0.00009519  0.33719359  1
  Al0+  Al50  1  -0.00144489  0.00082729  0.66598878  1
  Al0+  Al51  1  0.00212829  0.50020624  -0.00058581  1
  Al0+  Al52  1  -0.00075050  0.49994569  0.33166758  1
  Al0+  Al53  1  -0.00141602  0.50046889  0.66359670  1
  Al0+  Al54  1  0.49948575  -0.00137643  0.00299733  1
  Al0+  Al55  1  0.50089772  -0.00043684  0.34033551  1
  Al0+  Al56  1  0.49952780  -0.00111685  0.67046679  1
  Al0+  Al57  1  0.49805393  0.50018612  -0.00078662  1
  Al0+  Al58  1  0.50008689  0.49977921  0.32808403  1
  Al0+  Al59  1  0.49917355  0.49907484  0.66922104  1
  Al0+  Al60  1  0.25112788  0.25276468  0.00309972  1
  Al0+  Al61  1  0.24780330  0.25156843  0.33101654  1
  Al0+  Al62  1  0.24750946  0.25070159  0.67083840  1
  Al0+  Al63  1  0.25189408  0.75013777  -0.00555382  1
  Al0+  Al64  1  0.25193451  0.74953779  0.33088230  1
  Al0+  Al65  1  0.24918590  0.75039603  0.67181977  1
  Al0+  Al66  1  0.74969050  0.24838801  0.00033191  1
  Al0+  Al67  1  0.74946614  0.25272704  0.34417519  1
  Al0+  Al68  1  0.74904233  0.25008876  0.65929748  1
  Al0+  Al69  1  0.75174049  0.74956766  -0.00127364  1
  Al0+  Al70  1  0.75255337  0.74921324  0.33123238  1
  Al0+  Al71  1  0.75099323  0.74991981  0.66483778  1
  Al0+  Al72  1  0.67656593  0.43121842  0.34901083  1
  Al0+  Al73  1  0.57039615  0.67865547  0.65352457  1
  Al0+  Al74  1  0.42706346  0.32223882  0.98274919  1
  Al0+  Al75  1  0.18039945  0.92714321  0.34629476  1
  Al0+  Al76  1  0.57083703  0.17783073  0.98773457  1
  Al0+  Al77  1  0.57187016  0.67996687  0.31804484  1
  Al0+  Al78  1  0.42973325  0.31964499  0.32020622  1
  Al0+  Al79  1  0.07231275  0.67805930  0.98216665  1
  Al0+  Al80  1  0.18038765  0.43122391  0.01496310  1
  Al0+  Al81  1  0.68100434  0.92854748  0.68144702  1
  Al0+  Al82  1  0.67988599  0.92717930  0.34824484  1
  Al0+  Al83  1  0.06846734  0.17907453  0.31991899  1
  Al0+  Al84  1  0.92803606  0.82243043  0.98338098  1
  Al0+  Al85  1  0.56995344  0.17728416  0.65102996  1
  Al0+  Al86  1  0.92920303  0.31864146  0.98850000  1
  Al0+  Al87  1  0.32135330  0.07128505  0.01505102  1
  Al0+  Al88  1  0.82114299  0.06998648  0.01115925  1
  Al0+  Al89  1  0.32126492  0.57062159  0.67961263  1
  Al0+  Al90  1  0.82241560  0.07321615  0.34941919  1
  Al0+  Al91  1  0.31955124  0.07100181  0.68214119  1
  Al0+  Al92  1  0.67756726  0.42824072  0.01433163  1
  Al0+  Al93  1  0.32084937  0.07464675  0.34862007  1
  Al0+  Al94  1  0.07369045  0.67866585  0.31972613  1
  Al0+  Al95  1  0.82173029  0.57252043  0.01534266  1
  Si0+  Si96  1  0.92925982  0.82172909  0.64906536  1
  Si0+  Si97  1  0.57123115  0.67922102  0.98505866  1
  Si0+  Si98  1  0.07321291  0.17703510  0.98321787  1
  Si0+  Si99  1  0.42847845  0.82345233  0.31686600  1
  Si0+  Si100  1  0.17688985  0.43023902  0.34853272  1
  Si0+  Si101  1  0.92967422  0.82173217  0.31684856  1
  Si0+  Si102  1  0.42624468  0.32053781  0.65093035  1
  Si0+  Si103  1  0.92821771  0.32260584  0.65008277  1
  Si0+  Si104  1  0.82230587  0.07292470  0.68395850  1
  Si0+  Si105  1  0.17533125  0.42936834  0.68281973  1
  Si0+  Si106  1  0.67719327  0.92659151  0.01592647  1
  Si0+  Si107  1  0.82262448  0.57077367  0.35050389  1
  Si0+  Si108  1  0.92594607  0.32257631  0.31703433  1
  Si0+  Si109  1  0.42984761  0.82099885  0.98447776  1
  Si0+  Si110  1  0.32133705  0.57032092  0.34603555  1
  Si0+  Si111  1  0.42636931  0.82182955  0.65011750  1
  Si0+  Si112  1  0.32279660  0.57493412  0.01839124  1
  Si0+  Si113  1  0.07081971  0.67958880  0.65100221  1
  Si0+  Si114  1  0.17505454  0.92736551  0.68535224  1
  Si0+  Si115  1  0.82236639  0.56985144  0.68046952  1
  Si0+  Si116  1  0.07109742  0.17991139  0.65257362  1
  Si0+  Si117  1  0.67927813  0.42816915  0.68160402  1
  Si0+  Si118  1  0.57317678  0.17610935  0.31920078  1
  Si0+  Si119  1  0.17926170  0.92758076  0.01465540  1
  O2-  O120  1  0.24299621  -0.00034455  0.05977319  1
  O2-  O121  1  0.25051910  0.00000674  0.39808028  1
  O2-  O122  1  0.24447338  -0.00435158  0.72862318  1
  O2-  O123  1  0.25456542  0.50624289  0.06270900  1
  O2-  O124  1  0.24778705  0.50194085  0.38959653  1
  O2-  O125  1  0.24496241  0.49748818  0.72548034  1
  O2-  O126  1  0.74653684  -0.00456723  0.05777357  1
  O2-  O127  1  0.74713967  0.00379308  0.39870646  1
  O2-  O128  1  0.75177157  0.00671899  0.72828190  1
  O2-  O129  1  0.74949387  0.50064901  0.06457481  1
  O2-  O130  1  0.75102151  0.50640003  0.39724205  1
  O2-  O131  1  0.75057471  0.49964461  0.72245725  1
  O2-  O132  1  -0.01048759  0.24914655  0.27386820  1
  O2-  O133  1  -0.00137394  0.24995925  0.61018934  1
  O2-  O134  1  0.00196372  0.24308941  0.93809780  1
  O2-  O135  1  0.00103406  0.75506416  0.27426660  1
  O2-  O136  1  0.00324698  0.75292030  0.60727513  1
  O2-  O137  1  -0.00126399  0.74890534  0.93243493  1
  O2-  O138  1  0.50257268  0.24246900  0.27513428  1
  O2-  O139  1  0.49285042  0.25063792  0.60565013  1
  O2-  O140  1  0.49955248  0.24976666  0.93480602  1
  O2-  O141  1  0.50160842  0.75927766  0.27199054  1
  O2-  O142  1  0.49438469  0.75217452  0.60592950  1
  O2-  O143  1  0.50103968  0.75029163  0.94193511  1
  O2-  O144  1  0.07230475  0.17791286  0.08873219  1
  O2-  O145  1  0.06963910  0.18391378  0.43399656  1
  O2-  O146  1  0.07198956  0.18075118  0.75736205  1
  O2-  O147  1  0.07320217  0.68146172  0.09572155  1
  O2-  O148  1  0.07191790  0.67815187  0.43397698  1
  O2-  O149  1  0.06831292  0.67691339  0.75529243  1
  O2-  O150  1  0.57078369  0.17691323  0.10115611  1
  O2-  O151  1  0.57078894  0.17829384  0.42528597  1
  O2-  O152  1  0.57297105  0.17934183  0.76372722  1
  O2-  O153  1  0.57018065  0.68059926  0.09014261  1
  O2-  O154  1  0.56750729  0.67832811  0.43142296  1
  O2-  O155  1  0.57024413  0.67949670  0.76683418  1
  O2-  O156  1  0.17517536  0.43041412  0.24404192  1
  O2-  O157  1  0.17296896  0.42988574  0.57688951  1
  O2-  O158  1  0.18107101  0.43286830  0.90119881  1
  O2-  O159  1  0.18302479  0.92628403  0.23293282  1
  O2-  O160  1  0.17467485  0.92585335  0.57994065  1
  O2-  O161  1  0.18216212  0.92813659  0.90860022  1
  O2-  O162  1  0.67648531  0.43118796  0.23661150  1
  O2-  O163  1  0.67940207  0.42970986  0.57633157  1
  O2-  O164  1  0.68003281  0.43000959  0.89981042  1
  O2-  O165  1  0.68360202  0.92580902  0.23478790  1
  O2-  O166  1  0.68470852  0.92648692  0.56883421  1
  O2-  O167  1  0.67631898  0.92598995  0.90997583  1
  O2-  O168  1  0.42762032  0.32034579  0.09637177  1
  O2-  O169  1  0.43039173  0.32213912  0.43402850  1
  O2-  O170  1  0.42650215  0.32072726  0.75591665  1
  O2-  O171  1  0.42865651  0.82008944  0.08940688  1
  O2-  O172  1  0.42452139  0.81878521  0.42239647  1
  O2-  O173  1  0.42786734  0.82019105  0.75610294  1
  O2-  O174  1  0.92990305  0.31636599  0.10122609  1
  O2-  O175  1  0.93099850  0.32614192  0.42344102  1
  O2-  O176  1  0.92735220  0.32515271  0.75489775  1
  O2-  O177  1  0.93011282  0.82354524  0.09666146  1
  O2-  O178  1  0.92941183  0.81785676  0.42327354  1
  O2-  O179  1  0.92926583  0.82113622  0.75369010  1
  O2-  O180  1  0.31889681  0.07431653  0.23530235  1
  O2-  O181  1  0.31625383  0.07223059  0.56939058  1
  O2-  O182  1  0.32154196  0.06846898  0.90147824  1
  O2-  O183  1  0.32191456  0.57016332  0.24142960  1
  O2-  O184  1  0.31978186  0.56931824  0.56591884  1
  O2-  O185  1  0.32224722  0.57522713  0.91240361  1
  O2-  O186  1  0.82287251  0.07214807  0.23576880  1
  O2-  O187  1  0.82542177  0.07047528  0.57870658  1
  O2-  O188  1  0.81867340  0.06970059  0.89767740  1
  O2-  O189  1  0.82350475  0.56829479  0.24569524  1
  O2-  O190  1  0.82683223  0.56733734  0.57543534  1
  O2-  O191  1  0.81758702  0.57131626  0.90051546  1
  O2-  O192  1  0.04411046  0.08025585  0.26801107  1
  O2-  O193  1  0.04401581  0.08758008  0.60518710  1
  O2-  O194  1  0.05328356  0.08241504  0.93719400  1
  O2-  O195  1  0.04065443  0.58227286  0.26727546  1
  O2-  O196  1  0.04119844  0.58825230  0.60220053  1
  O2-  O197  1  0.04523454  0.57979603  0.92857730  1
  O2-  O198  1  0.55334264  0.08016890  0.27620876  1
  O2-  O199  1  0.53982745  0.07922774  0.59999932  1
  O2-  O200  1  0.54148514  0.07861696  0.93515456  1
  O2-  O201  1  0.53541841  0.58656567  0.26254205  1
  O2-  O202  1  0.53842034  0.58122813  0.60071821  1
  O2-  O203  1  0.54264801  0.58803506  0.93719263  1
  O2-  O204  1  0.16245171  0.21484271  0.26508577  1
  O2-  O205  1  0.16169412  0.21035673  0.60373777  1
  O2-  O206  1  0.16499645  0.20898457  0.93738138  1
  O2-  O207  1  0.17084366  0.70500819  0.26532513  1
  O2-  O208  1  0.16461027  0.70506382  0.60587716  1
  O2-  O209  1  0.17072674  0.70801396  0.92832467  1
  O2-  O210  1  0.66791381  0.20521302  0.27812251  1
  O2-  O211  1  0.66592493  0.20889135  0.59527664  1
  O2-  O212  1  0.66819353  0.20646806  0.93192486  1
  O2-  O213  1  0.67017908  0.70626344  0.26532876  1
  O2-  O214  1  0.66768607  0.70812931  0.59939599  1
  O2-  O215  1  0.66315133  0.70540983  0.93736921  1
  O2-  O216  1  0.08423724  0.46085574  0.06955448  1
  O2-  O217  1  0.08547615  0.45775788  0.39799616  1
  O2-  O218  1  0.08184364  0.45741928  0.72849836  1
  O2-  O219  1  0.08360056  0.94646614  0.05778015  1
  O2-  O220  1  0.08240466  0.95245761  0.40127352  1
  O2-  O221  1  0.08116631  0.95483888  0.73033841  1
  O2-  O222  1  0.57880704  0.45784905  0.06534388  1
  O2-  O223  1  0.58044520  0.46535643  0.40283444  1
  O2-  O224  1  0.58772612  0.45475264  0.72877360  1
  O2-  O225  1  0.58389220  0.94908356  0.06317630  1
  O2-  O226  1  0.58017412  0.94808209  0.40259616  1
  O2-  O227  1  0.58266098  0.95355017  0.73442145  1
  O2-  O228  1  0.20955752  0.33513170  0.07038028  1
  O2-  O229  1  0.20604262  0.33974428  0.39746785  1
  O2-  O230  1  0.19840301  0.33607299  0.72984297  1
  O2-  O231  1  0.20972050  0.83471960  0.05921727  1
  O2-  O232  1  0.21052943  0.82869745  0.40069582  1
  O2-  O233  1  0.19835813  0.83354365  0.73215650  1
  O2-  O234  1  0.70764034  0.33086193  0.06697524  1
  O2-  O235  1  0.70695084  0.33705761  0.40828410  1
  O2-  O236  1  0.70969651  0.33588806  0.72613501  1
  O2-  O237  1  0.70334909  0.83298227  0.06067533  1
  O2-  O238  1  0.71315509  0.82919200  0.40134948  1
  O2-  O239  1  0.71488754  0.83203356  0.73491496  1
  O2-  O240  1  0.46101329  0.41474794  0.26443233  1
  O2-  O241  1  0.45461285  0.41387312  0.60521251  1
  O2-  O242  1  0.45186064  0.42271380  0.93140048  1
  O2-  O243  1  0.45008366  0.91921199  0.27369540  1
  O2-  O244  1  0.45172143  0.91525207  0.60507139  1
  O2-  O245  1  0.45831930  0.91212041  0.93624040  1
  O2-  O246  1  0.95640558  0.41390356  0.27013030  1
  O2-  O247  1  0.95797627  0.41323622  0.60020491  1
  O2-  O248  1  0.96203690  0.41429576  0.93303689  1
  O2-  O249  1  0.95263348  0.91649368  0.27385127  1
  O2-  O250  1  0.95426384  0.91501768  0.60268218  1
  O2-  O251  1  0.95911124  0.91869044  0.92518978  1
  O2-  O252  1  0.33168515  0.29344662  0.26761007  1
  O2-  O253  1  0.33026250  0.29865805  0.60667354  1
  O2-  O254  1  0.32814634  0.29435109  0.93034065  1
  O2-  O255  1  0.33842290  0.79183088  0.26708328  1
  O2-  O256  1  0.33112637  0.79732832  0.60629518  1
  O2-  O257  1  0.33956430  0.79423639  0.93336896  1
  O2-  O258  1  0.82894544  0.30302394  0.27706859  1
  O2-  O259  1  0.83721812  0.29660718  0.60013609  1
  O2-  O260  1  0.83370168  0.28885598  0.93122989  1
  O2-  O261  1  0.83810615  0.79389764  0.26899737  1
  O2-  O262  1  0.83979122  0.78940609  0.60021174  1
  O2-  O263  1  0.82955959  0.79379466  0.92900606  1
  O2-  O264  1  0.41570351  0.03565694  0.06980152  1
  O2-  O265  1  0.41921411  0.04772602  0.40214581  1
  O2-  O266  1  0.41525714  0.03888091  0.73653170  1
  O2-  O267  1  0.41671466  0.55092978  0.06372286  1
  O2-  O268  1  0.41132137  0.53859814  0.39459566  1
  O2-  O269  1  0.41658162  0.53938478  0.73603410  1
  O2-  O270  1  0.91949973  0.04012207  0.06267105  1
  O2-  O271  1  0.91918228  0.04122007  0.40451425  1
  O2-  O272  1  0.91577416  0.04665452  0.73040279  1
  O2-  O273  1  0.92139651  0.54693951  0.06424576  1
  O2-  O274  1  0.91492245  0.54082691  0.39927054  1
  O2-  O275  1  0.91363973  0.54070314  0.72887425  1
  O2-  O276  1  0.29275449  0.16846972  0.06666438  1
  O2-  O277  1  0.28651288  0.17156942  0.40232582  1
  O2-  O278  1  0.28682126  0.16740553  0.73621739  1
  O2-  O279  1  0.29812184  0.66958927  0.06264251  1
  O2-  O280  1  0.29617591  0.66223590  0.39449171  1
  O2-  O281  1  0.29250892  0.66732723  0.73492502  1
  O2-  O282  1  0.79220050  0.16548533  0.06676688  1
  O2-  O283  1  0.80122813  0.17258308  0.40414443  1
  O2-  O284  1  0.79842235  0.16947376  0.72465196  1
  O2-  O285  1  0.79394700  0.67103622  0.06773235  1
  O2-  O286  1  0.80187579  0.66587012  0.39515053  1
  O2-  O287  1  0.79605844  0.66231619  0.72600203  1
