# generated using pymatgen
data_Ca2Al2SiO7
_symmetry_space_group_name_H-M   'P 1'
_cell_length_a   15.45581107
_cell_length_b   15.45533542
_cell_length_c   15.28258203
_cell_angle_alpha   90.00266675
_cell_angle_beta   89.99285895
_cell_angle_gamma   89.99466059
_symmetry_Int_Tables_number   1
_chemical_formula_structural   Ca2Al2SiO7
_chemical_formula_sum   'Ca48 Al48 Si24 O168'
_cell_volume   3650.62282377
_cell_formula_units_Z   24
loop_
 _symmetry_equiv_pos_site_id
 _symmetry_equiv_pos_as_xyz
  1  'x, y, z'
loop_
 _atom_type_symbol
 _atom_type_oxidation_number
  Ca2+  2.0
  Al0+  0.0
  Si0+  0.0
  O2-  -2.0
loop_
 _atom_site_type_symbol
 _atom_site_label
 _atom_site_symmetry_multiplicity
 _atom_site_fract_x
 _atom_site_fract_y
 _atom_site_fract_z
 _atom_site_occupancy
  Ca2+  Ca0  1  0.17259997  0.08207402  0.16632842  1
  Ca2+  Ca1  1  0.16575386  0.07419184  0.50104713  1
  Ca2+  Ca2  1  0.17517783  0.08560854  0.84423565  1
  Ca2+  Ca3  1  0.17363589  0.58011125  0.16246036  1
  Ca2+  Ca4  1  0.16618429  0.58396416  0.50758998  1
  Ca2+  Ca5  1  0.17111070  0.57797729  0.84144984  1
  Ca2+  Ca6  1  0.66237794  0.07600508  0.16892608  1
  Ca2+  Ca7  1  0.66645395  0.07422790  0.51069932  1
  Ca2+  Ca8  1  0.66206466  0.08470542  0.83389856  1
  Ca2+  Ca9  1  0.67069306  0.58470992  0.16447893  1
  Ca2+  Ca10  1  0.68146698  0.58469363  0.50578090  1
  Ca2+  Ca11  1  0.67436248  0.57943785  0.84425444  1
  Ca2+  Ca12  1  0.08479373  0.32892196  0.15777673  1
  Ca2+  Ca13  1  0.07554878  0.33190070  0.50085678  1
  Ca2+  Ca14  1  0.08283062  0.33154243  0.83214088  1
  Ca2+  Ca15  1  0.07131394  0.83974887  0.16215629  1
  Ca2+  Ca16  1  0.07760178  0.82747814  0.49311130  1
  Ca2+  Ca17  1  0.07535839  0.82567350  0.82999729  1
  Ca2+  Ca18  1  0.57552007  0.33030231  0.15419906  1
  Ca2+  Ca19  1  0.57625944  0.33012213  0.49695805  1
  Ca2+  Ca20  1  0.57943018  0.32918182  0.82951145  1
  Ca2+  Ca21  1  0.58307880  0.82732700  0.15637386  1
  Ca2+  Ca22  1  0.58483465  0.84009655  0.50042624  1
  Ca2+  Ca23  1  0.57401772  0.83156835  0.83266160  1
  Ca2+  Ca24  1  0.33610784  0.41473733  0.16393928  1
  Ca2+  Ca25  1  0.33592644  0.41267415  0.50282218  1
  Ca2+  Ca26  1  0.33127143  0.41597968  0.84644779  1
  Ca2+  Ca27  1  0.33503326  0.92390403  0.16833002  1
  Ca2+  Ca28  1  0.32808665  0.91250938  0.50689513  1
  Ca2+  Ca29  1  0.33798949  0.91909394  0.84125159  1
  Ca2+  Ca30  1  0.82664022  0.42840032  0.16758732  1
  Ca2+  Ca31  1  0.83794541  0.42556165  0.50987297  1
  Ca2+  Ca32  1  0.83221563  0.42487078  0.84129788  1
  Ca2+  Ca33  1  0.82996017  0.91240852  0.17441326  1
  Ca2+  Ca34  1  0.82188376  0.91842056  0.50722232  1
  Ca2+  Ca35  1  0.82825818  0.91890845  0.83522677  1
  Ca2+  Ca36  1  0.41991312  0.17401243  0.15499862  1
  Ca2+  Ca37  1  0.42169542  0.17544476  0.50013121  1
  Ca2+  Ca38  1  0.42497145  0.17375625  0.83197783  1
  Ca2+  Ca39  1  0.42287869  0.67317720  0.15300564  1
  Ca2+  Ca40  1  0.41948257  0.67396154  0.49884314  1
  Ca2+  Ca41  1  0.41777065  0.67069782  0.83259083  1
  Ca2+  Ca42  1  0.92710528  0.16481141  0.15720063  1
  Ca2+  Ca43  1  0.90555588  0.17179125  0.50293514  1
  Ca2+  Ca44  1  0.92010776  0.17173667  0.82754969  1
  Ca2+  Ca45  1  0.90714881  0.67574090  0.16221844  1
  Ca2+  Ca46  1  0.91824934  0.66570251  0.49563567  1
  Ca2+  Ca47  1  0.91692838  0.66435907  0.83042648  1
  Al0+  Al48  1  -0.00060828  0.00041723  -0.01013421  1
  Al0+  Al49  1  0.00110680  0.00020545  0.33526608  1
  Al0+  Al50  1  -0.00048717  -0.00217061  0.67007606  1
  Al0+  Al51  1  0.00012178  0.50160471  0.01139334  1
  Al0+  Al52  1  0.00266796  0.49966357  0.33484787  1
  Al0+  Al53  1  0.00246328  0.49903860  0.66346334  1
  Al0+  Al54  1  0.49993921  0.00071557  -0.00047159  1
  Al0+  Al55  1  0.49952614  0.00183748  0.33871159  1
  Al0+  Al56  1  0.49728650  -0.00024482  0.66204361  1
  Al0+  Al57  1  0.50095425  0.50089829  0.00015194  1
  Al0+  Al58  1  0.49968391  0.50057288  0.33055345  1
  Al0+  Al59  1  0.50047749  0.50283781  0.66120110  1
  Al0+  Al60  1  0.24977616  0.24741481  0.00179858  1
  Al0+  Al61  1  0.25030952  0.25116872  0.33205059  1
  Al0+  Al62  1  0.24868654  0.24833501  0.66112094  1
  Al0+  Al63  1  0.24586644  0.74997332  0.00227327  1
  Al0+  Al64  1  0.25008843  0.74900573  0.33575430  1
  Al0+  Al65  1  0.24899864  0.74816952  0.65964339  1
  Al0+  Al66  1  0.75165836  0.24962219  0.00281813  1
  Al0+  Al67  1  0.74882755  0.25125187  0.33057777  1
  Al0+  Al68  1  0.75062215  0.24945014  0.66089392  1
  Al0+  Al69  1  0.74925883  0.75202835  -0.00632460  1
  Al0+  Al70  1  0.75082762  0.74997750  0.33966760  1
  Al0+  Al71  1  0.74948129  0.75081923  0.67632848  1
  Al0+  Al72  1  0.82342699  0.56899911  0.68165143  1
  Al0+  Al73  1  0.57423280  0.17821263  0.98572335  1
  Al0+  Al74  1  0.67547977  0.93000882  0.68633606  1
  Al0+  Al75  1  0.17912131  0.92899171  0.34680369  1
  Al0+  Al76  1  0.93076665  0.31957778  0.65537125  1
  Al0+  Al77  1  0.92783526  0.82148677  0.98472250  1
  Al0+  Al78  1  0.42943573  0.81962978  0.65215033  1
  Al0+  Al79  1  0.82065927  0.57390952  0.01638672  1
  Al0+  Al80  1  0.32188061  0.06853478  0.01258106  1
  Al0+  Al81  1  0.42919889  0.32123643  0.98577061  1
  Al0+  Al82  1  0.57127990  0.67803589  0.98483406  1
  Al0+  Al83  1  0.93030901  0.81886671  0.32235456  1
  Al0+  Al84  1  0.07139817  0.17958457  0.98663464  1
  Al0+  Al85  1  0.42972764  0.32086784  0.31618901  1
  Al0+  Al86  1  0.42603963  0.82125088  0.98824261  1
  Al0+  Al87  1  0.82131008  0.07274720  0.68338832  1
  Al0+  Al88  1  0.82030771  0.56923485  0.34854390  1
  Al0+  Al89  1  0.17998504  0.42738510  0.01517761  1
  Al0+  Al90  1  0.67934713  0.92981357  0.34596432  1
  Al0+  Al91  1  0.32248361  0.57334708  0.01378206  1
  Al0+  Al92  1  0.67847388  0.42640544  0.01408526  1
  Al0+  Al93  1  0.06883500  0.67939327  0.65368433  1
  Al0+  Al94  1  0.42742296  0.32352377  0.65138926  1
  Al0+  Al95  1  0.57141481  0.17921378  0.64986098  1
  Si0+  Si96  1  0.07032708  0.67637317  0.98530148  1
  Si0+  Si97  1  0.68014716  0.93149045  0.01441681  1
  Si0+  Si98  1  0.18131528  0.42801874  0.67928829  1
  Si0+  Si99  1  0.57216102  0.17694505  0.31543174  1
  Si0+  Si100  1  0.67668469  0.42869362  0.68051585  1
  Si0+  Si101  1  0.32088462  0.07313497  0.35238601  1
  Si0+  Si102  1  0.42718862  0.82214632  0.31924517  1
  Si0+  Si103  1  0.31727928  0.07043001  0.68077296  1
  Si0+  Si104  1  0.07266915  0.17477833  0.64843056  1
  Si0+  Si105  1  0.32122003  0.57146342  0.67876300  1
  Si0+  Si106  1  0.92845561  0.32352558  0.31729932  1
  Si0+  Si107  1  0.17478110  0.92814764  0.01464693  1
  Si0+  Si108  1  0.67682257  0.42775955  0.35090996  1
  Si0+  Si109  1  0.57093645  0.68181158  0.32031701  1
  Si0+  Si110  1  0.06942167  0.17990832  0.31903775  1
  Si0+  Si111  1  0.18060299  0.42796195  0.35117603  1
  Si0+  Si112  1  0.82359610  0.07388674  0.34790639  1
  Si0+  Si113  1  0.82403603  0.07073346  0.01470409  1
  Si0+  Si114  1  0.92948902  0.32346502  0.98714134  1
  Si0+  Si115  1  0.57439391  0.67895460  0.64855069  1
  Si0+  Si116  1  0.92661651  0.82221176  0.64947378  1
  Si0+  Si117  1  0.07456790  0.67611347  0.31385365  1
  Si0+  Si118  1  0.17917450  0.92539895  0.68223440  1
  Si0+  Si119  1  0.32217416  0.57081902  0.34996483  1
  O2-  O120  1  0.24837626  -0.00838639  0.05892725  1
  O2-  O121  1  0.25599491  0.00034902  0.39646905  1
  O2-  O122  1  0.24640253  -0.00045795  0.72405219  1
  O2-  O123  1  0.25448395  0.49749073  0.06522780  1
  O2-  O124  1  0.25061446  0.50024450  0.39305046  1
  O2-  O125  1  0.25817439  0.49302120  0.71973225  1
  O2-  O126  1  0.75173094  0.00173576  0.05786216  1
  O2-  O127  1  0.75246172  0.00732466  0.39071657  1
  O2-  O128  1  0.74784568  0.00311469  0.73480169  1
  O2-  O129  1  0.74774206  0.50162076  0.06460118  1
  O2-  O130  1  0.74926227  0.49148295  0.39669556  1
  O2-  O131  1  0.74654124  0.49561034  0.72550407  1
  O2-  O132  1  -0.00419528  0.24837191  0.27655877  1
  O2-  O133  1  -0.00003321  0.23997850  0.60535243  1
  O2-  O134  1  -0.00071586  0.25692180  0.94163073  1
  O2-  O135  1  0.00514854  0.74524917  0.27222752  1
  O2-  O136  1  -0.00675933  0.75185489  0.60491228  1
  O2-  O137  1  0.00063360  0.74359916  0.94081173  1
  O2-  O138  1  0.50531058  0.24677385  0.27144696  1
  O2-  O139  1  0.50170665  0.25434937  0.60056226  1
  O2-  O140  1  0.50519882  0.25341893  0.93671625  1
  O2-  O141  1  0.50077308  0.75411413  0.27795243  1
  O2-  O142  1  0.50721355  0.74907563  0.60338939  1
  O2-  O143  1  0.49342582  0.74558436  0.93755605  1
  O2-  O144  1  0.06851952  0.17710166  0.10051716  1
  O2-  O145  1  0.07027902  0.18120085  0.42420467  1
  O2-  O146  1  0.07745234  0.17793223  0.75345228  1
  O2-  O147  1  0.07184523  0.67822463  0.09091960  1
  O2-  O148  1  0.07514622  0.67574103  0.41980848  1
  O2-  O149  1  0.07107460  0.68045198  0.76646829  1
  O2-  O150  1  0.57129956  0.17551401  0.09981811  1
  O2-  O151  1  0.57183291  0.17698060  0.42076979  1
  O2-  O152  1  0.56824920  0.18011225  0.76297066  1
  O2-  O153  1  0.57381334  0.68428627  0.09947740  1
  O2-  O154  1  0.56888130  0.68136279  0.42556109  1
  O2-  O155  1  0.57095312  0.67557931  0.75328691  1
  O2-  O156  1  0.17968430  0.42617682  0.24677707  1
  O2-  O157  1  0.18000924  0.42950706  0.57360162  1
  O2-  O158  1  0.17771936  0.42948152  0.90110260  1
  O2-  O159  1  0.17842485  0.93254111  0.23404768  1
  O2-  O160  1  0.18038741  0.92619456  0.57665027  1
  O2-  O161  1  0.17405024  0.93006051  0.90887983  1
  O2-  O162  1  0.67740792  0.42887586  0.24580940  1
  O2-  O163  1  0.67725678  0.43253418  0.57428793  1
  O2-  O164  1  0.68332404  0.42468714  0.90027725  1
  O2-  O165  1  0.67995658  0.92902223  0.23255042  1
  O2-  O166  1  0.67871667  0.93040180  0.57197267  1
  O2-  O167  1  0.67968659  0.93283745  0.90998387  1
  O2-  O168  1  0.42895354  0.31646290  0.09968174  1
  O2-  O169  1  0.42997518  0.31931360  0.42943404  1
  O2-  O170  1  0.42346138  0.32243241  0.76386942  1
  O2-  O171  1  0.43086923  0.82343535  0.10267643  1
  O2-  O172  1  0.42575289  0.81899578  0.42442024  1
  O2-  O173  1  0.42517436  0.81622477  0.76447325  1
  O2-  O174  1  0.93067730  0.31930898  0.09331257  1
  O2-  O175  1  0.93067826  0.32416684  0.42255340  1
  O2-  O176  1  0.93661130  0.32207869  0.76800212  1
  O2-  O177  1  0.92873502  0.82389277  0.09848803  1
  O2-  O178  1  0.93185271  0.81673668  0.43517699  1
  O2-  O179  1  0.93058843  0.82294721  0.75489759  1
  O2-  O180  1  0.32033226  0.07285579  0.24692663  1
  O2-  O181  1  0.31369960  0.06997191  0.57517414  1
  O2-  O182  1  0.32006805  0.06831859  0.89925303  1
  O2-  O183  1  0.32168418  0.57225030  0.24555444  1
  O2-  O184  1  0.31795300  0.57301419  0.57306407  1
  O2-  O185  1  0.31690278  0.57516712  0.89984843  1
  O2-  O186  1  0.82614914  0.07293593  0.24213110  1
  O2-  O187  1  0.82178677  0.06921078  0.56897701  1
  O2-  O188  1  0.82614798  0.07001386  0.91026319  1
  O2-  O189  1  0.81678410  0.57086938  0.23613749  1
  O2-  O190  1  0.82339685  0.56764795  0.56792325  1
  O2-  O191  1  0.82310609  0.56976418  0.90284861  1
  O2-  O192  1  0.04392102  0.08783178  0.27135853  1
  O2-  O193  1  0.05066393  0.07887526  0.60512240  1
  O2-  O194  1  0.03927948  0.08640971  0.92809141  1
  O2-  O195  1  0.05055387  0.58129429  0.27008915  1
  O2-  O196  1  0.04120702  0.58323500  0.59655648  1
  O2-  O197  1  0.04523016  0.58179711  0.94109699  1
  O2-  O198  1  0.54435326  0.08279290  0.27087857  1
  O2-  O199  1  0.53705670  0.08298904  0.59541257  1
  O2-  O200  1  0.54160665  0.08176180  0.93258784  1
  O2-  O201  1  0.54240698  0.59046893  0.27283549  1
  O2-  O202  1  0.54784893  0.58726104  0.59807726  1
  O2-  O203  1  0.54981026  0.57863279  0.93241656  1
  O2-  O204  1  0.16040814  0.21067197  0.27198006  1
  O2-  O205  1  0.16272141  0.20477247  0.59705554  1
  O2-  O206  1  0.16727599  0.20846543  0.93192303  1
  O2-  O207  1  0.16886428  0.70215406  0.26961433  1
  O2-  O208  1  0.16311812  0.71155347  0.59482831  1
  O2-  O209  1  0.16285557  0.70253623  0.93739579  1
  O2-  O210  1  0.66750585  0.19856990  0.27016709  1
  O2-  O211  1  0.67041098  0.20242936  0.59527412  1
  O2-  O212  1  0.67497687  0.20166202  0.93549190  1
  O2-  O213  1  0.66267693  0.71023406  0.27439482  1
  O2-  O214  1  0.66914500  0.70552072  0.60488975  1
  O2-  O215  1  0.66599125  0.71169746  0.92890163  1
  O2-  O216  1  0.08403959  0.45740605  0.07349359  1
  O2-  O217  1  0.08858518  0.45524498  0.39928781  1
  O2-  O218  1  0.09245268  0.46146853  0.72743939  1
  O2-  O219  1  0.08312578  0.96215714  0.06043314  1
  O2-  O220  1  0.08448609  0.96311527  0.40394688  1
  O2-  O221  1  0.08587421  0.94794807  0.72837787  1
  O2-  O222  1  0.57997329  0.45278277  0.06727892  1
  O2-  O223  1  0.58392026  0.45745274  0.39655632  1
  O2-  O224  1  0.58273969  0.45564400  0.72526153  1
  O2-  O225  1  0.58919182  0.95926598  0.06381932  1
  O2-  O226  1  0.58205633  0.95789192  0.40147957  1
  O2-  O227  1  0.57462794  0.95754011  0.73409673  1
  O2-  O228  1  0.20567035  0.32873504  0.06906552  1
  O2-  O229  1  0.20915521  0.33651318  0.39972428  1
  O2-  O230  1  0.20217022  0.33321251  0.72375691  1
  O2-  O231  1  0.19126561  0.83324612  0.06099311  1
  O2-  O232  1  0.20748260  0.83118517  0.40104791  1
  O2-  O233  1  0.21091619  0.83426476  0.72778964  1
  O2-  O234  1  0.70965780  0.32961307  0.07135305  1
  O2-  O235  1  0.69848259  0.33168182  0.39452088  1
  O2-  O236  1  0.69992707  0.33344973  0.72186587  1
  O2-  O237  1  0.70889670  0.83959399  0.06063625  1
  O2-  O238  1  0.71119852  0.83557948  0.40358815  1
  O2-  O239  1  0.70316383  0.83193237  0.73956593  1
  O2-  O240  1  0.45782772  0.41931755  0.26473259  1
  O2-  O241  1  0.45266610  0.42306755  0.59708556  1
  O2-  O242  1  0.45000345  0.42192297  0.93609403  1
  O2-  O243  1  0.45087089  0.91718332  0.27689636  1
  O2-  O244  1  0.45407795  0.91653384  0.59584100  1
  O2-  O245  1  0.45958299  0.91700083  0.93423202  1
  O2-  O246  1  0.96162127  0.41335120  0.26976080  1
  O2-  O247  1  0.96896619  0.41198289  0.59663489  1
  O2-  O248  1  0.95464491  0.41853118  0.94498816  1
  O2-  O249  1  0.96029819  0.91700503  0.26940655  1
  O2-  O250  1  0.95450012  0.91541151  0.60337799  1
  O2-  O251  1  0.96190763  0.91459745  0.92666155  1
  O2-  O252  1  0.33177668  0.28992268  0.26507734  1
  O2-  O253  1  0.33015413  0.29048041  0.59581760  1
  O2-  O254  1  0.33155480  0.28875626  0.93483159  1
  O2-  O255  1  0.33605218  0.79228459  0.27212941  1
  O2-  O256  1  0.33523054  0.78399902  0.59451339  1
  O2-  O257  1  0.32461606  0.79978338  0.93852975  1
  O2-  O258  1  0.83451060  0.30119213  0.27162111  1
  O2-  O259  1  0.83462412  0.29505386  0.59651953  1
  O2-  O260  1  0.83730354  0.29625684  0.94082280  1
  O2-  O261  1  0.83306679  0.78747433  0.26937055  1
  O2-  O262  1  0.83091574  0.79814580  0.60812102  1
  O2-  O263  1  0.83251739  0.79393241  0.92866873  1
  O2-  O264  1  0.41719780  0.03804425  0.07022470  1
  O2-  O265  1  0.41514411  0.05157537  0.39863940  1
  O2-  O266  1  0.40919591  0.04267301  0.72549183  1
  O2-  O267  1  0.42206390  0.55147734  0.06644377  1
  O2-  O268  1  0.41410841  0.54282862  0.39764507  1
  O2-  O269  1  0.41639889  0.55309794  0.72241762  1
  O2-  O270  1  0.91545764  0.03918581  0.06181041  1
  O2-  O271  1  0.91625545  0.04898330  0.39575226  1
  O2-  O272  1  0.92106485  0.04460630  0.73533277  1
  O2-  O273  1  0.91747108  0.54725352  0.07348277  1
  O2-  O274  1  0.91968645  0.54062561  0.39945219  1
  O2-  O275  1  0.92026942  0.53527974  0.73315908  1
  O2-  O276  1  0.28663988  0.16187027  0.06976141  1
  O2-  O277  1  0.28879854  0.16506020  0.39848556  1
  O2-  O278  1  0.28766277  0.16236020  0.72695749  1
  O2-  O279  1  0.28899127  0.66996923  0.07054418  1
  O2-  O280  1  0.29451757  0.66245935  0.39885024  1
  O2-  O281  1  0.28521613  0.66033994  0.72581266  1
  O2-  O282  1  0.80153085  0.16291321  0.06387112  1
  O2-  O283  1  0.79973280  0.16945065  0.39197700  1
  O2-  O284  1  0.79827203  0.17427297  0.73219098  1
  O2-  O285  1  0.78923438  0.67343811  0.06610729  1
  O2-  O286  1  0.78714382  0.66371149  0.40513693  1
  O2-  O287  1  0.79661360  0.66627641  0.73462151  1
