# generated using pymatgen
data_Ca2Al2SiO7
_symmetry_space_group_name_H-M   'P 1'
_cell_length_a   15.46267121
_cell_length_b   15.46224702
_cell_length_c   15.28725740
_cell_angle_alpha   90.01382814
_cell_angle_beta   89.99305068
_cell_angle_gamma   89.99367754
_symmetry_Int_Tables_number   1
_chemical_formula_structural   Ca2Al2SiO7
_chemical_formula_sum   'Ca48 Al48 Si24 O168'
_cell_volume   3654.99416560
_cell_formula_units_Z   24
loop_
 _symmetry_equiv_pos_site_id
 _symmetry_equiv_pos_as_xyz
  1  'x, y, z'
loop_
 _atom_type_symbol
 _atom_type_oxidation_number
  Ca2+  2.0
  Al0+  0.0
  Si0+  0.0
  O2-  -2.0
loop_
 _atom_site_type_symbol
 _atom_site_label
 _atom_site_symmetry_multiplicity
 _atom_site_fract_x
 _atom_site_fract_y
 _atom_site_fract_z
 _atom_site_occupancy
  Ca2+  Ca0  1  0.17431119  0.07490376  0.17724535  1
  Ca2+  Ca1  1  0.16689582  0.08532947  0.49565343  1
  Ca2+  Ca2  1  0.17486449  0.07545701  0.84605197  1
  Ca2+  Ca3  1  0.16444909  0.58552119  0.16762588  1
  Ca2+  Ca4  1  0.17000550  0.58362086  0.50116349  1
  Ca2+  Ca5  1  0.16350911  0.58463761  0.83998220  1
  Ca2+  Ca6  1  0.67018038  0.08023764  0.17350496  1
  Ca2+  Ca7  1  0.66783718  0.07518363  0.50050064  1
  Ca2+  Ca8  1  0.66164637  0.08309987  0.83407645  1
  Ca2+  Ca9  1  0.67038088  0.57900897  0.17665064  1
  Ca2+  Ca10  1  0.67746386  0.57125909  0.50259814  1
  Ca2+  Ca11  1  0.67181765  0.58015656  0.83485737  1
  Ca2+  Ca12  1  0.07232598  0.32506881  0.16734865  1
  Ca2+  Ca13  1  0.07096439  0.32739349  0.49060307  1
  Ca2+  Ca14  1  0.07007159  0.33450817  0.82889073  1
  Ca2+  Ca15  1  0.08270176  0.83537788  0.16540375  1
  Ca2+  Ca16  1  0.07053455  0.83572016  0.49182101  1
  Ca2+  Ca17  1  0.08151818  0.83084428  0.83130796  1
  Ca2+  Ca18  1  0.58182174  0.32950296  0.16432148  1
  Ca2+  Ca19  1  0.58616414  0.33236330  0.49489252  1
  Ca2+  Ca20  1  0.58737528  0.32007052  0.82616171  1
  Ca2+  Ca21  1  0.57442407  0.83830459  0.16290364  1
  Ca2+  Ca22  1  0.58361321  0.83764584  0.49185156  1
  Ca2+  Ca23  1  0.58073341  0.83410426  0.83103383  1
  Ca2+  Ca24  1  0.33544875  0.41762580  0.17612959  1
  Ca2+  Ca25  1  0.33331730  0.41163091  0.49992162  1
  Ca2+  Ca26  1  0.33004283  0.41912846  0.83770084  1
  Ca2+  Ca27  1  0.32924396  0.92078748  0.17276813  1
  Ca2+  Ca28  1  0.33096496  0.91966472  0.49572565  1
  Ca2+  Ca29  1  0.32843269  0.92027932  0.84724788  1
  Ca2+  Ca30  1  0.83111290  0.42029553  0.17743724  1
  Ca2+  Ca31  1  0.83310141  0.42164404  0.50573169  1
  Ca2+  Ca32  1  0.83374177  0.41493340  0.83413610  1
  Ca2+  Ca33  1  0.82723792  0.92159823  0.18260813  1
  Ca2+  Ca34  1  0.82727864  0.91529340  0.50387938  1
  Ca2+  Ca35  1  0.82883336  0.91269912  0.83196011  1
  Ca2+  Ca36  1  0.41858967  0.16317970  0.16494057  1
  Ca2+  Ca37  1  0.42348653  0.16850246  0.49156406  1
  Ca2+  Ca38  1  0.42762540  0.15648417  0.83299687  1
  Ca2+  Ca39  1  0.42497652  0.67987025  0.15998946  1
  Ca2+  Ca40  1  0.42255718  0.67475872  0.48944256  1
  Ca2+  Ca41  1  0.42267870  0.67238208  0.83568458  1
  Ca2+  Ca42  1  0.91105553  0.17400214  0.16708700  1
  Ca2+  Ca43  1  0.91607259  0.17472872  0.48887050  1
  Ca2+  Ca44  1  0.91191577  0.17978258  0.82851747  1
  Ca2+  Ca45  1  0.91669760  0.67239802  0.16620101  1
  Ca2+  Ca46  1  0.90480744  0.67332813  0.49754499  1
  Ca2+  Ca47  1  0.91953481  0.67040033  0.82761467  1
  Al0+  Al48  1  -0.00077744  0.00183796  0.00313192  1
  Al0+  Al49  1  0.00122343  -0.00084876  0.33258833  1
  Al0+  Al50  1  0.00099104  -0.00085246  0.66603005  1
  Al0+  Al51  1  -0.00129621  0.50180643  -0.00656235  1
  Al0+  Al52  1  0.00161212  0.50036046  0.33446938  1
  Al0+  Al53  1  0.00229353  0.50057320  0.66582649  1
  Al0+  Al54  1  0.50002575  0.00107158  -0.00374102  1
  Al0+  Al55  1  0.49810599  0.00052475  0.33618265  1
  Al0+  Al56  1  0.50016033  0.00047337  0.66537019  1
  Al0+  Al57  1  0.49992655  0.49991253  -0.00378478  1
  Al0+  Al58  1  0.50017907  0.49994905  0.33370698  1
  Al0+  Al59  1  0.49972395  0.50046196  0.67172447  1
  Al0+  Al60  1  0.24845984  0.25100005  0.00380097  1
  Al0+  Al61  1  0.25077884  0.25020962  0.32968070  1
  Al0+  Al62  1  0.25133402  0.25024840  0.67106659  1
  Al0+  Al63  1  0.24900820  0.74876660  -0.00389772  1
  Al0+  Al64  1  0.25120409  0.75093964  0.33390219  1
  Al0+  Al65  1  0.25083627  0.75072529  0.66712822  1
  Al0+  Al66  1  0.74780308  0.25113671  -0.00714221  1
  Al0+  Al67  1  0.74823213  0.24894842  0.33531608  1
  Al0+  Al68  1  0.74926892  0.24887150  0.66014893  1
  Al0+  Al69  1  0.75020345  0.74859779  -0.00192660  1
  Al0+  Al70  1  0.75045541  0.74715035  0.33520047  1
  Al0+  Al71  1  0.74906655  0.74891036  0.67238536  1
  Al0+  Al72  1  0.43057421  0.82093514  0.98438890  1
  Al0+  Al73  1  0.56952395  0.17827233  0.64946201  1
  Al0+  Al74  1  0.82267761  0.07160187  0.34726193  1
  Al0+  Al75  1  0.17882989  0.92679193  0.35060568  1
  Al0+  Al76  1  0.32296253  0.07137943  0.01640506  1
  Al0+  Al77  1  0.92887916  0.81960084  0.65356497  1
  Al0+  Al78  1  0.06871424  0.68114316  0.98716957  1
  Al0+  Al79  1  0.57364811  0.67686081  0.98392168  1
  Al0+  Al80  1  0.67855854  0.93001854  0.68222002  1
  Al0+  Al81  1  0.42952450  0.82211400  0.32010869  1
  Al0+  Al82  1  0.92648441  0.32168962  0.31852699  1
  Al0+  Al83  1  0.32033637  0.07298863  0.35048972  1
  Al0+  Al84  1  0.93034653  0.32078323  0.65085901  1
  Al0+  Al85  1  0.67866766  0.92852319  0.34607859  1
  Al0+  Al86  1  0.67875357  0.42649210  0.68433737  1
  Al0+  Al87  1  0.67706552  0.42806926  0.34627530  1
  Al0+  Al88  1  0.82227763  0.56992514  0.68511005  1
  Al0+  Al89  1  0.92750196  0.81957832  0.32082090  1
  Al0+  Al90  1  0.56870918  0.18108600  0.98691668  1
  Al0+  Al91  1  0.07160324  0.17731534  0.31784121  1
  Al0+  Al92  1  0.43014186  0.32174607  0.32077682  1
  Al0+  Al93  1  0.92994246  0.31981311  0.98591966  1
  Al0+  Al94  1  0.17742208  0.92670540  0.01606702  1
  Al0+  Al95  1  0.82418080  0.56975214  0.34758241  1
  Si0+  Si96  1  0.07277426  0.17748641  0.98331726  1
  Si0+  Si97  1  0.42697922  0.32341916  0.65171805  1
  Si0+  Si98  1  0.18105987  0.42947113  0.68205735  1
  Si0+  Si99  1  0.07483322  0.17816421  0.65227534  1
  Si0+  Si100  1  0.82155275  0.57057628  0.01513738  1
  Si0+  Si101  1  0.42459396  0.32383675  0.98288920  1
  Si0+  Si102  1  0.57149810  0.67791366  0.31857775  1
  Si0+  Si103  1  0.82373190  0.07116647  0.68356957  1
  Si0+  Si104  1  0.42878533  0.82034739  0.65055957  1
  Si0+  Si105  1  0.17613301  0.43072612  0.01536368  1
  Si0+  Si106  1  0.57000830  0.67788850  0.65101094  1
  Si0+  Si107  1  0.07455101  0.67877988  0.64859448  1
  Si0+  Si108  1  0.17856838  0.92853700  0.68266016  1
  Si0+  Si109  1  0.07418465  0.67814697  0.31798256  1
  Si0+  Si110  1  0.32150877  0.56918961  0.01535091  1
  Si0+  Si111  1  0.18001716  0.42895285  0.34741647  1
  Si0+  Si112  1  0.92650338  0.82549308  0.98432187  1
  Si0+  Si113  1  0.32107692  0.57393164  0.68317141  1
  Si0+  Si114  1  0.67942496  0.42836984  0.01384566  1
  Si0+  Si115  1  0.57101487  0.17742484  0.31661396  1
  Si0+  Si116  1  0.32118172  0.57122578  0.34701705  1
  Si0+  Si117  1  0.68087826  0.92821938  0.01330471  1
  Si0+  Si118  1  0.81908722  0.07402585  0.01220192  1
  Si0+  Si119  1  0.32031839  0.07077949  0.68243494  1
  O2-  O120  1  0.24940039  -0.00019331  0.06406926  1
  O2-  O121  1  0.24795197  0.00158306  0.40138844  1
  O2-  O122  1  0.24849524  0.00057385  0.72440035  1
  O2-  O123  1  0.25188204  0.49682498  0.05814587  1
  O2-  O124  1  0.25111901  0.49997750  0.39041107  1
  O2-  O125  1  0.25048417  0.50204240  0.72503372  1
  O2-  O126  1  0.75465979  -0.00325855  0.05401941  1
  O2-  O127  1  0.75352690  -0.00326308  0.39735744  1
  O2-  O128  1  0.75481164  0.00323719  0.72959626  1
  O2-  O129  1  0.74703734  0.50258943  0.05584265  1
  O2-  O130  1  0.75541392  0.49350171  0.39547760  1
  O2-  O131  1  0.75279134  0.49572894  0.73632050  1
  O2-  O132  1  -0.00532740  0.24549596  0.26888101  1
  O2-  O133  1  0.00376551  0.24347392  0.60762015  1
  O2-  O134  1  0.00383995  0.24473639  0.93736769  1
  O2-  O135  1  0.00411706  0.74583336  0.27519508  1
  O2-  O136  1  0.00319531  0.74436065  0.60591153  1
  O2-  O137  1  -0.00195748  0.75926996  0.94063624  1
  O2-  O138  1  0.50428480  0.24836843  0.27272005  1
  O2-  O139  1  0.49754275  0.25784270  0.60716442  1
  O2-  O140  1  0.49029842  0.25248216  0.93934775  1
  O2-  O141  1  0.50800029  0.75120526  0.27436012  1
  O2-  O142  1  0.50030352  0.75011007  0.60828793  1
  O2-  O143  1  0.50433006  0.75125204  0.93280198  1
  O2-  O144  1  0.07212358  0.17946539  0.08811316  1
  O2-  O145  1  0.07379702  0.18446821  0.43197849  1
  O2-  O146  1  0.07677193  0.18133204  0.75814856  1
  O2-  O147  1  0.06548550  0.67606601  0.09972937  1
  O2-  O148  1  0.07838844  0.67799362  0.42346348  1
  O2-  O149  1  0.07819771  0.68090719  0.75427488  1
  O2-  O150  1  0.57275412  0.18395439  0.09940785  1
  O2-  O151  1  0.56831858  0.17647724  0.42209775  1
  O2-  O152  1  0.56544880  0.17668430  0.76299786  1
  O2-  O153  1  0.57157847  0.67520996  0.09731643  1
  O2-  O154  1  0.56691358  0.67564252  0.42439877  1
  O2-  O155  1  0.56658998  0.67800214  0.75608298  1
  O2-  O156  1  0.18015118  0.43174472  0.24217218  1
  O2-  O157  1  0.18380092  0.42872443  0.57714444  1
  O2-  O158  1  0.17749123  0.43286461  0.90967405  1
  O2-  O159  1  0.18312252  0.92318870  0.23743768  1
  O2-  O160  1  0.17922355  0.92618055  0.57832280  1
  O2-  O161  1  0.17819820  0.92867478  0.90121461  1
  O2-  O162  1  0.67454090  0.43269310  0.23191331  1
  O2-  O163  1  0.67613128  0.43052552  0.57142387  1
  O2-  O164  1  0.68184172  0.42701451  0.90903573  1
  O2-  O165  1  0.67792676  0.93065366  0.23175048  1
  O2-  O166  1  0.67714297  0.93025019  0.56978655  1
  O2-  O167  1  0.68159771  0.92856163  0.90799502  1
  O2-  O168  1  0.42715937  0.32851811  0.08807686  1
  O2-  O169  1  0.43026345  0.32254118  0.43402089  1
  O2-  O170  1  0.42283591  0.32209505  0.75728460  1
  O2-  O171  1  0.43218390  0.81967855  0.09768026  1
  O2-  O172  1  0.42884878  0.81732444  0.43389410  1
  O2-  O173  1  0.42679128  0.81837203  0.75554932  1
  O2-  O174  1  0.92933142  0.32014594  0.09832751  1
  O2-  O175  1  0.93141510  0.32360800  0.43191553  1
  O2-  O176  1  0.93320917  0.32041583  0.76461895  1
  O2-  O177  1  0.92302763  0.82314869  0.08947978  1
  O2-  O178  1  0.92670899  0.81684396  0.43398803  1
  O2-  O179  1  0.93346643  0.81987208  0.76714590  1
  O2-  O180  1  0.32100167  0.07164785  0.23734924  1
  O2-  O181  1  0.31919280  0.07266249  0.57798520  1
  O2-  O182  1  0.32098074  0.06923994  0.90161205  1
  O2-  O183  1  0.32047505  0.57039982  0.24196621  1
  O2-  O184  1  0.32013209  0.57593695  0.57804834  1
  O2-  O185  1  0.32032883  0.56718739  0.90971329  1
  O2-  O186  1  0.81776639  0.07137308  0.23260153  1
  O2-  O187  1  0.82545819  0.06844562  0.57868494  1
  O2-  O188  1  0.81726559  0.07557085  0.90694583  1
  O2-  O189  1  0.82282513  0.57043917  0.23313846  1
  O2-  O190  1  0.82002927  0.56970067  0.57208626  1
  O2-  O191  1  0.82309530  0.56987967  0.91028491  1
  O2-  O192  1  0.05166823  0.07708059  0.26660319  1
  O2-  O193  1  0.05381967  0.08294437  0.60860698  1
  O2-  O194  1  0.04860291  0.08312728  0.93749981  1
  O2-  O195  1  0.05111647  0.58392850  0.27208500  1
  O2-  O196  1  0.05490337  0.58328674  0.60475832  1
  O2-  O197  1  0.03599957  0.58709287  0.92813705  1
  O2-  O198  1  0.54190285  0.08526717  0.26999425  1
  O2-  O199  1  0.53392140  0.08322274  0.59566635  1
  O2-  O200  1  0.54080888  0.08479585  0.93017516  1
  O2-  O201  1  0.53916280  0.58750339  0.27024331  1
  O2-  O202  1  0.53862919  0.58660322  0.60469198  1
  O2-  O203  1  0.54080829  0.58022464  0.92877820  1
  O2-  O204  1  0.16696941  0.21292928  0.26318782  1
  O2-  O205  1  0.16779777  0.20757600  0.60675549  1
  O2-  O206  1  0.16658728  0.20439812  0.93726678  1
  O2-  O207  1  0.16703453  0.70412384  0.27022549  1
  O2-  O208  1  0.16805552  0.70618364  0.60225582  1
  O2-  O209  1  0.16610360  0.70506916  0.93059795  1
  O2-  O210  1  0.66490685  0.20012009  0.27051164  1
  O2-  O211  1  0.66693763  0.20334313  0.59613935  1
  O2-  O212  1  0.66219736  0.21460797  0.92803883  1
  O2-  O213  1  0.66629210  0.69707332  0.27382089  1
  O2-  O214  1  0.66257443  0.70480792  0.60676211  1
  O2-  O215  1  0.67247975  0.70303689  0.93069905  1
  O2-  O216  1  0.08644160  0.46560827  0.06153958  1
  O2-  O217  1  0.09014701  0.45779940  0.39763485  1
  O2-  O218  1  0.09001955  0.45743562  0.73054915  1
  O2-  O219  1  0.07755047  0.95332763  0.06718557  1
  O2-  O220  1  0.07969607  0.95274107  0.40213364  1
  O2-  O221  1  0.08677704  0.95467145  0.73120739  1
  O2-  O222  1  0.58503605  0.45244536  0.05791312  1
  O2-  O223  1  0.58103353  0.46219072  0.40204427  1
  O2-  O224  1  0.57946216  0.45578776  0.73740389  1
  O2-  O225  1  0.58934464  0.95891181  0.05828406  1
  O2-  O226  1  0.58162360  0.95847669  0.40052172  1
  O2-  O227  1  0.58152432  0.96265000  0.73576721  1
  O2-  O228  1  0.19739046  0.33739749  0.06172495  1
  O2-  O229  1  0.20986831  0.33901891  0.39587276  1
  O2-  O230  1  0.20998077  0.33916122  0.73300214  1
  O2-  O231  1  0.20439883  0.82641811  0.06506464  1
  O2-  O232  1  0.21136253  0.82940953  0.40510068  1
  O2-  O233  1  0.20859044  0.83667942  0.73005699  1
  O2-  O234  1  0.71023844  0.33752905  0.06094578  1
  O2-  O235  1  0.69553103  0.32749436  0.39639510  1
  O2-  O236  1  0.70600289  0.32560469  0.73322279  1
  O2-  O237  1  0.70473554  0.83506141  0.05985444  1
  O2-  O238  1  0.70247066  0.82860245  0.39751437  1
  O2-  O239  1  0.70760256  0.83363568  0.73758989  1
  O2-  O240  1  0.45852709  0.41912123  0.26560751  1
  O2-  O241  1  0.44722244  0.41967564  0.60851488  1
  O2-  O242  1  0.45131032  0.41604794  0.93434820  1
  O2-  O243  1  0.45753965  0.91922253  0.26708546  1
  O2-  O244  1  0.45557240  0.91240628  0.60471649  1
  O2-  O245  1  0.45782541  0.91871696  0.92995844  1
  O2-  O246  1  0.96128759  0.41916809  0.26633938  1
  O2-  O247  1  0.96567550  0.41698157  0.59918995  1
  O2-  O248  1  0.96364968  0.41456592  0.92997838  1
  O2-  O249  1  0.95554208  0.91630236  0.26675408  1
  O2-  O250  1  0.96002516  0.91663676  0.60082196  1
  O2-  O251  1  0.94803653  0.92054828  0.93887417  1
  O2-  O252  1  0.33373649  0.29496247  0.26514207  1
  O2-  O253  1  0.33355680  0.29536747  0.60565675  1
  O2-  O254  1  0.32849151  0.30320864  0.93895367  1
  O2-  O255  1  0.33534355  0.78520195  0.26614887  1
  O2-  O256  1  0.33719931  0.79053597  0.60346065  1
  O2-  O257  1  0.33342948  0.78835791  0.93067985  1
  O2-  O258  1  0.82651358  0.29639763  0.26699179  1
  O2-  O259  1  0.83349168  0.29312549  0.59830942  1
  O2-  O260  1  0.83472837  0.28806934  0.92974623  1
  O2-  O261  1  0.83189988  0.78687382  0.26482224  1
  O2-  O262  1  0.83064893  0.78900924  0.60331465  1
  O2-  O263  1  0.83485940  0.79568964  0.93635711  1
  O2-  O264  1  0.42229058  0.04315310  0.06694010  1
  O2-  O265  1  0.41722611  0.04223806  0.40474498  1
  O2-  O266  1  0.41117661  0.03955045  0.72911487  1
  O2-  O267  1  0.41381741  0.54245463  0.06220720  1
  O2-  O268  1  0.41174506  0.54346409  0.39649266  1
  O2-  O269  1  0.41165959  0.54653602  0.73266803  1
  O2-  O270  1  0.91311911  0.05473327  0.05814581  1
  O2-  O271  1  0.92278081  0.04975685  0.39784992  1
  O2-  O272  1  0.91772423  0.04635562  0.73120287  1
  O2-  O273  1  0.91250786  0.53909072  0.06124976  1
  O2-  O274  1  0.92411043  0.54781886  0.40086868  1
  O2-  O275  1  0.92427312  0.54556633  0.73427112  1
  O2-  O276  1  0.29883819  0.17260073  0.06574834  1
  O2-  O277  1  0.29261338  0.17264993  0.40227491  1
  O2-  O278  1  0.29508526  0.16294090  0.73176469  1
  O2-  O279  1  0.29177975  0.66050815  0.06127206  1
  O2-  O280  1  0.29204516  0.66100459  0.39740170  1
  O2-  O281  1  0.29150836  0.66472297  0.73238321  1
  O2-  O282  1  0.78430293  0.16358652  0.05966344  1
  O2-  O283  1  0.79274022  0.16862871  0.40142290  1
  O2-  O284  1  0.79605762  0.16513405  0.72744772  1
  O2-  O285  1  0.79691655  0.66392005  0.06158101  1
  O2-  O286  1  0.79044541  0.66523980  0.40241975  1
  O2-  O287  1  0.79094472  0.66689566  0.73956939  1
