# generated using pymatgen
data_Ca2Al2SiO7
_symmetry_space_group_name_H-M   'P 1'
_cell_length_a   15.45706270
_cell_length_b   15.45718327
_cell_length_c   15.28305179
_cell_angle_alpha   89.99392072
_cell_angle_beta   89.99634102
_cell_angle_gamma   89.99867490
_symmetry_Int_Tables_number   1
_chemical_formula_structural   Ca2Al2SiO7
_chemical_formula_sum   'Ca48 Al48 Si24 O168'
_cell_volume   3651.46721752
_cell_formula_units_Z   24
loop_
 _symmetry_equiv_pos_site_id
 _symmetry_equiv_pos_as_xyz
  1  'x, y, z'
loop_
 _atom_type_symbol
 _atom_type_oxidation_number
  Ca2+  2.0
  Al0+  0.0
  Si0+  0.0
  O2-  -2.0
loop_
 _atom_site_type_symbol
 _atom_site_label
 _atom_site_symmetry_multiplicity
 _atom_site_fract_x
 _atom_site_fract_y
 _atom_site_fract_z
 _atom_site_occupancy
  Ca2+  Ca0  1  0.17369304  0.08730876  0.16629828  1
  Ca2+  Ca1  1  0.17049968  0.08849430  0.50526981  1
  Ca2+  Ca2  1  0.16913695  0.08651165  0.84260290  1
  Ca2+  Ca3  1  0.17261857  0.58058718  0.17340697  1
  Ca2+  Ca4  1  0.17054960  0.58039181  0.50724541  1
  Ca2+  Ca5  1  0.15737114  0.57456938  0.83183596  1
  Ca2+  Ca6  1  0.66766389  0.07800990  0.16578790  1
  Ca2+  Ca7  1  0.67105822  0.07877749  0.50689701  1
  Ca2+  Ca8  1  0.67496118  0.09001518  0.83847524  1
  Ca2+  Ca9  1  0.67911091  0.57978610  0.17138028  1
  Ca2+  Ca10  1  0.67203430  0.57877237  0.50690750  1
  Ca2+  Ca11  1  0.66874518  0.57622852  0.83533048  1
  Ca2+  Ca12  1  0.07426211  0.32838817  0.16069330  1
  Ca2+  Ca13  1  0.07566861  0.33374459  0.50119925  1
  Ca2+  Ca14  1  0.07376168  0.32242512  0.82638070  1
  Ca2+  Ca15  1  0.07989866  0.83425026  0.16458450  1
  Ca2+  Ca16  1  0.07559761  0.82744399  0.49575658  1
  Ca2+  Ca17  1  0.08628875  0.82839818  0.82765205  1
  Ca2+  Ca18  1  0.57817743  0.32484843  0.15926056  1
  Ca2+  Ca19  1  0.58718866  0.32897039  0.50449406  1
  Ca2+  Ca20  1  0.58151958  0.32313076  0.82325462  1
  Ca2+  Ca21  1  0.58116235  0.84447917  0.16524167  1
  Ca2+  Ca22  1  0.58348258  0.82840418  0.49213652  1
  Ca2+  Ca23  1  0.58858630  0.82911686  0.83124683  1
  Ca2+  Ca24  1  0.33060451  0.42273885  0.17493270  1
  Ca2+  Ca25  1  0.32950700  0.41927503  0.51007178  1
  Ca2+  Ca26  1  0.32701428  0.40652666  0.82997161  1
  Ca2+  Ca27  1  0.32954235  0.92590692  0.17085737  1
  Ca2+  Ca28  1  0.33785428  0.92035686  0.49784255  1
  Ca2+  Ca29  1  0.32440689  0.92360494  0.84358291  1
  Ca2+  Ca30  1  0.84408684  0.42355003  0.16914093  1
  Ca2+  Ca31  1  0.83358487  0.41515877  0.50533542  1
  Ca2+  Ca32  1  0.83390649  0.41505959  0.83600629  1
  Ca2+  Ca33  1  0.82410888  0.92057315  0.17216614  1
  Ca2+  Ca34  1  0.83209227  0.91923586  0.50316702  1
  Ca2+  Ca35  1  0.82996584  0.93357761  0.84113735  1
  Ca2+  Ca36  1  0.42039054  0.15541050  0.16093728  1
  Ca2+  Ca37  1  0.41858784  0.17035058  0.49867847  1
  Ca2+  Ca38  1  0.42801550  0.16417360  0.82862591  1
  Ca2+  Ca39  1  0.41384068  0.67311318  0.16648482  1
  Ca2+  Ca40  1  0.42317841  0.66877182  0.49339646  1
  Ca2+  Ca41  1  0.42537555  0.67141818  0.82343746  1
  Ca2+  Ca42  1  0.91687466  0.17850957  0.15455388  1
  Ca2+  Ca43  1  0.91501110  0.17557778  0.50001736  1
  Ca2+  Ca44  1  0.91905672  0.16907656  0.82481972  1
  Ca2+  Ca45  1  0.90536682  0.67123333  0.16565633  1
  Ca2+  Ca46  1  0.92159680  0.66534629  0.49265683  1
  Ca2+  Ca47  1  0.91749812  0.66936059  0.82963572  1
  Al0+  Al48  1  -0.00067284  -0.00060313  0.00536700  1
  Al0+  Al49  1  0.00096067  -0.00109742  0.32843103  1
  Al0+  Al50  1  0.00054182  0.00002294  0.66657094  1
  Al0+  Al51  1  0.00027603  0.50103814  0.00140804  1
  Al0+  Al52  1  0.00122845  0.49838752  0.33311719  1
  Al0+  Al53  1  0.00246429  0.50180232  0.66359222  1
  Al0+  Al54  1  0.49812131  -0.00050255  -0.00131219  1
  Al0+  Al55  1  0.49974450  -0.00204013  0.33909128  1
  Al0+  Al56  1  0.49975120  -0.00071220  0.66451585  1
  Al0+  Al57  1  0.49996580  0.50175414  0.00040989  1
  Al0+  Al58  1  0.50078819  0.49874198  0.33577120  1
  Al0+  Al59  1  0.50181827  0.50224373  0.66374470  1
  Al0+  Al60  1  0.24819070  0.25205525  0.00342888  1
  Al0+  Al61  1  0.25098605  0.24964038  0.33702153  1
  Al0+  Al62  1  0.25013040  0.25107530  0.66541675  1
  Al0+  Al63  1  0.24947282  0.75065150  0.00209209  1
  Al0+  Al64  1  0.25209486  0.75036012  0.33357136  1
  Al0+  Al65  1  0.25009076  0.75087833  0.66233636  1
  Al0+  Al66  1  0.74614298  0.25226620  -0.00249890  1
  Al0+  Al67  1  0.75025395  0.24941600  0.32624379  1
  Al0+  Al68  1  0.74931646  0.25046071  0.66626808  1
  Al0+  Al69  1  0.74921718  0.74843164  0.00542683  1
  Al0+  Al70  1  0.75120246  0.74760947  0.33793138  1
  Al0+  Al71  1  0.74867757  0.75052254  0.66277024  1
  Al0+  Al72  1  0.07079631  0.17739392  0.98605755  1
  Al0+  Al73  1  0.43115520  0.82028478  0.31790490  1
  Al0+  Al74  1  0.17660886  0.92569805  0.01601450  1
  Al0+  Al75  1  0.92868169  0.32317937  0.98329832  1
  Al0+  Al76  1  0.32202400  0.57198576  0.34790489  1
  Al0+  Al77  1  0.82140877  0.56843401  0.34862758  1
  Al0+  Al78  1  0.92786925  0.82008876  0.31880461  1
  Al0+  Al79  1  0.82120348  0.07556524  0.01569721  1
  Al0+  Al80  1  0.07179294  0.17656502  0.65117738  1
  Al0+  Al81  1  0.57223585  0.67982997  0.65249456  1
  Al0+  Al82  1  0.92832620  0.32132713  0.65164839  1
  Al0+  Al83  1  0.57220892  0.17722368  0.64972151  1
  Al0+  Al84  1  0.82047680  0.06985966  0.67827738  1
  Al0+  Al85  1  0.31916635  0.07187590  0.01337029  1
  Al0+  Al86  1  0.32016010  0.07002393  0.34995601  1
  Al0+  Al87  1  0.56747408  0.17824292  0.98686830  1
  Al0+  Al88  1  0.82083751  0.56856352  0.01266862  1
  Al0+  Al89  1  0.67999913  0.92854829  0.01396802  1
  Al0+  Al90  1  0.42905047  0.32063056  0.65196697  1
  Al0+  Al91  1  0.92938036  0.31990515  0.31780357  1
  Al0+  Al92  1  0.67948108  0.43027529  0.68024644  1
  Al0+  Al93  1  0.07086179  0.67965674  0.65317191  1
  Al0+  Al94  1  0.68056136  0.93036576  0.34863565  1
  Al0+  Al95  1  0.17911855  0.42947436  0.68148951  1
  Si0+  Si96  1  0.32118046  0.07114163  0.68172009  1
  Si0+  Si97  1  0.92658307  0.81967959  0.98672726  1
  Si0+  Si98  1  0.67469114  0.42857714  0.01695747  1
  Si0+  Si99  1  0.17953457  0.43115949  0.01560730  1
  Si0+  Si100  1  0.42696169  0.32670623  0.98523367  1
  Si0+  Si101  1  0.56883989  0.17839431  0.31837109  1
  Si0+  Si102  1  0.32308968  0.57236658  0.01377952  1
  Si0+  Si103  1  0.67779360  0.42496545  0.34945136  1
  Si0+  Si104  1  0.82354335  0.07349479  0.34864822  1
  Si0+  Si105  1  0.92797220  0.82237436  0.65184655  1
  Si0+  Si106  1  0.42825501  0.81969539  0.98481211  1
  Si0+  Si107  1  0.17651656  0.92767984  0.35206066  1
  Si0+  Si108  1  0.57254845  0.67574314  0.31458640  1
  Si0+  Si109  1  0.07467526  0.17783048  0.31595165  1
  Si0+  Si110  1  0.57156859  0.67857455  0.98597319  1
  Si0+  Si111  1  0.42726577  0.82176081  0.64936003  1
  Si0+  Si112  1  0.82316589  0.57377877  0.68239472  1
  Si0+  Si113  1  0.07280005  0.68040912  0.98610757  1
  Si0+  Si114  1  0.17969152  0.42849618  0.35130545  1
  Si0+  Si115  1  0.07235316  0.67819614  0.31582045  1
  Si0+  Si116  1  0.32200601  0.57378005  0.68384225  1
  Si0+  Si117  1  0.17959476  0.92825908  0.67974231  1
  Si0+  Si118  1  0.42789723  0.32151544  0.31879538  1
  Si0+  Si119  1  0.67641260  0.92670364  0.68295358  1
  O2-  O120  1  0.24494538  0.00226918  0.06404501  1
  O2-  O121  1  0.24245291  -0.00146882  0.39727082  1
  O2-  O122  1  0.24845697  0.00098959  0.72230767  1
  O2-  O123  1  0.25392847  0.49984558  0.05639068  1
  O2-  O124  1  0.24848512  0.49733868  0.39491154  1
  O2-  O125  1  0.25488677  0.50425142  0.72950819  1
  O2-  O126  1  0.75066330  0.00124698  0.06484842  1
  O2-  O127  1  0.75781693  0.00265276  0.39433665  1
  O2-  O128  1  0.74367037  -0.00318246  0.72559078  1
  O2-  O129  1  0.74912658  0.49128285  0.06035995  1
  O2-  O130  1  0.74726643  0.49293846  0.39328017  1
  O2-  O131  1  0.75631520  0.50363394  0.72679076  1
  O2-  O132  1  0.00203696  0.24250610  0.27257897  1
  O2-  O133  1  -0.00013194  0.24857601  0.60149526  1
  O2-  O134  1  -0.00600048  0.24394638  0.93527735  1
  O2-  O135  1  0.00251025  0.74500275  0.27072643  1
  O2-  O136  1  -0.00677412  0.75069354  0.60710132  1
  O2-  O137  1  0.00277033  0.75317544  0.94475620  1
  O2-  O138  1  0.49768380  0.24999865  0.27612263  1
  O2-  O139  1  0.49981827  0.24891327  0.59943967  1
  O2-  O140  1  0.49301373  0.25507324  0.94304084  1
  O2-  O141  1  0.50498800  0.74516272  0.26903663  1
  O2-  O142  1  0.49816088  0.75503053  0.60637390  1
  O2-  O143  1  0.50057669  0.74969316  0.94331408  1
  O2-  O144  1  0.07468498  0.18462671  0.09972442  1
  O2-  O145  1  0.07641508  0.17975387  0.42139231  1
  O2-  O146  1  0.07178051  0.17519878  0.76445901  1
  O2-  O147  1  0.07581199  0.67907398  0.09099074  1
  O2-  O148  1  0.07193436  0.67956264  0.42144100  1
  O2-  O149  1  0.07131224  0.68221926  0.76689434  1
  O2-  O150  1  0.56462309  0.17881448  0.10079330  1
  O2-  O151  1  0.56956944  0.18031940  0.42314920  1
  O2-  O152  1  0.56961946  0.17649318  0.76326359  1
  O2-  O153  1  0.56907221  0.67543895  0.09068205  1
  O2-  O154  1  0.57022383  0.67628637  0.42019933  1
  O2-  O155  1  0.57145910  0.68205643  0.76644848  1
  O2-  O156  1  0.18170073  0.42947783  0.24498069  1
  O2-  O157  1  0.18040004  0.43265108  0.56848470  1
  O2-  O158  1  0.17891940  0.43244169  0.91075319  1
  O2-  O159  1  0.17841490  0.92682797  0.24675141  1
  O2-  O160  1  0.18087073  0.92641285  0.57479226  1
  O2-  O161  1  0.18312389  0.91747625  0.90227213  1
  O2-  O162  1  0.67432862  0.42603321  0.24373652  1
  O2-  O163  1  0.68044509  0.43257510  0.56693725  1
  O2-  O164  1  0.66910435  0.43351123  0.91183865  1
  O2-  O165  1  0.67886112  0.93447702  0.23575478  1
  O2-  O166  1  0.67760097  0.92547520  0.57728525  1
  O2-  O167  1  0.68359183  0.92405543  0.90050807  1
  O2-  O168  1  0.42984152  0.33256776  0.09119032  1
  O2-  O169  1  0.42747062  0.32192038  0.42325259  1
  O2-  O170  1  0.42887542  0.31681672  0.76597992  1
  O2-  O171  1  0.42712135  0.81799714  0.08973894  1
  O2-  O172  1  0.43350659  0.81892567  0.43102713  1
  O2-  O173  1  0.42457568  0.82017383  0.75531445  1
  O2-  O174  1  0.93524322  0.32637498  0.09713297  1
  O2-  O175  1  0.92910418  0.32005786  0.43047430  1
  O2-  O176  1  0.92971279  0.32076069  0.76492780  1
  O2-  O177  1  0.92477236  0.81484065  0.09164261  1
  O2-  O178  1  0.93098711  0.81912980  0.43211904  1
  O2-  O179  1  0.92916809  0.82183487  0.75776074  1
  O2-  O180  1  0.32019908  0.06949510  0.23708347  1
  O2-  O181  1  0.32191161  0.06895382  0.57645226  1
  O2-  O182  1  0.32047900  0.06822093  0.89951073  1
  O2-  O183  1  0.31984992  0.56920646  0.23381876  1
  O2-  O184  1  0.31937667  0.57460821  0.57825979  1
  O2-  O185  1  0.32459955  0.57470375  0.90916424  1
  O2-  O186  1  0.82002870  0.07432143  0.24334386  1
  O2-  O187  1  0.82072089  0.06606536  0.56479375  1
  O2-  O188  1  0.82024171  0.07316894  0.90187488  1
  O2-  O189  1  0.81949218  0.56765034  0.23526276  1
  O2-  O190  1  0.82157370  0.57486765  0.57686894  1
  O2-  O191  1  0.81891020  0.57201346  0.89963441  1
  O2-  O192  1  0.05603324  0.08208049  0.27204879  1
  O2-  O193  1  0.04539257  0.07764794  0.59760338  1
  O2-  O194  1  0.05265629  0.07414984  0.93845042  1
  O2-  O195  1  0.04989967  0.58338768  0.27109172  1
  O2-  O196  1  0.04431260  0.58417675  0.59628116  1
  O2-  O197  1  0.04223355  0.58965479  0.93852483  1
  O2-  O198  1  0.53752075  0.08704942  0.27329188  1
  O2-  O199  1  0.54397959  0.07810566  0.59763456  1
  O2-  O200  1  0.53596007  0.08267275  0.93074480  1
  O2-  O201  1  0.54566156  0.58176449  0.26906651  1
  O2-  O202  1  0.54141829  0.58527723  0.59597008  1
  O2-  O203  1  0.54206359  0.58780801  0.93669736  1
  O2-  O204  1  0.16741427  0.20876130  0.26986882  1
  O2-  O205  1  0.16978989  0.20628492  0.59912772  1
  O2-  O206  1  0.16903175  0.21122178  0.93407392  1
  O2-  O207  1  0.16589621  0.70526488  0.27006670  1
  O2-  O208  1  0.16618840  0.71236743  0.59741806  1
  O2-  O209  1  0.16459164  0.70641911  0.93694526  1
  O2-  O210  1  0.65989660  0.20508237  0.26880099  1
  O2-  O211  1  0.66898648  0.20760281  0.59593422  1
  O2-  O212  1  0.66322199  0.20932700  0.93218563  1
  O2-  O213  1  0.66731123  0.70030831  0.27185330  1
  O2-  O214  1  0.66801547  0.70895858  0.59557124  1
  O2-  O215  1  0.66286685  0.70738683  0.93839212  1
  O2-  O216  1  0.09076635  0.46459575  0.06529014  1
  O2-  O217  1  0.08665782  0.45502905  0.39666681  1
  O2-  O218  1  0.08386254  0.46473015  0.73601145  1
  O2-  O219  1  0.07685540  0.94574065  0.06848132  1
  O2-  O220  1  0.08119511  0.94995327  0.39646615  1
  O2-  O221  1  0.08699238  0.95118120  0.72741043  1
  O2-  O222  1  0.58369648  0.46059889  0.06666459  1
  O2-  O223  1  0.58467067  0.45039440  0.39653440  1
  O2-  O224  1  0.58349129  0.46424408  0.73451839  1
  O2-  O225  1  0.58011137  0.95626075  0.06387545  1
  O2-  O226  1  0.58554799  0.96154169  0.40467789  1
  O2-  O227  1  0.58109974  0.94843400  0.72767776  1
  O2-  O228  1  0.20491191  0.34052869  0.06620890  1
  O2-  O229  1  0.20569090  0.33557112  0.39728113  1
  O2-  O230  1  0.21101936  0.33311961  0.73620038  1
  O2-  O231  1  0.21028476  0.82931700  0.07183777  1
  O2-  O232  1  0.20545164  0.83469323  0.39758154  1
  O2-  O233  1  0.21043006  0.83719281  0.72819360  1
  O2-  O234  1  0.69261520  0.33336907  0.06143471  1
  O2-  O235  1  0.70432404  0.33079461  0.39348606  1
  O2-  O236  1  0.70669621  0.33311199  0.73419131  1
  O2-  O237  1  0.70696903  0.83088195  0.06959958  1
  O2-  O238  1  0.70880033  0.83237718  0.40105471  1
  O2-  O239  1  0.70289378  0.83278767  0.72848991  1
  O2-  O240  1  0.45645936  0.41323103  0.27035307  1
  O2-  O241  1  0.45528152  0.42019626  0.60109645  1
  O2-  O242  1  0.45341741  0.41934811  0.93690148  1
  O2-  O243  1  0.46340511  0.91734777  0.26549149  1
  O2-  O244  1  0.45102178  0.91553086  0.60364408  1
  O2-  O245  1  0.45456046  0.91052552  0.93557076  1
  O2-  O246  1  0.96438427  0.41602839  0.26430270  1
  O2-  O247  1  0.95814142  0.41980056  0.59963875  1
  O2-  O248  1  0.96342232  0.42066681  0.93151310  1
  O2-  O249  1  0.95679163  0.91684716  0.26355898  1
  O2-  O250  1  0.95806809  0.91308493  0.60336972  1
  O2-  O251  1  0.94899444  0.91355692  0.94177785  1
  O2-  O252  1  0.33524970  0.29576958  0.27150875  1
  O2-  O253  1  0.33126956  0.29309260  0.59784383  1
  O2-  O254  1  0.33149204  0.30410668  0.94315156  1
  O2-  O255  1  0.33392232  0.78959912  0.26427579  1
  O2-  O256  1  0.33550526  0.79496954  0.60040254  1
  O2-  O257  1  0.33745233  0.78865810  0.93661107  1
  O2-  O258  1  0.83221803  0.29327077  0.26169526  1
  O2-  O259  1  0.83042920  0.29347816  0.59837063  1
  O2-  O260  1  0.82538166  0.30608019  0.93757109  1
  O2-  O261  1  0.83146096  0.78651668  0.26582940  1
  O2-  O262  1  0.83362851  0.80103818  0.60589317  1
  O2-  O263  1  0.83744883  0.78498860  0.93811026  1
  O2-  O264  1  0.41538290  0.03731392  0.06687216  1
  O2-  O265  1  0.41440791  0.03542397  0.40549267  1
  O2-  O266  1  0.41287911  0.04094820  0.72858939  1
  O2-  O267  1  0.41466247  0.54672046  0.06338040  1
  O2-  O268  1  0.41915714  0.54194276  0.40074330  1
  O2-  O269  1  0.41684431  0.55113410  0.72791900  1
  O2-  O270  1  0.91988864  0.04990151  0.06844660  1
  O2-  O271  1  0.91924872  0.05033667  0.39119976  1
  O2-  O272  1  0.91648009  0.03679396  0.73339885  1
  O2-  O273  1  0.91839202  0.54254815  0.06818076  1
  O2-  O274  1  0.91973695  0.53992596  0.40017956  1
  O2-  O275  1  0.91831324  0.55236144  0.72642791  1
  O2-  O276  1  0.29630880  0.17184205  0.06745908  1
  O2-  O277  1  0.29286480  0.16812186  0.40331131  1
  O2-  O278  1  0.29565092  0.16321616  0.72814958  1
  O2-  O279  1  0.29237253  0.66231980  0.06303752  1
  O2-  O280  1  0.29229765  0.66862265  0.40172402  1
  O2-  O281  1  0.29485755  0.66793772  0.72896351  1
  O2-  O282  1  0.78965383  0.17384235  0.06750940  1
  O2-  O283  1  0.79370194  0.16657195  0.39348815  1
  O2-  O284  1  0.79066969  0.16626835  0.73172864  1
  O2-  O285  1  0.78527781  0.66209487  0.06975243  1
  O2-  O286  1  0.79182945  0.66410385  0.40421565  1
  O2-  O287  1  0.79495386  0.66761929  0.72781701  1
