# generated using pymatgen
data_Ca2Al2SiO7
_symmetry_space_group_name_H-M   'P 1'
_cell_length_a   15.44820698
_cell_length_b   15.44847299
_cell_length_c   15.27710488
_cell_angle_alpha   89.99778564
_cell_angle_beta   89.99885410
_cell_angle_gamma   89.99670436
_symmetry_Int_Tables_number   1
_chemical_formula_structural   Ca2Al2SiO7
_chemical_formula_sum   'Ca48 Al48 Si24 O168'
_cell_volume   3645.89952868
_cell_formula_units_Z   24
loop_
 _symmetry_equiv_pos_site_id
 _symmetry_equiv_pos_as_xyz
  1  'x, y, z'
loop_
 _atom_type_symbol
 _atom_type_oxidation_number
  Ca2+  2.0
  Al0+  0.0
  Si0+  0.0
  O2-  -2.0
loop_
 _atom_site_type_symbol
 _atom_site_label
 _atom_site_symmetry_multiplicity
 _atom_site_fract_x
 _atom_site_fract_y
 _atom_site_fract_z
 _atom_site_occupancy
  Ca2+  Ca0  1  0.16911280  0.07991881  0.16824743  1
  Ca2+  Ca1  1  0.16920668  0.08873724  0.50876829  1
  Ca2+  Ca2  1  0.17952785  0.08149453  0.83930710  1
  Ca2+  Ca3  1  0.16179437  0.58133893  0.16854923  1
  Ca2+  Ca4  1  0.17149530  0.58290016  0.50425624  1
  Ca2+  Ca5  1  0.16929759  0.58007737  0.83975574  1
  Ca2+  Ca6  1  0.65848780  0.07836987  0.16356896  1
  Ca2+  Ca7  1  0.67499959  0.08835092  0.50948507  1
  Ca2+  Ca8  1  0.66525476  0.08296993  0.83769045  1
  Ca2+  Ca9  1  0.67817160  0.58308471  0.17872472  1
  Ca2+  Ca10  1  0.66325743  0.57301000  0.50066562  1
  Ca2+  Ca11  1  0.67122295  0.57701093  0.83659653  1
  Ca2+  Ca12  1  0.07894834  0.33505029  0.16432495  1
  Ca2+  Ca13  1  0.07970498  0.31997908  0.49247114  1
  Ca2+  Ca14  1  0.08427535  0.32954540  0.82939017  1
  Ca2+  Ca15  1  0.08708664  0.82062775  0.15883688  1
  Ca2+  Ca16  1  0.07576295  0.82909692  0.49703239  1
  Ca2+  Ca17  1  0.08178344  0.83250665  0.83089747  1
  Ca2+  Ca18  1  0.57987450  0.33207260  0.16471755  1
  Ca2+  Ca19  1  0.57807589  0.33822228  0.49804799  1
  Ca2+  Ca20  1  0.58037216  0.32285876  0.82337396  1
  Ca2+  Ca21  1  0.58199233  0.83046366  0.15914327  1
  Ca2+  Ca22  1  0.57580310  0.82804930  0.49740811  1
  Ca2+  Ca23  1  0.57256276  0.83981185  0.83131474  1
  Ca2+  Ca24  1  0.32736672  0.41110665  0.17048143  1
  Ca2+  Ca25  1  0.34038766  0.42071289  0.50863030  1
  Ca2+  Ca26  1  0.33110951  0.41986162  0.83355902  1
  Ca2+  Ca27  1  0.33481201  0.91958792  0.16176693  1
  Ca2+  Ca28  1  0.33079720  0.92292675  0.51022010  1
  Ca2+  Ca29  1  0.33702044  0.92485260  0.84176629  1
  Ca2+  Ca30  1  0.83009997  0.42566643  0.17680755  1
  Ca2+  Ca31  1  0.82472082  0.41415606  0.50079144  1
  Ca2+  Ca32  1  0.82663759  0.41968761  0.83757612  1
  Ca2+  Ca33  1  0.82656344  0.91616177  0.16776351  1
  Ca2+  Ca34  1  0.83316710  0.92025273  0.50908138  1
  Ca2+  Ca35  1  0.82978406  0.91984440  0.83484367  1
  Ca2+  Ca36  1  0.41934926  0.17048836  0.15993294  1
  Ca2+  Ca37  1  0.41734085  0.17771597  0.50100734  1
  Ca2+  Ca38  1  0.42437113  0.16393451  0.82487346  1
  Ca2+  Ca39  1  0.42613354  0.67163904  0.16165058  1
  Ca2+  Ca40  1  0.41959322  0.66767881  0.49748315  1
  Ca2+  Ca41  1  0.40902392  0.67960265  0.82779200  1
  Ca2+  Ca42  1  0.91845705  0.17426425  0.16782283  1
  Ca2+  Ca43  1  0.92579647  0.16688355  0.49551028  1
  Ca2+  Ca44  1  0.92484081  0.16138321  0.82291646  1
  Ca2+  Ca45  1  0.92361200  0.65556086  0.16178860  1
  Ca2+  Ca46  1  0.91767797  0.66913970  0.49421724  1
  Ca2+  Ca47  1  0.91941714  0.66930906  0.83329797  1
  Al0+  Al48  1  0.00043226  -0.00011263  0.00524140  1
  Al0+  Al49  1  0.00032331  -0.00158805  0.32828138  1
  Al0+  Al50  1  -0.00109728  -0.00184146  0.66253446  1
  Al0+  Al51  1  0.00040795  0.49982697  0.00042563  1
  Al0+  Al52  1  0.00023813  0.49991558  0.33417064  1
  Al0+  Al53  1  -0.00057904  0.49982352  0.66618686  1
  Al0+  Al54  1  0.50148088  0.00073428  0.00212295  1
  Al0+  Al55  1  0.49798362  0.00115631  0.33670904  1
  Al0+  Al56  1  0.50008277  -0.00038611  0.65889329  1
  Al0+  Al57  1  0.50008795  0.49981710  -0.00108617  1
  Al0+  Al58  1  0.49976814  0.50109552  0.32553359  1
  Al0+  Al59  1  0.49987729  0.50061513  0.67672713  1
  Al0+  Al60  1  0.24952084  0.25142483  0.00801356  1
  Al0+  Al61  1  0.25133596  0.24897960  0.32627886  1
  Al0+  Al62  1  0.25028348  0.24967782  0.66411375  1
  Al0+  Al63  1  0.25037080  0.74951490  -0.00469003  1
  Al0+  Al64  1  0.24816001  0.75222875  0.33112286  1
  Al0+  Al65  1  0.24990190  0.74917264  0.66537014  1
  Al0+  Al66  1  0.74990423  0.25081988  -0.00331546  1
  Al0+  Al67  1  0.74974096  0.24845385  0.33224436  1
  Al0+  Al68  1  0.75107473  0.24972455  0.67375637  1
  Al0+  Al69  1  0.75147546  0.75036053  0.00721509  1
  Al0+  Al70  1  0.74911277  0.75061243  0.33559647  1
  Al0+  Al71  1  0.75036772  0.74949405  0.66310807  1
  Al0+  Al72  1  0.07061789  0.68038551  0.32028133  1
  Al0+  Al73  1  0.07237617  0.17713369  0.31504330  1
  Al0+  Al74  1  0.68019271  0.93128433  0.01230718  1
  Al0+  Al75  1  0.57003616  0.68044781  0.32040489  1
  Al0+  Al76  1  0.18032404  0.43060892  0.01405159  1
  Al0+  Al77  1  0.92857328  0.81967286  0.65412366  1
  Al0+  Al78  1  0.32245214  0.07078151  0.01604918  1
  Al0+  Al79  1  0.82340486  0.57160476  0.35175620  1
  Al0+  Al80  1  0.07078446  0.17972337  0.65623866  1
  Al0+  Al81  1  0.32074252  0.07096710  0.67850872  1
  Al0+  Al82  1  0.06971401  0.67827556  0.98467039  1
  Al0+  Al83  1  0.17808010  0.92737005  0.01503147  1
  Al0+  Al84  1  0.43005492  0.32235082  0.65389636  1
  Al0+  Al85  1  0.81931395  0.56932155  0.01297090  1
  Al0+  Al86  1  0.67918161  0.42916922  0.68248762  1
  Al0+  Al87  1  0.56971655  0.18062684  0.98604838  1
  Al0+  Al88  1  0.32083195  0.57199071  0.67996483  1
  Al0+  Al89  1  0.92783738  0.31995152  0.31914296  1
  Al0+  Al90  1  0.57344533  0.17856358  0.65055640  1
  Al0+  Al91  1  0.42785383  0.82133804  0.65227268  1
  Al0+  Al92  1  0.82200400  0.06986096  0.67917646  1
  Al0+  Al93  1  0.67745823  0.42815673  0.34762464  1
  Al0+  Al94  1  0.43076879  0.32191373  0.31866867  1
  Al0+  Al95  1  0.43169412  0.81886215  0.98708744  1
  Si0+  Si96  1  0.82373571  0.07464735  0.01821715  1
  Si0+  Si97  1  0.92660849  0.82208531  0.31482482  1
  Si0+  Si98  1  0.17985327  0.42762104  0.34884678  1
  Si0+  Si99  1  0.32303313  0.57335486  0.01791520  1
  Si0+  Si100  1  0.57572966  0.67717652  0.98308402  1
  Si0+  Si101  1  0.42751947  0.82407303  0.31611860  1
  Si0+  Si102  1  0.17865156  0.92841000  0.34965895  1
  Si0+  Si103  1  0.67720143  0.42654473  0.01751149  1
  Si0+  Si104  1  0.82149155  0.06905424  0.34761417  1
  Si0+  Si105  1  0.82333497  0.57361094  0.68399891  1
  Si0+  Si106  1  0.92666424  0.82368326  0.98416655  1
  Si0+  Si107  1  0.57200810  0.67740854  0.65212933  1
  Si0+  Si108  1  0.17733463  0.92741407  0.68174083  1
  Si0+  Si109  1  0.93030502  0.32092785  0.98388480  1
  Si0+  Si110  1  0.31987555  0.07168147  0.35082185  1
  Si0+  Si111  1  0.57261717  0.17617426  0.31666759  1
  Si0+  Si112  1  0.17692551  0.42789303  0.68098246  1
  Si0+  Si113  1  0.07104142  0.17818544  0.98538937  1
  Si0+  Si114  1  0.67714157  0.92898896  0.35019462  1
  Si0+  Si115  1  0.92732088  0.32377637  0.65156501  1
  Si0+  Si116  1  0.07164530  0.67636196  0.64984481  1
  Si0+  Si117  1  0.31989839  0.57189357  0.34561880  1
  Si0+  Si118  1  0.42512185  0.32287081  0.98208465  1
  Si0+  Si119  1  0.67784257  0.92654005  0.68132251  1
  O2-  O120  1  0.24882337  0.00000666  0.06656595  1
  O2-  O121  1  0.24707662  0.00166201  0.39251426  1
  O2-  O122  1  0.24743505  -0.00530593  0.72524774  1
  O2-  O123  1  0.25698836  0.50267461  0.06296566  1
  O2-  O124  1  0.25062356  0.49970895  0.38982230  1
  O2-  O125  1  0.24467603  0.49765105  0.72489175  1
  O2-  O126  1  0.75496592  0.00539779  0.06150290  1
  O2-  O127  1  0.74916711  -0.00042983  0.39100474  1
  O2-  O128  1  0.74489077  -0.00281953  0.72503334  1
  O2-  O129  1  0.74121470  0.49914346  0.06117791  1
  O2-  O130  1  0.75057756  0.49884334  0.39917523  1
  O2-  O131  1  0.75587812  0.50365501  0.72750999  1
  O2-  O132  1  0.00150607  0.25088427  0.26614679  1
  O2-  O133  1  -0.00349905  0.25479817  0.60903645  1
  O2-  O134  1  -0.00151943  0.24688850  0.94172768  1
  O2-  O135  1  -0.00772160  0.75042370  0.27175700  1
  O2-  O136  1  0.00142976  0.74363462  0.60646062  1
  O2-  O137  1  -0.00258998  0.75674579  0.94023091  1
  O2-  O138  1  0.50637693  0.24733095  0.27329679  1
  O2-  O139  1  0.50228877  0.25179013  0.60141780  1
  O2-  O140  1  0.49519262  0.25540776  0.93929012  1
  O2-  O141  1  0.49752411  0.75692450  0.27260661  1
  O2-  O142  1  0.50273276  0.74584815  0.60752553  1
  O2-  O143  1  0.50482779  0.74298887  0.93844715  1
  O2-  O144  1  0.06880178  0.17924861  0.09027502  1
  O2-  O145  1  0.07152321  0.17729464  0.42902126  1
  O2-  O146  1  0.07053009  0.18070522  0.76972854  1
  O2-  O147  1  0.06747372  0.67746557  0.09783530  1
  O2-  O148  1  0.07444604  0.68512742  0.43346652  1
  O2-  O149  1  0.07101377  0.67533031  0.75531475  1
  O2-  O150  1  0.56928931  0.18215894  0.09965857  1
  O2-  O151  1  0.57182136  0.17279683  0.42178590  1
  O2-  O152  1  0.57139051  0.17823266  0.76425070  1
  O2-  O153  1  0.57456852  0.67896996  0.08886354  1
  O2-  O154  1  0.56548758  0.68110737  0.43372919  1
  O2-  O155  1  0.57422853  0.68011700  0.75770935  1
  O2-  O156  1  0.18040136  0.42883377  0.24362758  1
  O2-  O157  1  0.17530391  0.42949255  0.57528080  1
  O2-  O158  1  0.17981003  0.43054388  0.90064648  1
  O2-  O159  1  0.18093202  0.92630092  0.24499051  1
  O2-  O160  1  0.17805300  0.92753267  0.57548900  1
  O2-  O161  1  0.17640013  0.93077312  0.90136250  1
  O2-  O162  1  0.67833938  0.43022977  0.23386383  1
  O2-  O163  1  0.67852533  0.43118992  0.56945009  1
  O2-  O164  1  0.68008286  0.42623129  0.91185420  1
  O2-  O165  1  0.67634915  0.93003658  0.24497020  1
  O2-  O166  1  0.68040075  0.92476562  0.57535824  1
  O2-  O167  1  0.68116357  0.93220464  0.89925975  1
  O2-  O168  1  0.42669727  0.32271076  0.08798902  1
  O2-  O169  1  0.42894960  0.32229509  0.43150843  1
  O2-  O170  1  0.42930537  0.32107154  0.76730083  1
  O2-  O171  1  0.43419551  0.81732913  0.10058907  1
  O2-  O172  1  0.42703018  0.82395212  0.42183374  1
  O2-  O173  1  0.42888946  0.82205088  0.76529767  1
  O2-  O174  1  0.93052846  0.32053763  0.08882304  1
  O2-  O175  1  0.92898517  0.31552865  0.43296637  1
  O2-  O176  1  0.93046897  0.32582374  0.75760525  1
  O2-  O177  1  0.92548921  0.82328612  0.08968699  1
  O2-  O178  1  0.92929176  0.82518134  0.42063858  1
  O2-  O179  1  0.92870146  0.81903010  0.76722567  1
  O2-  O180  1  0.32255179  0.06897965  0.24599821  1
  O2-  O181  1  0.31710612  0.07068672  0.56492102  1
  O2-  O182  1  0.32194569  0.07031881  0.90227581  1
  O2-  O183  1  0.31772765  0.57265945  0.24064659  1
  O2-  O184  1  0.31933069  0.57222296  0.56598662  1
  O2-  O185  1  0.32103415  0.57269402  0.91229727  1
  O2-  O186  1  0.82091214  0.06738511  0.24239353  1
  O2-  O187  1  0.82312096  0.06713368  0.56559554  1
  O2-  O188  1  0.82634208  0.07385119  0.91272929  1
  O2-  O189  1  0.82207498  0.57065184  0.23798844  1
  O2-  O190  1  0.82448620  0.57405845  0.57888709  1
  O2-  O191  1  0.81883653  0.56747463  0.89939028  1
  O2-  O192  1  0.04243155  0.07899210  0.26228164  1
  O2-  O193  1  0.03986199  0.08421060  0.60027457  1
  O2-  O194  1  0.04457038  0.08516138  0.93962984  1
  O2-  O195  1  0.04549492  0.58159495  0.26851291  1
  O2-  O196  1  0.04773514  0.58222692  0.60319671  1
  O2-  O197  1  0.03513534  0.58318054  0.92966933  1
  O2-  O198  1  0.54174931  0.08327476  0.27039112  1
  O2-  O199  1  0.54741665  0.08081742  0.59560819  1
  O2-  O200  1  0.54021389  0.08359377  0.93342910  1
  O2-  O201  1  0.53862547  0.58713474  0.26131938  1
  O2-  O202  1  0.54341456  0.58417705  0.60825463  1
  O2-  O203  1  0.55322970  0.58167053  0.93889381  1
  O2-  O204  1  0.17025786  0.20431970  0.26195693  1
  O2-  O205  1  0.16508548  0.21112848  0.59854312  1
  O2-  O206  1  0.16348918  0.20896523  0.94117305  1
  O2-  O207  1  0.16558491  0.71462993  0.26392019  1
  O2-  O208  1  0.16426143  0.70339244  0.60289980  1
  O2-  O209  1  0.16682498  0.70583280  0.93047042  1
  O2-  O210  1  0.66687634  0.19665522  0.27015810  1
  O2-  O211  1  0.67394078  0.20682003  0.60199828  1
  O2-  O212  1  0.66768375  0.20883464  0.93207197  1
  O2-  O213  1  0.66720365  0.71152249  0.26737535  1
  O2-  O214  1  0.66467453  0.70215818  0.60342634  1
  O2-  O215  1  0.66933519  0.70484928  0.93880931  1
  O2-  O216  1  0.08479236  0.46366733  0.06846510  1
  O2-  O217  1  0.08850988  0.45430197  0.39701294  1
  O2-  O218  1  0.08299758  0.45255265  0.72845626  1
  O2-  O219  1  0.07968048  0.95357483  0.07041851  1
  O2-  O220  1  0.08439978  0.95328150  0.39441596  1
  O2-  O221  1  0.08382640  0.95322927  0.72673149  1
  O2-  O222  1  0.58061126  0.44664258  0.05993941  1
  O2-  O223  1  0.57857547  0.46157153  0.39796100  1
  O2-  O224  1  0.58549457  0.46122831  0.74106693  1
  O2-  O225  1  0.58628142  0.96327243  0.07073395  1
  O2-  O226  1  0.58474231  0.95607687  0.39758481  1
  O2-  O227  1  0.58338465  0.95183281  0.72470120  1
  O2-  O228  1  0.20726375  0.33500330  0.07244358  1
  O2-  O229  1  0.20878343  0.33464424  0.39326956  1
  O2-  O230  1  0.20365347  0.33517422  0.72777887  1
  O2-  O231  1  0.20909588  0.82860211  0.06618886  1
  O2-  O232  1  0.20870647  0.83785366  0.39924880  1
  O2-  O233  1  0.20032626  0.83276511  0.72631152  1
  O2-  O234  1  0.70681823  0.33397233  0.06335408  1
  O2-  O235  1  0.70382543  0.32783507  0.39884514  1
  O2-  O236  1  0.71099023  0.33421361  0.73922313  1
  O2-  O237  1  0.70986893  0.83577193  0.07002537  1
  O2-  O238  1  0.70407239  0.83780646  0.39868855  1
  O2-  O239  1  0.70499179  0.83340586  0.72788776  1
  O2-  O240  1  0.45752835  0.41732084  0.26052550  1
  O2-  O241  1  0.45833849  0.42275900  0.60437957  1
  O2-  O242  1  0.44795381  0.41847632  0.93797292  1
  O2-  O243  1  0.45359278  0.91828561  0.27153948  1
  O2-  O244  1  0.45932089  0.91495173  0.59333221  1
  O2-  O245  1  0.46526062  0.91514823  0.93474314  1
  O2-  O246  1  0.95602596  0.41890881  0.26774647  1
  O2-  O247  1  0.95128392  0.41736636  0.60409781  1
  O2-  O248  1  0.96216671  0.41037993  0.93495392  1
  O2-  O249  1  0.95372375  0.91401725  0.26636508  1
  O2-  O250  1  0.96092321  0.91359180  0.59557502  1
  O2-  O251  1  0.95090745  0.91877402  0.93964009  1
  O2-  O252  1  0.33601252  0.28868642  0.26252545  1
  O2-  O253  1  0.33203195  0.29458107  0.59935047  1
  O2-  O254  1  0.33015679  0.29775192  0.93924983  1
  O2-  O255  1  0.33446170  0.79737781  0.27048717  1
  O2-  O256  1  0.33139489  0.79029871  0.59732212  1
  O2-  O257  1  0.33541448  0.79051331  0.93139514  1
  O2-  O258  1  0.83078579  0.28895421  0.26369910  1
  O2-  O259  1  0.83394308  0.29693715  0.60794083  1
  O2-  O260  1  0.83748103  0.29638248  0.93661937  1
  O2-  O261  1  0.83076946  0.80129260  0.27196546  1
  O2-  O262  1  0.83224981  0.79163153  0.59708361  1
  O2-  O263  1  0.83361524  0.79520468  0.93835727  1
  O2-  O264  1  0.41875386  0.03917142  0.07118507  1
  O2-  O265  1  0.41132621  0.04309919  0.39941827  1
  O2-  O266  1  0.41899006  0.03974961  0.72862865  1
  O2-  O267  1  0.41898527  0.55082794  0.06194002  1
  O2-  O268  1  0.41233870  0.54477139  0.39118918  1
  O2-  O269  1  0.41496388  0.54425152  0.73940981  1
  O2-  O270  1  0.91612627  0.04923805  0.06676132  1
  O2-  O271  1  0.91395389  0.03973082  0.39369015  1
  O2-  O272  1  0.91713213  0.03440031  0.73420770  1
  O2-  O273  1  0.91424625  0.53374572  0.06642130  1
  O2-  O274  1  0.92249862  0.54450881  0.40441278  1
  O2-  O275  1  0.91772890  0.54869734  0.72996318  1
  O2-  O276  1  0.29461719  0.16872376  0.07018941  1
  O2-  O277  1  0.29213798  0.16470396  0.39558144  1
  O2-  O278  1  0.28888246  0.16700393  0.73286122  1
  O2-  O279  1  0.29606597  0.66626687  0.06343417  1
  O2-  O280  1  0.29088872  0.66403977  0.39322173  1
  O2-  O281  1  0.28819512  0.66798853  0.73487134  1
  O2-  O282  1  0.79590004  0.16836520  0.06311934  1
  O2-  O283  1  0.79507636  0.16093057  0.39497787  1
  O2-  O284  1  0.79767681  0.16618592  0.73624105  1
  O2-  O285  1  0.79534336  0.66652811  0.06905166  1
  O2-  O286  1  0.79435547  0.67142718  0.40228752  1
  O2-  O287  1  0.79571483  0.66694902  0.73005458  1
