# generated using pymatgen
data_Ca2Al2SiO7
_symmetry_space_group_name_H-M   'P 1'
_cell_length_a   15.46359248
_cell_length_b   15.46351088
_cell_length_c   15.28796280
_cell_angle_alpha   90.00051830
_cell_angle_beta   90.00317206
_cell_angle_gamma   90.00235051
_symmetry_Int_Tables_number   1
_chemical_formula_structural   Ca2Al2SiO7
_chemical_formula_sum   'Ca48 Al48 Si24 O168'
_cell_volume   3655.67952554
_cell_formula_units_Z   24
loop_
 _symmetry_equiv_pos_site_id
 _symmetry_equiv_pos_as_xyz
  1  'x, y, z'
loop_
 _atom_type_symbol
 _atom_type_oxidation_number
  Ca2+  2.0
  Al0+  0.0
  Si0+  0.0
  O2-  -2.0
loop_
 _atom_site_type_symbol
 _atom_site_label
 _atom_site_symmetry_multiplicity
 _atom_site_fract_x
 _atom_site_fract_y
 _atom_site_fract_z
 _atom_site_occupancy
  Ca2+  Ca0  1  0.17175010  0.07508924  0.17087172  1
  Ca2+  Ca1  1  0.17313610  0.07231492  0.49669163  1
  Ca2+  Ca2  1  0.17199015  0.07494575  0.84756764  1
  Ca2+  Ca3  1  0.15833554  0.57884475  0.17443823  1
  Ca2+  Ca4  1  0.15326975  0.57641165  0.50222323  1
  Ca2+  Ca5  1  0.15660242  0.58197642  0.83398280  1
  Ca2+  Ca6  1  0.67069518  0.07846439  0.17393301  1
  Ca2+  Ca7  1  0.66957135  0.08923905  0.50001968  1
  Ca2+  Ca8  1  0.66694529  0.07705806  0.83735373  1
  Ca2+  Ca9  1  0.67754029  0.58264338  0.17792883  1
  Ca2+  Ca10  1  0.66886333  0.59028520  0.49643262  1
  Ca2+  Ca11  1  0.67642227  0.58631278  0.84448293  1
  Ca2+  Ca12  1  0.08813443  0.32646186  0.16166732  1
  Ca2+  Ca13  1  0.08701222  0.33610444  0.49510850  1
  Ca2+  Ca14  1  0.08742519  0.32727446  0.83235185  1
  Ca2+  Ca15  1  0.07493508  0.83370510  0.16066553  1
  Ca2+  Ca16  1  0.07907621  0.82312408  0.48847411  1
  Ca2+  Ca17  1  0.07761940  0.82627840  0.82854080  1
  Ca2+  Ca18  1  0.58318902  0.32853578  0.16474994  1
  Ca2+  Ca19  1  0.58871554  0.32434722  0.49043636  1
  Ca2+  Ca20  1  0.57513141  0.32670241  0.82906027  1
  Ca2+  Ca21  1  0.58171720  0.83505256  0.16775077  1
  Ca2+  Ca22  1  0.56976477  0.83170269  0.49105418  1
  Ca2+  Ca23  1  0.57886756  0.83800489  0.82961141  1
  Ca2+  Ca24  1  0.32974110  0.41625848  0.17255840  1
  Ca2+  Ca25  1  0.32134168  0.41984560  0.50218455  1
  Ca2+  Ca26  1  0.33058255  0.41679805  0.83762778  1
  Ca2+  Ca27  1  0.32150052  0.92165879  0.17496474  1
  Ca2+  Ca28  1  0.33588329  0.91263934  0.49846654  1
  Ca2+  Ca29  1  0.32840491  0.92086056  0.84349893  1
  Ca2+  Ca30  1  0.83229460  0.43101219  0.17631585  1
  Ca2+  Ca31  1  0.82869726  0.42514794  0.49618501  1
  Ca2+  Ca32  1  0.83243630  0.42677105  0.84061030  1
  Ca2+  Ca33  1  0.83244820  0.91478485  0.17255519  1
  Ca2+  Ca34  1  0.84023491  0.91702888  0.49849845  1
  Ca2+  Ca35  1  0.82789425  0.90714400  0.84091282  1
  Ca2+  Ca36  1  0.41208481  0.16826453  0.16390988  1
  Ca2+  Ca37  1  0.42821661  0.16342671  0.49113811  1
  Ca2+  Ca38  1  0.41748884  0.16755950  0.83228039  1
  Ca2+  Ca39  1  0.42007276  0.67081082  0.16950134  1
  Ca2+  Ca40  1  0.41899180  0.67755650  0.49115045  1
  Ca2+  Ca41  1  0.41872088  0.67668463  0.82711860  1
  Ca2+  Ca42  1  0.92155912  0.16470439  0.16412439  1
  Ca2+  Ca43  1  0.91563574  0.16873060  0.49091013  1
  Ca2+  Ca44  1  0.92719615  0.16244667  0.83326066  1
  Ca2+  Ca45  1  0.92344743  0.66908752  0.16217877  1
  Ca2+  Ca46  1  0.92201137  0.67593178  0.49254471  1
  Ca2+  Ca47  1  0.92193428  0.67559699  0.83287084  1
  Al0+  Al48  1  -0.00128571  0.00040936  -0.00658552  1
  Al0+  Al49  1  0.00133554  0.00053920  0.33881758  1
  Al0+  Al50  1  0.00110015  0.00195884  0.66491128  1
  Al0+  Al51  1  -0.00026811  0.50028551  0.00061771  1
  Al0+  Al52  1  -0.00319283  0.49975409  0.33929133  1
  Al0+  Al53  1  -0.00194109  0.49768431  0.67074858  1
  Al0+  Al54  1  0.50172579  0.00123730  0.00762917  1
  Al0+  Al55  1  0.50086630  0.00207022  0.32715848  1
  Al0+  Al56  1  0.50199136  0.00112626  0.66011200  1
  Al0+  Al57  1  0.49876691  0.49864369  -0.00573203  1
  Al0+  Al58  1  0.49817014  0.49838889  0.33536657  1
  Al0+  Al59  1  0.49866222  0.49842129  0.66825840  1
  Al0+  Al60  1  0.25098005  0.25128650  -0.00632341  1
  Al0+  Al61  1  0.25116968  0.24891062  0.34302135  1
  Al0+  Al62  1  0.25064411  0.25074447  0.67049999  1
  Al0+  Al63  1  0.25058901  0.74794946  -0.00055972  1
  Al0+  Al64  1  0.24942999  0.74812672  0.32827738  1
  Al0+  Al65  1  0.25014414  0.74857673  0.66001731  1
  Al0+  Al66  1  0.74854684  0.25007739  -0.00308821  1
  Al0+  Al67  1  0.75030505  0.25020370  0.33387204  1
  Al0+  Al68  1  0.75114150  0.24994104  0.66758900  1
  Al0+  Al69  1  0.75028563  0.74920141  0.00650500  1
  Al0+  Al70  1  0.74935553  0.75145164  0.33370337  1
  Al0+  Al71  1  0.75074972  0.75098184  0.66519911  1
  Al0+  Al72  1  0.67726681  0.42923894  0.34738532  1
  Al0+  Al73  1  0.17861949  0.42970644  0.68427794  1
  Al0+  Al74  1  0.93041719  0.82405843  0.31707583  1
  Al0+  Al75  1  0.92742739  0.82310219  0.64991175  1
  Al0+  Al76  1  0.92740511  0.82112385  0.98526457  1
  Al0+  Al77  1  0.06912066  0.67575396  0.31749951  1
  Al0+  Al78  1  0.32044406  0.07326137  0.01421519  1
  Al0+  Al79  1  0.42997746  0.82085745  0.65507961  1
  Al0+  Al80  1  0.67994319  0.92931573  0.01406021  1
  Al0+  Al81  1  0.82107539  0.07009852  0.34586059  1
  Al0+  Al82  1  0.17724845  0.92631853  0.01315796  1
  Al0+  Al83  1  0.32273677  0.07009864  0.34990050  1
  Al0+  Al84  1  0.17882271  0.42962947  0.34527808  1
  Al0+  Al85  1  0.17921965  0.92623440  0.34870507  1
  Al0+  Al86  1  0.07307017  0.67709725  0.98388374  1
  Al0+  Al87  1  0.06908637  0.67767010  0.65062984  1
  Al0+  Al88  1  0.07033253  0.17958532  0.98767412  1
  Al0+  Al89  1  0.42762063  0.82265195  0.31422703  1
  Al0+  Al90  1  0.82111910  0.56909827  0.01462296  1
  Al0+  Al91  1  0.57035018  0.67735310  0.31857888  1
  Al0+  Al92  1  0.57308264  0.18072480  0.31683642  1
  Al0+  Al93  1  0.42958746  0.32096387  0.98575953  1
  Al0+  Al94  1  0.57046131  0.18188421  0.65277099  1
  Al0+  Al95  1  0.81988742  0.57423362  0.35141560  1
  Si0+  Si96  1  0.42594864  0.31996512  0.31876479  1
  Si0+  Si97  1  0.57325953  0.17650923  0.98235776  1
  Si0+  Si98  1  0.07362402  0.17941168  0.64989528  1
  Si0+  Si99  1  0.82233020  0.07467119  0.01422639  1
  Si0+  Si100  1  0.32454756  0.57127061  0.01419697  1
  Si0+  Si101  1  0.32288108  0.57289262  0.68444724  1
  Si0+  Si102  1  0.32293897  0.06869272  0.68138407  1
  Si0+  Si103  1  0.67738301  0.92883903  0.35180923  1
  Si0+  Si104  1  0.07259482  0.18074882  0.32135844  1
  Si0+  Si105  1  0.42651063  0.32297527  0.64754408  1
  Si0+  Si106  1  0.92981665  0.31882999  0.65192472  1
  Si0+  Si107  1  0.81756588  0.57068938  0.68362128  1
  Si0+  Si108  1  0.92724564  0.32270195  0.98426121  1
  Si0+  Si109  1  0.92899654  0.32022607  0.31947680  1
  Si0+  Si110  1  0.67574770  0.42769555  0.01447534  1
  Si0+  Si111  1  0.32259743  0.57213033  0.34959488  1
  Si0+  Si112  1  0.57296134  0.67590926  0.65334038  1
  Si0+  Si113  1  0.57027302  0.67944373  0.98621382  1
  Si0+  Si114  1  0.82257119  0.07336814  0.68296637  1
  Si0+  Si115  1  0.67835603  0.42606718  0.68350971  1
  Si0+  Si116  1  0.17938317  0.92803411  0.68111277  1
  Si0+  Si117  1  0.68000960  0.93092730  0.67939987  1
  Si0+  Si118  1  0.43021723  0.82221153  0.98653311  1
  Si0+  Si119  1  0.18071779  0.43075605  0.01360771  1
  O2-  O120  1  0.24938416  -0.00061076  0.06165877  1
  O2-  O121  1  0.25626414  -0.00699770  0.40004859  1
  O2-  O122  1  0.25105215  -0.00119390  0.72403113  1
  O2-  O123  1  0.24873627  0.50440571  0.05523430  1
  O2-  O124  1  0.24909998  0.50784905  0.39303342  1
  O2-  O125  1  0.25314817  0.50547806  0.73005064  1
  O2-  O126  1  0.75569167  0.00444900  0.05767348  1
  O2-  O127  1  0.74804641  -0.00435866  0.39615572  1
  O2-  O128  1  0.75509440  -0.00221932  0.72291737  1
  O2-  O129  1  0.74711639  0.49227305  0.05863874  1
  O2-  O130  1  0.74332716  0.50523297  0.40021757  1
  O2-  O131  1  0.74238143  0.50310061  0.72623896  1
  O2-  O132  1  0.00212262  0.25156564  0.27772338  1
  O2-  O133  1  0.00187589  0.24977063  0.60800309  1
  O2-  O134  1  -0.00680313  0.25187138  0.93913041  1
  O2-  O135  1  0.00105081  0.75090086  0.26723237  1
  O2-  O136  1  0.00147305  0.75334432  0.60114647  1
  O2-  O137  1  0.00365603  0.75290277  0.93588017  1
  O2-  O138  1  0.49655010  0.25459854  0.27280216  1
  O2-  O139  1  0.49752768  0.25713611  0.60414728  1
  O2-  O140  1  0.50360807  0.24499146  0.93937900  1
  O2-  O141  1  0.50103165  0.75043962  0.26608254  1
  O2-  O142  1  0.50156294  0.74193303  0.61102309  1
  O2-  O143  1  0.50116608  0.75156329  0.94244973  1
  O2-  O144  1  0.07065988  0.18293566  0.10077915  1
  O2-  O145  1  0.07087966  0.18330583  0.42689088  1
  O2-  O146  1  0.07237610  0.17906972  0.75516261  1
  O2-  O147  1  0.07035157  0.67109095  0.09628812  1
  O2-  O148  1  0.06527525  0.67398901  0.43112128  1
  O2-  O149  1  0.06677276  0.67881647  0.76426081  1
  O2-  O150  1  0.57812518  0.17906355  0.08707197  1
  O2-  O151  1  0.57382214  0.18330658  0.43037974  1
  O2-  O152  1  0.56879068  0.18151043  0.76613133  1
  O2-  O153  1  0.56774529  0.67642830  0.09038101  1
  O2-  O154  1  0.56636693  0.67944990  0.43295135  1
  O2-  O155  1  0.57419518  0.67762701  0.75958516  1
  O2-  O156  1  0.18153681  0.42549212  0.23189705  1
  O2-  O157  1  0.17961229  0.42831982  0.57146794  1
  O2-  O158  1  0.18181586  0.43027459  0.90836642  1
  O2-  O159  1  0.17607929  0.93195443  0.23544696  1
  O2-  O160  1  0.17927616  0.93049932  0.57656191  1
  O2-  O161  1  0.18141277  0.92755660  0.89830588  1
  O2-  O162  1  0.68200084  0.42779611  0.23362252  1
  O2-  O163  1  0.68151707  0.42260166  0.57922555  1
  O2-  O164  1  0.67637078  0.43019472  0.90806314  1
  O2-  O165  1  0.67803881  0.93102425  0.24612042  1
  O2-  O166  1  0.67787808  0.93256095  0.57510822  1
  O2-  O167  1  0.67735790  0.93078083  0.89973977  1
  O2-  O168  1  0.42999995  0.32319622  0.09841633  1
  O2-  O169  1  0.42475644  0.31750319  0.42437184  1
  O2-  O170  1  0.42741478  0.32210771  0.75346732  1
  O2-  O171  1  0.43108011  0.81994123  0.09064250  1
  O2-  O172  1  0.43066550  0.82069438  0.42845870  1
  O2-  O173  1  0.43318652  0.82256753  0.76898477  1
  O2-  O174  1  0.92846409  0.32294058  0.08959253  1
  O2-  O175  1  0.92883810  0.31842694  0.42510526  1
  O2-  O176  1  0.92903484  0.31661160  0.75724105  1
  O2-  O177  1  0.92589953  0.82032721  0.09790064  1
  O2-  O178  1  0.93346800  0.82394861  0.43084523  1
  O2-  O179  1  0.92399331  0.82023237  0.76338023  1
  O2-  O180  1  0.31600691  0.07531540  0.23687043  1
  O2-  O181  1  0.32278398  0.06820619  0.57686093  1
  O2-  O182  1  0.32095293  0.07033840  0.89933002  1
  O2-  O183  1  0.32608564  0.56746739  0.24380588  1
  O2-  O184  1  0.32692252  0.56995598  0.57958129  1
  O2-  O185  1  0.32909777  0.56949446  0.90909829  1
  O2-  O186  1  0.82044711  0.07207240  0.23282127  1
  O2-  O187  1  0.82095593  0.07835890  0.57839118  1
  O2-  O188  1  0.81925140  0.07783592  0.90817165  1
  O2-  O189  1  0.82223971  0.56901308  0.23804145  1
  O2-  O190  1  0.81648440  0.56957466  0.57918643  1
  O2-  O191  1  0.81791887  0.56791700  0.90047526  1
  O2-  O192  1  0.04347804  0.08979515  0.27512225  1
  O2-  O193  1  0.04623794  0.08805453  0.60241265  1
  O2-  O194  1  0.04096633  0.08516191  0.92780460  1
  O2-  O195  1  0.03699146  0.57666182  0.26680570  1
  O2-  O196  1  0.03655606  0.57811036  0.60260286  1
  O2-  O197  1  0.03993805  0.57909363  0.93053634  1
  O2-  O198  1  0.54588031  0.08447940  0.26256682  1
  O2-  O199  1  0.54066134  0.08658961  0.59707043  1
  O2-  O200  1  0.54671683  0.08258371  0.93701272  1
  O2-  O201  1  0.54145465  0.57800968  0.26705445  1
  O2-  O202  1  0.55146844  0.58041825  0.60963268  1
  O2-  O203  1  0.54228235  0.58878414  0.93549177  1
  O2-  O204  1  0.16401317  0.21109705  0.27566492  1
  O2-  O205  1  0.16556772  0.20888348  0.60463813  1
  O2-  O206  1  0.16396882  0.21396758  0.92956001  1
  O2-  O207  1  0.17084731  0.69345735  0.26847773  1
  O2-  O208  1  0.16981382  0.69823806  0.59981536  1
  O2-  O209  1  0.17399246  0.69948772  0.93131773  1
  O2-  O210  1  0.66869193  0.21426358  0.26251000  1
  O2-  O211  1  0.66839671  0.21238071  0.60123742  1
  O2-  O212  1  0.66597101  0.20248656  0.93263976  1
  O2-  O213  1  0.66960662  0.70386668  0.26789113  1
  O2-  O214  1  0.66486957  0.70367497  0.60652437  1
  O2-  O215  1  0.66207883  0.70770564  0.93942350  1
  O2-  O216  1  0.08755134  0.45316714  0.06024646  1
  O2-  O217  1  0.08178726  0.45526262  0.40124850  1
  O2-  O218  1  0.08047422  0.45638809  0.73853058  1
  O2-  O219  1  0.07769170  0.95662499  0.06116352  1
  O2-  O220  1  0.08530385  0.96290087  0.40574134  1
  O2-  O221  1  0.08757701  0.95831394  0.72797501  1
  O2-  O222  1  0.58262450  0.45516861  0.05895535  1
  O2-  O223  1  0.57679475  0.44894169  0.40037989  1
  O2-  O224  1  0.58317229  0.44683392  0.72826687  1
  O2-  O225  1  0.58557580  0.96033964  0.07122728  1
  O2-  O226  1  0.58434887  0.95827592  0.39616725  1
  O2-  O227  1  0.58970909  0.96371703  0.72831621  1
  O2-  O228  1  0.21184575  0.33968612  0.05944914  1
  O2-  O229  1  0.21222123  0.33626110  0.40456952  1
  O2-  O230  1  0.21115168  0.33266502  0.73853916  1
  O2-  O231  1  0.20552028  0.82774579  0.06460232  1
  O2-  O232  1  0.20401616  0.82555510  0.39845200  1
  O2-  O233  1  0.20650350  0.83484076  0.72577213  1
  O2-  O234  1  0.69690988  0.33167336  0.05691618  1
  O2-  O235  1  0.71421552  0.33400004  0.40194345  1
  O2-  O236  1  0.71281431  0.33739110  0.73392533  1
  O2-  O237  1  0.70748596  0.83334995  0.06938791  1
  O2-  O238  1  0.69820323  0.83457620  0.39780337  1
  O2-  O239  1  0.70330682  0.83745865  0.72734584  1
  O2-  O240  1  0.44662007  0.41485775  0.27413324  1
  O2-  O241  1  0.44849899  0.41833806  0.60400757  1
  O2-  O242  1  0.46150149  0.41571453  0.92624945  1
  O2-  O243  1  0.45634114  0.92062513  0.26212092  1
  O2-  O244  1  0.46506698  0.91413143  0.59847151  1
  O2-  O245  1  0.45949992  0.91468544  0.94066774  1
  O2-  O246  1  0.95544623  0.41222926  0.27350320  1
  O2-  O247  1  0.95599464  0.41097530  0.60564353  1
  O2-  O248  1  0.95666589  0.41390014  0.93556569  1
  O2-  O249  1  0.95916962  0.92389390  0.26661952  1
  O2-  O250  1  0.95144957  0.92468816  0.60183251  1
  O2-  O251  1  0.94730890  0.92115946  0.93097975  1
  O2-  O252  1  0.33316720  0.29025484  0.27251887  1
  O2-  O253  1  0.33277761  0.29527399  0.60380649  1
  O2-  O254  1  0.33484767  0.29135620  0.92722918  1
  O2-  O255  1  0.33010715  0.79288601  0.26129130  1
  O2-  O256  1  0.33438417  0.79307914  0.59893659  1
  O2-  O257  1  0.33941486  0.79347129  0.93752821  1
  O2-  O258  1  0.83967849  0.28995651  0.27008032  1
  O2-  O259  1  0.83899002  0.28909077  0.60430910  1
  O2-  O260  1  0.83231780  0.30129092  0.93737240  1
  O2-  O261  1  0.82859917  0.80115859  0.27049918  1
  O2-  O262  1  0.82878948  0.79404960  0.59760067  1
  O2-  O263  1  0.82919503  0.78619307  0.93302234  1
  O2-  O264  1  0.41979345  0.05048890  0.06580669  1
  O2-  O265  1  0.42397104  0.04609775  0.39883951  1
  O2-  O266  1  0.41525499  0.04015645  0.72793293  1
  O2-  O267  1  0.41408163  0.53748940  0.06250589  1
  O2-  O268  1  0.41292785  0.54240772  0.40029957  1
  O2-  O269  1  0.41652777  0.54646213  0.73305188  1
  O2-  O270  1  0.91760648  0.05359909  0.05710652  1
  O2-  O271  1  0.91717026  0.04411718  0.40364765  1
  O2-  O272  1  0.91667960  0.05044019  0.72875674  1
  O2-  O273  1  0.91672045  0.53598470  0.06838888  1
  O2-  O274  1  0.91364567  0.53658799  0.40767172  1
  O2-  O275  1  0.90661036  0.53606088  0.73189456  1
  O2-  O276  1  0.29028717  0.17230504  0.06402899  1
  O2-  O277  1  0.28972808  0.16495419  0.40807400  1
  O2-  O278  1  0.29639219  0.16170935  0.72763418  1
  O2-  O279  1  0.30287091  0.66417398  0.06075107  1
  O2-  O280  1  0.30270146  0.66742919  0.39298604  1
  O2-  O281  1  0.29919792  0.66799097  0.72906894  1
  O2-  O282  1  0.79641821  0.16863598  0.06048179  1
  O2-  O283  1  0.78920518  0.16620078  0.40125240  1
  O2-  O284  1  0.79092478  0.16295100  0.73328286  1
  O2-  O285  1  0.78793838  0.66299109  0.06940362  1
  O2-  O286  1  0.79277913  0.67280724  0.40458462  1
  O2-  O287  1  0.79150950  0.66356063  0.73078955  1
