# generated using pymatgen
data_Ca2Al2SiO7
_symmetry_space_group_name_H-M   'P 1'
_cell_length_a   15.46190312
_cell_length_b   15.46232495
_cell_length_c   15.28554298
_cell_angle_alpha   90.00393477
_cell_angle_beta   89.98697251
_cell_angle_gamma   90.01392739
_symmetry_Int_Tables_number   1
_chemical_formula_structural   Ca2Al2SiO7
_chemical_formula_sum   'Ca48 Al48 Si24 O168'
_cell_volume   3654.42109332
_cell_formula_units_Z   24
loop_
 _symmetry_equiv_pos_site_id
 _symmetry_equiv_pos_as_xyz
  1  'x, y, z'
loop_
 _atom_type_symbol
 _atom_type_oxidation_number
  Ca2+  2.0
  Al0+  0.0
  Si0+  0.0
  O2-  -2.0
loop_
 _atom_site_type_symbol
 _atom_site_label
 _atom_site_symmetry_multiplicity
 _atom_site_fract_x
 _atom_site_fract_y
 _atom_site_fract_z
 _atom_site_occupancy
  Ca2+  Ca0  1  0.17340618  0.07426500  0.17792302  1
  Ca2+  Ca1  1  0.17346204  0.07530551  0.50497196  1
  Ca2+  Ca2  1  0.17086880  0.07965857  0.83001664  1
  Ca2+  Ca3  1  0.17621910  0.58316040  0.17114079  1
  Ca2+  Ca4  1  0.17664114  0.57977050  0.50415435  1
  Ca2+  Ca5  1  0.17417798  0.59157558  0.83486608  1
  Ca2+  Ca6  1  0.67232684  0.08145586  0.17269196  1
  Ca2+  Ca7  1  0.67713897  0.08798186  0.50331181  1
  Ca2+  Ca8  1  0.67242347  0.08586174  0.83249274  1
  Ca2+  Ca9  1  0.66512714  0.57072901  0.17058050  1
  Ca2+  Ca10  1  0.67095918  0.57255823  0.51025529  1
  Ca2+  Ca11  1  0.66263366  0.57404360  0.83255163  1
  Ca2+  Ca12  1  0.08118696  0.33709683  0.16896309  1
  Ca2+  Ca13  1  0.06966545  0.34103038  0.49311707  1
  Ca2+  Ca14  1  0.07545678  0.33260203  0.82321706  1
  Ca2+  Ca15  1  0.08275476  0.82939253  0.15837147  1
  Ca2+  Ca16  1  0.09403883  0.83152786  0.50174927  1
  Ca2+  Ca17  1  0.08339110  0.82277540  0.82905414  1
  Ca2+  Ca18  1  0.57498761  0.33866562  0.16562769  1
  Ca2+  Ca19  1  0.57449801  0.34193031  0.49694114  1
  Ca2+  Ca20  1  0.57636379  0.34316905  0.82942452  1
  Ca2+  Ca21  1  0.57327848  0.82982551  0.15803277  1
  Ca2+  Ca22  1  0.58727750  0.82223346  0.49873068  1
  Ca2+  Ca23  1  0.57550474  0.82544900  0.82614013  1
  Ca2+  Ca24  1  0.33323885  0.42544983  0.17468295  1
  Ca2+  Ca25  1  0.33599386  0.42145721  0.50426837  1
  Ca2+  Ca26  1  0.34271854  0.42690554  0.83705375  1
  Ca2+  Ca27  1  0.32824903  0.91894181  0.17727904  1
  Ca2+  Ca28  1  0.32517297  0.92762412  0.50656758  1
  Ca2+  Ca29  1  0.33063662  0.91530241  0.83460335  1
  Ca2+  Ca30  1  0.82143141  0.41110401  0.17341279  1
  Ca2+  Ca31  1  0.82357384  0.41205598  0.50909620  1
  Ca2+  Ca32  1  0.82462818  0.41836464  0.83236604  1
  Ca2+  Ca33  1  0.83815259  0.92173257  0.17218523  1
  Ca2+  Ca34  1  0.83759644  0.93062607  0.50560987  1
  Ca2+  Ca35  1  0.83941620  0.91999072  0.83450986  1
  Ca2+  Ca36  1  0.40644190  0.18073109  0.16525558  1
  Ca2+  Ca37  1  0.40915196  0.17573354  0.49538979  1
  Ca2+  Ca38  1  0.41553553  0.18015910  0.82411098  1
  Ca2+  Ca39  1  0.41034906  0.66766716  0.16096371  1
  Ca2+  Ca40  1  0.41934989  0.65657089  0.50009911  1
  Ca2+  Ca41  1  0.41604255  0.66562746  0.82746023  1
  Ca2+  Ca42  1  0.91397942  0.17032733  0.16926100  1
  Ca2+  Ca43  1  0.91010788  0.17443495  0.49540149  1
  Ca2+  Ca44  1  0.91664343  0.17223659  0.82352655  1
  Ca2+  Ca45  1  0.92790399  0.67427633  0.15546447  1
  Ca2+  Ca46  1  0.92461077  0.65854847  0.49941339  1
  Ca2+  Ca47  1  0.92740179  0.66372363  0.82379797  1
  Al0+  Al48  1  0.00125332  0.00104558  -0.00248719  1
  Al0+  Al49  1  -0.00051553  -0.00004326  0.34036898  1
  Al0+  Al50  1  0.00101800  -0.00082198  0.67541544  1
  Al0+  Al51  1  0.00005558  0.49917819  -0.00396370  1
  Al0+  Al52  1  0.00009478  0.50154117  0.32595654  1
  Al0+  Al53  1  -0.00050063  0.50032370  0.66030434  1
  Al0+  Al54  1  0.50158652  0.00194093  -0.00331031  1
  Al0+  Al55  1  0.50150823  -0.00157481  0.33662227  1
  Al0+  Al56  1  0.50042589  0.00181877  0.66919437  1
  Al0+  Al57  1  0.49994199  0.50021206  0.00657961  1
  Al0+  Al58  1  0.50236478  0.49928969  0.33440588  1
  Al0+  Al59  1  0.49957868  0.50088239  0.66575141  1
  Al0+  Al60  1  0.24917415  0.25109145  -0.00527317  1
  Al0+  Al61  1  0.24663514  0.25079267  0.33377700  1
  Al0+  Al62  1  0.24854818  0.24893977  0.66536676  1
  Al0+  Al63  1  0.25003194  0.75108134  -0.00301116  1
  Al0+  Al64  1  0.25171328  0.74874675  0.34011833  1
  Al0+  Al65  1  0.24899689  0.75058185  0.66850425  1
  Al0+  Al66  1  0.74987603  0.24905257  0.00510783  1
  Al0+  Al67  1  0.74809725  0.24920358  0.33484566  1
  Al0+  Al68  1  0.74788486  0.24908337  0.67271863  1
  Al0+  Al69  1  0.74990618  0.75161039  -0.00235462  1
  Al0+  Al70  1  0.75075915  0.74856907  0.32865618  1
  Al0+  Al71  1  0.75102055  0.75068227  0.66455225  1
  Al0+  Al72  1  0.67846409  0.42991799  0.68276753  1
  Al0+  Al73  1  0.31979156  0.56827970  0.68114989  1
  Al0+  Al74  1  0.32297626  0.07374105  0.68415290  1
  Al0+  Al75  1  0.07179237  0.67960188  0.64906167  1
  Al0+  Al76  1  0.17854348  0.92755723  0.34790601  1
  Al0+  Al77  1  0.17521519  0.42893079  0.34716256  1
  Al0+  Al78  1  0.68125709  0.42965731  0.34789859  1
  Al0+  Al79  1  0.31826601  0.57078472  0.01329313  1
  Al0+  Al80  1  0.42763502  0.32066768  0.31923483  1
  Al0+  Al81  1  0.81957049  0.07028295  0.68210626  1
  Al0+  Al82  1  0.18038538  0.92885293  0.68622271  1
  Al0+  Al83  1  0.92701498  0.32079975  0.31822720  1
  Al0+  Al84  1  0.81884285  0.06891809  0.34640035  1
  Al0+  Al85  1  0.92798028  0.82329243  0.98444712  1
  Al0+  Al86  1  0.32328896  0.07286264  0.34671721  1
  Al0+  Al87  1  0.42911529  0.82301932  0.98734018  1
  Al0+  Al88  1  0.32180081  0.56912804  0.34945606  1
  Al0+  Al89  1  0.82368728  0.57230545  0.68029212  1
  Al0+  Al90  1  0.57090816  0.68007765  0.65291307  1
  Al0+  Al91  1  0.68092146  0.43018216  0.01664179  1
  Al0+  Al92  1  0.43019177  0.32139269  0.98683145  1
  Al0+  Al93  1  0.42923379  0.32062205  0.65238158  1
  Al0+  Al94  1  0.92829024  0.31907714  0.65359684  1
  Al0+  Al95  1  0.07069464  0.67821687  0.98422752  1
  Si0+  Si96  1  0.18133833  0.93177748  0.01490969  1
  Si0+  Si97  1  0.67717130  0.92842443  0.01446558  1
  Si0+  Si98  1  0.82462398  0.57344907  0.01641877  1
  Si0+  Si99  1  0.32240216  0.07378500  0.01423521  1
  Si0+  Si100  1  0.57144002  0.17602114  0.31683816  1
  Si0+  Si101  1  0.67762306  0.92618524  0.68402321  1
  Si0+  Si102  1  0.57141932  0.67784815  0.98468198  1
  Si0+  Si103  1  0.06973828  0.17597604  0.31685508  1
  Si0+  Si104  1  0.57195070  0.17641492  0.64982301  1
  Si0+  Si105  1  0.42803286  0.82372218  0.64853663  1
  Si0+  Si106  1  0.07115033  0.17911022  0.98489566  1
  Si0+  Si107  1  0.57438436  0.17845990  0.98339075  1
  Si0+  Si108  1  0.92909669  0.82205736  0.31972461  1
  Si0+  Si109  1  0.43016358  0.82021701  0.32049777  1
  Si0+  Si110  1  0.07313366  0.68066148  0.31728388  1
  Si0+  Si111  1  0.67762957  0.92409351  0.34913717  1
  Si0+  Si112  1  0.57234699  0.67861586  0.31623881  1
  Si0+  Si113  1  0.82224877  0.57404562  0.34638135  1
  Si0+  Si114  1  0.92688483  0.31889210  0.98558925  1
  Si0+  Si115  1  0.82167568  0.06907717  0.01653598  1
  Si0+  Si116  1  0.17516465  0.42460426  0.01516882  1
  Si0+  Si117  1  0.17618400  0.42766178  0.68187678  1
  Si0+  Si118  1  0.92879203  0.82345622  0.64825253  1
  Si0+  Si119  1  0.07078585  0.17604916  0.64907369  1
  O2-  O120  1  0.25437575  0.00036294  0.05786457  1
  O2-  O121  1  0.25029258  0.00118733  0.39485617  1
  O2-  O122  1  0.25446461  -0.00061474  0.73582049  1
  O2-  O123  1  0.24314958  0.49494562  0.05746893  1
  O2-  O124  1  0.25163365  0.49484332  0.39826176  1
  O2-  O125  1  0.24612198  0.49310943  0.72870838  1
  O2-  O126  1  0.75195837  -0.00420449  0.05748769  1
  O2-  O127  1  0.74531068  -0.00679575  0.39310413  1
  O2-  O128  1  0.74635801  -0.00560003  0.72933794  1
  O2-  O129  1  0.75680168  0.50497717  0.06253635  1
  O2-  O130  1  0.75855942  0.50229108  0.39181274  1
  O2-  O131  1  0.75078211  0.50243174  0.73199658  1
  O2-  O132  1  0.00349354  0.24707504  0.27111951  1
  O2-  O133  1  0.00279828  0.24502765  0.60501036  1
  O2-  O134  1  0.00189809  0.25233742  0.94370913  1
  O2-  O135  1  0.00150695  0.75286615  0.27705384  1
  O2-  O136  1  -0.00511875  0.75329658  0.60252384  1
  O2-  O137  1  -0.00615891  0.74605242  0.93502046  1
  O2-  O138  1  0.49868569  0.24069615  0.27297847  1
  O2-  O139  1  0.50110882  0.24244982  0.60623429  1
  O2-  O140  1  0.50507451  0.24647526  0.94040388  1
  O2-  O141  1  0.50041825  0.74959700  0.27551820  1
  O2-  O142  1  0.49694457  0.75522037  0.60413339  1
  O2-  O143  1  0.50337981  0.74761144  0.94148262  1
  O2-  O144  1  0.07050805  0.17581884  0.08980894  1
  O2-  O145  1  0.06611637  0.17232353  0.42173830  1
  O2-  O146  1  0.06901632  0.17830590  0.75560453  1
  O2-  O147  1  0.07171784  0.68270638  0.09861944  1
  O2-  O148  1  0.07224167  0.67995583  0.42203734  1
  O2-  O149  1  0.07131062  0.68064177  0.76199672  1
  O2-  O150  1  0.57668887  0.17612536  0.08883037  1
  O2-  O151  1  0.57455771  0.17602263  0.42194248  1
  O2-  O152  1  0.57274593  0.17603452  0.75568036  1
  O2-  O153  1  0.57154909  0.68022972  0.09078528  1
  O2-  O154  1  0.57596529  0.68070946  0.42102222  1
  O2-  O155  1  0.56855028  0.68146943  0.76630234  1
  O2-  O156  1  0.17493236  0.43405741  0.23297125  1
  O2-  O157  1  0.17588508  0.42984310  0.57650522  1
  O2-  O158  1  0.17388593  0.42031989  0.90992530  1
  O2-  O159  1  0.17939400  0.92732360  0.23319656  1
  O2-  O160  1  0.18143193  0.93135906  0.57264941  1
  O2-  O161  1  0.18085511  0.93382244  0.91053709  1
  O2-  O162  1  0.68096290  0.43121740  0.23433118  1
  O2-  O163  1  0.67946953  0.42998463  0.56928253  1
  O2-  O164  1  0.68160344  0.43006104  0.90414034  1
  O2-  O165  1  0.67809051  0.92384418  0.24310970  1
  O2-  O166  1  0.67858778  0.92648961  0.57826964  1
  O2-  O167  1  0.67514930  0.93117303  0.90994409  1
  O2-  O168  1  0.42919857  0.31966447  0.10000325  1
  O2-  O169  1  0.43131962  0.32205525  0.43188650  1
  O2-  O170  1  0.43236475  0.32159918  0.76588713  1
  O2-  O171  1  0.43016978  0.82413818  0.10115927  1
  O2-  O172  1  0.43321276  0.82095305  0.42508899  1
  O2-  O173  1  0.43070681  0.82291833  0.75457624  1
  O2-  O174  1  0.92534511  0.31571807  0.09068271  1
  O2-  O175  1  0.92549910  0.31836635  0.43079646  1
  O2-  O176  1  0.92996694  0.31676954  0.76763940  1
  O2-  O177  1  0.93256235  0.82618308  0.09891064  1
  O2-  O178  1  0.92463816  0.82107417  0.42410908  1
  O2-  O179  1  0.93043501  0.82352060  0.75379270  1
  O2-  O180  1  0.32153101  0.06924102  0.23191207  1
  O2-  O181  1  0.32071294  0.07279457  0.57071160  1
  O2-  O182  1  0.31962731  0.07421470  0.90972419  1
  O2-  O183  1  0.31938927  0.57288055  0.23539637  1
  O2-  O184  1  0.32031393  0.56643595  0.56843674  1
  O2-  O185  1  0.31989099  0.56999563  0.90048583  1
  O2-  O186  1  0.81859453  0.06628932  0.23257751  1
  O2-  O187  1  0.81812946  0.06995179  0.56905931  1
  O2-  O188  1  0.82083097  0.07111043  0.91181378  1
  O2-  O189  1  0.81815226  0.57727164  0.24061895  1
  O2-  O190  1  0.82192087  0.56994969  0.56629646  1
  O2-  O191  1  0.82502108  0.57144814  0.91136729  1
  O2-  O192  1  0.03980845  0.08301677  0.26920940  1
  O2-  O193  1  0.04358657  0.08166259  0.60669948  1
  O2-  O194  1  0.04028191  0.08951701  0.93524060  1
  O2-  O195  1  0.04498742  0.59098629  0.26585892  1
  O2-  O196  1  0.04128133  0.58372179  0.59357780  1
  O2-  O197  1  0.04847907  0.57775304  0.93204147  1
  O2-  O198  1  0.55252342  0.07938798  0.27188292  1
  O2-  O199  1  0.55224150  0.08109822  0.60379147  1
  O2-  O200  1  0.55130475  0.08508884  0.93566823  1
  O2-  O201  1  0.54390130  0.58752713  0.26865474  1
  O2-  O202  1  0.53862598  0.58504034  0.59754058  1
  O2-  O203  1  0.54355454  0.58481564  0.94059105  1
  O2-  O204  1  0.16345524  0.19871751  0.26922811  1
  O2-  O205  1  0.16476924  0.19880246  0.60380893  1
  O2-  O206  1  0.16205688  0.20469269  0.93478528  1
  O2-  O207  1  0.16546269  0.70999810  0.27136788  1
  O2-  O208  1  0.16816086  0.71319728  0.59604593  1
  O2-  O209  1  0.16662703  0.71262416  0.93099470  1
  O2-  O210  1  0.66283954  0.20605695  0.26785087  1
  O2-  O211  1  0.66527749  0.20437700  0.60482103  1
  O2-  O212  1  0.66841190  0.20478834  0.93780985  1
  O2-  O213  1  0.66315374  0.70711440  0.26555914  1
  O2-  O214  1  0.66744062  0.71104224  0.59706740  1
  O2-  O215  1  0.66531764  0.70186565  0.93879557  1
  O2-  O216  1  0.08026694  0.44806476  0.06061474  1
  O2-  O217  1  0.07706401  0.46186039  0.39816470  1
  O2-  O218  1  0.08286762  0.45475823  0.72729270  1
  O2-  O219  1  0.08962303  0.96259313  0.06194488  1
  O2-  O220  1  0.08080106  0.95352816  0.40205393  1
  O2-  O221  1  0.08338908  0.95856755  0.74112130  1
  O2-  O222  1  0.58563604  0.46272357  0.07232813  1
  O2-  O223  1  0.58670554  0.46386246  0.40149693  1
  O2-  O224  1  0.58183877  0.46340503  0.73573372  1
  O2-  O225  1  0.58723664  0.96027382  0.06472232  1
  O2-  O226  1  0.58464425  0.94666440  0.39671859  1
  O2-  O227  1  0.58448916  0.95226017  0.73069453  1
  O2-  O228  1  0.20142719  0.33103372  0.06211431  1
  O2-  O229  1  0.19178089  0.32727130  0.39609285  1
  O2-  O230  1  0.19639613  0.33204163  0.72584036  1
  O2-  O231  1  0.20746725  0.83951939  0.06151669  1
  O2-  O232  1  0.20929249  0.83177248  0.40256648  1
  O2-  O233  1  0.20906260  0.83083315  0.73881558  1
  O2-  O234  1  0.71224826  0.33296417  0.07054610  1
  O2-  O235  1  0.70840652  0.33242625  0.40036362  1
  O2-  O236  1  0.70504778  0.33191918  0.73687421  1
  O2-  O237  1  0.69937048  0.83504109  0.06218988  1
  O2-  O238  1  0.70530987  0.83061158  0.39396934  1
  O2-  O239  1  0.70285171  0.83320167  0.73075651  1
  O2-  O240  1  0.46457212  0.41615617  0.26528433  1
  O2-  O241  1  0.46320417  0.41574752  0.59835613  1
  O2-  O242  1  0.46366463  0.41845393  0.93577740  1
  O2-  O243  1  0.45765997  0.91218422  0.27161447  1
  O2-  O244  1  0.45396203  0.91834061  0.60449080  1
  O2-  O245  1  0.46090961  0.91882575  0.93218327  1
  O2-  O246  1  0.95543325  0.41764721  0.26182113  1
  O2-  O247  1  0.95720227  0.41468923  0.59774415  1
  O2-  O248  1  0.94907951  0.41218711  0.93944585  1
  O2-  O249  1  0.95588289  0.91475658  0.27299393  1
  O2-  O250  1  0.95850052  0.91747509  0.60462649  1
  O2-  O251  1  0.96038757  0.92049261  0.93121629  1
  O2-  O252  1  0.32883022  0.29410151  0.26546206  1
  O2-  O253  1  0.33068545  0.29249702  0.60042454  1
  O2-  O254  1  0.33344757  0.29215452  0.93214233  1
  O2-  O255  1  0.33783921  0.79193294  0.27377660  1
  O2-  O256  1  0.33429016  0.79807361  0.60499657  1
  O2-  O257  1  0.33365489  0.79345206  0.93253744  1
  O2-  O258  1  0.83174570  0.28422290  0.26363225  1
  O2-  O259  1  0.83078177  0.28561513  0.60333981  1
  O2-  O260  1  0.83700676  0.28505864  0.93848366  1
  O2-  O261  1  0.83801707  0.79441172  0.26862855  1
  O2-  O262  1  0.83346905  0.80456055  0.60308698  1
  O2-  O263  1  0.82591610  0.80533348  0.93491931  1
  O2-  O264  1  0.41658732  0.05054531  0.05858603  1
  O2-  O265  1  0.42161713  0.04497443  0.39948287  1
  O2-  O266  1  0.42325595  0.04991269  0.73568915  1
  O2-  O267  1  0.41444743  0.54173656  0.06928004  1
  O2-  O268  1  0.42133180  0.54306017  0.39941180  1
  O2-  O269  1  0.41629430  0.53855380  0.73511069  1
  O2-  O270  1  0.91427368  0.04224008  0.06340459  1
  O2-  O271  1  0.91382599  0.03981622  0.40267532  1
  O2-  O272  1  0.91535802  0.04116237  0.73801405  1
  O2-  O273  1  0.91898570  0.54831435  0.06211591  1
  O2-  O274  1  0.91827051  0.55326282  0.38723510  1
  O2-  O275  1  0.92152623  0.54102893  0.73247240  1
  O2-  O276  1  0.28949256  0.16452907  0.06119222  1
  O2-  O277  1  0.29468056  0.17092283  0.39780481  1
  O2-  O278  1  0.28951841  0.17097832  0.73758627  1
  O2-  O279  1  0.28768363  0.66860330  0.06670886  1
  O2-  O280  1  0.29380912  0.66639212  0.40368285  1
  O2-  O281  1  0.29047045  0.66604815  0.73273088  1
  O2-  O282  1  0.79151506  0.15924502  0.06602167  1
  O2-  O283  1  0.78573730  0.16389951  0.40025942  1
  O2-  O284  1  0.78647257  0.16409615  0.73976244  1
  O2-  O285  1  0.80010031  0.66886736  0.06072481  1
  O2-  O286  1  0.79457226  0.66659854  0.39362163  1
  O2-  O287  1  0.79985120  0.67307412  0.73019763  1
