# generated using pymatgen
data_Ca2Al2SiO7
_symmetry_space_group_name_H-M   'P 1'
_cell_length_a   15.46008666
_cell_length_b   15.45931146
_cell_length_c   15.28451476
_cell_angle_alpha   89.98972792
_cell_angle_beta   90.01888148
_cell_angle_gamma   89.99350745
_symmetry_Int_Tables_number   1
_chemical_formula_structural   Ca2Al2SiO7
_chemical_formula_sum   'Ca48 Al48 Si24 O168'
_cell_volume   3653.03382287
_cell_formula_units_Z   24
loop_
 _symmetry_equiv_pos_site_id
 _symmetry_equiv_pos_as_xyz
  1  'x, y, z'
loop_
 _atom_type_symbol
 _atom_type_oxidation_number
  Ca2+  2.0
  Al0+  0.0
  Si0+  0.0
  O2-  -2.0
loop_
 _atom_site_type_symbol
 _atom_site_label
 _atom_site_symmetry_multiplicity
 _atom_site_fract_x
 _atom_site_fract_y
 _atom_site_fract_z
 _atom_site_occupancy
  Ca2+  Ca0  1  0.16184211  0.07448275  0.17007667  1
  Ca2+  Ca1  1  0.15999755  0.07431079  0.50851868  1
  Ca2+  Ca2  1  0.16863959  0.07634556  0.84157856  1
  Ca2+  Ca3  1  0.17096710  0.59257628  0.17291345  1
  Ca2+  Ca4  1  0.16990510  0.59474763  0.50285515  1
  Ca2+  Ca5  1  0.16022698  0.58504176  0.83912665  1
  Ca2+  Ca6  1  0.66132075  0.07715717  0.16428068  1
  Ca2+  Ca7  1  0.67690065  0.08065130  0.50894127  1
  Ca2+  Ca8  1  0.67390396  0.08372176  0.84232827  1
  Ca2+  Ca9  1  0.66713564  0.57554378  0.17427456  1
  Ca2+  Ca10  1  0.67424446  0.57645641  0.50575946  1
  Ca2+  Ca11  1  0.65940948  0.57644106  0.83857756  1
  Ca2+  Ca12  1  0.08668801  0.32064720  0.16045485  1
  Ca2+  Ca13  1  0.07983635  0.32032372  0.49790919  1
  Ca2+  Ca14  1  0.07648166  0.32050315  0.82471660  1
  Ca2+  Ca15  1  0.08407037  0.82885342  0.16520418  1
  Ca2+  Ca16  1  0.08334084  0.83129758  0.49286261  1
  Ca2+  Ca17  1  0.09520812  0.82689969  0.83118218  1
  Ca2+  Ca18  1  0.58659658  0.33245070  0.16035500  1
  Ca2+  Ca19  1  0.58777144  0.33702196  0.49901007  1
  Ca2+  Ca20  1  0.58738973  0.33227299  0.83220631  1
  Ca2+  Ca21  1  0.57540333  0.82831983  0.15018956  1
  Ca2+  Ca22  1  0.58318159  0.82603780  0.49716987  1
  Ca2+  Ca23  1  0.58294362  0.82939926  0.83234842  1
  Ca2+  Ca24  1  0.33213405  0.42570443  0.17184270  1
  Ca2+  Ca25  1  0.33071988  0.42369614  0.49976205  1
  Ca2+  Ca26  1  0.33108577  0.42019970  0.83557016  1
  Ca2+  Ca27  1  0.32344393  0.91524556  0.16537787  1
  Ca2+  Ca28  1  0.31853434  0.92233600  0.50749030  1
  Ca2+  Ca29  1  0.32576637  0.92414501  0.83950834  1
  Ca2+  Ca30  1  0.82325285  0.42419890  0.17304842  1
  Ca2+  Ca31  1  0.82671931  0.41478931  0.50608522  1
  Ca2+  Ca32  1  0.82587455  0.41278170  0.83712621  1
  Ca2+  Ca33  1  0.82978784  0.91062093  0.16846185  1
  Ca2+  Ca34  1  0.84016180  0.92120459  0.50316557  1
  Ca2+  Ca35  1  0.82976083  0.92207945  0.83562886  1
  Ca2+  Ca36  1  0.42059436  0.16768662  0.15590940  1
  Ca2+  Ca37  1  0.41428574  0.16603380  0.49906714  1
  Ca2+  Ca38  1  0.41990538  0.15566661  0.83305637  1
  Ca2+  Ca39  1  0.41950996  0.67185868  0.15755469  1
  Ca2+  Ca40  1  0.42140484  0.66225674  0.49736669  1
  Ca2+  Ca41  1  0.42597192  0.67578612  0.83313994  1
  Ca2+  Ca42  1  0.92854152  0.16550654  0.16396504  1
  Ca2+  Ca43  1  0.92249929  0.16604044  0.50046582  1
  Ca2+  Ca44  1  0.92469363  0.16626346  0.82532318  1
  Ca2+  Ca45  1  0.92218489  0.66711968  0.16630544  1
  Ca2+  Ca46  1  0.92641082  0.67234063  0.49027674  1
  Ca2+  Ca47  1  0.92699683  0.66963123  0.82819543  1
  Al0+  Al48  1  -0.00009803  -0.00053055  0.00046199  1
  Al0+  Al49  1  -0.00150433  -0.00092771  0.32854202  1
  Al0+  Al50  1  -0.00102104  -0.00196405  0.67444894  1
  Al0+  Al51  1  -0.00132157  0.49967014  -0.00205132  1
  Al0+  Al52  1  0.00017570  0.49821164  0.33264789  1
  Al0+  Al53  1  -0.00042102  0.50047376  0.65805038  1
  Al0+  Al54  1  0.50013862  0.00193810  -0.00108000  1
  Al0+  Al55  1  0.49967252  -0.00006684  0.33455119  1
  Al0+  Al56  1  0.49833677  -0.00140480  0.66571099  1
  Al0+  Al57  1  0.49922277  0.49941514  0.00097560  1
  Al0+  Al58  1  0.49803266  0.49806725  0.34049695  1
  Al0+  Al59  1  0.50064447  0.49956283  0.66627992  1
  Al0+  Al60  1  0.25046339  0.25114696  -0.00163700  1
  Al0+  Al61  1  0.25286328  0.25128174  0.32804048  1
  Al0+  Al62  1  0.25233843  0.25187554  0.66527328  1
  Al0+  Al63  1  0.25106206  0.75151541  -0.00488256  1
  Al0+  Al64  1  0.25178393  0.75213118  0.33975022  1
  Al0+  Al65  1  0.25323606  0.75150039  0.66739976  1
  Al0+  Al66  1  0.74912435  0.25187945  0.00372594  1
  Al0+  Al67  1  0.74962530  0.24762766  0.33541293  1
  Al0+  Al68  1  0.74909226  0.24998498  0.67148851  1
  Al0+  Al69  1  0.75239643  0.74929112  -0.00104187  1
  Al0+  Al70  1  0.74973351  0.74772853  0.33384290  1
  Al0+  Al71  1  0.75051928  0.74757433  0.66196881  1
  Al0+  Al72  1  0.07004716  0.68016757  0.98705486  1
  Al0+  Al73  1  0.17828966  0.92894779  0.68345875  1
  Al0+  Al74  1  0.07276719  0.68041677  0.65225626  1
  Al0+  Al75  1  0.32173994  0.07421178  0.68145850  1
  Al0+  Al76  1  0.67995874  0.43123571  0.68349421  1
  Al0+  Al77  1  0.82340837  0.57225141  0.34991855  1
  Al0+  Al78  1  0.92645200  0.31988292  0.65149078  1
  Al0+  Al79  1  0.67867358  0.43084458  0.01505392  1
  Al0+  Al80  1  0.68005971  0.42790420  0.35049710  1
  Al0+  Al81  1  0.32095418  0.07299731  0.01662310  1
  Al0+  Al82  1  0.57066645  0.18102860  0.98692586  1
  Al0+  Al83  1  0.57315729  0.67719598  0.98714991  1
  Al0+  Al84  1  0.07360793  0.67864225  0.31884837  1
  Al0+  Al85  1  0.81961126  0.07018975  0.68064936  1
  Al0+  Al86  1  0.17876846  0.93214826  0.34741975  1
  Al0+  Al87  1  0.17848106  0.92788641  0.01813801  1
  Al0+  Al88  1  0.68024639  0.92857941  0.01177942  1
  Al0+  Al89  1  0.31798142  0.57145501  0.34673551  1
  Al0+  Al90  1  0.57073271  0.67772512  0.65083934  1
  Al0+  Al91  1  0.07116053  0.17990506  0.31922596  1
  Al0+  Al92  1  0.42897022  0.82309081  0.98413680  1
  Al0+  Al93  1  0.07154320  0.17818044  0.98535939  1
  Al0+  Al94  1  0.07210126  0.17709403  0.65290275  1
  Al0+  Al95  1  0.92734724  0.82102698  0.31707039  1
  Si0+  Si96  1  0.56880781  0.67734589  0.31949304  1
  Si0+  Si97  1  0.81950884  0.06855227  0.34707615  1
  Si0+  Si98  1  0.32354240  0.07396454  0.34931413  1
  Si0+  Si99  1  0.67567838  0.92783101  0.34765883  1
  Si0+  Si100  1  0.31918349  0.57002187  0.01249694  1
  Si0+  Si101  1  0.82162479  0.07296727  0.01916474  1
  Si0+  Si102  1  0.92850692  0.32144869  0.98489778  1
  Si0+  Si103  1  0.42929024  0.32306202  0.65010823  1
  Si0+  Si104  1  0.43080797  0.32146814  0.31766422  1
  Si0+  Si105  1  0.32131351  0.57048413  0.68313901  1
  Si0+  Si106  1  0.43101950  0.82205356  0.31907062  1
  Si0+  Si107  1  0.67722831  0.92545135  0.68108603  1
  Si0+  Si108  1  0.17676737  0.42939200  0.01299171  1
  Si0+  Si109  1  0.17786443  0.43017603  0.68006796  1
  Si0+  Si110  1  0.82402624  0.57276342  0.68423487  1
  Si0+  Si111  1  0.92680026  0.82148330  0.65104950  1
  Si0+  Si112  1  0.57014541  0.17828764  0.65256764  1
  Si0+  Si113  1  0.82491022  0.57218494  0.01623741  1
  Si0+  Si114  1  0.17805847  0.42422920  0.34871985  1
  Si0+  Si115  1  0.57170965  0.17773012  0.31942144  1
  Si0+  Si116  1  0.92669341  0.82291652  0.98134547  1
  Si0+  Si117  1  0.42985291  0.82211013  0.64646770  1
  Si0+  Si118  1  0.92506213  0.32088860  0.31574801  1
  Si0+  Si119  1  0.42736044  0.32362415  0.98229473  1
  O2-  O120  1  0.24775171  0.00327504  0.06804154  1
  O2-  O121  1  0.25061571  0.01045454  0.39313105  1
  O2-  O122  1  0.24610308  0.00648222  0.73076015  1
  O2-  O123  1  0.24568448  0.50216649  0.05581431  1
  O2-  O124  1  0.23837475  0.50083827  0.39299639  1
  O2-  O125  1  0.24540933  0.50420081  0.72449933  1
  O2-  O126  1  0.75412023  0.00234069  0.06268742  1
  O2-  O127  1  0.74932806  -0.00389791  0.38951259  1
  O2-  O128  1  0.74370932  -0.00431164  0.72539184  1
  O2-  O129  1  0.75043376  0.50875434  0.05963881  1
  O2-  O130  1  0.75373570  0.49778432  0.40042127  1
  O2-  O131  1  0.75551177  0.50478758  0.73029952  1
  O2-  O132  1  -0.00086845  0.25768606  0.27178259  1
  O2-  O133  1  -0.00084369  0.24809599  0.60187564  1
  O2-  O134  1  -0.00461390  0.25172953  0.94011236  1
  O2-  O135  1  -0.00120840  0.74743349  0.26835800  1
  O2-  O136  1  -0.00190604  0.75536498  0.60750897  1
  O2-  O137  1  -0.00201782  0.75606205  0.93843182  1
  O2-  O138  1  0.50157963  0.24966313  0.27744123  1
  O2-  O139  1  0.49731550  0.24755404  0.60986369  1
  O2-  O140  1  0.49428088  0.25311369  0.93861064  1
  O2-  O141  1  0.50181270  0.75110772  0.27603102  1
  O2-  O142  1  0.49900609  0.75397401  0.60154724  1
  O2-  O143  1  0.50578242  0.75361564  0.93711918  1
  O2-  O144  1  0.07011685  0.18084798  0.09896815  1
  O2-  O145  1  0.06931068  0.17937293  0.43210071  1
  O2-  O146  1  0.07123805  0.18053678  0.76628846  1
  O2-  O147  1  0.06981462  0.67786463  0.09961889  1
  O2-  O148  1  0.07466210  0.68488224  0.43228343  1
  O2-  O149  1  0.07098213  0.67937213  0.76564992  1
  O2-  O150  1  0.57064896  0.18358131  0.10068739  1
  O2-  O151  1  0.57091831  0.17572613  0.42473618  1
  O2-  O152  1  0.57054679  0.17901263  0.75730480  1
  O2-  O153  1  0.56810084  0.67575381  0.10137993  1
  O2-  O154  1  0.56642349  0.67867761  0.42473950  1
  O2-  O155  1  0.56792448  0.67803231  0.76358559  1
  O2-  O156  1  0.18481551  0.41966256  0.24310472  1
  O2-  O157  1  0.18212356  0.42866348  0.57495575  1
  O2-  O158  1  0.17767622  0.43069280  0.90766613  1
  O2-  O159  1  0.18099735  0.93038098  0.23481580  1
  O2-  O160  1  0.17925428  0.92852580  0.56932078  1
  O2-  O161  1  0.18082893  0.92703464  0.90507539  1
  O2-  O162  1  0.67837449  0.42880434  0.23679068  1
  O2-  O163  1  0.67940149  0.43153304  0.57058254  1
  O2-  O164  1  0.67972613  0.43007291  0.90209605  1
  O2-  O165  1  0.67155700  0.93061599  0.24292896  1
  O2-  O166  1  0.67742479  0.92753375  0.57473501  1
  O2-  O167  1  0.68340185  0.93040670  0.89866001  1
  O2-  O168  1  0.42841724  0.32669510  0.08819646  1
  O2-  O169  1  0.42882886  0.32127893  0.42287135  1
  O2-  O170  1  0.42987590  0.32892845  0.75462010  1
  O2-  O171  1  0.42801571  0.81768332  0.09868257  1
  O2-  O172  1  0.43496614  0.82335999  0.42410234  1
  O2-  O173  1  0.43087894  0.82133220  0.75162166  1
  O2-  O174  1  0.93114882  0.32228351  0.09066051  1
  O2-  O175  1  0.92208482  0.31568720  0.42104805  1
  O2-  O176  1  0.92825979  0.31898466  0.76536627  1
  O2-  O177  1  0.92427060  0.82088876  0.08672687  1
  O2-  O178  1  0.92898184  0.82427878  0.43069744  1
  O2-  O179  1  0.92157772  0.81842356  0.75637286  1
  O2-  O180  1  0.32814118  0.07238499  0.24433562  1
  O2-  O181  1  0.32429008  0.07118496  0.56731164  1
  O2-  O182  1  0.31886218  0.07292859  0.90337851  1
  O2-  O183  1  0.32173327  0.56905968  0.23336784  1
  O2-  O184  1  0.32213354  0.56793236  0.57776760  1
  O2-  O185  1  0.32002832  0.56671271  0.90727141  1
  O2-  O186  1  0.81655996  0.07077199  0.24227627  1
  O2-  O187  1  0.81775911  0.06908494  0.56673799  1
  O2-  O188  1  0.81975370  0.07409279  0.91355921  1
  O2-  O189  1  0.81808584  0.57195620  0.23591886  1
  O2-  O190  1  0.82144320  0.57267626  0.57889638  1
  O2-  O191  1  0.82975764  0.56843843  0.91090130  1
  O2-  O192  1  0.03527087  0.08605574  0.26406153  1
  O2-  O193  1  0.04090951  0.07758121  0.60411165  1
  O2-  O194  1  0.04112473  0.08113378  0.93351209  1
  O2-  O195  1  0.05336099  0.57611009  0.26940718  1
  O2-  O196  1  0.04562178  0.58388900  0.59685272  1
  O2-  O197  1  0.03906343  0.58285740  0.93284701  1
  O2-  O198  1  0.54268280  0.08606347  0.27164742  1
  O2-  O199  1  0.54540355  0.08581539  0.60376978  1
  O2-  O200  1  0.54445644  0.08447842  0.93184750  1
  O2-  O201  1  0.53685990  0.58547974  0.27503951  1
  O2-  O202  1  0.53509027  0.58261928  0.59663466  1
  O2-  O203  1  0.53757497  0.58117310  0.93349435  1
  O2-  O204  1  0.16880899  0.20932078  0.26556162  1
  O2-  O205  1  0.17043883  0.20824797  0.60026136  1
  O2-  O206  1  0.16712959  0.21237524  0.93246656  1
  O2-  O207  1  0.17318038  0.71027493  0.26883883  1
  O2-  O208  1  0.17148676  0.70930926  0.60153902  1
  O2-  O209  1  0.16708297  0.70682968  0.93219599  1
  O2-  O210  1  0.66350759  0.20372372  0.27164435  1
  O2-  O211  1  0.66084765  0.20868389  0.60465091  1
  O2-  O212  1  0.66740722  0.21386540  0.93402240  1
  O2-  O213  1  0.66201882  0.70052813  0.27427805  1
  O2-  O214  1  0.66779743  0.70616300  0.59604173  1
  O2-  O215  1  0.67329347  0.69929106  0.93549948  1
  O2-  O216  1  0.08450329  0.45371302  0.06067990  1
  O2-  O217  1  0.08076082  0.43730289  0.38981408  1
  O2-  O218  1  0.08476160  0.45550474  0.72551524  1
  O2-  O219  1  0.07785438  0.95348096  0.06840835  1
  O2-  O220  1  0.08045939  0.96158479  0.39860589  1
  O2-  O221  1  0.07883963  0.94834920  0.73693087  1
  O2-  O222  1  0.58048177  0.45818778  0.06861027  1
  O2-  O223  1  0.58139487  0.45563288  0.40307240  1
  O2-  O224  1  0.58245316  0.46275980  0.73559975  1
  O2-  O225  1  0.58432315  0.96036828  0.06659182  1
  O2-  O226  1  0.58635255  0.95932235  0.39882027  1
  O2-  O227  1  0.58275834  0.94882501  0.72475986  1
  O2-  O228  1  0.20764322  0.33937814  0.06181155  1
  O2-  O229  1  0.21485682  0.33510343  0.39796134  1
  O2-  O230  1  0.21005370  0.34040845  0.72899615  1
  O2-  O231  1  0.21214124  0.82924801  0.06882643  1
  O2-  O232  1  0.21403047  0.83831688  0.40355337  1
  O2-  O233  1  0.21493371  0.83210985  0.73568951  1
  O2-  O234  1  0.71118959  0.33541949  0.07104519  1
  O2-  O235  1  0.70612273  0.32744820  0.40177259  1
  O2-  O236  1  0.70771881  0.33370971  0.73675230  1
  O2-  O237  1  0.70897592  0.83097865  0.06633984  1
  O2-  O238  1  0.69949130  0.83464377  0.39355533  1
  O2-  O239  1  0.70440407  0.83186126  0.72572807  1
  O2-  O240  1  0.45948687  0.41327768  0.27026113  1
  O2-  O241  1  0.46188900  0.41198413  0.59947107  1
  O2-  O242  1  0.45540227  0.41571756  0.93448726  1
  O2-  O243  1  0.45892658  0.91384076  0.27124355  1
  O2-  O244  1  0.45463852  0.91551252  0.59865248  1
  O2-  O245  1  0.45558412  0.92135640  0.93207478  1
  O2-  O246  1  0.94398982  0.41657792  0.27203575  1
  O2-  O247  1  0.95402237  0.41742068  0.59667422  1
  O2-  O248  1  0.95440284  0.41377059  0.93661411  1
  O2-  O249  1  0.95349181  0.91880026  0.26205216  1
  O2-  O250  1  0.95032662  0.91653356  0.60785555  1
  O2-  O251  1  0.94849025  0.91795572  0.93743150  1
  O2-  O252  1  0.34026283  0.29623154  0.26643239  1
  O2-  O253  1  0.33757570  0.29940606  0.60002296  1
  O2-  O254  1  0.33314873  0.30240757  0.93597544  1
  O2-  O255  1  0.33927648  0.79298425  0.27401397  1
  O2-  O256  1  0.33747103  0.79316790  0.60008196  1
  O2-  O257  1  0.33470673  0.78836288  0.92780843  1
  O2-  O258  1  0.83358582  0.28841653  0.26813008  1
  O2-  O259  1  0.82780418  0.28924492  0.59967812  1
  O2-  O260  1  0.83409973  0.29666767  0.94102718  1
  O2-  O261  1  0.82707635  0.79353393  0.26521845  1
  O2-  O262  1  0.83467553  0.79607475  0.60108715  1
  O2-  O263  1  0.83489321  0.79554250  0.93242930  1
  O2-  O264  1  0.42054708  0.04614004  0.06804054  1
  O2-  O265  1  0.41584475  0.04456714  0.39769729  1
  O2-  O266  1  0.42014059  0.04162137  0.73317660  1
  O2-  O267  1  0.40886897  0.53902921  0.06238462  1
  O2-  O268  1  0.41092677  0.53357772  0.40450375  1
  O2-  O269  1  0.41028526  0.53534866  0.73055853  1
  O2-  O270  1  0.91529710  0.04728969  0.06435146  1
  O2-  O271  1  0.91084694  0.04083181  0.39468226  1
  O2-  O272  1  0.91366267  0.03945212  0.73845388  1
  O2-  O273  1  0.91522855  0.53944119  0.06603207  1
  O2-  O274  1  0.92446691  0.54867124  0.39977129  1
  O2-  O275  1  0.91895957  0.54727451  0.72757636  1
  O2-  O276  1  0.29750979  0.17476860  0.06687587  1
  O2-  O277  1  0.30380518  0.17049161  0.39163836  1
  O2-  O278  1  0.30464710  0.17669300  0.73059298  1
  O2-  O279  1  0.29387984  0.66246143  0.05877957  1
  O2-  O280  1  0.29457154  0.66774449  0.40466657  1
  O2-  O281  1  0.30010526  0.66404022  0.72859610  1
  O2-  O282  1  0.79415952  0.16551138  0.06631304  1
  O2-  O283  1  0.78936972  0.15849544  0.39688427  1
  O2-  O284  1  0.78699421  0.16467970  0.73670941  1
  O2-  O285  1  0.80575024  0.66759837  0.06003365  1
  O2-  O286  1  0.79224367  0.66995340  0.40386860  1
  O2-  O287  1  0.79828718  0.66696824  0.72903538  1
