# generated using pymatgen
data_Ca2Al2SiO7
_symmetry_space_group_name_H-M   'P 1'
_cell_length_a   15.45708881
_cell_length_b   15.45698611
_cell_length_c   15.28287405
_cell_angle_alpha   89.99790901
_cell_angle_beta   89.99927961
_cell_angle_gamma   90.01212919
_symmetry_Int_Tables_number   1
_chemical_formula_structural   Ca2Al2SiO7
_chemical_formula_sum   'Ca48 Al48 Si24 O168'
_cell_volume   3651.38429161
_cell_formula_units_Z   24
loop_
 _symmetry_equiv_pos_site_id
 _symmetry_equiv_pos_as_xyz
  1  'x, y, z'
loop_
 _atom_type_symbol
 _atom_type_oxidation_number
  Ca2+  2.0
  Al0+  0.0
  Si0+  0.0
  O2-  -2.0
loop_
 _atom_site_type_symbol
 _atom_site_label
 _atom_site_symmetry_multiplicity
 _atom_site_fract_x
 _atom_site_fract_y
 _atom_site_fract_z
 _atom_site_occupancy
  Ca2+  Ca0  1  0.16883599  0.08070470  0.16553179  1
  Ca2+  Ca1  1  0.16520784  0.07425781  0.50115335  1
  Ca2+  Ca2  1  0.17459848  0.08476814  0.84608190  1
  Ca2+  Ca3  1  0.17645520  0.58547736  0.16787509  1
  Ca2+  Ca4  1  0.16500875  0.58351169  0.50457715  1
  Ca2+  Ca5  1  0.16729452  0.57378983  0.83870171  1
  Ca2+  Ca6  1  0.66202476  0.07279318  0.16488904  1
  Ca2+  Ca7  1  0.66197473  0.07432749  0.50560595  1
  Ca2+  Ca8  1  0.66514395  0.07863675  0.84169276  1
  Ca2+  Ca9  1  0.67743340  0.58101419  0.16668465  1
  Ca2+  Ca10  1  0.68318782  0.58526397  0.50520030  1
  Ca2+  Ca11  1  0.67648506  0.58112793  0.84302134  1
  Ca2+  Ca12  1  0.07887410  0.33180120  0.15898902  1
  Ca2+  Ca13  1  0.07928316  0.33698299  0.49609632  1
  Ca2+  Ca14  1  0.09167934  0.33177205  0.83432457  1
  Ca2+  Ca15  1  0.08056319  0.82929137  0.16009782  1
  Ca2+  Ca16  1  0.08481230  0.82012394  0.49140579  1
  Ca2+  Ca17  1  0.07231412  0.82584215  0.82978180  1
  Ca2+  Ca18  1  0.57816221  0.32950845  0.15121524  1
  Ca2+  Ca19  1  0.58838851  0.32455027  0.49642671  1
  Ca2+  Ca20  1  0.58650255  0.32633141  0.83449724  1
  Ca2+  Ca21  1  0.58229119  0.83465874  0.15803941  1
  Ca2+  Ca22  1  0.58072558  0.83844037  0.50026245  1
  Ca2+  Ca23  1  0.57376611  0.84470809  0.83159203  1
  Ca2+  Ca24  1  0.33291168  0.42381401  0.16597708  1
  Ca2+  Ca25  1  0.32627706  0.42577032  0.50575062  1
  Ca2+  Ca26  1  0.32514966  0.41851204  0.84592509  1
  Ca2+  Ca27  1  0.33219782  0.92118381  0.16706988  1
  Ca2+  Ca28  1  0.32811809  0.91211168  0.50146904  1
  Ca2+  Ca29  1  0.33712553  0.91910584  0.84074778  1
  Ca2+  Ca30  1  0.83353037  0.42198072  0.16766988  1
  Ca2+  Ca31  1  0.84351114  0.42614305  0.50149466  1
  Ca2+  Ca32  1  0.82970070  0.42892242  0.84138068  1
  Ca2+  Ca33  1  0.82730049  0.91747718  0.16514371  1
  Ca2+  Ca34  1  0.81902597  0.91343549  0.50455491  1
  Ca2+  Ca35  1  0.82154589  0.91844749  0.84560745  1
  Ca2+  Ca36  1  0.42042503  0.17194416  0.15152387  1
  Ca2+  Ca37  1  0.42248615  0.16782776  0.50061270  1
  Ca2+  Ca38  1  0.42695832  0.16719486  0.83647922  1
  Ca2+  Ca39  1  0.41306584  0.67037850  0.15704354  1
  Ca2+  Ca40  1  0.41401637  0.67202617  0.49500699  1
  Ca2+  Ca41  1  0.41164671  0.67757787  0.83216923  1
  Ca2+  Ca42  1  0.92063680  0.16842735  0.15684860  1
  Ca2+  Ca43  1  0.91607042  0.17769276  0.49180538  1
  Ca2+  Ca44  1  0.91970729  0.16312419  0.83617600  1
  Ca2+  Ca45  1  0.91780472  0.66733939  0.16194019  1
  Ca2+  Ca46  1  0.92658005  0.65733290  0.49469487  1
  Ca2+  Ca47  1  0.91416179  0.66623635  0.83084201  1
  Al0+  Al48  1  -0.00148339  -0.00124650  -0.00663892  1
  Al0+  Al49  1  -0.00032803  -0.00047779  0.33963453  1
  Al0+  Al50  1  -0.00097438  -0.00078456  0.66380150  1
  Al0+  Al51  1  0.00138994  0.49896158  0.00644230  1
  Al0+  Al52  1  0.00135967  0.49939800  0.32539028  1
  Al0+  Al53  1  0.00124209  0.49990602  0.67267421  1
  Al0+  Al54  1  0.49835173  0.00035371  0.00132352  1
  Al0+  Al55  1  0.49960834  0.00030950  0.33761172  1
  Al0+  Al56  1  0.49833709  0.00090790  0.65956918  1
  Al0+  Al57  1  0.49991085  0.50124355  0.00087018  1
  Al0+  Al58  1  0.50068263  0.50047381  0.33944483  1
  Al0+  Al59  1  0.50015956  0.50123819  0.66510223  1
  Al0+  Al60  1  0.24959445  0.24939678  0.00187234  1
  Al0+  Al61  1  0.25148027  0.24986464  0.33511483  1
  Al0+  Al62  1  0.25039446  0.24970335  0.66615019  1
  Al0+  Al63  1  0.24856548  0.74884169  -0.00370949  1
  Al0+  Al64  1  0.25045651  0.75067768  0.33542856  1
  Al0+  Al65  1  0.24858552  0.75085886  0.65917185  1
  Al0+  Al66  1  0.75202482  0.24981755  0.00128826  1
  Al0+  Al67  1  0.75018638  0.24891198  0.32676260  1
  Al0+  Al68  1  0.75095107  0.24957874  0.65983997  1
  Al0+  Al69  1  0.74992922  0.75032326  0.00363999  1
  Al0+  Al70  1  0.74975067  0.74935344  0.34252036  1
  Al0+  Al71  1  0.74731417  0.75177429  0.67526932  1
  Al0+  Al72  1  0.17983765  0.42702890  0.01763120  1
  Al0+  Al73  1  0.82063267  0.56960697  0.68109648  1
  Al0+  Al74  1  0.07222313  0.68018673  0.31707601  1
  Al0+  Al75  1  0.57284494  0.17913167  0.98614852  1
  Al0+  Al76  1  0.82390038  0.07108565  0.01402400  1
  Al0+  Al77  1  0.42834380  0.32406076  0.98558767  1
  Al0+  Al78  1  0.42989792  0.82001124  0.65041716  1
  Al0+  Al79  1  0.82188496  0.57222439  0.01691210  1
  Al0+  Al80  1  0.93037869  0.32034777  0.31763750  1
  Al0+  Al81  1  0.07034867  0.17913834  0.98702258  1
  Al0+  Al82  1  0.67887212  0.92996337  0.34942667  1
  Al0+  Al83  1  0.32205988  0.57145871  0.34870987  1
  Al0+  Al84  1  0.92755692  0.81987343  0.98725025  1
  Al0+  Al85  1  0.57040502  0.18146413  0.65146938  1
  Al0+  Al86  1  0.06677574  0.67951334  0.65351018  1
  Al0+  Al87  1  0.32047703  0.06957918  0.01187570  1
  Al0+  Al88  1  0.18098062  0.42954522  0.68019844  1
  Al0+  Al89  1  0.17857240  0.92952424  0.34602034  1
  Al0+  Al90  1  0.67762358  0.93244674  0.68240109  1
  Al0+  Al91  1  0.67727189  0.93057647  0.01511100  1
  Al0+  Al92  1  0.42845339  0.82024338  0.98852848  1
  Al0+  Al93  1  0.67839437  0.42784728  0.01321196  1
  Al0+  Al94  1  0.32079842  0.57339259  0.01252479  1
  Al0+  Al95  1  0.82188994  0.56817681  0.34768673  1
  Si0+  Si96  1  0.31817253  0.06944069  0.68087075  1
  Si0+  Si97  1  0.17941567  0.42773693  0.34969188  1
  Si0+  Si98  1  0.82323554  0.07418914  0.68177329  1
  Si0+  Si99  1  0.32291854  0.57461775  0.68256257  1
  Si0+  Si100  1  0.32206995  0.07309479  0.35216605  1
  Si0+  Si101  1  0.56889658  0.17797498  0.31685169  1
  Si0+  Si102  1  0.07310734  0.17530644  0.31793211  1
  Si0+  Si103  1  0.93170006  0.31955939  0.65336667  1
  Si0+  Si104  1  0.92875806  0.32352514  0.98139524  1
  Si0+  Si105  1  0.57375273  0.67636809  0.64954107  1
  Si0+  Si106  1  0.67817031  0.42593272  0.35042612  1
  Si0+  Si107  1  0.67713448  0.42539282  0.68072535  1
  Si0+  Si108  1  0.82212861  0.07354543  0.35069926  1
  Si0+  Si109  1  0.17658519  0.92714056  0.01254489  1
  Si0+  Si110  1  0.42967165  0.32239258  0.31988881  1
  Si0+  Si111  1  0.92603077  0.82205439  0.31904009  1
  Si0+  Si112  1  0.42576762  0.32356132  0.64885414  1
  Si0+  Si113  1  0.57270645  0.67892585  0.32040717  1
  Si0+  Si114  1  0.07422097  0.17688426  0.65037238  1
  Si0+  Si115  1  0.57297206  0.67828789  0.98461623  1
  Si0+  Si116  1  0.43047591  0.82045849  0.31767363  1
  Si0+  Si117  1  0.07138727  0.67676910  0.98253372  1
  Si0+  Si118  1  0.92459997  0.82269948  0.64900767  1
  Si0+  Si119  1  0.17741344  0.92726917  0.68163948  1
  O2-  O120  1  0.24580235  -0.00538586  0.05769473  1
  O2-  O121  1  0.25137996  0.00575684  0.39513397  1
  O2-  O122  1  0.24505904  0.00092575  0.72376895  1
  O2-  O123  1  0.25200492  0.49996006  0.06513655  1
  O2-  O124  1  0.24691166  0.49686411  0.39510146  1
  O2-  O125  1  0.25904327  0.50134639  0.72535742  1
  O2-  O126  1  0.74986332  0.00212713  0.06528751  1
  O2-  O127  1  0.75438049  0.00455622  0.39591249  1
  O2-  O128  1  0.75604173  0.00458826  0.72558610  1
  O2-  O129  1  0.75084860  0.49817748  0.06505284  1
  O2-  O130  1  0.74853580  0.49221057  0.39591053  1
  O2-  O131  1  0.74110643  0.49820258  0.72426590  1
  O2-  O132  1  0.00442319  0.24335803  0.27413409  1
  O2-  O133  1  0.00117680  0.24660661  0.60979951  1
  O2-  O134  1  -0.00280994  0.25418585  0.93728124  1
  O2-  O135  1  -0.00332104  0.75599960  0.27393563  1
  O2-  O136  1  -0.00772998  0.75365246  0.60388817  1
  O2-  O137  1  -0.00098669  0.74225229  0.93960964  1
  O2-  O138  1  0.50046345  0.25189206  0.27686836  1
  O2-  O139  1  0.49925223  0.26006057  0.60362049  1
  O2-  O140  1  0.50347850  0.25446092  0.93651437  1
  O2-  O141  1  0.50141223  0.74919862  0.27665705  1
  O2-  O142  1  0.50275862  0.74269017  0.60422629  1
  O2-  O143  1  0.50287393  0.74597968  0.94056492  1
  O2-  O144  1  0.06890929  0.17825448  0.10029922  1
  O2-  O145  1  0.07249635  0.17637303  0.42429009  1
  O2-  O146  1  0.07666219  0.17563917  0.75479488  1
  O2-  O147  1  0.07465276  0.68077396  0.08809985  1
  O2-  O148  1  0.07057819  0.67907540  0.43080531  1
  O2-  O149  1  0.06625859  0.68132850  0.76615059  1
  O2-  O150  1  0.56764493  0.17775754  0.10019264  1
  O2-  O151  1  0.56780227  0.17836613  0.42254426  1
  O2-  O152  1  0.56994777  0.18094853  0.76352251  1
  O2-  O153  1  0.57306655  0.68020387  0.09075133  1
  O2-  O154  1  0.57169558  0.68048232  0.42572882  1
  O2-  O155  1  0.57341506  0.67445912  0.75451467  1
  O2-  O156  1  0.18292950  0.42442058  0.24506664  1
  O2-  O157  1  0.18018325  0.43024783  0.56652951  1
  O2-  O158  1  0.18007924  0.42902244  0.90352446  1
  O2-  O159  1  0.18048686  0.93091718  0.23314341  1
  O2-  O160  1  0.17874824  0.92885139  0.57623486  1
  O2-  O161  1  0.17804604  0.92816998  0.90651487  1
  O2-  O162  1  0.67583153  0.42769334  0.24560488  1
  O2-  O163  1  0.68029296  0.42396208  0.57473290  1
  O2-  O164  1  0.68112024  0.42982555  0.89895727  1
  O2-  O165  1  0.67556732  0.93067333  0.23730874  1
  O2-  O166  1  0.67848005  0.93399362  0.56867432  1
  O2-  O167  1  0.67626412  0.93302886  0.90157028  1
  O2-  O168  1  0.42877521  0.32103597  0.10005105  1
  O2-  O169  1  0.43012483  0.31998376  0.42540449  1
  O2-  O170  1  0.42251451  0.32084843  0.75339223  1
  O2-  O171  1  0.42798630  0.81997902  0.10199572  1
  O2-  O172  1  0.43129821  0.82034272  0.42312386  1
  O2-  O173  1  0.42917319  0.82166021  0.76317021  1
  O2-  O174  1  0.93047947  0.32279602  0.08702986  1
  O2-  O175  1  0.93306876  0.32023167  0.43202213  1
  O2-  O176  1  0.93067136  0.31806437  0.75773254  1
  O2-  O177  1  0.93094731  0.82064799  0.10071986  1
  O2-  O178  1  0.92666806  0.82027908  0.42501643  1
  O2-  O179  1  0.92766648  0.82449552  0.75426736  1
  O2-  O180  1  0.32433005  0.07377535  0.24716981  1
  O2-  O181  1  0.31578737  0.06963471  0.57519045  1
  O2-  O182  1  0.32056402  0.06774755  0.89824337  1
  O2-  O183  1  0.32343349  0.57111465  0.23638977  1
  O2-  O184  1  0.32087304  0.57379876  0.57646960  1
  O2-  O185  1  0.31620865  0.57663416  0.89883737  1
  O2-  O186  1  0.82290612  0.07341906  0.24586664  1
  O2-  O187  1  0.82326218  0.07519032  0.57574238  1
  O2-  O188  1  0.82465171  0.06753188  0.90000225  1
  O2-  O189  1  0.81869175  0.56964132  0.23564292  1
  O2-  O190  1  0.82338726  0.56610107  0.56761891  1
  O2-  O191  1  0.82073183  0.57085981  0.90291765  1
  O2-  O192  1  0.04873090  0.08064699  0.27406768  1
  O2-  O193  1  0.04764329  0.08431800  0.60219237  1
  O2-  O194  1  0.04096610  0.08374398  0.92893025  1
  O2-  O195  1  0.04371677  0.58413650  0.26269748  1
  O2-  O196  1  0.03620685  0.58172620  0.60033436  1
  O2-  O197  1  0.04774910  0.58137470  0.93977550  1
  O2-  O198  1  0.53687364  0.08670727  0.27151840  1
  O2-  O199  1  0.53280299  0.08850361  0.59382182  1
  O2-  O200  1  0.53736771  0.08305331  0.93288993  1
  O2-  O201  1  0.54664346  0.58543554  0.27581660  1
  O2-  O202  1  0.55330365  0.58147217  0.60170119  1
  O2-  O203  1  0.55030371  0.58467234  0.93784061  1
  O2-  O204  1  0.16836461  0.19984873  0.27470639  1
  O2-  O205  1  0.16457255  0.20613187  0.60025167  1
  O2-  O206  1  0.16665731  0.20943532  0.93209803  1
  O2-  O207  1  0.16880334  0.71399610  0.26496905  1
  O2-  O208  1  0.16255033  0.71075430  0.59716732  1
  O2-  O209  1  0.16226996  0.70572077  0.93292889  1
  O2-  O210  1  0.66217875  0.20015130  0.27120657  1
  O2-  O211  1  0.66741818  0.20887027  0.59372020  1
  O2-  O212  1  0.67274627  0.20312495  0.93377317  1
  O2-  O213  1  0.66452397  0.70826892  0.27441620  1
  O2-  O214  1  0.66673907  0.70704310  0.60393488  1
  O2-  O215  1  0.66597362  0.70459813  0.93833109  1
  O2-  O216  1  0.08202918  0.45429486  0.07097618  1
  O2-  O217  1  0.08518457  0.45416839  0.39332605  1
  O2-  O218  1  0.08668649  0.46118543  0.73664472  1
  O2-  O219  1  0.08415439  0.95442059  0.05837796  1
  O2-  O220  1  0.08256712  0.95716801  0.40489502  1
  O2-  O221  1  0.08326092  0.95174762  0.72591983  1
  O2-  O222  1  0.58024967  0.45520969  0.06682042  1
  O2-  O223  1  0.58577076  0.45131685  0.39970177  1
  O2-  O224  1  0.58069134  0.44484935  0.72328728  1
  O2-  O225  1  0.58011496  0.95990828  0.06976110  1
  O2-  O226  1  0.58284212  0.96357520  0.40458451  1
  O2-  O227  1  0.57998676  0.96696904  0.73109252  1
  O2-  O228  1  0.20657358  0.32907930  0.07099812  1
  O2-  O229  1  0.20468577  0.33379637  0.39775995  1
  O2-  O230  1  0.20872414  0.33081443  0.73172687  1
  O2-  O231  1  0.20156462  0.83381720  0.05831002  1
  O2-  O232  1  0.21355050  0.83560063  0.40284328  1
  O2-  O233  1  0.20772079  0.83603849  0.72734239  1
  O2-  O234  1  0.70471336  0.32950364  0.06677625  1
  O2-  O235  1  0.70314299  0.33034142  0.39363722  1
  O2-  O236  1  0.70737963  0.33278688  0.72555988  1
  O2-  O237  1  0.70549281  0.83256689  0.06801357  1
  O2-  O238  1  0.70851526  0.83434565  0.40642687  1
  O2-  O239  1  0.70221129  0.83513105  0.73677345  1
  O2-  O240  1  0.45660497  0.41528977  0.27496123  1
  O2-  O241  1  0.44550643  0.41976054  0.60435691  1
  O2-  O242  1  0.45205596  0.42358603  0.93248807  1
  O2-  O243  1  0.45786684  0.91406167  0.27362694  1
  O2-  O244  1  0.46120800  0.91515288  0.59324037  1
  O2-  O245  1  0.45920546  0.91619143  0.93353967  1
  O2-  O246  1  0.96211546  0.41431108  0.26102217  1
  O2-  O247  1  0.96419205  0.41013767  0.60609508  1
  O2-  O248  1  0.95654612  0.41733245  0.93654248  1
  O2-  O249  1  0.94915326  0.91803230  0.27690493  1
  O2-  O250  1  0.94958638  0.91673815  0.60177600  1
  O2-  O251  1  0.96027905  0.91312253  0.92803636  1
  O2-  O252  1  0.33715704  0.29490542  0.27401121  1
  O2-  O253  1  0.33505067  0.29083700  0.59888948  1
  O2-  O254  1  0.33122390  0.29103562  0.93359936  1
  O2-  O255  1  0.33844565  0.79365596  0.27184659  1
  O2-  O256  1  0.33326338  0.79078222  0.59420037  1
  O2-  O257  1  0.33204058  0.79111538  0.93153030  1
  O2-  O258  1  0.83312813  0.29182472  0.26385910  1
  O2-  O259  1  0.84086653  0.29440047  0.60142009  1
  O2-  O260  1  0.83532373  0.29909495  0.93509933  1
  O2-  O261  1  0.83229836  0.79395999  0.27509238  1
  O2-  O262  1  0.82910137  0.79814114  0.60691255  1
  O2-  O263  1  0.83032913  0.79099528  0.93337693  1
  O2-  O264  1  0.41402476  0.03777915  0.06976889  1
  O2-  O265  1  0.41364922  0.04390379  0.40088501  1
  O2-  O266  1  0.40966803  0.03858140  0.72487561  1
  O2-  O267  1  0.42041503  0.55114668  0.06483208  1
  O2-  O268  1  0.41798229  0.54088871  0.40598226  1
  O2-  O269  1  0.41948026  0.55594093  0.72497132  1
  O2-  O270  1  0.92143905  0.03878917  0.06692740  1
  O2-  O271  1  0.91609545  0.05204682  0.39884674  1
  O2-  O272  1  0.91880621  0.05106693  0.72551443  1
  O2-  O273  1  0.92026245  0.54550969  0.06907715  1
  O2-  O274  1  0.91988073  0.53505726  0.39862903  1
  O2-  O275  1  0.91414273  0.53455861  0.73691128  1
  O2-  O276  1  0.28876687  0.16399999  0.06811418  1
  O2-  O277  1  0.29799137  0.16688630  0.40012249  1
  O2-  O278  1  0.29243713  0.16187567  0.72702511  1
  O2-  O279  1  0.28831096  0.67057293  0.06745296  1
  O2-  O280  1  0.29134199  0.66791918  0.40259892  1
  O2-  O281  1  0.29258294  0.66786190  0.72571206  1
  O2-  O282  1  0.80294007  0.17122589  0.06502782  1
  O2-  O283  1  0.79416758  0.16750876  0.39619823  1
  O2-  O284  1  0.79763874  0.16835317  0.72586282  1
  O2-  O285  1  0.79171207  0.66899694  0.07110102  1
  O2-  O286  1  0.79037217  0.66319145  0.40498641  1
  O2-  O287  1  0.79292367  0.66692567  0.73431305  1
