# generated using pymatgen
data_Ca2Al2SiO7
_symmetry_space_group_name_H-M   'P 1'
_cell_length_a   15.46230569
_cell_length_b   15.46145303
_cell_length_c   15.28731596
_cell_angle_alpha   90.00755807
_cell_angle_beta   89.99740838
_cell_angle_gamma   89.99933545
_symmetry_Int_Tables_number   1
_chemical_formula_structural   Ca2Al2SiO7
_chemical_formula_sum   'Ca48 Al48 Si24 O168'
_cell_volume   3654.73420569
_cell_formula_units_Z   24
loop_
 _symmetry_equiv_pos_site_id
 _symmetry_equiv_pos_as_xyz
  1  'x, y, z'
loop_
 _atom_type_symbol
 _atom_type_oxidation_number
  Ca2+  2.0
  Al0+  0.0
  Si0+  0.0
  O2-  -2.0
loop_
 _atom_site_type_symbol
 _atom_site_label
 _atom_site_symmetry_multiplicity
 _atom_site_fract_x
 _atom_site_fract_y
 _atom_site_fract_z
 _atom_site_occupancy
  Ca2+  Ca0  1  0.17335235  0.08321664  0.17579355  1
  Ca2+  Ca1  1  0.16865077  0.09262708  0.50174392  1
  Ca2+  Ca2  1  0.16711356  0.08599727  0.83387844  1
  Ca2+  Ca3  1  0.16503371  0.57720320  0.16821572  1
  Ca2+  Ca4  1  0.17069043  0.57450855  0.50813858  1
  Ca2+  Ca5  1  0.16643336  0.56846045  0.83719839  1
  Ca2+  Ca6  1  0.66525997  0.07216384  0.17173259  1
  Ca2+  Ca7  1  0.66426448  0.07911160  0.50233928  1
  Ca2+  Ca8  1  0.68183343  0.08204757  0.84033743  1
  Ca2+  Ca9  1  0.67532350  0.58603112  0.17153272  1
  Ca2+  Ca10  1  0.67349152  0.58427866  0.50688460  1
  Ca2+  Ca11  1  0.66948429  0.57657082  0.83393039  1
  Ca2+  Ca12  1  0.07729145  0.33173354  0.16707148  1
  Ca2+  Ca13  1  0.07349029  0.32798854  0.49800573  1
  Ca2+  Ca14  1  0.07763468  0.33131198  0.82256363  1
  Ca2+  Ca15  1  0.07446114  0.83068872  0.15877083  1
  Ca2+  Ca16  1  0.07890902  0.83036015  0.49743181  1
  Ca2+  Ca17  1  0.07421653  0.83135260  0.83183787  1
  Ca2+  Ca18  1  0.59066208  0.32657466  0.16351793  1
  Ca2+  Ca19  1  0.58291979  0.33126957  0.49755507  1
  Ca2+  Ca20  1  0.58256704  0.34002165  0.82433372  1
  Ca2+  Ca21  1  0.58186187  0.83667914  0.16416608  1
  Ca2+  Ca22  1  0.58280205  0.82419604  0.49252196  1
  Ca2+  Ca23  1  0.57972927  0.83073417  0.82839629  1
  Ca2+  Ca24  1  0.32505263  0.41385398  0.16862594  1
  Ca2+  Ca25  1  0.32760615  0.41103069  0.51005186  1
  Ca2+  Ca26  1  0.32222574  0.40750055  0.83531533  1
  Ca2+  Ca27  1  0.33909468  0.91830648  0.17591441  1
  Ca2+  Ca28  1  0.34154957  0.91908005  0.49967874  1
  Ca2+  Ca29  1  0.33641134  0.91264629  0.83676347  1
  Ca2+  Ca30  1  0.83143285  0.42561421  0.17065449  1
  Ca2+  Ca31  1  0.83261350  0.42224531  0.50895348  1
  Ca2+  Ca32  1  0.82505924  0.42279847  0.83665703  1
  Ca2+  Ca33  1  0.82404886  0.91626179  0.16857448  1
  Ca2+  Ca34  1  0.82491130  0.92380518  0.50510443  1
  Ca2+  Ca35  1  0.83149275  0.92727774  0.84324421  1
  Ca2+  Ca36  1  0.42320124  0.15970045  0.17024944  1
  Ca2+  Ca37  1  0.42025359  0.17120639  0.49415758  1
  Ca2+  Ca38  1  0.42326666  0.17375425  0.82667174  1
  Ca2+  Ca39  1  0.42435854  0.67770701  0.16111123  1
  Ca2+  Ca40  1  0.43273213  0.67243433  0.49427965  1
  Ca2+  Ca41  1  0.42553998  0.67634515  0.82257159  1
  Ca2+  Ca42  1  0.91789527  0.16796784  0.16379805  1
  Ca2+  Ca43  1  0.91778667  0.17835337  0.49573338  1
  Ca2+  Ca44  1  0.91777541  0.17083828  0.82145083  1
  Ca2+  Ca45  1  0.90879537  0.66846507  0.16194526  1
  Ca2+  Ca46  1  0.91401139  0.65875614  0.49543927  1
  Ca2+  Ca47  1  0.90362124  0.66823680  0.83404586  1
  Al0+  Al48  1  0.00317306  -0.00109504  -0.00031194  1
  Al0+  Al49  1  0.00073033  -0.00028689  0.33049349  1
  Al0+  Al50  1  0.00274832  -0.00116905  0.66618431  1
  Al0+  Al51  1  0.00120928  0.49758775  0.00769844  1
  Al0+  Al52  1  0.00020508  0.49935543  0.33303728  1
  Al0+  Al53  1  0.00081113  0.50095649  0.67209020  1
  Al0+  Al54  1  0.50068922  0.00215139  -0.00375233  1
  Al0+  Al55  1  0.49890287  0.00184581  0.33728930  1
  Al0+  Al56  1  0.49792192  0.00106084  0.66648364  1
  Al0+  Al57  1  0.49754965  0.49924342  0.00269306  1
  Al0+  Al58  1  0.49964062  0.50148773  0.32741097  1
  Al0+  Al59  1  0.49947816  0.50269821  0.66045751  1
  Al0+  Al60  1  0.24999726  0.24890567  0.00540260  1
  Al0+  Al61  1  0.24859100  0.24828935  0.33395062  1
  Al0+  Al62  1  0.25154456  0.24818805  0.66547363  1
  Al0+  Al63  1  0.24970447  0.74875268  -0.00489803  1
  Al0+  Al64  1  0.24890342  0.74926191  0.33088607  1
  Al0+  Al65  1  0.24808344  0.75191975  0.66363232  1
  Al0+  Al66  1  0.75279796  0.25020157  0.00523380  1
  Al0+  Al67  1  0.74954832  0.25144206  0.32376803  1
  Al0+  Al68  1  0.75031670  0.25013930  0.66927578  1
  Al0+  Al69  1  0.74885209  0.75112119  0.00010501  1
  Al0+  Al70  1  0.75011658  0.74956113  0.33933684  1
  Al0+  Al71  1  0.74903900  0.75169628  0.66673608  1
  Al0+  Al72  1  0.42945455  0.82235556  0.98482462  1
  Al0+  Al73  1  0.67516650  0.42802440  0.01636054  1
  Al0+  Al74  1  0.31919163  0.06953541  0.34866782  1
  Al0+  Al75  1  0.82220008  0.57291644  0.68260554  1
  Al0+  Al76  1  0.67968651  0.93087666  0.34885916  1
  Al0+  Al77  1  0.57429465  0.67866417  0.31488986  1
  Al0+  Al78  1  0.82598482  0.07121696  0.01654182  1
  Al0+  Al79  1  0.67812680  0.93148544  0.01364448  1
  Al0+  Al80  1  0.43020428  0.82036222  0.31792368  1
  Al0+  Al81  1  0.57030706  0.18017857  0.32008125  1
  Al0+  Al82  1  0.17991268  0.42736403  0.01628655  1
  Al0+  Al83  1  0.92747347  0.32291136  0.65402597  1
  Al0+  Al84  1  0.67681703  0.42893334  0.67832851  1
  Al0+  Al85  1  0.92868331  0.32296039  0.31585679  1
  Al0+  Al86  1  0.42689560  0.82315140  0.64950997  1
  Al0+  Al87  1  0.57291911  0.68025853  0.65075999  1
  Al0+  Al88  1  0.82216000  0.07039660  0.67737065  1
  Al0+  Al89  1  0.42992480  0.32132216  0.65511029  1
  Al0+  Al90  1  0.81897931  0.57040010  0.01592269  1
  Al0+  Al91  1  0.81986142  0.56866500  0.34850970  1
  Al0+  Al92  1  0.07141889  0.17728155  0.65247055  1
  Al0+  Al93  1  0.18157566  0.42779516  0.67948878  1
  Al0+  Al94  1  0.07083645  0.17853670  0.31630078  1
  Al0+  Al95  1  0.92850348  0.81991182  0.98666286  1
  Si0+  Si96  1  0.57192362  0.18071441  0.98454632  1
  Si0+  Si97  1  0.18106777  0.42994107  0.34993215  1
  Si0+  Si98  1  0.18037030  0.92643460  0.01389031  1
  Si0+  Si99  1  0.32099721  0.57424071  0.68157689  1
  Si0+  Si100  1  0.57155991  0.67634337  0.98206548  1
  Si0+  Si101  1  0.67676849  0.92979302  0.68349153  1
  Si0+  Si102  1  0.17590523  0.92556888  0.35027526  1
  Si0+  Si103  1  0.07035784  0.67886619  0.65255963  1
  Si0+  Si104  1  0.07311943  0.17936902  0.98497841  1
  Si0+  Si105  1  0.32143229  0.57266134  0.34764104  1
  Si0+  Si106  1  0.32043169  0.57355001  0.01665427  1
  Si0+  Si107  1  0.82385855  0.07364120  0.34925469  1
  Si0+  Si108  1  0.42607998  0.32281796  0.31581044  1
  Si0+  Si109  1  0.92904390  0.82062122  0.32047191  1
  Si0+  Si110  1  0.42729200  0.31993270  0.98685351  1
  Si0+  Si111  1  0.32025038  0.06957855  0.01414382  1
  Si0+  Si112  1  0.07114445  0.67839255  0.31874397  1
  Si0+  Si113  1  0.92942591  0.82159529  0.65197924  1
  Si0+  Si114  1  0.17853071  0.92676327  0.68333748  1
  Si0+  Si115  1  0.93040293  0.32072562  0.98434744  1
  Si0+  Si116  1  0.07170429  0.67544423  0.98260114  1
  Si0+  Si117  1  0.32072534  0.07027369  0.68348348  1
  Si0+  Si118  1  0.57314810  0.17848376  0.65207952  1
  Si0+  Si119  1  0.67582887  0.42597838  0.34922858  1
  O2-  O120  1  0.25435336  -0.00632469  0.05577362  1
  O2-  O121  1  0.24395004  -0.00556020  0.39478727  1
  O2-  O122  1  0.25105829  -0.00283737  0.72479062  1
  O2-  O123  1  0.25323768  0.50392189  0.06253699  1
  O2-  O124  1  0.25512992  0.49794221  0.39170239  1
  O2-  O125  1  0.25724857  0.50161647  0.72751462  1
  O2-  O126  1  0.75240299  0.00039523  0.06536244  1
  O2-  O127  1  0.75370639  0.00734603  0.39461654  1
  O2-  O128  1  0.74649216  -0.00224651  0.72635788  1
  O2-  O129  1  0.74522662  0.50120262  0.06711469  1
  O2-  O130  1  0.74437299  0.49432294  0.39345519  1
  O2-  O131  1  0.75017008  0.49922021  0.72917941  1
  O2-  O132  1  -0.00298990  0.24706987  0.26491552  1
  O2-  O133  1  -0.00230660  0.24824724  0.60460951  1
  O2-  O134  1  -0.00105962  0.24635363  0.94278013  1
  O2-  O135  1  0.00089619  0.75021939  0.27795902  1
  O2-  O136  1  -0.00476745  0.74542325  0.60964339  1
  O2-  O137  1  0.00033954  0.74176581  0.93896865  1
  O2-  O138  1  0.49823640  0.25780632  0.27194626  1
  O2-  O139  1  0.50762248  0.25049406  0.60854935  1
  O2-  O140  1  0.50501906  0.25687723  0.94379779  1
  O2-  O141  1  0.50224891  0.75085079  0.26511091  1
  O2-  O142  1  0.50112982  0.75348175  0.60162945  1
  O2-  O143  1  0.50298154  0.74652721  0.93906385  1
  O2-  O144  1  0.07617279  0.18106101  0.08973848  1
  O2-  O145  1  0.07158432  0.18186937  0.42938161  1
  O2-  O146  1  0.07196026  0.17804727  0.76682447  1
  O2-  O147  1  0.07519660  0.67903905  0.08844633  1
  O2-  O148  1  0.07261890  0.67807073  0.42403491  1
  O2-  O149  1  0.07513045  0.68184089  0.75722818  1
  O2-  O150  1  0.56711862  0.17750880  0.08949054  1
  O2-  O151  1  0.56818911  0.18125075  0.43334737  1
  O2-  O152  1  0.56979829  0.17592663  0.75795343  1
  O2-  O153  1  0.56969449  0.67598845  0.08750771  1
  O2-  O154  1  0.57316315  0.67863822  0.42812911  1
  O2-  O155  1  0.57132280  0.68125982  0.76481629  1
  O2-  O156  1  0.18187078  0.43170561  0.24452020  1
  O2-  O157  1  0.18245339  0.43032174  0.56623497  1
  O2-  O158  1  0.18188526  0.42508256  0.90333178  1
  O2-  O159  1  0.17573363  0.92421785  0.24444774  1
  O2-  O160  1  0.17567041  0.92381713  0.57871392  1
  O2-  O161  1  0.17902294  0.92801566  0.90871548  1
  O2-  O162  1  0.67684420  0.42723083  0.24372739  1
  O2-  O163  1  0.67695658  0.42818404  0.56497271  1
  O2-  O164  1  0.67460347  0.42840176  0.90292138  1
  O2-  O165  1  0.68111581  0.93091141  0.23586594  1
  O2-  O166  1  0.67780775  0.93081114  0.57773084  1
  O2-  O167  1  0.67799577  0.93584813  0.89988058  1
  O2-  O168  1  0.42289955  0.31538617  0.09167536  1
  O2-  O169  1  0.42402557  0.32149728  0.42138213  1
  O2-  O170  1  0.42709048  0.31631222  0.76870088  1
  O2-  O171  1  0.42767392  0.82231677  0.09742078  1
  O2-  O172  1  0.42970349  0.81694850  0.43093886  1
  O2-  O173  1  0.42751878  0.82136650  0.76358652  1
  O2-  O174  1  0.93333354  0.32122585  0.08927275  1
  O2-  O175  1  0.93142702  0.32503157  0.42936679  1
  O2-  O176  1  0.93010454  0.32189367  0.76808568  1
  O2-  O177  1  0.93302293  0.82037096  0.10000253  1
  O2-  O178  1  0.93228096  0.82103982  0.42583679  1
  O2-  O179  1  0.93314871  0.82352633  0.75700577  1
  O2-  O180  1  0.31811225  0.06830110  0.23484156  1
  O2-  O181  1  0.32073607  0.07182594  0.57886577  1
  O2-  O182  1  0.31780320  0.07277902  0.90898028  1
  O2-  O183  1  0.31665474  0.57292228  0.24242164  1
  O2-  O184  1  0.31562320  0.57447788  0.57584273  1
  O2-  O185  1  0.31827933  0.57340020  0.91121995  1
  O2-  O186  1  0.82493970  0.06861045  0.24384334  1
  O2-  O187  1  0.82108193  0.06784704  0.56424940  1
  O2-  O188  1  0.82566562  0.07111326  0.90246921  1
  O2-  O189  1  0.82127635  0.56996024  0.23577389  1
  O2-  O190  1  0.82289650  0.57163668  0.56905732  1
  O2-  O191  1  0.81911237  0.56772348  0.90274495  1
  O2-  O192  1  0.04828439  0.07759226  0.26438915  1
  O2-  O193  1  0.04942103  0.07702927  0.60038266  1
  O2-  O194  1  0.05201503  0.08519406  0.93926967  1
  O2-  O195  1  0.04331322  0.58757941  0.27026911  1
  O2-  O196  1  0.04693361  0.58628487  0.60506876  1
  O2-  O197  1  0.04905223  0.57959328  0.94046921  1
  O2-  O198  1  0.53332096  0.08580428  0.26588954  1
  O2-  O199  1  0.54212157  0.08686908  0.60522410  1
  O2-  O200  1  0.53843690  0.09272832  0.93340023  1
  O2-  O201  1  0.54517092  0.58036899  0.26136784  1
  O2-  O202  1  0.54336676  0.58379042  0.59479974  1
  O2-  O203  1  0.54259930  0.58269666  0.93701679  1
  O2-  O204  1  0.16911112  0.20942660  0.26338455  1
  O2-  O205  1  0.16927262  0.20728112  0.60036359  1
  O2-  O206  1  0.16452258  0.21076117  0.93784892  1
  O2-  O207  1  0.16171508  0.70541158  0.26829019  1
  O2-  O208  1  0.15927157  0.71101194  0.60132957  1
  O2-  O209  1  0.16347774  0.70336052  0.93381300  1
  O2-  O210  1  0.66602733  0.20505391  0.26183350  1
  O2-  O211  1  0.66699889  0.19923933  0.60599244  1
  O2-  O212  1  0.66644337  0.20370979  0.94067842  1
  O2-  O213  1  0.67333638  0.70970075  0.26552430  1
  O2-  O214  1  0.67096283  0.71000634  0.59723476  1
  O2-  O215  1  0.66487901  0.70188148  0.93677755  1
  O2-  O216  1  0.08577352  0.45856871  0.07366967  1
  O2-  O217  1  0.09085391  0.46263434  0.39628734  1
  O2-  O218  1  0.08729880  0.46121701  0.73574135  1
  O2-  O219  1  0.09089179  0.95680357  0.06377799  1
  O2-  O220  1  0.08188375  0.95032384  0.39649733  1
  O2-  O221  1  0.08837947  0.95601452  0.73358526  1
  O2-  O222  1  0.57368879  0.44830162  0.06758831  1
  O2-  O223  1  0.57958456  0.44945859  0.39141335  1
  O2-  O224  1  0.57724469  0.45832923  0.73056209  1
  O2-  O225  1  0.58053779  0.96490727  0.06653806  1
  O2-  O226  1  0.58415399  0.96290492  0.40325381  1
  O2-  O227  1  0.58257641  0.95544456  0.72840984  1
  O2-  O228  1  0.21503345  0.33299454  0.07252525  1
  O2-  O229  1  0.20688429  0.33737829  0.39546443  1
  O2-  O230  1  0.21394809  0.33159283  0.73405854  1
  O2-  O231  1  0.20289608  0.83260631  0.05984284  1
  O2-  O232  1  0.20033296  0.83109876  0.39613765  1
  O2-  O233  1  0.20513483  0.83516724  0.73268904  1
  O2-  O234  1  0.70607003  0.33037249  0.06872915  1
  O2-  O235  1  0.69993521  0.33064542  0.39231316  1
  O2-  O236  1  0.70056426  0.32976797  0.73272714  1
  O2-  O237  1  0.70248004  0.83194286  0.06475668  1
  O2-  O238  1  0.71383655  0.83630996  0.40442245  1
  O2-  O239  1  0.70202882  0.83644016  0.72889411  1
  O2-  O240  1  0.44475974  0.41777508  0.26976464  1
  O2-  O241  1  0.45106191  0.41894558  0.59954999  1
  O2-  O242  1  0.44409526  0.41517150  0.94190156  1
  O2-  O243  1  0.45621250  0.92076873  0.26922830  1
  O2-  O244  1  0.45143413  0.92394435  0.60040486  1
  O2-  O245  1  0.45830442  0.91984119  0.93057598  1
  O2-  O246  1  0.96576974  0.41882394  0.26190389  1
  O2-  O247  1  0.95969981  0.42118234  0.60288493  1
  O2-  O248  1  0.96307928  0.41197323  0.93924989  1
  O2-  O249  1  0.95592366  0.91158551  0.27110624  1
  O2-  O250  1  0.96451446  0.90947799  0.60193603  1
  O2-  O251  1  0.96634176  0.91479009  0.93172416  1
  O2-  O252  1  0.33406449  0.29204492  0.26930588  1
  O2-  O253  1  0.33640994  0.28483223  0.59899278  1
  O2-  O254  1  0.33814609  0.28321990  0.93851257  1
  O2-  O255  1  0.32995572  0.79233782  0.26628145  1
  O2-  O256  1  0.32714052  0.79679437  0.59841879  1
  O2-  O257  1  0.33151959  0.79267294  0.93128098  1
  O2-  O258  1  0.82994681  0.30063823  0.26179660  1
  O2-  O259  1  0.82900816  0.29531013  0.60099716  1
  O2-  O260  1  0.83706918  0.29593111  0.93893190  1
  O2-  O261  1  0.83834730  0.79079526  0.27414641  1
  O2-  O262  1  0.83572733  0.80106721  0.60636340  1
  O2-  O263  1  0.83116842  0.79410537  0.93171022  1
  O2-  O264  1  0.41344534  0.04572666  0.05965630  1
  O2-  O265  1  0.41446044  0.04093852  0.40529282  1
  O2-  O266  1  0.41277143  0.04494214  0.73286533  1
  O2-  O267  1  0.41347886  0.54927652  0.06352109  1
  O2-  O268  1  0.41542457  0.54912011  0.39206848  1
  O2-  O269  1  0.41631865  0.55397530  0.72435659  1
  O2-  O270  1  0.92488649  0.04200021  0.06799565  1
  O2-  O271  1  0.91735976  0.04569809  0.39471010  1
  O2-  O272  1  0.91864623  0.03751007  0.73111985  1
  O2-  O273  1  0.91819778  0.54298013  0.06844962  1
  O2-  O274  1  0.91858363  0.53921938  0.40045426  1
  O2-  O275  1  0.92144233  0.54969569  0.73620744  1
  O2-  O276  1  0.28798643  0.15806571  0.06499368  1
  O2-  O277  1  0.28813640  0.16669872  0.40252464  1
  O2-  O278  1  0.29083568  0.16036082  0.73338110  1
  O2-  O279  1  0.29165409  0.66636020  0.06337839  1
  O2-  O280  1  0.28808605  0.66217037  0.39602461  1
  O2-  O281  1  0.28982649  0.66632318  0.72818669  1
  O2-  O282  1  0.79993122  0.16981512  0.06823687  1
  O2-  O283  1  0.79930533  0.16971912  0.38950350  1
  O2-  O284  1  0.79347434  0.16626645  0.73374739  1
  O2-  O285  1  0.79410742  0.67075814  0.06646742  1
  O2-  O286  1  0.79311093  0.66576758  0.40336831  1
  O2-  O287  1  0.79302904  0.67244154  0.73379137  1
