# generated using pymatgen
data_Ca2Al2SiO7
_symmetry_space_group_name_H-M   'P 1'
_cell_length_a   15.46331289
_cell_length_b   15.46326619
_cell_length_c   15.28663426
_cell_angle_alpha   90.01916766
_cell_angle_beta   90.00358719
_cell_angle_gamma   89.98932351
_symmetry_Int_Tables_number   1
_chemical_formula_structural   Ca2Al2SiO7
_chemical_formula_sum   'Ca48 Al48 Si24 O168'
_cell_volume   3655.23764636
_cell_formula_units_Z   24
loop_
 _symmetry_equiv_pos_site_id
 _symmetry_equiv_pos_as_xyz
  1  'x, y, z'
loop_
 _atom_type_symbol
 _atom_type_oxidation_number
  Ca2+  2.0
  Al0+  0.0
  Si0+  0.0
  O2-  -2.0
loop_
 _atom_site_type_symbol
 _atom_site_label
 _atom_site_symmetry_multiplicity
 _atom_site_fract_x
 _atom_site_fract_y
 _atom_site_fract_z
 _atom_site_occupancy
  Ca2+  Ca0  1  0.15848392  0.07478538  0.16873357  1
  Ca2+  Ca1  1  0.15588074  0.07568579  0.50449775  1
  Ca2+  Ca2  1  0.15312169  0.07547872  0.83629908  1
  Ca2+  Ca3  1  0.16462901  0.57462856  0.16535276  1
  Ca2+  Ca4  1  0.16753092  0.57914171  0.51130682  1
  Ca2+  Ca5  1  0.15572669  0.56993729  0.83299288  1
  Ca2+  Ca6  1  0.67707015  0.08460452  0.17386543  1
  Ca2+  Ca7  1  0.68173494  0.08378935  0.50616229  1
  Ca2+  Ca8  1  0.67575330  0.08525616  0.83355349  1
  Ca2+  Ca9  1  0.66177308  0.57611027  0.16580982  1
  Ca2+  Ca10  1  0.67407145  0.57514750  0.50840349  1
  Ca2+  Ca11  1  0.67214760  0.57747873  0.83677423  1
  Ca2+  Ca12  1  0.07865271  0.31966114  0.15324035  1
  Ca2+  Ca13  1  0.07949883  0.32428751  0.49850917  1
  Ca2+  Ca14  1  0.07957390  0.32830958  0.82192405  1
  Ca2+  Ca15  1  0.08230611  0.83703805  0.15973496  1
  Ca2+  Ca16  1  0.08415651  0.83501791  0.50293049  1
  Ca2+  Ca17  1  0.07859627  0.83227817  0.82575210  1
  Ca2+  Ca18  1  0.58171794  0.33808187  0.15907609  1
  Ca2+  Ca19  1  0.58170106  0.34378563  0.50057739  1
  Ca2+  Ca20  1  0.57331690  0.34823921  0.83092603  1
  Ca2+  Ca21  1  0.57070971  0.82917866  0.15456820  1
  Ca2+  Ca22  1  0.57484516  0.83393326  0.49312437  1
  Ca2+  Ca23  1  0.57977470  0.82785693  0.83223416  1
  Ca2+  Ca24  1  0.32878252  0.41109350  0.16268131  1
  Ca2+  Ca25  1  0.32748502  0.41716527  0.51022984  1
  Ca2+  Ca26  1  0.32307418  0.40810539  0.83742034  1
  Ca2+  Ca27  1  0.32473072  0.90946430  0.17046264  1
  Ca2+  Ca28  1  0.32291801  0.91588682  0.50511262  1
  Ca2+  Ca29  1  0.32084820  0.91654802  0.84092830  1
  Ca2+  Ca30  1  0.82233697  0.40792723  0.16818751  1
  Ca2+  Ca31  1  0.82411278  0.41755544  0.51370502  1
  Ca2+  Ca32  1  0.82924679  0.41257723  0.83890535  1
  Ca2+  Ca33  1  0.83648460  0.92207512  0.17047798  1
  Ca2+  Ca34  1  0.84310763  0.92808017  0.50665732  1
  Ca2+  Ca35  1  0.84783075  0.92180573  0.83489863  1
  Ca2+  Ca36  1  0.42220638  0.17193887  0.15917464  1
  Ca2+  Ca37  1  0.41713067  0.17344064  0.50116480  1
  Ca2+  Ca38  1  0.41656327  0.17850430  0.82946900  1
  Ca2+  Ca39  1  0.42067480  0.67605049  0.15922411  1
  Ca2+  Ca40  1  0.41650584  0.67273417  0.49462263  1
  Ca2+  Ca41  1  0.42147059  0.66495504  0.83531345  1
  Ca2+  Ca42  1  0.92492932  0.16601742  0.16181292  1
  Ca2+  Ca43  1  0.92240422  0.16336284  0.50130696  1
  Ca2+  Ca44  1  0.92476579  0.17653205  0.82863065  1
  Ca2+  Ca45  1  0.91689077  0.67678012  0.15923416  1
  Ca2+  Ca46  1  0.92012670  0.66431692  0.50638377  1
  Ca2+  Ca47  1  0.91724519  0.67720235  0.82319289  1
  Al0+  Al48  1  0.00092878  0.00010323  -0.00080386  1
  Al0+  Al49  1  0.00088364  -0.00023018  0.33688190  1
  Al0+  Al50  1  -0.00042117  -0.00002273  0.66887786  1
  Al0+  Al51  1  -0.00237714  0.50031690  0.00661259  1
  Al0+  Al52  1  -0.00163463  0.49999046  0.33112293  1
  Al0+  Al53  1  -0.00057356  0.50169448  0.66540517  1
  Al0+  Al54  1  0.50005932  -0.00021329  -0.00432313  1
  Al0+  Al55  1  0.49801991  0.00249523  0.32822173  1
  Al0+  Al56  1  0.49993671  0.00176166  0.66616808  1
  Al0+  Al57  1  0.50079419  0.50070936  -0.00197347  1
  Al0+  Al58  1  0.49870010  0.50153767  0.33636221  1
  Al0+  Al59  1  0.50010375  0.50220349  0.66354041  1
  Al0+  Al60  1  0.25231017  0.24616518  -0.00136294  1
  Al0+  Al61  1  0.24980793  0.24781406  0.32840666  1
  Al0+  Al62  1  0.25273969  0.24954217  0.65981847  1
  Al0+  Al63  1  0.24994925  0.74908569  0.00126846  1
  Al0+  Al64  1  0.24900896  0.74889821  0.33268657  1
  Al0+  Al65  1  0.25064425  0.75082785  0.66851501  1
  Al0+  Al66  1  0.75178169  0.24883326  0.00293600  1
  Al0+  Al67  1  0.74865445  0.25044799  0.34298570  1
  Al0+  Al68  1  0.74806025  0.24786018  0.67367711  1
  Al0+  Al69  1  0.74967904  0.75083949  -0.00614252  1
  Al0+  Al70  1  0.74977998  0.74799122  0.33307708  1
  Al0+  Al71  1  0.74814989  0.75050281  0.66316603  1
  Al0+  Al72  1  0.42812832  0.82158801  0.31981996  1
  Al0+  Al73  1  0.92599030  0.32212636  0.65225410  1
  Al0+  Al74  1  0.82117936  0.06915877  0.68378780  1
  Al0+  Al75  1  0.42608503  0.82220187  0.98244007  1
  Al0+  Al76  1  0.82033287  0.06838565  0.34732879  1
  Al0+  Al77  1  0.68036175  0.43037560  0.01467381  1
  Al0+  Al78  1  0.82182148  0.57260152  0.68263082  1
  Al0+  Al79  1  0.07102205  0.17949396  0.65056790  1
  Al0+  Al80  1  0.43145269  0.32186449  0.65154650  1
  Al0+  Al81  1  0.18154698  0.92935175  0.34825413  1
  Al0+  Al82  1  0.18031871  0.42836412  0.67698153  1
  Al0+  Al83  1  0.92794007  0.32189329  0.98741073  1
  Al0+  Al84  1  0.92845275  0.82140317  0.64953816  1
  Al0+  Al85  1  0.17745932  0.42594978  0.01315681  1
  Al0+  Al86  1  0.07273544  0.67900141  0.65226465  1
  Al0+  Al87  1  0.67905548  0.43154899  0.34811111  1
  Al0+  Al88  1  0.57091718  0.67899112  0.98366475  1
  Al0+  Al89  1  0.07148717  0.17908950  0.98486891  1
  Al0+  Al90  1  0.67850490  0.42938610  0.68445993  1
  Al0+  Al91  1  0.18093432  0.93082642  0.68172478  1
  Al0+  Al92  1  0.43106071  0.31952388  0.98753348  1
  Al0+  Al93  1  0.93100124  0.82040585  0.98810012  1
  Al0+  Al94  1  0.18021900  0.93008200  0.01430080  1
  Al0+  Al95  1  0.06938656  0.17866043  0.31765350  1
  Si0+  Si96  1  0.57506120  0.17674354  0.98401081  1
  Si0+  Si97  1  0.57004571  0.67994491  0.64842270  1
  Si0+  Si98  1  0.07271828  0.67565155  0.98567626  1
  Si0+  Si99  1  0.32470299  0.07478775  0.35055184  1
  Si0+  Si100  1  0.67720517  0.92744191  0.01428127  1
  Si0+  Si101  1  0.32469629  0.07237204  0.68358296  1
  Si0+  Si102  1  0.57138466  0.67807139  0.31683296  1
  Si0+  Si103  1  0.81985192  0.06836832  0.01642016  1
  Si0+  Si104  1  0.17849667  0.42650293  0.34637242  1
  Si0+  Si105  1  0.67541848  0.92696296  0.34657310  1
  Si0+  Si106  1  0.42946291  0.32287313  0.31769473  1
  Si0+  Si107  1  0.82140870  0.57594752  0.01845252  1
  Si0+  Si108  1  0.32266828  0.57347142  0.68311255  1
  Si0+  Si109  1  0.32206829  0.57001571  0.01733729  1
  Si0+  Si110  1  0.82420474  0.57510406  0.35084527  1
  Si0+  Si111  1  0.32603318  0.07137915  0.01766756  1
  Si0+  Si112  1  0.42927987  0.82265312  0.65128540  1
  Si0+  Si113  1  0.92611642  0.32267310  0.31768387  1
  Si0+  Si114  1  0.57253882  0.18131737  0.31942199  1
  Si0+  Si115  1  0.31823047  0.56938273  0.34732338  1
  Si0+  Si116  1  0.93017666  0.82042318  0.31941215  1
  Si0+  Si117  1  0.07165871  0.67659961  0.31671707  1
  Si0+  Si118  1  0.67460170  0.92790830  0.68287154  1
  Si0+  Si119  1  0.57184896  0.17570287  0.64875874  1
  O2-  O120  1  0.25782881  0.00190758  0.06180995  1
  O2-  O121  1  0.25705198  0.00456161  0.39344357  1
  O2-  O122  1  0.25363754  0.00730405  0.72832684  1
  O2-  O123  1  0.25211859  0.50156000  0.06120906  1
  O2-  O124  1  0.24827834  0.49801142  0.38985151  1
  O2-  O125  1  0.25324021  0.50484435  0.72500546  1
  O2-  O126  1  0.74736905  -0.00184400  0.05854487  1
  O2-  O127  1  0.74571259  -0.00799586  0.39280264  1
  O2-  O128  1  0.74712268  -0.00834297  0.72811804  1
  O2-  O129  1  0.75623857  0.50346256  0.06302753  1
  O2-  O130  1  0.75669710  0.50399465  0.39213973  1
  O2-  O131  1  0.75574768  0.49586392  0.73401521  1
  O2-  O132  1  -0.00325082  0.25640786  0.27285881  1
  O2-  O133  1  -0.00101071  0.25192249  0.60035335  1
  O2-  O134  1  0.00848223  0.26011040  0.93765697  1
  O2-  O135  1  -0.00094571  0.74740696  0.27670695  1
  O2-  O136  1  0.00063978  0.74953621  0.59923099  1
  O2-  O137  1  0.00367129  0.74389769  0.94284215  1
  O2-  O138  1  0.50188675  0.25259390  0.27663975  1
  O2-  O139  1  0.50796694  0.24909699  0.60421300  1
  O2-  O140  1  0.50702910  0.24617919  0.94091738  1
  O2-  O141  1  0.50800232  0.75195185  0.27350670  1
  O2-  O142  1  0.50015156  0.75270019  0.60695551  1
  O2-  O143  1  0.49894203  0.75109368  0.93309893  1
  O2-  O144  1  0.06643896  0.17588400  0.09913701  1
  O2-  O145  1  0.06904259  0.17927835  0.43016862  1
  O2-  O146  1  0.07052548  0.18060833  0.76373632  1
  O2-  O147  1  0.07170797  0.67696320  0.09228284  1
  O2-  O148  1  0.07403672  0.67380273  0.42102161  1
  O2-  O149  1  0.07518441  0.68155087  0.76556801  1
  O2-  O150  1  0.57498958  0.17640777  0.09037717  1
  O2-  O151  1  0.57166930  0.17997114  0.42398384  1
  O2-  O152  1  0.56719638  0.16908556  0.75383438  1
  O2-  O153  1  0.56881057  0.68090249  0.09806103  1
  O2-  O154  1  0.56873368  0.67781262  0.42242851  1
  O2-  O155  1  0.56848361  0.67943108  0.75308361  1
  O2-  O156  1  0.18091976  0.42782295  0.24120187  1
  O2-  O157  1  0.18417014  0.42931067  0.56302589  1
  O2-  O158  1  0.17870624  0.42689728  0.90048225  1
  O2-  O159  1  0.18097412  0.92870577  0.23511551  1
  O2-  O160  1  0.18418876  0.92996003  0.56820701  1
  O2-  O161  1  0.17889706  0.93153421  0.90178912  1
  O2-  O162  1  0.67707757  0.43194790  0.23477407  1
  O2-  O163  1  0.67642475  0.43480432  0.57033475  1
  O2-  O164  1  0.67960031  0.43164161  0.90274419  1
  O2-  O165  1  0.67627555  0.92898872  0.24082137  1
  O2-  O166  1  0.66936421  0.93181973  0.57699274  1
  O2-  O167  1  0.67614812  0.92889182  0.90955141  1
  O2-  O168  1  0.43312288  0.31817306  0.10159132  1
  O2-  O169  1  0.42903377  0.32327672  0.42252309  1
  O2-  O170  1  0.43098115  0.32101728  0.76433311  1
  O2-  O171  1  0.42772839  0.82013909  0.09660912  1
  O2-  O172  1  0.42897649  0.81817048  0.43335711  1
  O2-  O173  1  0.43092416  0.82226075  0.75580596  1
  O2-  O174  1  0.92478234  0.31517607  0.10170016  1
  O2-  O175  1  0.92771410  0.32448121  0.42277415  1
  O2-  O176  1  0.92800321  0.32049551  0.76564062  1
  O2-  O177  1  0.93115339  0.82115312  0.10239203  1
  O2-  O178  1  0.93043453  0.82064855  0.42374335  1
  O2-  O179  1  0.93106953  0.82087026  0.76306111  1
  O2-  O180  1  0.32760224  0.07701705  0.24534735  1
  O2-  O181  1  0.32948392  0.06802352  0.57781424  1
  O2-  O182  1  0.32936979  0.07110290  0.91251289  1
  O2-  O183  1  0.31911275  0.56885127  0.24245535  1
  O2-  O184  1  0.32312153  0.57334227  0.57657525  1
  O2-  O185  1  0.32339082  0.56985639  0.91217423  1
  O2-  O186  1  0.81873323  0.06683359  0.23373541  1
  O2-  O187  1  0.81917948  0.06729997  0.57017879  1
  O2-  O188  1  0.81851101  0.06777053  0.91186536  1
  O2-  O189  1  0.82461207  0.58008104  0.24552757  1
  O2-  O190  1  0.81600786  0.57320300  0.56836066  1
  O2-  O191  1  0.82002512  0.57923677  0.91370473  1
  O2-  O192  1  0.03524924  0.08180039  0.26537507  1
  O2-  O193  1  0.03840575  0.08167932  0.59924082  1
  O2-  O194  1  0.03313954  0.08469956  0.93217525  1
  O2-  O195  1  0.04433032  0.58494269  0.26721022  1
  O2-  O196  1  0.04592850  0.58126206  0.59632106  1
  O2-  O197  1  0.04779627  0.58124978  0.94230149  1
  O2-  O198  1  0.54607758  0.09006370  0.26905894  1
  O2-  O199  1  0.54144216  0.08475763  0.59815296  1
  O2-  O200  1  0.55074831  0.08378619  0.93675547  1
  O2-  O201  1  0.53801869  0.58684308  0.27008534  1
  O2-  O202  1  0.53874054  0.59060912  0.59819509  1
  O2-  O203  1  0.54051082  0.58228351  0.93000977  1
  O2-  O204  1  0.16759021  0.20562099  0.26386931  1
  O2-  O205  1  0.17032846  0.20380538  0.59691271  1
  O2-  O206  1  0.17377187  0.19416641  0.93715332  1
  O2-  O207  1  0.16247814  0.70547880  0.26828381  1
  O2-  O208  1  0.17216086  0.70805528  0.59872460  1
  O2-  O209  1  0.16662615  0.69863409  0.94143483  1
  O2-  O210  1  0.66449424  0.20946563  0.27208274  1
  O2-  O211  1  0.66708310  0.19734300  0.60602442  1
  O2-  O212  1  0.66869175  0.20117432  0.93945067  1
  O2-  O213  1  0.66735328  0.69627019  0.27228310  1
  O2-  O214  1  0.66071404  0.70675026  0.59868579  1
  O2-  O215  1  0.66740360  0.70883301  0.92916276  1
  O2-  O216  1  0.08193531  0.45656566  0.07142793  1
  O2-  O217  1  0.08507326  0.45323929  0.39033551  1
  O2-  O218  1  0.08375904  0.45800172  0.73030032  1
  O2-  O219  1  0.08419807  0.96404366  0.06938168  1
  O2-  O220  1  0.08539887  0.96038339  0.40196419  1
  O2-  O221  1  0.08404010  0.95966917  0.73446820  1
  O2-  O222  1  0.58346916  0.46309146  0.06872250  1
  O2-  O223  1  0.58236947  0.46445488  0.40178605  1
  O2-  O224  1  0.58069321  0.46620801  0.73361213  1
  O2-  O225  1  0.58479047  0.95466729  0.06174854  1
  O2-  O226  1  0.58179415  0.95486325  0.39174223  1
  O2-  O227  1  0.58308517  0.95800219  0.73145795  1
  O2-  O228  1  0.21234922  0.32989856  0.06739032  1
  O2-  O229  1  0.20808799  0.33481153  0.39216200  1
  O2-  O230  1  0.21543729  0.33231787  0.72891537  1
  O2-  O231  1  0.20755831  0.83146221  0.06808556  1
  O2-  O232  1  0.21204071  0.83161503  0.40073716  1
  O2-  O233  1  0.21403348  0.83475285  0.73502247  1
  O2-  O234  1  0.70939881  0.33209570  0.06911506  1
  O2-  O235  1  0.70433953  0.33474675  0.40377484  1
  O2-  O236  1  0.69424274  0.32754010  0.73387108  1
  O2-  O237  1  0.70541331  0.83587483  0.06190020  1
  O2-  O238  1  0.69608129  0.83121160  0.39059567  1
  O2-  O239  1  0.69406536  0.83197052  0.72472905  1
  O2-  O240  1  0.45659840  0.41547552  0.27148973  1
  O2-  O241  1  0.45995786  0.41922945  0.59614545  1
  O2-  O242  1  0.45945442  0.41612050  0.93442117  1
  O2-  O243  1  0.45258508  0.91992186  0.26590397  1
  O2-  O244  1  0.45721020  0.91443589  0.60337775  1
  O2-  O245  1  0.45442492  0.92053024  0.93039168  1
  O2-  O246  1  0.94689632  0.41763059  0.27098630  1
  O2-  O247  1  0.95076121  0.42155140  0.60001295  1
  O2-  O248  1  0.94354947  0.42568886  0.94285200  1
  O2-  O249  1  0.96011334  0.91112848  0.27161761  1
  O2-  O250  1  0.96084637  0.91876861  0.59780264  1
  O2-  O251  1  0.96405106  0.91512468  0.93408521  1
  O2-  O252  1  0.33850872  0.29392889  0.26929403  1
  O2-  O253  1  0.33787635  0.28872579  0.59273892  1
  O2-  O254  1  0.33587425  0.28731385  0.93268225  1
  O2-  O255  1  0.33379484  0.78400592  0.26572438  1
  O2-  O256  1  0.33844996  0.79305150  0.60349282  1
  O2-  O257  1  0.32810431  0.79150650  0.93126087  1
  O2-  O258  1  0.83160213  0.29339163  0.27523051  1
  O2-  O259  1  0.82598243  0.29148580  0.60296070  1
  O2-  O260  1  0.83243645  0.28575301  0.93430257  1
  O2-  O261  1  0.83630969  0.79529997  0.27265787  1
  O2-  O262  1  0.82803786  0.79727852  0.59733913  1
  O2-  O263  1  0.83393058  0.79553915  0.93368350  1
  O2-  O264  1  0.42074666  0.04723702  0.06441481  1
  O2-  O265  1  0.41926769  0.05113104  0.39668049  1
  O2-  O266  1  0.41702579  0.04484898  0.73150174  1
  O2-  O267  1  0.41461908  0.54292555  0.06524101  1
  O2-  O268  1  0.40982298  0.54343224  0.39679033  1
  O2-  O269  1  0.41597632  0.54697809  0.72778535  1
  O2-  O270  1  0.91015618  0.03669211  0.06432015  1
  O2-  O271  1  0.91512766  0.03578084  0.40222894  1
  O2-  O272  1  0.91643449  0.03773982  0.73851234  1
  O2-  O273  1  0.91567196  0.55642390  0.06649020  1
  O2-  O274  1  0.91904902  0.55105536  0.39532663  1
  O2-  O275  1  0.92347902  0.55519313  0.73158898  1
  O2-  O276  1  0.30165871  0.16459224  0.06539509  1
  O2-  O277  1  0.29792470  0.16851365  0.39647088  1
  O2-  O278  1  0.30294582  0.16816715  0.72517075  1
  O2-  O279  1  0.29603917  0.66327342  0.06510980  1
  O2-  O280  1  0.28974559  0.66030869  0.39602153  1
  O2-  O281  1  0.30034196  0.66702152  0.72964548  1
  O2-  O282  1  0.79167560  0.15895359  0.06644960  1
  O2-  O283  1  0.78785265  0.16311064  0.40319077  1
  O2-  O284  1  0.78763482  0.16331050  0.74019243  1
  O2-  O285  1  0.79024877  0.66853043  0.06576303  1
  O2-  O286  1  0.79684058  0.66766975  0.39909795  1
  O2-  O287  1  0.78747011  0.67087510  0.73312946  1
