# generated using pymatgen
data_Ca2Al2SiO7
_symmetry_space_group_name_H-M   'P 1'
_cell_length_a   15.46670123
_cell_length_b   15.47007718
_cell_length_c   15.29172447
_cell_angle_alpha   90.02149600
_cell_angle_beta   89.99283876
_cell_angle_gamma   89.97317920
_symmetry_Int_Tables_number   1
_chemical_formula_structural   Ca2Al2SiO7
_chemical_formula_sum   'Ca48 Al48 Si24 O168'
_cell_volume   3658.86646360
_cell_formula_units_Z   24
loop_
 _symmetry_equiv_pos_site_id
 _symmetry_equiv_pos_as_xyz
  1  'x, y, z'
loop_
 _atom_type_symbol
 _atom_type_oxidation_number
  Ca2+  2.0
  Al0+  0.0
  Si0+  0.0
  O2-  -2.0
loop_
 _atom_site_type_symbol
 _atom_site_label
 _atom_site_symmetry_multiplicity
 _atom_site_fract_x
 _atom_site_fract_y
 _atom_site_fract_z
 _atom_site_occupancy
  Ca2+  Ca0  1  0.16485921  0.08573011  0.16848847  1
  Ca2+  Ca1  1  0.16548743  0.08245627  0.50712090  1
  Ca2+  Ca2  1  0.16057698  0.08687291  0.83855229  1
  Ca2+  Ca3  1  0.17415033  0.56926971  0.16547866  1
  Ca2+  Ca4  1  0.17240383  0.57825360  0.50640934  1
  Ca2+  Ca5  1  0.17414330  0.58013122  0.83868285  1
  Ca2+  Ca6  1  0.66130491  0.08830720  0.17038959  1
  Ca2+  Ca7  1  0.65890779  0.07792106  0.50677382  1
  Ca2+  Ca8  1  0.65723108  0.07665630  0.83723789  1
  Ca2+  Ca9  1  0.67056467  0.57781418  0.17123546  1
  Ca2+  Ca10  1  0.66873420  0.57387623  0.50624831  1
  Ca2+  Ca11  1  0.67749143  0.57573600  0.83303338  1
  Ca2+  Ca12  1  0.07775766  0.33842293  0.15931923  1
  Ca2+  Ca13  1  0.07004173  0.34185355  0.49752533  1
  Ca2+  Ca14  1  0.07754459  0.33531921  0.82889256  1
  Ca2+  Ca15  1  0.07577938  0.82937946  0.15788609  1
  Ca2+  Ca16  1  0.08312704  0.82297738  0.50048459  1
  Ca2+  Ca17  1  0.07554706  0.82465397  0.82842770  1
  Ca2+  Ca18  1  0.57759503  0.33035396  0.16228534  1
  Ca2+  Ca19  1  0.57505780  0.34369075  0.49214230  1
  Ca2+  Ca20  1  0.57481931  0.33937783  0.82871309  1
  Ca2+  Ca21  1  0.57965205  0.82293733  0.16099620  1
  Ca2+  Ca22  1  0.58378285  0.82655712  0.49895289  1
  Ca2+  Ca23  1  0.57357994  0.83074356  0.82792549  1
  Ca2+  Ca24  1  0.32378697  0.40245584  0.16814026  1
  Ca2+  Ca25  1  0.33216428  0.41645819  0.50706515  1
  Ca2+  Ca26  1  0.33289743  0.42428093  0.84213870  1
  Ca2+  Ca27  1  0.33773823  0.91810359  0.16619382  1
  Ca2+  Ca28  1  0.33665243  0.92033126  0.50848596  1
  Ca2+  Ca29  1  0.33642169  0.91596051  0.83974290  1
  Ca2+  Ca30  1  0.83339087  0.41678073  0.17150092  1
  Ca2+  Ca31  1  0.82167797  0.41230993  0.50681418  1
  Ca2+  Ca32  1  0.83878656  0.42114596  0.83679419  1
  Ca2+  Ca33  1  0.83530518  0.92068771  0.16911200  1
  Ca2+  Ca34  1  0.82403105  0.92293074  0.51001608  1
  Ca2+  Ca35  1  0.82803330  0.91548597  0.83859276  1
  Ca2+  Ca36  1  0.42659516  0.17765281  0.16347708  1
  Ca2+  Ca37  1  0.42331965  0.18176101  0.49652422  1
  Ca2+  Ca38  1  0.41800608  0.18271918  0.83383845  1
  Ca2+  Ca39  1  0.42110424  0.66548593  0.16094275  1
  Ca2+  Ca40  1  0.42047030  0.66775047  0.49891887  1
  Ca2+  Ca41  1  0.40462324  0.67367453  0.82646748  1
  Ca2+  Ca42  1  0.92100906  0.18317219  0.15927162  1
  Ca2+  Ca43  1  0.91737423  0.17920887  0.50025589  1
  Ca2+  Ca44  1  0.92768397  0.17982062  0.83092836  1
  Ca2+  Ca45  1  0.91457797  0.67063806  0.15641017  1
  Ca2+  Ca46  1  0.92185701  0.65413938  0.50312400  1
  Ca2+  Ca47  1  0.91764675  0.66148606  0.82790927  1
  Al0+  Al48  1  -0.00267418  -0.00139036  -0.00523568  1
  Al0+  Al49  1  -0.00071215  -0.00083170  0.33740847  1
  Al0+  Al50  1  -0.00092244  -0.00135149  0.66376504  1
  Al0+  Al51  1  0.00156852  0.50199350  0.00549505  1
  Al0+  Al52  1  0.00373360  0.50205307  0.33157024  1
  Al0+  Al53  1  0.00078390  0.49988114  0.66047128  1
  Al0+  Al54  1  0.49890902  -0.00358482  -0.00318782  1
  Al0+  Al55  1  0.49888586  0.00004567  0.33297645  1
  Al0+  Al56  1  0.49690872  0.00002391  0.66859136  1
  Al0+  Al57  1  0.50435437  0.50152791  0.00019119  1
  Al0+  Al58  1  0.49946780  0.50348454  0.32612577  1
  Al0+  Al59  1  0.50021756  0.50338069  0.67108689  1
  Al0+  Al60  1  0.25352473  0.24662322  -0.00043726  1
  Al0+  Al61  1  0.24910644  0.24754545  0.33882954  1
  Al0+  Al62  1  0.25204878  0.24763055  0.65997492  1
  Al0+  Al63  1  0.24925675  0.75016414  0.00333890  1
  Al0+  Al64  1  0.24798753  0.75089120  0.33284613  1
  Al0+  Al65  1  0.24760255  0.75190838  0.66026268  1
  Al0+  Al66  1  0.75228348  0.24603623  -0.00782780  1
  Al0+  Al67  1  0.75263396  0.25050487  0.33125981  1
  Al0+  Al68  1  0.74989966  0.24627024  0.66950265  1
  Al0+  Al69  1  0.74824019  0.75065494  0.00050900  1
  Al0+  Al70  1  0.75006966  0.75231444  0.33065913  1
  Al0+  Al71  1  0.74819367  0.75139946  0.67455077  1
  Al0+  Al72  1  0.42840644  0.82154805  0.65229905  1
  Al0+  Al73  1  0.43214178  0.32468522  0.65349734  1
  Al0+  Al74  1  0.18240966  0.42650263  0.01323279  1
  Al0+  Al75  1  0.07185888  0.17776883  0.64993202  1
  Al0+  Al76  1  0.31944836  0.57252239  0.67771306  1
  Al0+  Al77  1  0.67986153  0.42991923  0.34354974  1
  Al0+  Al78  1  0.93094850  0.32242914  0.31921660  1
  Al0+  Al79  1  0.06991866  0.67922967  0.65302364  1
  Al0+  Al80  1  0.67699177  0.93090453  0.68215815  1
  Al0+  Al81  1  0.32420109  0.57323188  0.01540755  1
  Al0+  Al82  1  0.42695455  0.32321576  0.31897204  1
  Al0+  Al83  1  0.07254097  0.17848982  0.98846587  1
  Al0+  Al84  1  0.82037788  0.57042215  0.01422196  1
  Al0+  Al85  1  0.93102817  0.32494729  0.98503198  1
  Al0+  Al86  1  0.57217858  0.67996478  0.31959372  1
  Al0+  Al87  1  0.57178719  0.17824933  0.32119355  1
  Al0+  Al88  1  0.67729812  0.42577078  0.68150424  1
  Al0+  Al89  1  0.18035287  0.42820467  0.34940474  1
  Al0+  Al90  1  0.92677454  0.82032042  0.98622269  1
  Al0+  Al91  1  0.42890096  0.81608189  0.98704136  1
  Al0+  Al92  1  0.43087963  0.32320397  0.98482651  1
  Al0+  Al93  1  0.57192854  0.17751339  0.98413715  1
  Al0+  Al94  1  0.82271203  0.56856077  0.67995132  1
  Al0+  Al95  1  0.92793111  0.32200677  0.65019825  1
  Si0+  Si96  1  0.67892057  0.92938685  0.34753210  1
  Si0+  Si97  1  0.82192845  0.07098002  0.34864381  1
  Si0+  Si98  1  0.82399633  0.07059495  0.68656099  1
  Si0+  Si99  1  0.07083332  0.67959448  0.98459548  1
  Si0+  Si100  1  0.17659008  0.92972653  0.01456383  1
  Si0+  Si101  1  0.42685560  0.82198959  0.31708690  1
  Si0+  Si102  1  0.17757341  0.92916208  0.68216031  1
  Si0+  Si103  1  0.92995580  0.82217670  0.31940098  1
  Si0+  Si104  1  0.82174665  0.06899189  0.01594649  1
  Si0+  Si105  1  0.18007024  0.42645740  0.68080888  1
  Si0+  Si106  1  0.82238557  0.57537116  0.34831085  1
  Si0+  Si107  1  0.31895684  0.07055076  0.68376547  1
  Si0+  Si108  1  0.92512550  0.82102050  0.64934476  1
  Si0+  Si109  1  0.17718699  0.92824741  0.34988786  1
  Si0+  Si110  1  0.32116370  0.06839038  0.35036949  1
  Si0+  Si111  1  0.32255747  0.06827809  0.01634209  1
  Si0+  Si112  1  0.57406437  0.67744196  0.98079858  1
  Si0+  Si113  1  0.57322645  0.68032175  0.65094020  1
  Si0+  Si114  1  0.07194964  0.68035664  0.31515217  1
  Si0+  Si115  1  0.32137931  0.57516811  0.35008535  1
  Si0+  Si116  1  0.68046708  0.42388230  0.01644882  1
  Si0+  Si117  1  0.67742229  0.93032803  0.01795421  1
  Si0+  Si118  1  0.07042920  0.17507243  0.31842827  1
  Si0+  Si119  1  0.57013701  0.17733433  0.65267194  1
  O2-  O120  1  0.24665841  0.00103948  0.05823631  1
  O2-  O121  1  0.24883634  -0.00214669  0.39241480  1
  O2-  O122  1  0.24432909  0.00282772  0.72558938  1
  O2-  O123  1  0.25923458  0.49416521  0.06453371  1
  O2-  O124  1  0.25884826  0.50071672  0.39385167  1
  O2-  O125  1  0.24949955  0.49397703  0.72488988  1
  O2-  O126  1  0.74712449  0.00226455  0.06074484  1
  O2-  O127  1  0.74582368  0.00412782  0.38995191  1
  O2-  O128  1  0.75149573  0.00512072  0.73003751  1
  O2-  O129  1  0.75008664  0.49200846  0.06112168  1
  O2-  O130  1  0.75487168  0.50517705  0.39064818  1
  O2-  O131  1  0.75552177  0.49239655  0.73012911  1
  O2-  O132  1  0.00795774  0.24851423  0.27446485  1
  O2-  O133  1  0.00198136  0.25123010  0.60001802  1
  O2-  O134  1  0.00828184  0.25652626  0.93815539  1
  O2-  O135  1  -0.00267391  0.74906291  0.27538490  1
  O2-  O136  1  -0.00941961  0.74971682  0.60454797  1
  O2-  O137  1  -0.00162313  0.74376291  0.93976752  1
  O2-  O138  1  0.50377281  0.25407067  0.27193007  1
  O2-  O139  1  0.51256056  0.25471543  0.60765536  1
  O2-  O140  1  0.50669485  0.25513577  0.93439713  1
  O2-  O141  1  0.49419047  0.75246226  0.27378710  1
  O2-  O142  1  0.50289607  0.74753611  0.60588096  1
  O2-  O143  1  0.49673875  0.73716451  0.93790802  1
  O2-  O144  1  0.06726662  0.17431137  0.10230247  1
  O2-  O145  1  0.06575480  0.16903098  0.42334889  1
  O2-  O146  1  0.07042601  0.17679653  0.76312017  1
  O2-  O147  1  0.07048315  0.68423129  0.09064156  1
  O2-  O148  1  0.07342997  0.68253872  0.42024164  1
  O2-  O149  1  0.07178064  0.68348267  0.76574938  1
  O2-  O150  1  0.56882569  0.17647647  0.09789215  1
  O2-  O151  1  0.56690878  0.17145075  0.43430124  1
  O2-  O152  1  0.56265310  0.17275545  0.75751530  1
  O2-  O153  1  0.57714124  0.68340443  0.08674926  1
  O2-  O154  1  0.57465292  0.68417086  0.43257446  1
  O2-  O155  1  0.57429163  0.68301987  0.75607565  1
  O2-  O156  1  0.17852036  0.42953240  0.23656608  1
  O2-  O157  1  0.18107071  0.42950580  0.57486104  1
  O2-  O158  1  0.18057806  0.42963931  0.89959272  1
  O2-  O159  1  0.17444055  0.92831649  0.24487997  1
  O2-  O160  1  0.17922180  0.92921720  0.57647891  1
  O2-  O161  1  0.17704107  0.92875408  0.90966986  1
  O2-  O162  1  0.68290052  0.43035174  0.23055502  1
  O2-  O163  1  0.67527740  0.43032663  0.56737196  1
  O2-  O164  1  0.68012635  0.42636297  0.91113922  1
  O2-  O165  1  0.68090085  0.92751060  0.24258030  1
  O2-  O166  1  0.67825026  0.93196362  0.56802448  1
  O2-  O167  1  0.67713368  0.93111988  0.91309666  1
  O2-  O168  1  0.42921041  0.31748106  0.09830249  1
  O2-  O169  1  0.42804898  0.32163080  0.43283090  1
  O2-  O170  1  0.42846444  0.32258353  0.76604559  1
  O2-  O171  1  0.43245779  0.81958884  0.10049947  1
  O2-  O172  1  0.42679499  0.82356075  0.42255527  1
  O2-  O173  1  0.42761590  0.82107820  0.76513709  1
  O2-  O174  1  0.92980701  0.32232503  0.09896348  1
  O2-  O175  1  0.92873224  0.32022372  0.43183582  1
  O2-  O176  1  0.93235584  0.32351963  0.76333502  1
  O2-  O177  1  0.93014194  0.82185142  0.10019484  1
  O2-  O178  1  0.93122926  0.82474820  0.42413625  1
  O2-  O179  1  0.92816629  0.82298899  0.75464201  1
  O2-  O180  1  0.32130802  0.06577904  0.24531649  1
  O2-  O181  1  0.32030432  0.06689862  0.57827108  1
  O2-  O182  1  0.32419162  0.06544653  0.91145114  1
  O2-  O183  1  0.31572543  0.58310780  0.24536419  1
  O2-  O184  1  0.31847916  0.57301894  0.56431459  1
  O2-  O185  1  0.31602924  0.57802114  0.90207834  1
  O2-  O186  1  0.82671051  0.06575825  0.24380837  1
  O2-  O187  1  0.82429252  0.06737317  0.58022767  1
  O2-  O188  1  0.82388720  0.06396399  0.91157093  1
  O2-  O189  1  0.82069539  0.57857865  0.24270422  1
  O2-  O190  1  0.81901507  0.57037395  0.56594656  1
  O2-  O191  1  0.81913314  0.57259409  0.90165155  1
  O2-  O192  1  0.04147535  0.08203101  0.27150944  1
  O2-  O193  1  0.04223881  0.07831328  0.59749402  1
  O2-  O194  1  0.03783108  0.08295166  0.93318741  1
  O2-  O195  1  0.04708344  0.58894408  0.26719144  1
  O2-  O196  1  0.04354095  0.58380140  0.59455214  1
  O2-  O197  1  0.04939236  0.58538401  0.94059472  1
  O2-  O198  1  0.53980652  0.08042340  0.26667742  1
  O2-  O199  1  0.53410148  0.08773201  0.60393027  1
  O2-  O200  1  0.53623488  0.08064166  0.93268518  1
  O2-  O201  1  0.54415860  0.58588114  0.26045558  1
  O2-  O202  1  0.54720977  0.58729179  0.60504759  1
  O2-  O203  1  0.56136726  0.58074346  0.93882129  1
  O2-  O204  1  0.16731094  0.19347558  0.27777649  1
  O2-  O205  1  0.17180420  0.19898371  0.59723731  1
  O2-  O206  1  0.17458749  0.19308121  0.93935196  1
  O2-  O207  1  0.16125883  0.71438864  0.26694230  1
  O2-  O208  1  0.16143127  0.71751628  0.59348727  1
  O2-  O209  1  0.16222829  0.71138354  0.93890816  1
  O2-  O210  1  0.67239244  0.19885630  0.27027363  1
  O2-  O211  1  0.66872794  0.18648037  0.61275892  1
  O2-  O212  1  0.67306569  0.19243809  0.93270447  1
  O2-  O213  1  0.66685153  0.71592894  0.26353465  1
  O2-  O214  1  0.66554199  0.71033852  0.60438309  1
  O2-  O215  1  0.66253621  0.71461179  0.93316607  1
  O2-  O216  1  0.08648158  0.46089000  0.06912552  1
  O2-  O217  1  0.08510411  0.46638208  0.40274767  1
  O2-  O218  1  0.08630942  0.45428250  0.72380974  1
  O2-  O219  1  0.08434955  0.95725501  0.06237475  1
  O2-  O220  1  0.08619184  0.95589020  0.39978449  1
  O2-  O221  1  0.08378324  0.95233992  0.72790397  1
  O2-  O222  1  0.58723987  0.45086940  0.06302168  1
  O2-  O223  1  0.58175108  0.46258810  0.39451053  1
  O2-  O224  1  0.58297555  0.46271139  0.73730188  1
  O2-  O225  1  0.58518191  0.95693579  0.06556277  1
  O2-  O226  1  0.58548848  0.95313344  0.39417521  1
  O2-  O227  1  0.58038918  0.96257931  0.73611410  1
  O2-  O228  1  0.20719334  0.32623863  0.06660624  1
  O2-  O229  1  0.20390704  0.32958567  0.40312564  1
  O2-  O230  1  0.20367988  0.33111361  0.72288374  1
  O2-  O231  1  0.20493156  0.83948250  0.06509959  1
  O2-  O232  1  0.20447967  0.83627514  0.39764217  1
  O2-  O233  1  0.20836274  0.83866979  0.72884282  1
  O2-  O234  1  0.70473789  0.32826027  0.05886030  1
  O2-  O235  1  0.70970977  0.33277665  0.39780558  1
  O2-  O236  1  0.69573498  0.32381524  0.73070700  1
  O2-  O237  1  0.70723900  0.83925441  0.06564869  1
  O2-  O238  1  0.71164502  0.83980449  0.39674818  1
  O2-  O239  1  0.70626160  0.83564824  0.73852094  1
  O2-  O240  1  0.44714785  0.42281844  0.26654773  1
  O2-  O241  1  0.45835243  0.42306975  0.60071462  1
  O2-  O242  1  0.45503938  0.42386917  0.93467568  1
  O2-  O243  1  0.45418018  0.91461353  0.27046726  1
  O2-  O244  1  0.46042031  0.91798837  0.59830734  1
  O2-  O245  1  0.46317210  0.91061099  0.93197668  1
  O2-  O246  1  0.96104785  0.41986444  0.26665408  1
  O2-  O247  1  0.95535176  0.41930630  0.59457724  1
  O2-  O248  1  0.95699274  0.42496156  0.93536113  1
  O2-  O249  1  0.96160386  0.91279074  0.27110590  1
  O2-  O250  1  0.95456217  0.91257295  0.60094111  1
  O2-  O251  1  0.96030767  0.91365247  0.92953175  1
  O2-  O252  1  0.32958755  0.28546314  0.26914609  1
  O2-  O253  1  0.33828611  0.28751423  0.59787413  1
  O2-  O254  1  0.33448101  0.28866929  0.93192549  1
  O2-  O255  1  0.33161049  0.79983288  0.27236873  1
  O2-  O256  1  0.33242811  0.79364870  0.59608706  1
  O2-  O257  1  0.32899797  0.79391852  0.93546809  1
  O2-  O258  1  0.83642648  0.28864719  0.26371095  1
  O2-  O259  1  0.82872096  0.28921690  0.59954913  1
  O2-  O260  1  0.83551926  0.29104487  0.93091522  1
  O2-  O261  1  0.83757339  0.79896842  0.27117474  1
  O2-  O262  1  0.82944313  0.79991647  0.60618410  1
  O2-  O263  1  0.82883432  0.79454380  0.93417791  1
  O2-  O264  1  0.41097946  0.03144924  0.06542394  1
  O2-  O265  1  0.41145307  0.03710205  0.39932104  1
  O2-  O266  1  0.40788146  0.03759882  0.73246820  1
  O2-  O267  1  0.42746582  0.55619201  0.06245852  1
  O2-  O268  1  0.41847063  0.55740978  0.39075888  1
  O2-  O269  1  0.41702618  0.55069988  0.73239836  1
  O2-  O270  1  0.91112866  0.03457959  0.06524776  1
  O2-  O271  1  0.91013417  0.03606927  0.39967040  1
  O2-  O272  1  0.91596903  0.03848071  0.73181030  1
  O2-  O273  1  0.91850863  0.54783355  0.06964278  1
  O2-  O274  1  0.91807285  0.55202513  0.39025331  1
  O2-  O275  1  0.92390821  0.54576455  0.73025686  1
  O2-  O276  1  0.29976146  0.15993762  0.06569172  1
  O2-  O277  1  0.29465568  0.15899266  0.40022984  1
  O2-  O278  1  0.29386529  0.16343465  0.72987095  1
  O2-  O279  1  0.28927370  0.66942786  0.07135659  1
  O2-  O280  1  0.28930697  0.66716290  0.39828125  1
  O2-  O281  1  0.28295074  0.66898127  0.72907853  1
  O2-  O282  1  0.79782556  0.16243154  0.06224468  1
  O2-  O283  1  0.79944511  0.16364384  0.39540038  1
  O2-  O284  1  0.80422606  0.16506966  0.73161111  1
  O2-  O285  1  0.78648644  0.66753770  0.06816289  1
  O2-  O286  1  0.79716853  0.66952637  0.39428911  1
  O2-  O287  1  0.79366789  0.66698030  0.73328960  1
