# generated using pymatgen
data_Ca2Al2SiO7
_symmetry_space_group_name_H-M   'P 1'
_cell_length_a   15.46598205
_cell_length_b   15.46741114
_cell_length_c   15.28946039
_cell_angle_alpha   90.00238630
_cell_angle_beta   89.99565995
_cell_angle_gamma   89.98275250
_symmetry_Int_Tables_number   1
_chemical_formula_structural   Ca2Al2SiO7
_chemical_formula_sum   'Ca48 Al48 Si24 O168'
_cell_volume   3657.52470343
_cell_formula_units_Z   24
loop_
 _symmetry_equiv_pos_site_id
 _symmetry_equiv_pos_as_xyz
  1  'x, y, z'
loop_
 _atom_type_symbol
 _atom_type_oxidation_number
  Ca2+  2.0
  Al0+  0.0
  Si0+  0.0
  O2-  -2.0
loop_
 _atom_site_type_symbol
 _atom_site_label
 _atom_site_symmetry_multiplicity
 _atom_site_fract_x
 _atom_site_fract_y
 _atom_site_fract_z
 _atom_site_occupancy
  Ca2+  Ca0  1  0.17038589  0.07254850  0.17890607  1
  Ca2+  Ca1  1  0.16084969  0.08057328  0.49928333  1
  Ca2+  Ca2  1  0.16514130  0.07807879  0.83716034  1
  Ca2+  Ca3  1  0.17232574  0.58616469  0.17367413  1
  Ca2+  Ca4  1  0.17638906  0.58187536  0.50102771  1
  Ca2+  Ca5  1  0.17683719  0.59330124  0.83769103  1
  Ca2+  Ca6  1  0.67415943  0.08156345  0.17742689  1
  Ca2+  Ca7  1  0.66964150  0.08224213  0.50484648  1
  Ca2+  Ca8  1  0.66452074  0.07636427  0.83015509  1
  Ca2+  Ca9  1  0.67029380  0.58196309  0.17088418  1
  Ca2+  Ca10  1  0.66529382  0.57760560  0.51105169  1
  Ca2+  Ca11  1  0.66202041  0.58080591  0.83012051  1
  Ca2+  Ca12  1  0.08800986  0.33248454  0.17085290  1
  Ca2+  Ca13  1  0.07901652  0.32598917  0.49032756  1
  Ca2+  Ca14  1  0.07895883  0.32475879  0.82098192  1
  Ca2+  Ca15  1  0.07886348  0.83988542  0.16129278  1
  Ca2+  Ca16  1  0.07371809  0.83799438  0.49389921  1
  Ca2+  Ca17  1  0.07772413  0.83335314  0.83428848  1
  Ca2+  Ca18  1  0.58245619  0.32541892  0.16842247  1
  Ca2+  Ca19  1  0.58795456  0.32305578  0.49663224  1
  Ca2+  Ca20  1  0.58430058  0.32798670  0.82316315  1
  Ca2+  Ca21  1  0.56760006  0.83354557  0.16471871  1
  Ca2+  Ca22  1  0.57229374  0.83647443  0.49890439  1
  Ca2+  Ca23  1  0.57141404  0.82872618  0.82057795  1
  Ca2+  Ca24  1  0.32594103  0.43149287  0.17776725  1
  Ca2+  Ca25  1  0.33217556  0.42665733  0.50389534  1
  Ca2+  Ca26  1  0.33597243  0.43231089  0.83760083  1
  Ca2+  Ca27  1  0.32257335  0.91229479  0.17520567  1
  Ca2+  Ca28  1  0.33279490  0.91590878  0.49882025  1
  Ca2+  Ca29  1  0.33007322  0.91154446  0.83934051  1
  Ca2+  Ca30  1  0.83562536  0.41678609  0.17487568  1
  Ca2+  Ca31  1  0.83142374  0.41002819  0.50672869  1
  Ca2+  Ca32  1  0.82869767  0.41064863  0.83085715  1
  Ca2+  Ca33  1  0.83707157  0.92012790  0.17663278  1
  Ca2+  Ca34  1  0.83339891  0.92073824  0.50690057  1
  Ca2+  Ca35  1  0.82850699  0.90575957  0.83345853  1
  Ca2+  Ca36  1  0.42028278  0.15705629  0.17014123  1
  Ca2+  Ca37  1  0.42914833  0.15682158  0.49288678  1
  Ca2+  Ca38  1  0.42263862  0.16978362  0.82391469  1
  Ca2+  Ca39  1  0.40291032  0.67589557  0.16535814  1
  Ca2+  Ca40  1  0.41540195  0.67073607  0.49954467  1
  Ca2+  Ca41  1  0.41333946  0.67462854  0.82648572  1
  Ca2+  Ca42  1  0.92293935  0.16521685  0.17382493  1
  Ca2+  Ca43  1  0.92473297  0.17336574  0.49317108  1
  Ca2+  Ca44  1  0.92508444  0.17114834  0.82267314  1
  Ca2+  Ca45  1  0.92721408  0.67964009  0.15982166  1
  Ca2+  Ca46  1  0.91189192  0.68009102  0.49522749  1
  Ca2+  Ca47  1  0.92356710  0.67525511  0.82976904  1
  Al0+  Al48  1  -0.00188420  0.00263108  -0.00122725  1
  Al0+  Al49  1  -0.00137271  0.00346490  0.33463810  1
  Al0+  Al50  1  0.00065629  0.00058737  0.66275557  1
  Al0+  Al51  1  -0.00104341  0.49953727  -0.00496573  1
  Al0+  Al52  1  -0.00100399  0.50169081  0.33443959  1
  Al0+  Al53  1  0.00036259  0.50060042  0.66516782  1
  Al0+  Al54  1  0.50232777  -0.00020800  -0.00421450  1
  Al0+  Al55  1  0.50009317  -0.00284518  0.32573288  1
  Al0+  Al56  1  0.50016510  0.00028757  0.66534272  1
  Al0+  Al57  1  0.49991968  0.49809749  0.00727388  1
  Al0+  Al58  1  0.50243822  0.49899771  0.33583333  1
  Al0+  Al59  1  0.50023961  0.50061773  0.67394027  1
  Al0+  Al60  1  0.25221273  0.25121453  -0.00133540  1
  Al0+  Al61  1  0.25244773  0.25055231  0.33570477  1
  Al0+  Al62  1  0.25080422  0.24921794  0.66476066  1
  Al0+  Al63  1  0.24864230  0.75183133  0.00077460  1
  Al0+  Al64  1  0.24947180  0.75019611  0.34064421  1
  Al0+  Al65  1  0.24865274  0.75163823  0.66714667  1
  Al0+  Al66  1  0.74981305  0.24829571  0.00070875  1
  Al0+  Al67  1  0.75037534  0.24844255  0.32802489  1
  Al0+  Al68  1  0.75082349  0.24936984  0.66666168  1
  Al0+  Al69  1  0.74797811  0.74807048  0.00001926  1
  Al0+  Al70  1  0.74800976  0.74923266  0.32812714  1
  Al0+  Al71  1  0.74923448  0.74903002  0.66527184  1
  Al0+  Al72  1  0.17921501  0.93280523  0.01219015  1
  Al0+  Al73  1  0.07385110  0.17842269  0.65073100  1
  Al0+  Al74  1  0.92980199  0.32237995  0.31696081  1
  Al0+  Al75  1  0.68141456  0.42815292  0.68014536  1
  Al0+  Al76  1  0.56996543  0.67721633  0.65291665  1
  Al0+  Al77  1  0.17679331  0.42893068  0.34913705  1
  Al0+  Al78  1  0.42844551  0.81779522  0.31908092  1
  Al0+  Al79  1  0.07128866  0.67857381  0.98532812  1
  Al0+  Al80  1  0.92703536  0.82410557  0.98476097  1
  Al0+  Al81  1  0.32264855  0.57209916  0.35122854  1
  Al0+  Al82  1  0.92821485  0.82263041  0.32027457  1
  Al0+  Al83  1  0.67847550  0.92833865  0.67966596  1
  Al0+  Al84  1  0.56975442  0.17877992  0.31834942  1
  Al0+  Al85  1  0.92954994  0.32186086  0.65259374  1
  Al0+  Al86  1  0.32416673  0.07015519  0.34761082  1
  Al0+  Al87  1  0.42675765  0.82156867  0.65031597  1
  Al0+  Al88  1  0.31901991  0.57093970  0.68272538  1
  Al0+  Al89  1  0.17756379  0.93020262  0.35052399  1
  Al0+  Al90  1  0.42982663  0.81970807  0.98642920  1
  Al0+  Al91  1  0.31892023  0.57104703  0.01487100  1
  Al0+  Al92  1  0.81949428  0.07086308  0.34794530  1
  Al0+  Al93  1  0.92892098  0.81909430  0.65289223  1
  Al0+  Al94  1  0.07460239  0.18001097  0.31622419  1
  Al0+  Al95  1  0.56990977  0.17965824  0.65364353  1
  Si0+  Si96  1  0.82215774  0.06990941  0.68437767  1
  Si0+  Si97  1  0.67782540  0.92728092  0.01529804  1
  Si0+  Si98  1  0.82188077  0.57052029  0.01511128  1
  Si0+  Si99  1  0.17640123  0.42532536  0.01453516  1
  Si0+  Si100  1  0.68082242  0.42670299  0.01724389  1
  Si0+  Si101  1  0.17729041  0.93080533  0.68333201  1
  Si0+  Si102  1  0.67815075  0.92643980  0.34831733  1
  Si0+  Si103  1  0.57208075  0.67439514  0.31528781  1
  Si0+  Si104  1  0.42853793  0.32318239  0.65137310  1
  Si0+  Si105  1  0.68137878  0.42833160  0.34750803  1
  Si0+  Si106  1  0.81842955  0.07134695  0.01501171  1
  Si0+  Si107  1  0.17764740  0.42674303  0.68397198  1
  Si0+  Si108  1  0.07070276  0.67971832  0.31931691  1
  Si0+  Si109  1  0.07310377  0.67813388  0.64861572  1
  Si0+  Si110  1  0.42912661  0.32521866  0.31669979  1
  Si0+  Si111  1  0.07188884  0.18091346  0.98598830  1
  Si0+  Si112  1  0.32477701  0.07443007  0.01450873  1
  Si0+  Si113  1  0.57229470  0.18025121  0.98321146  1
  Si0+  Si114  1  0.82405958  0.57377840  0.68448776  1
  Si0+  Si115  1  0.92695568  0.32085110  0.98429708  1
  Si0+  Si116  1  0.81973782  0.57275348  0.34721375  1
  Si0+  Si117  1  0.32241727  0.07110980  0.68183623  1
  Si0+  Si118  1  0.57212126  0.67455757  0.98414400  1
  Si0+  Si119  1  0.43038745  0.32156537  0.98565378  1
  O2-  O120  1  0.25588374  0.00630021  0.05746372  1
  O2-  O121  1  0.24916683  0.00335683  0.40035104  1
  O2-  O122  1  0.25017228  0.00138749  0.72426383  1
  O2-  O123  1  0.24136071  0.49741278  0.05828806  1
  O2-  O124  1  0.25161784  0.49793106  0.39908760  1
  O2-  O125  1  0.24374222  0.49648248  0.73063490  1
  O2-  O126  1  0.75233537  -0.00493156  0.05661147  1
  O2-  O127  1  0.74852332  -0.00759778  0.39335240  1
  O2-  O128  1  0.75549239  -0.00024243  0.72995019  1
  O2-  O129  1  0.75134405  0.49856694  0.05844876  1
  O2-  O130  1  0.75108079  0.49992886  0.38952547  1
  O2-  O131  1  0.75655667  0.50251955  0.72812218  1
  O2-  O132  1  0.00468278  0.25442529  0.26524796  1
  O2-  O133  1  0.00519586  0.25448357  0.60352150  1
  O2-  O134  1  0.00320342  0.25474611  0.94414092  1
  O2-  O135  1  0.00594701  0.75152312  0.27365050  1
  O2-  O136  1  0.00129935  0.74335526  0.60481692  1
  O2-  O137  1  -0.00120308  0.75117478  0.93621511  1
  O2-  O138  1  0.49222129  0.25099865  0.27136868  1
  O2-  O139  1  0.49554583  0.25380004  0.60639043  1
  O2-  O140  1  0.49853292  0.24845370  0.94186661  1
  O2-  O141  1  0.50002131  0.73962553  0.27187304  1
  O2-  O142  1  0.49969607  0.74948959  0.60198246  1
  O2-  O143  1  0.50405456  0.74378678  0.94105499  1
  O2-  O144  1  0.07217848  0.18033255  0.09014873  1
  O2-  O145  1  0.06982353  0.17984856  0.42909643  1
  O2-  O146  1  0.07197897  0.17824809  0.76590390  1
  O2-  O147  1  0.06836825  0.67661570  0.09873371  1
  O2-  O148  1  0.06598761  0.67887126  0.42479694  1
  O2-  O149  1  0.07362285  0.68042757  0.75446707  1
  O2-  O150  1  0.57428193  0.18123624  0.08804569  1
  O2-  O151  1  0.57175621  0.18102251  0.43106132  1
  O2-  O152  1  0.56788620  0.18073263  0.76767003  1
  O2-  O153  1  0.57515898  0.67492564  0.08973057  1
  O2-  O154  1  0.57604867  0.67333122  0.42006949  1
  O2-  O155  1  0.56744407  0.67813640  0.76710010  1
  O2-  O156  1  0.17761972  0.43369922  0.23459494  1
  O2-  O157  1  0.18006815  0.42725071  0.57904497  1
  O2-  O158  1  0.17994030  0.41998518  0.90923130  1
  O2-  O159  1  0.17832372  0.92950314  0.23640833  1
  O2-  O160  1  0.17490919  0.93087270  0.57889240  1
  O2-  O161  1  0.17904155  0.93582894  0.89864289  1
  O2-  O162  1  0.68153125  0.42966181  0.24161791  1
  O2-  O163  1  0.68233281  0.42742706  0.56717360  1
  O2-  O164  1  0.68111680  0.42370706  0.91249457  1
  O2-  O165  1  0.67943302  0.92832503  0.24187607  1
  O2-  O166  1  0.67834137  0.93191598  0.56697935  1
  O2-  O167  1  0.67571787  0.92949872  0.91038942  1
  O2-  O168  1  0.43269732  0.32193688  0.09019461  1
  O2-  O169  1  0.43617247  0.33044778  0.42171979  1
  O2-  O170  1  0.42997401  0.32033611  0.75793638  1
  O2-  O171  1  0.43074059  0.82000980  0.09933599  1
  O2-  O172  1  0.43186324  0.81943234  0.43140594  1
  O2-  O173  1  0.42666058  0.82088141  0.76448337  1
  O2-  O174  1  0.92289069  0.32045306  0.08868446  1
  O2-  O175  1  0.92670167  0.32019987  0.42969858  1
  O2-  O176  1  0.92991635  0.31758851  0.76742150  1
  O2-  O177  1  0.92756158  0.82375356  0.09824492  1
  O2-  O178  1  0.92497724  0.81895289  0.43317072  1
  O2-  O179  1  0.93102021  0.81837005  0.76608442  1
  O2-  O180  1  0.32442131  0.06449915  0.23331990  1
  O2-  O181  1  0.32510260  0.07102966  0.57766227  1
  O2-  O182  1  0.32440525  0.07740766  0.90868058  1
  O2-  O183  1  0.32043363  0.57169114  0.23718860  1
  O2-  O184  1  0.31875624  0.56915650  0.57031774  1
  O2-  O185  1  0.32106636  0.56856769  0.90184249  1
  O2-  O186  1  0.81705430  0.07038442  0.23375950  1
  O2-  O187  1  0.82051454  0.06992697  0.57917046  1
  O2-  O188  1  0.81550441  0.07705066  0.91029597  1
  O2-  O189  1  0.81694844  0.57260428  0.24155832  1
  O2-  O190  1  0.82262243  0.57501448  0.57889590  1
  O2-  O191  1  0.82072934  0.56958231  0.91051189  1
  O2-  O192  1  0.03928675  0.08360626  0.26287064  1
  O2-  O193  1  0.04210916  0.08218830  0.59807527  1
  O2-  O194  1  0.03961899  0.09172550  0.93626920  1
  O2-  O195  1  0.04175926  0.58818402  0.27116633  1
  O2-  O196  1  0.05255371  0.58273680  0.60521871  1
  O2-  O197  1  0.04362142  0.58002799  0.93017093  1
  O2-  O198  1  0.54147262  0.08293162  0.26086575  1
  O2-  O199  1  0.53924756  0.08436773  0.59942544  1
  O2-  O200  1  0.54807070  0.08765230  0.93589356  1
  O2-  O201  1  0.55160497  0.57926652  0.26924752  1
  O2-  O202  1  0.54218076  0.57772742  0.60224807  1
  O2-  O203  1  0.54724050  0.57914306  0.94142019  1
  O2-  O204  1  0.17519120  0.20394373  0.26457483  1
  O2-  O205  1  0.17380544  0.20128553  0.59970040  1
  O2-  O206  1  0.16513595  0.20541968  0.93817238  1
  O2-  O207  1  0.16613787  0.70145220  0.27668643  1
  O2-  O208  1  0.16442658  0.70794711  0.60209286  1
  O2-  O209  1  0.16783011  0.71032484  0.93152874  1
  O2-  O210  1  0.66327294  0.21445298  0.26080634  1
  O2-  O211  1  0.66650396  0.20995181  0.60162979  1
  O2-  O212  1  0.66246226  0.21263236  0.93521748  1
  O2-  O213  1  0.66329635  0.70368317  0.26483150  1
  O2-  O214  1  0.66970887  0.70007526  0.60158364  1
  O2-  O215  1  0.66602242  0.69784634  0.93785222  1
  O2-  O216  1  0.07982621  0.44571694  0.05645798  1
  O2-  O217  1  0.07867885  0.45915820  0.40204719  1
  O2-  O218  1  0.08225603  0.44940750  0.72865157  1
  O2-  O219  1  0.08197927  0.96487736  0.06480863  1
  O2-  O220  1  0.07935089  0.96004397  0.40250587  1
  O2-  O221  1  0.08650178  0.96156193  0.73201590  1
  O2-  O222  1  0.58951193  0.45296177  0.06644908  1
  O2-  O223  1  0.58989789  0.45353965  0.39556610  1
  O2-  O224  1  0.58588657  0.45789464  0.73827154  1
  O2-  O225  1  0.58769803  0.96066150  0.06351629  1
  O2-  O226  1  0.58547912  0.95571787  0.39193140  1
  O2-  O227  1  0.58329877  0.96352313  0.73583725  1
  O2-  O228  1  0.20651907  0.33356488  0.06305601  1
  O2-  O229  1  0.20195695  0.32930107  0.39972374  1
  O2-  O230  1  0.20408904  0.33253876  0.73008263  1
  O2-  O231  1  0.20758526  0.83616988  0.06606251  1
  O2-  O232  1  0.20416206  0.83237008  0.40424106  1
  O2-  O233  1  0.20447208  0.83893077  0.73074549  1
  O2-  O234  1  0.71047554  0.33533973  0.06528799  1
  O2-  O235  1  0.71013162  0.33659875  0.39283713  1
  O2-  O236  1  0.71288191  0.33212993  0.73755477  1
  O2-  O237  1  0.69936294  0.83344018  0.06167125  1
  O2-  O238  1  0.69966892  0.83099243  0.39160521  1
  O2-  O239  1  0.70735068  0.83099581  0.73417494  1
  O2-  O240  1  0.46269092  0.41536119  0.26652235  1
  O2-  O241  1  0.45582465  0.41640865  0.60826697  1
  O2-  O242  1  0.46230288  0.41236285  0.93833705  1
  O2-  O243  1  0.46255737  0.91125334  0.26086686  1
  O2-  O244  1  0.45732389  0.91943795  0.59926962  1
  O2-  O245  1  0.46097905  0.91676864  0.93211728  1
  O2-  O246  1  0.95388360  0.42317515  0.26523731  1
  O2-  O247  1  0.94888856  0.42322896  0.60275516  1
  O2-  O248  1  0.94726429  0.41385485  0.93641995  1
  O2-  O249  1  0.95563515  0.92021567  0.26809281  1
  O2-  O250  1  0.95997510  0.91560201  0.60057061  1
  O2-  O251  1  0.95336693  0.92314522  0.93175482  1
  O2-  O252  1  0.33373724  0.30696061  0.27270485  1
  O2-  O253  1  0.33459246  0.30048634  0.60665185  1
  O2-  O254  1  0.33824129  0.29714559  0.93652697  1
  O2-  O255  1  0.32993837  0.78799043  0.26783478  1
  O2-  O256  1  0.32794501  0.79415886  0.59945727  1
  O2-  O257  1  0.33300795  0.79085144  0.93346691  1
  O2-  O258  1  0.83294722  0.29023956  0.26163193  1
  O2-  O259  1  0.83237626  0.29053179  0.60085489  1
  O2-  O260  1  0.83670642  0.28674524  0.93656657  1
  O2-  O261  1  0.83243018  0.78942348  0.26475669  1
  O2-  O262  1  0.83219904  0.79051155  0.59919013  1
  O2-  O263  1  0.82762398  0.79291109  0.93473829  1
  O2-  O264  1  0.41996124  0.04941587  0.05770335  1
  O2-  O265  1  0.42239810  0.03643461  0.39850849  1
  O2-  O266  1  0.41314032  0.04312055  0.73201595  1
  O2-  O267  1  0.41497790  0.53797679  0.06968028  1
  O2-  O268  1  0.42257505  0.54317295  0.40102545  1
  O2-  O269  1  0.41449008  0.53927844  0.73910780  1
  O2-  O270  1  0.91180063  0.04867463  0.06108837  1
  O2-  O271  1  0.91594587  0.04499643  0.40217688  1
  O2-  O272  1  0.91676974  0.04567934  0.72969497  1
  O2-  O273  1  0.91376021  0.54230777  0.06229552  1
  O2-  O274  1  0.91170964  0.54975912  0.39470196  1
  O2-  O275  1  0.91864654  0.55021949  0.73056507  1
  O2-  O276  1  0.30142232  0.16881974  0.06044765  1
  O2-  O277  1  0.30921125  0.17278280  0.39578928  1
  O2-  O278  1  0.29671580  0.16413170  0.73025183  1
  O2-  O279  1  0.28775247  0.66738071  0.06775481  1
  O2-  O280  1  0.29284733  0.66821064  0.40610244  1
  O2-  O281  1  0.28633852  0.66825566  0.73562888  1
  O2-  O282  1  0.78460338  0.16048770  0.06501245  1
  O2-  O283  1  0.78382325  0.16665676  0.39959100  1
  O2-  O284  1  0.79382327  0.16245699  0.73161232  1
  O2-  O285  1  0.79253161  0.66158451  0.06420078  1
  O2-  O286  1  0.78820777  0.66350462  0.39458749  1
  O2-  O287  1  0.79565727  0.66540395  0.73292939  1
