# generated using pymatgen
data_Ca2Al2SiO7
_symmetry_space_group_name_H-M   'P 1'
_cell_length_a   15.45111549
_cell_length_b   15.45064673
_cell_length_c   15.27829625
_cell_angle_alpha   90.00497637
_cell_angle_beta   89.99884545
_cell_angle_gamma   89.99568391
_symmetry_Int_Tables_number   1
_chemical_formula_structural   Ca2Al2SiO7
_chemical_formula_sum   'Ca48 Al48 Si24 O168'
_cell_volume   3647.38346820
_cell_formula_units_Z   24
loop_
 _symmetry_equiv_pos_site_id
 _symmetry_equiv_pos_as_xyz
  1  'x, y, z'
loop_
 _atom_type_symbol
 _atom_type_oxidation_number
  Ca2+  2.0
  Al0+  0.0
  Si0+  0.0
  O2-  -2.0
loop_
 _atom_site_type_symbol
 _atom_site_label
 _atom_site_symmetry_multiplicity
 _atom_site_fract_x
 _atom_site_fract_y
 _atom_site_fract_z
 _atom_site_occupancy
  Ca2+  Ca0  1  0.16113061  0.08220325  0.16293378  1
  Ca2+  Ca1  1  0.17013080  0.08440067  0.50983590  1
  Ca2+  Ca2  1  0.16532775  0.08443967  0.83722281  1
  Ca2+  Ca3  1  0.16553097  0.58269560  0.16278896  1
  Ca2+  Ca4  1  0.17417365  0.58049807  0.50804753  1
  Ca2+  Ca5  1  0.17624703  0.58202441  0.84556568  1
  Ca2+  Ca6  1  0.66280523  0.07095480  0.17414177  1
  Ca2+  Ca7  1  0.67084848  0.08111485  0.50461258  1
  Ca2+  Ca8  1  0.67548579  0.07725140  0.83661265  1
  Ca2+  Ca9  1  0.66986880  0.58289969  0.17095481  1
  Ca2+  Ca10  1  0.66176362  0.57217307  0.50210439  1
  Ca2+  Ca11  1  0.67154209  0.57919776  0.83904084  1
  Ca2+  Ca12  1  0.07339658  0.33277974  0.15364960  1
  Ca2+  Ca13  1  0.07239705  0.32808030  0.49792228  1
  Ca2+  Ca14  1  0.07646105  0.32981658  0.82931459  1
  Ca2+  Ca15  1  0.07742715  0.83028977  0.15910834  1
  Ca2+  Ca16  1  0.06937191  0.83700183  0.49896820  1
  Ca2+  Ca17  1  0.08522339  0.82891192  0.82978277  1
  Ca2+  Ca18  1  0.58961709  0.32897028  0.16837933  1
  Ca2+  Ca19  1  0.58464207  0.33186214  0.49605042  1
  Ca2+  Ca20  1  0.57717753  0.33740980  0.82491160  1
  Ca2+  Ca21  1  0.59059054  0.82384221  0.16063982  1
  Ca2+  Ca22  1  0.57979911  0.82918823  0.49266316  1
  Ca2+  Ca23  1  0.58260711  0.82739686  0.83192258  1
  Ca2+  Ca24  1  0.32668998  0.41986736  0.16382380  1
  Ca2+  Ca25  1  0.33637101  0.42275269  0.51185220  1
  Ca2+  Ca26  1  0.32967672  0.42500042  0.83865887  1
  Ca2+  Ca27  1  0.32415022  0.91297241  0.16570609  1
  Ca2+  Ca28  1  0.33402109  0.92307297  0.51058479  1
  Ca2+  Ca29  1  0.33069826  0.92085965  0.83680568  1
  Ca2+  Ca30  1  0.83840326  0.42279169  0.17074956  1
  Ca2+  Ca31  1  0.82312668  0.40500026  0.50381869  1
  Ca2+  Ca32  1  0.83219678  0.41533562  0.83772061  1
  Ca2+  Ca33  1  0.82270246  0.91275142  0.17221855  1
  Ca2+  Ca34  1  0.83110125  0.91780212  0.50619533  1
  Ca2+  Ca35  1  0.83597373  0.92159428  0.83650562  1
  Ca2+  Ca36  1  0.42435442  0.16543142  0.16598188  1
  Ca2+  Ca37  1  0.41991344  0.17160979  0.49847417  1
  Ca2+  Ca38  1  0.41561313  0.17287021  0.82389389  1
  Ca2+  Ca39  1  0.42949568  0.66108872  0.15990264  1
  Ca2+  Ca40  1  0.41960441  0.67014263  0.49933270  1
  Ca2+  Ca41  1  0.41641968  0.66711338  0.82861723  1
  Ca2+  Ca42  1  0.91695045  0.18207414  0.15889987  1
  Ca2+  Ca43  1  0.91284975  0.17242207  0.50143101  1
  Ca2+  Ca44  1  0.92534791  0.17301283  0.82576524  1
  Ca2+  Ca45  1  0.91566567  0.67147216  0.15780615  1
  Ca2+  Ca46  1  0.91038284  0.68055798  0.49731916  1
  Ca2+  Ca47  1  0.92112742  0.66738099  0.83344911  1
  Al0+  Al48  1  -0.00012693  0.00297941  0.00305637  1
  Al0+  Al49  1  -0.00009129  -0.00037618  0.32903632  1
  Al0+  Al50  1  -0.00041699  -0.00104628  0.66320583  1
  Al0+  Al51  1  -0.00095097  0.50267686  -0.00075989  1
  Al0+  Al52  1  0.00181624  0.50108566  0.33430651  1
  Al0+  Al53  1  -0.00110460  0.49928830  0.66028663  1
  Al0+  Al54  1  0.50047541  -0.00032494  0.00401454  1
  Al0+  Al55  1  0.49812405  -0.00010670  0.33360613  1
  Al0+  Al56  1  0.49885382  -0.00200993  0.66823821  1
  Al0+  Al57  1  0.50158644  0.49986178  0.00026220  1
  Al0+  Al58  1  0.49944136  0.50057054  0.33276782  1
  Al0+  Al59  1  0.50060150  0.49898693  0.67136678  1
  Al0+  Al60  1  0.25123509  0.25063733  0.00279564  1
  Al0+  Al61  1  0.24973089  0.25080810  0.33352669  1
  Al0+  Al62  1  0.25103505  0.25017289  0.66190956  1
  Al0+  Al63  1  0.25127954  0.75247375  0.00626267  1
  Al0+  Al64  1  0.24917115  0.75113126  0.33631810  1
  Al0+  Al65  1  0.25204294  0.74976844  0.66461680  1
  Al0+  Al66  1  0.74876275  0.24892728  -0.00470486  1
  Al0+  Al67  1  0.74989699  0.24973591  0.32674715  1
  Al0+  Al68  1  0.74962394  0.24740240  0.67496351  1
  Al0+  Al69  1  0.74858974  0.74876740  0.00102662  1
  Al0+  Al70  1  0.74915218  0.75042878  0.33113925  1
  Al0+  Al71  1  0.75003365  0.74685279  0.66263698  1
  Al0+  Al72  1  0.92761277  0.32350520  0.98309240  1
  Al0+  Al73  1  0.32312364  0.57271972  0.01677530  1
  Al0+  Al74  1  0.92618499  0.32145714  0.65029109  1
  Al0+  Al75  1  0.32152739  0.07217283  0.67955133  1
  Al0+  Al76  1  0.82143293  0.06877185  0.68049948  1
  Al0+  Al77  1  0.56803793  0.67924503  0.32001438  1
  Al0+  Al78  1  0.68089430  0.42897950  0.68070790  1
  Al0+  Al79  1  0.42937091  0.82102425  0.65410235  1
  Al0+  Al80  1  0.57164006  0.67828127  0.98468686  1
  Al0+  Al81  1  0.56975723  0.17873723  0.32092821  1
  Al0+  Al82  1  0.68089865  0.42909173  0.34567461  1
  Al0+  Al83  1  0.92907754  0.82096080  0.31786451  1
  Al0+  Al84  1  0.43052017  0.32170192  0.65458698  1
  Al0+  Al85  1  0.31995313  0.57139082  0.68041574  1
  Al0+  Al86  1  0.68005072  0.93020953  0.01309821  1
  Al0+  Al87  1  0.92938716  0.32052412  0.31904437  1
  Al0+  Al88  1  0.92906004  0.81979135  0.65501351  1
  Al0+  Al89  1  0.07214987  0.17883193  0.98461083  1
  Al0+  Al90  1  0.67836140  0.92771897  0.34860102  1
  Al0+  Al91  1  0.07159448  0.17845692  0.65056158  1
  Al0+  Al92  1  0.17880256  0.42915775  0.01386439  1
  Al0+  Al93  1  0.07236068  0.68148768  0.98768411  1
  Al0+  Al94  1  0.82004715  0.56949636  0.01217977  1
  Al0+  Al95  1  0.17800780  0.93033294  0.01299909  1
  Si0+  Si96  1  0.17830913  0.42825887  0.35024436  1
  Si0+  Si97  1  0.32012837  0.07140896  0.34883845  1
  Si0+  Si98  1  0.42589924  0.82316265  0.31565666  1
  Si0+  Si99  1  0.67735191  0.92475092  0.68257904  1
  Si0+  Si100  1  0.17781771  0.92914526  0.35029990  1
  Si0+  Si101  1  0.07469422  0.17885654  0.31526267  1
  Si0+  Si102  1  0.07408011  0.67912716  0.31708790  1
  Si0+  Si103  1  0.17630049  0.42814361  0.68152281  1
  Si0+  Si104  1  0.32298652  0.07333338  0.01856458  1
  Si0+  Si105  1  0.42658378  0.32300297  0.31550348  1
  Si0+  Si106  1  0.92705573  0.82229100  0.98446847  1
  Si0+  Si107  1  0.07390900  0.67762414  0.64992562  1
  Si0+  Si108  1  0.82419190  0.57246245  0.35104328  1
  Si0+  Si109  1  0.82162652  0.07114576  0.34826372  1
  Si0+  Si110  1  0.43081336  0.31977174  0.98621127  1
  Si0+  Si111  1  0.17812728  0.92879690  0.68184148  1
  Si0+  Si112  1  0.67747031  0.42598972  0.01715126  1
  Si0+  Si113  1  0.57010402  0.17556220  0.98387548  1
  Si0+  Si114  1  0.32072288  0.57009843  0.34934760  1
  Si0+  Si115  1  0.82192605  0.07333564  0.01822457  1
  Si0+  Si116  1  0.57184674  0.17666453  0.65250481  1
  Si0+  Si117  1  0.82318176  0.57409191  0.68225743  1
  Si0+  Si118  1  0.42851789  0.82280578  0.98431540  1
  Si0+  Si119  1  0.57185487  0.67735773  0.64959808  1
  O2-  O120  1  0.25179204  0.00610739  0.06132747  1
  O2-  O121  1  0.24808285  0.00136248  0.39134631  1
  O2-  O122  1  0.24594512  -0.00149858  0.72580298  1
  O2-  O123  1  0.24874441  0.50265094  0.06631584  1
  O2-  O124  1  0.24999503  0.49894961  0.39225967  1
  O2-  O125  1  0.24249931  0.49931656  0.72557765  1
  O2-  O126  1  0.75415852  0.00403716  0.06259592  1
  O2-  O127  1  0.75382980  0.00197704  0.39427745  1
  O2-  O128  1  0.74780546  -0.00820036  0.72626823  1
  O2-  O129  1  0.74891707  0.49184021  0.06036490  1
  O2-  O130  1  0.75698989  0.50165702  0.39459216  1
  O2-  O131  1  0.75850715  0.50136287  0.72558109  1
  O2-  O132  1  0.00592360  0.24750242  0.27256017  1
  O2-  O133  1  -0.00121284  0.24965720  0.60042888  1
  O2-  O134  1  0.00075838  0.25127561  0.93533037  1
  O2-  O135  1  0.00265860  0.74462817  0.27298085  1
  O2-  O136  1  0.00249520  0.74408930  0.60649470  1
  O2-  O137  1  -0.00045774  0.75766380  0.94013955  1
  O2-  O138  1  0.49601011  0.25429966  0.27243493  1
  O2-  O139  1  0.50381825  0.24585321  0.60768622  1
  O2-  O140  1  0.50176192  0.24918956  0.94271617  1
  O2-  O141  1  0.49551202  0.75590090  0.27183352  1
  O2-  O142  1  0.50502903  0.74841089  0.60594957  1
  O2-  O143  1  0.49465241  0.75174629  0.94006817  1
  O2-  O144  1  0.06930157  0.18002024  0.09878577  1
  O2-  O145  1  0.07823563  0.17947887  0.42060564  1
  O2-  O146  1  0.07155060  0.17872977  0.76369374  1
  O2-  O147  1  0.06969022  0.68360340  0.10105475  1
  O2-  O148  1  0.07725094  0.68158336  0.42279566  1
  O2-  O149  1  0.07587294  0.67916020  0.75533153  1
  O2-  O150  1  0.56849406  0.17459126  0.08922245  1
  O2-  O151  1  0.56773028  0.17930292  0.43395720  1
  O2-  O152  1  0.56934943  0.17651964  0.75840852  1
  O2-  O153  1  0.57112874  0.67954313  0.09804180  1
  O2-  O154  1  0.56374291  0.67806689  0.43324560  1
  O2-  O155  1  0.57293917  0.67885213  0.75511738  1
  O2-  O156  1  0.17868048  0.42776414  0.24555520  1
  O2-  O157  1  0.17842119  0.43074416  0.57504518  1
  O2-  O158  1  0.18296640  0.42874013  0.90034900  1
  O2-  O159  1  0.17888383  0.92770410  0.24538226  1
  O2-  O160  1  0.17968016  0.92897600  0.57561208  1
  O2-  O161  1  0.18122449  0.92900759  0.90006057  1
  O2-  O162  1  0.68098681  0.43054687  0.23284268  1
  O2-  O163  1  0.67895850  0.42991146  0.56714133  1
  O2-  O164  1  0.67521759  0.42767579  0.91153305  1
  O2-  O165  1  0.67876299  0.92872921  0.23543192  1
  O2-  O166  1  0.67706151  0.92601576  0.57678175  1
  O2-  O167  1  0.67970747  0.93223841  0.89982920  1
  O2-  O168  1  0.43169886  0.31783973  0.09169991  1
  O2-  O169  1  0.42494815  0.32259792  0.42109195  1
  O2-  O170  1  0.43171883  0.32137775  0.76792638  1
  O2-  O171  1  0.43020017  0.82490287  0.09012528  1
  O2-  O172  1  0.42461378  0.82216055  0.42143552  1
  O2-  O173  1  0.42908550  0.82097453  0.76696925  1
  O2-  O174  1  0.92768099  0.32181238  0.09727396  1
  O2-  O175  1  0.92906789  0.31709659  0.43192927  1
  O2-  O176  1  0.92827420  0.32185907  0.76321578  1
  O2-  O177  1  0.92702652  0.81948693  0.09031569  1
  O2-  O178  1  0.93103098  0.82174671  0.43129907  1
  O2-  O179  1  0.93034029  0.81915224  0.76790475  1
  O2-  O180  1  0.31999036  0.07138264  0.24375749  1
  O2-  O181  1  0.32170486  0.06955384  0.56586964  1
  O2-  O182  1  0.32661799  0.07279690  0.91322325  1
  O2-  O183  1  0.32040899  0.56961344  0.24474468  1
  O2-  O184  1  0.31919510  0.57008428  0.56631512  1
  O2-  O185  1  0.32281393  0.57066909  0.90312695  1
  O2-  O186  1  0.82007607  0.06979367  0.24272461  1
  O2-  O187  1  0.81795096  0.06850959  0.56694857  1
  O2-  O188  1  0.82073065  0.07148786  0.91254382  1
  O2-  O189  1  0.82459696  0.57199946  0.24542690  1
  O2-  O190  1  0.81954828  0.57900138  0.57675810  1
  O2-  O191  1  0.81753760  0.57179314  0.89902901  1
  O2-  O192  1  0.05019858  0.08431845  0.27078172  1
  O2-  O193  1  0.04430617  0.07983164  0.59699017  1
  O2-  O194  1  0.04410714  0.07959362  0.93288030  1
  O2-  O195  1  0.05297786  0.58370127  0.27344341  1
  O2-  O196  1  0.05184997  0.58379382  0.60245106  1
  O2-  O197  1  0.04148573  0.58641955  0.93226818  1
  O2-  O198  1  0.53501485  0.08339924  0.26527121  1
  O2-  O199  1  0.54620689  0.08315744  0.60639066  1
  O2-  O200  1  0.53961106  0.08490151  0.93606324  1
  O2-  O201  1  0.53548610  0.58369871  0.26457102  1
  O2-  O202  1  0.54151660  0.58483179  0.60480095  1
  O2-  O203  1  0.54315380  0.58060239  0.93181891  1
  O2-  O204  1  0.16856201  0.20395618  0.26865856  1
  O2-  O205  1  0.16934108  0.20714658  0.59570420  1
  O2-  O206  1  0.17342578  0.20367236  0.93605240  1
  O2-  O207  1  0.16674723  0.70818232  0.27038279  1
  O2-  O208  1  0.16573872  0.70607041  0.60123463  1
  O2-  O209  1  0.17034562  0.71206651  0.93599758  1
  O2-  O210  1  0.66442355  0.20798700  0.26279724  1
  O2-  O211  1  0.66531672  0.20270625  0.60791771  1
  O2-  O212  1  0.66259720  0.19944659  0.93644569  1
  O2-  O213  1  0.66550432  0.70761457  0.26710076  1
  O2-  O214  1  0.66519940  0.69961129  0.60139997  1
  O2-  O215  1  0.66639270  0.71280873  0.92968639  1
  O2-  O216  1  0.08077612  0.45848494  0.06667221  1
  O2-  O217  1  0.08752051  0.45716238  0.39956299  1
  O2-  O218  1  0.08083455  0.45069368  0.72449814  1
  O2-  O219  1  0.08177704  0.95979126  0.06996125  1
  O2-  O220  1  0.08516861  0.95690799  0.39649619  1
  O2-  O221  1  0.08445707  0.95205067  0.72731745  1
  O2-  O222  1  0.58522062  0.45325534  0.06468161  1
  O2-  O223  1  0.58296686  0.46028071  0.39871578  1
  O2-  O224  1  0.58623100  0.46255120  0.73696912  1
  O2-  O225  1  0.58405978  0.96127286  0.06939095  1
  O2-  O226  1  0.58019592  0.95812824  0.40033539  1
  O2-  O227  1  0.58478159  0.95152969  0.72972361  1
  O2-  O228  1  0.21095405  0.33256522  0.07033368  1
  O2-  O229  1  0.20604012  0.33597641  0.39729437  1
  O2-  O230  1  0.20527687  0.33537966  0.72537751  1
  O2-  O231  1  0.21084975  0.83696255  0.07267665  1
  O2-  O232  1  0.20596789  0.83787991  0.39934462  1
  O2-  O233  1  0.20589301  0.83529708  0.72640922  1
  O2-  O234  1  0.69856354  0.32952566  0.05978853  1
  O2-  O235  1  0.70985720  0.33063853  0.39780382  1
  O2-  O236  1  0.70534336  0.33210720  0.73696542  1
  O2-  O237  1  0.71114539  0.83403057  0.06717639  1
  O2-  O238  1  0.70883805  0.83092095  0.40212099  1
  O2-  O239  1  0.70199099  0.82976371  0.72598159  1
  O2-  O240  1  0.45205430  0.41599997  0.26946229  1
  O2-  O241  1  0.46328646  0.41754486  0.59978453  1
  O2-  O242  1  0.45882409  0.41126627  0.93882593  1
  O2-  O243  1  0.44768400  0.91753018  0.27036755  1
  O2-  O244  1  0.45845982  0.91766688  0.59824300  1
  O2-  O245  1  0.45677083  0.91622736  0.93857308  1
  O2-  O246  1  0.95992980  0.41931801  0.26885676  1
  O2-  O247  1  0.95092627  0.42047694  0.59517373  1
  O2-  O248  1  0.95391979  0.42243086  0.93203110  1
  O2-  O249  1  0.96041164  0.91691244  0.26273391  1
  O2-  O250  1  0.96064524  0.91393847  0.59695604  1
  O2-  O251  1  0.94912925  0.91840521  0.94316328  1
  O2-  O252  1  0.33356415  0.29480300  0.26877729  1
  O2-  O253  1  0.33529068  0.29315494  0.59713628  1
  O2-  O254  1  0.33916105  0.29223047  0.93931699  1
  O2-  O255  1  0.33167376  0.79585928  0.27107567  1
  O2-  O256  1  0.33402080  0.78995101  0.59644797  1
  O2-  O257  1  0.33403650  0.80001664  0.94001433  1
  O2-  O258  1  0.83463449  0.28983719  0.26203092  1
  O2-  O259  1  0.82725132  0.28707362  0.60122108  1
  O2-  O260  1  0.82845653  0.29435682  0.93135750  1
  O2-  O261  1  0.83250834  0.79082926  0.26442084  1
  O2-  O262  1  0.83279395  0.78942169  0.59809577  1
  O2-  O263  1  0.83538943  0.79309722  0.93774422  1
  O2-  O264  1  0.41476022  0.04386828  0.06723190  1
  O2-  O265  1  0.41093929  0.04296551  0.39733836  1
  O2-  O266  1  0.41719701  0.04040355  0.73535043  1
  O2-  O267  1  0.42017527  0.53801199  0.06958775  1
  O2-  O268  1  0.41168280  0.54173341  0.39767947  1
  O2-  O269  1  0.41524556  0.53924404  0.73473801  1
  O2-  O270  1  0.91563971  0.05163217  0.06513691  1
  O2-  O271  1  0.91656780  0.04639270  0.39282377  1
  O2-  O272  1  0.91797931  0.03674678  0.73378719  1
  O2-  O273  1  0.91689037  0.54445599  0.06850715  1
  O2-  O274  1  0.91939781  0.55185262  0.39673473  1
  O2-  O275  1  0.91974549  0.55297217  0.72419117  1
  O2-  O276  1  0.29981590  0.16637178  0.06688025  1
  O2-  O277  1  0.29438794  0.16467060  0.39546106  1
  O2-  O278  1  0.29334461  0.16996813  0.73212600  1
  O2-  O279  1  0.29876275  0.67137042  0.07056222  1
  O2-  O280  1  0.29261133  0.66285991  0.39643772  1
  O2-  O281  1  0.29189506  0.66905626  0.73345558  1
  O2-  O282  1  0.79311780  0.16705049  0.06266085  1
  O2-  O283  1  0.79323054  0.16436402  0.39296859  1
  O2-  O284  1  0.78897571  0.16193451  0.73951514  1
  O2-  O285  1  0.78636858  0.66455768  0.06821294  1
  O2-  O286  1  0.79479686  0.66550390  0.39584017  1
  O2-  O287  1  0.79400256  0.66570554  0.73109527  1
