# generated using pymatgen
data_Ca2Al2SiO7
_symmetry_space_group_name_H-M   'P 1'
_cell_length_a   15.45583765
_cell_length_b   15.45529166
_cell_length_c   15.28107399
_cell_angle_alpha   89.99224691
_cell_angle_beta   89.98896726
_cell_angle_gamma   90.00615776
_symmetry_Int_Tables_number   1
_chemical_formula_structural   Ca2Al2SiO7
_chemical_formula_sum   'Ca48 Al48 Si24 O168'
_cell_volume   3650.25846120
_cell_formula_units_Z   24
loop_
 _symmetry_equiv_pos_site_id
 _symmetry_equiv_pos_as_xyz
  1  'x, y, z'
loop_
 _atom_type_symbol
 _atom_type_oxidation_number
  Ca2+  2.0
  Al0+  0.0
  Si0+  0.0
  O2-  -2.0
loop_
 _atom_site_type_symbol
 _atom_site_label
 _atom_site_symmetry_multiplicity
 _atom_site_fract_x
 _atom_site_fract_y
 _atom_site_fract_z
 _atom_site_occupancy
  Ca2+  Ca0  1  0.17910185  0.08272950  0.17225913  1
  Ca2+  Ca1  1  0.17711268  0.08831747  0.50503358  1
  Ca2+  Ca2  1  0.17716489  0.08909185  0.83460071  1
  Ca2+  Ca3  1  0.16986139  0.57577939  0.17234977  1
  Ca2+  Ca4  1  0.16557859  0.57873952  0.50222481  1
  Ca2+  Ca5  1  0.17856192  0.58076926  0.83984715  1
  Ca2+  Ca6  1  0.66584752  0.07815262  0.17623312  1
  Ca2+  Ca7  1  0.67599129  0.07853504  0.50002756  1
  Ca2+  Ca8  1  0.67220080  0.08613134  0.83653349  1
  Ca2+  Ca9  1  0.66755077  0.58507996  0.17126672  1
  Ca2+  Ca10  1  0.67537356  0.58889921  0.50147005  1
  Ca2+  Ca11  1  0.67032613  0.57811047  0.83909305  1
  Ca2+  Ca12  1  0.07993252  0.34259687  0.16843923  1
  Ca2+  Ca13  1  0.07619755  0.33111060  0.49531481  1
  Ca2+  Ca14  1  0.08172634  0.33045634  0.82659969  1
  Ca2+  Ca15  1  0.08435569  0.82628639  0.16841907  1
  Ca2+  Ca16  1  0.07758309  0.82622920  0.49608632  1
  Ca2+  Ca17  1  0.07759433  0.83168680  0.82496434  1
  Ca2+  Ca18  1  0.57781511  0.32972546  0.15968997  1
  Ca2+  Ca19  1  0.57339606  0.33145496  0.49285480  1
  Ca2+  Ca20  1  0.58720342  0.32953231  0.83547560  1
  Ca2+  Ca21  1  0.58636909  0.82452023  0.16880831  1
  Ca2+  Ca22  1  0.57472079  0.83209760  0.49140415  1
  Ca2+  Ca23  1  0.57621821  0.82461868  0.82842365  1
  Ca2+  Ca24  1  0.32344135  0.41571034  0.17277551  1
  Ca2+  Ca25  1  0.32881498  0.41990544  0.50290536  1
  Ca2+  Ca26  1  0.32757882  0.42765823  0.84193445  1
  Ca2+  Ca27  1  0.34487737  0.92767077  0.17176241  1
  Ca2+  Ca28  1  0.34084181  0.92314473  0.50471762  1
  Ca2+  Ca29  1  0.33884969  0.92382689  0.83195742  1
  Ca2+  Ca30  1  0.82430777  0.41754369  0.17516137  1
  Ca2+  Ca31  1  0.84225146  0.42507118  0.50185061  1
  Ca2+  Ca32  1  0.83188127  0.41844074  0.83382270  1
  Ca2+  Ca33  1  0.82396948  0.92558407  0.17988905  1
  Ca2+  Ca34  1  0.82977317  0.92100877  0.50588049  1
  Ca2+  Ca35  1  0.83912488  0.92171273  0.83224827  1
  Ca2+  Ca36  1  0.41590885  0.16817204  0.16373502  1
  Ca2+  Ca37  1  0.41149915  0.16935781  0.49153956  1
  Ca2+  Ca38  1  0.42022721  0.16043377  0.83084867  1
  Ca2+  Ca39  1  0.42694367  0.66789735  0.16084494  1
  Ca2+  Ca40  1  0.41816703  0.67716940  0.49035944  1
  Ca2+  Ca41  1  0.41801184  0.66290184  0.82637513  1
  Ca2+  Ca42  1  0.91007499  0.17336900  0.16548279  1
  Ca2+  Ca43  1  0.91421863  0.17414186  0.49603547  1
  Ca2+  Ca44  1  0.92585929  0.17364064  0.81697482  1
  Ca2+  Ca45  1  0.92221014  0.65731638  0.17034127  1
  Ca2+  Ca46  1  0.91534318  0.66639693  0.49232015  1
  Ca2+  Ca47  1  0.91657550  0.67157879  0.82373653  1
  Al0+  Al48  1  0.00102478  0.00191042  0.00080384  1
  Al0+  Al49  1  0.00290513  0.00100702  0.33564299  1
  Al0+  Al50  1  0.00128465  -0.00124063  0.66151620  1
  Al0+  Al51  1  0.00037880  0.50216931  -0.00120595  1
  Al0+  Al52  1  -0.00056048  0.49824029  0.33239359  1
  Al0+  Al53  1  -0.00077472  0.49895365  0.67067965  1
  Al0+  Al54  1  0.50214041  -0.00011524  -0.00178984  1
  Al0+  Al55  1  0.50095025  0.00041868  0.33919319  1
  Al0+  Al56  1  0.50123738  -0.00203277  0.66787960  1
  Al0+  Al57  1  0.50172375  0.49957585  0.00165727  1
  Al0+  Al58  1  0.49808014  0.49935467  0.32479112  1
  Al0+  Al59  1  0.50123448  0.49759529  0.67009407  1
  Al0+  Al60  1  0.24846039  0.24991941  0.00702930  1
  Al0+  Al61  1  0.24785621  0.25070365  0.33721045  1
  Al0+  Al62  1  0.25106016  0.24952677  0.66923586  1
  Al0+  Al63  1  0.24870119  0.75208166  0.00207016  1
  Al0+  Al64  1  0.24939715  0.75161859  0.32238775  1
  Al0+  Al65  1  0.25112468  0.75072777  0.66671418  1
  Al0+  Al66  1  0.74982316  0.25206986  -0.00159754  1
  Al0+  Al67  1  0.74921280  0.25092815  0.33359946  1
  Al0+  Al68  1  0.74964208  0.24870276  0.66539807  1
  Al0+  Al69  1  0.74881896  0.75177851  -0.00578882  1
  Al0+  Al70  1  0.74888092  0.75109374  0.33720923  1
  Al0+  Al71  1  0.74979526  0.74898372  0.66893941  1
  Al0+  Al72  1  0.82189196  0.07033662  0.68093437  1
  Al0+  Al73  1  0.06930964  0.67821276  0.31976120  1
  Al0+  Al74  1  0.92912905  0.31928575  0.31801951  1
  Al0+  Al75  1  0.07430672  0.17892606  0.65089777  1
  Al0+  Al76  1  0.31902441  0.06887067  0.34760249  1
  Al0+  Al77  1  0.92793688  0.32146817  0.65092634  1
  Al0+  Al78  1  0.32181947  0.06817639  0.01354414  1
  Al0+  Al79  1  0.67941627  0.92862031  0.34988274  1
  Al0+  Al80  1  0.32279610  0.57380682  0.01696330  1
  Al0+  Al81  1  0.81861988  0.56809170  0.34503725  1
  Al0+  Al82  1  0.82349058  0.07400304  0.34828871  1
  Al0+  Al83  1  0.57256095  0.67905745  0.31884123  1
  Al0+  Al84  1  0.57076072  0.17874593  0.98632061  1
  Al0+  Al85  1  0.32168372  0.07107001  0.68128178  1
  Al0+  Al86  1  0.42570939  0.32056934  0.31978036  1
  Al0+  Al87  1  0.42973404  0.81943334  0.65325440  1
  Al0+  Al88  1  0.92781015  0.82011166  0.65245208  1
  Al0+  Al89  1  0.42896417  0.82390928  0.31647518  1
  Al0+  Al90  1  0.17791931  0.42989190  0.01593874  1
  Al0+  Al91  1  0.82099882  0.57073291  0.68096937  1
  Al0+  Al92  1  0.17916706  0.43109193  0.34979449  1
  Al0+  Al93  1  0.68164301  0.42818748  0.01412142  1
  Al0+  Al94  1  0.57073212  0.67750858  0.98329583  1
  Al0+  Al95  1  0.32148368  0.57187193  0.67701722  1
  Si0+  Si96  1  0.92900562  0.32154345  0.98458346  1
  Si0+  Si97  1  0.67651164  0.42627383  0.68328713  1
  Si0+  Si98  1  0.92951618  0.82299081  0.98606946  1
  Si0+  Si99  1  0.67872937  0.92828754  0.68694809  1
  Si0+  Si100  1  0.57123127  0.67464311  0.65055519  1
  Si0+  Si101  1  0.42779261  0.82209569  0.98206848  1
  Si0+  Si102  1  0.43004377  0.32090631  0.65435485  1
  Si0+  Si103  1  0.07218787  0.67797025  0.65205717  1
  Si0+  Si104  1  0.82208348  0.07150496  0.01302522  1
  Si0+  Si105  1  0.07062919  0.67949028  0.98341222  1
  Si0+  Si106  1  0.17833825  0.92696875  0.68220699  1
  Si0+  Si107  1  0.68099661  0.92918521  0.01324491  1
  Si0+  Si108  1  0.17872993  0.42845596  0.68366609  1
  Si0+  Si109  1  0.42564942  0.32012249  0.98297917  1
  Si0+  Si110  1  0.57068462  0.17978997  0.31868326  1
  Si0+  Si111  1  0.17744271  0.92432493  0.35071710  1
  Si0+  Si112  1  0.82057843  0.57501816  0.01580481  1
  Si0+  Si113  1  0.92783204  0.82385359  0.31712103  1
  Si0+  Si114  1  0.07266890  0.17734731  0.31470690  1
  Si0+  Si115  1  0.57086007  0.17755456  0.65122841  1
  Si0+  Si116  1  0.07069393  0.17821325  0.98578903  1
  Si0+  Si117  1  0.17410622  0.92888235  0.01762605  1
  Si0+  Si118  1  0.32266550  0.57356084  0.34783042  1
  Si0+  Si119  1  0.67375775  0.42719916  0.34946920  1
  O2-  O120  1  0.24802804  -0.00743437  0.06016180  1
  O2-  O121  1  0.24718325  -0.00835308  0.39483284  1
  O2-  O122  1  0.24504978  -0.00231425  0.72707245  1
  O2-  O123  1  0.25160468  0.50030385  0.06582413  1
  O2-  O124  1  0.25439894  0.50608868  0.39497404  1
  O2-  O125  1  0.24650999  0.49868878  0.72624146  1
  O2-  O126  1  0.75098411  0.00133188  0.05534716  1
  O2-  O127  1  0.75551682  -0.00201573  0.39762051  1
  O2-  O128  1  0.74909282  -0.00443912  0.73174445  1
  O2-  O129  1  0.75320020  0.50578693  0.06029046  1
  O2-  O130  1  0.74112346  0.49701995  0.39349831  1
  O2-  O131  1  0.74693607  0.49463807  0.72587478  1
  O2-  O132  1  -0.00069708  0.24082832  0.26946499  1
  O2-  O133  1  -0.00057544  0.24841861  0.60175346  1
  O2-  O134  1  0.00147863  0.25127051  0.94395067  1
  O2-  O135  1  -0.00506633  0.75406780  0.27169772  1
  O2-  O136  1  -0.00008197  0.74243721  0.60726372  1
  O2-  O137  1  -0.00011958  0.75156455  0.94272159  1
  O2-  O138  1  0.50222051  0.24765668  0.27326918  1
  O2-  O139  1  0.49827146  0.24767262  0.61087294  1
  O2-  O140  1  0.49424251  0.25126709  0.93766268  1
  O2-  O141  1  0.49863978  0.74900840  0.26774245  1
  O2-  O142  1  0.50126659  0.74182537  0.60715126  1
  O2-  O143  1  0.48984562  0.74696786  0.93783198  1
  O2-  O144  1  0.06742031  0.17306927  0.09032360  1
  O2-  O145  1  0.07478232  0.18031907  0.41997889  1
  O2-  O146  1  0.07477639  0.18275899  0.76569120  1
  O2-  O147  1  0.06853373  0.67824313  0.08828947  1
  O2-  O148  1  0.06769748  0.67900723  0.43303354  1
  O2-  O149  1  0.07213635  0.68129278  0.75821056  1
  O2-  O150  1  0.57162239  0.17839984  0.09903956  1
  O2-  O151  1  0.57009667  0.18173861  0.42465054  1
  O2-  O152  1  0.57145336  0.17860820  0.75675939  1
  O2-  O153  1  0.57656814  0.68329725  0.09556481  1
  O2-  O154  1  0.57109225  0.67906472  0.43269563  1
  O2-  O155  1  0.57017832  0.67515584  0.75655918  1
  O2-  O156  1  0.17942482  0.43265860  0.23682503  1
  O2-  O157  1  0.17915914  0.42855511  0.57822749  1
  O2-  O158  1  0.17736848  0.43137818  0.90189946  1
  O2-  O159  1  0.17471378  0.92743769  0.24484501  1
  O2-  O160  1  0.18056069  0.92358886  0.57712236  1
  O2-  O161  1  0.16786722  0.93085003  0.91221881  1
  O2-  O162  1  0.67676074  0.42497782  0.24377936  1
  O2-  O163  1  0.67032594  0.42721168  0.57824568  1
  O2-  O164  1  0.68688046  0.42610537  0.90083136  1
  O2-  O165  1  0.68081696  0.93068989  0.23516022  1
  O2-  O166  1  0.67808456  0.93018747  0.58185944  1
  O2-  O167  1  0.68307184  0.92882640  0.90812329  1
  O2-  O168  1  0.42604911  0.31687783  0.08842914  1
  O2-  O169  1  0.42755156  0.31977063  0.43380502  1
  O2-  O170  1  0.43147038  0.32170981  0.75944395  1
  O2-  O171  1  0.43223755  0.82515447  0.08710728  1
  O2-  O172  1  0.42967082  0.82274585  0.43039161  1
  O2-  O173  1  0.43218750  0.82003869  0.76669455  1
  O2-  O174  1  0.92696722  0.32026603  0.08954053  1
  O2-  O175  1  0.93143640  0.32096494  0.43054497  1
  O2-  O176  1  0.92988726  0.32077315  0.76555831  1
  O2-  O177  1  0.92970422  0.82475555  0.09077539  1
  O2-  O178  1  0.92957562  0.82257689  0.42261239  1
  O2-  O179  1  0.93118747  0.81955986  0.76661818  1
  O2-  O180  1  0.31869618  0.06902828  0.23414376  1
  O2-  O181  1  0.32238109  0.07132510  0.56867247  1
  O2-  O182  1  0.32040001  0.06725053  0.90021258  1
  O2-  O183  1  0.32102540  0.57103500  0.24241965  1
  O2-  O184  1  0.32089306  0.57010332  0.56408922  1
  O2-  O185  1  0.31915360  0.57244532  0.90253788  1
  O2-  O186  1  0.81964793  0.07301131  0.23343602  1
  O2-  O187  1  0.81780984  0.07069881  0.56872960  1
  O2-  O188  1  0.82379657  0.06975249  0.90789803  1
  O2-  O189  1  0.81910448  0.56554288  0.23154015  1
  O2-  O190  1  0.82034549  0.57141931  0.56812260  1
  O2-  O191  1  0.82076436  0.57468519  0.91000801  1
  O2-  O192  1  0.05441783  0.08099790  0.27035472  1
  O2-  O193  1  0.05230721  0.07886871  0.60034157  1
  O2-  O194  1  0.04176465  0.08750189  0.93573746  1
  O2-  O195  1  0.03444318  0.58408236  0.26353455  1
  O2-  O196  1  0.05014983  0.58242214  0.60994072  1
  O2-  O197  1  0.04258570  0.58869529  0.93356654  1
  O2-  O198  1  0.54513636  0.08589262  0.27426194  1
  O2-  O199  1  0.54411901  0.08542708  0.60542369  1
  O2-  O200  1  0.54273624  0.08205108  0.92993744  1
  O2-  O201  1  0.54772083  0.58042551  0.26420697  1
  O2-  O202  1  0.54920261  0.57971848  0.60624095  1
  O2-  O203  1  0.54664644  0.57818125  0.93077943  1
  O2-  O204  1  0.16366912  0.20970420  0.26760716  1
  O2-  O205  1  0.17243734  0.20999699  0.59871212  1
  O2-  O206  1  0.16359806  0.20573251  0.94019244  1
  O2-  O207  1  0.16369700  0.70828258  0.26062682  1
  O2-  O208  1  0.16397109  0.70667249  0.60481198  1
  O2-  O209  1  0.16279799  0.70763279  0.93630119  1
  O2-  O210  1  0.66390685  0.20438003  0.27142202  1
  O2-  O211  1  0.66136212  0.20635040  0.60272786  1
  O2-  O212  1  0.66670483  0.21296552  0.93074156  1
  O2-  O213  1  0.67059463  0.71059403  0.26506199  1
  O2-  O214  1  0.66490616  0.70254253  0.60709850  1
  O2-  O215  1  0.66565103  0.71385527  0.92692895  1
  O2-  O216  1  0.07913110  0.46131867  0.06740428  1
  O2-  O217  1  0.08340903  0.46390349  0.40306752  1
  O2-  O218  1  0.08533022  0.45202892  0.73109382  1
  O2-  O219  1  0.08338817  0.95965254  0.06774367  1
  O2-  O220  1  0.08411874  0.94916694  0.39782229  1
  O2-  O221  1  0.08387123  0.94986781  0.72793023  1
  O2-  O222  1  0.58314988  0.45246701  0.06574719  1
  O2-  O223  1  0.57856489  0.45070817  0.39321492  1
  O2-  O224  1  0.58509126  0.45242717  0.73461313  1
  O2-  O225  1  0.58964538  0.95674615  0.06030091  1
  O2-  O226  1  0.58405418  0.96116808  0.40577501  1
  O2-  O227  1  0.58667552  0.95701678  0.73466736  1
  O2-  O228  1  0.20167613  0.33093123  0.06980751  1
  O2-  O229  1  0.20990880  0.33516850  0.40412769  1
  O2-  O230  1  0.20722750  0.33629458  0.73115310  1
  O2-  O231  1  0.19398119  0.83344796  0.06160377  1
  O2-  O232  1  0.20032939  0.82894813  0.39382055  1
  O2-  O233  1  0.20594688  0.83520843  0.73232132  1
  O2-  O234  1  0.71504325  0.33292802  0.06987384  1
  O2-  O235  1  0.69954817  0.33422920  0.39616831  1
  O2-  O236  1  0.70242433  0.33260514  0.72933406  1
  O2-  O237  1  0.71115237  0.83823899  0.06082724  1
  O2-  O238  1  0.70459456  0.83080408  0.40459101  1
  O2-  O239  1  0.70308224  0.83395461  0.73241781  1
  O2-  O240  1  0.45282724  0.41600873  0.26251719  1
  O2-  O241  1  0.46034884  0.41122841  0.60494928  1
  O2-  O242  1  0.45257825  0.41405524  0.93842897  1
  O2-  O243  1  0.46291313  0.92204095  0.26589098  1
  O2-  O244  1  0.46390062  0.91551609  0.60014357  1
  O2-  O245  1  0.46137150  0.91267648  0.93385197  1
  O2-  O246  1  0.96332447  0.41376871  0.26240801  1
  O2-  O247  1  0.95738269  0.42090482  0.60075079  1
  O2-  O248  1  0.95553018  0.41451245  0.93799318  1
  O2-  O249  1  0.95524180  0.91733697  0.27051605  1
  O2-  O250  1  0.95876771  0.91496076  0.59672716  1
  O2-  O251  1  0.95905365  0.91483217  0.93797031  1
  O2-  O252  1  0.33018715  0.28644168  0.26634482  1
  O2-  O253  1  0.33766697  0.29548930  0.60783047  1
  O2-  O254  1  0.33107618  0.29466278  0.93843667  1
  O2-  O255  1  0.32967841  0.80315305  0.26210082  1
  O2-  O256  1  0.33198201  0.79322686  0.59974867  1
  O2-  O257  1  0.33004801  0.80557458  0.94013549  1
  O2-  O258  1  0.83069837  0.29120725  0.26431819  1
  O2-  O259  1  0.82853791  0.29502419  0.59945547  1
  O2-  O260  1  0.83874528  0.29224409  0.93555848  1
  O2-  O261  1  0.83350822  0.79991335  0.27285197  1
  O2-  O262  1  0.82982984  0.79144568  0.60087317  1
  O2-  O263  1  0.83866767  0.79650184  0.93604885  1
  O2-  O264  1  0.41945548  0.03831419  0.06608866  1
  O2-  O265  1  0.41622341  0.04319814  0.40215266  1
  O2-  O266  1  0.41796552  0.03738186  0.73527347  1
  O2-  O267  1  0.42283473  0.54872146  0.06595443  1
  O2-  O268  1  0.41674590  0.54729035  0.39216333  1
  O2-  O269  1  0.41704088  0.53903351  0.73285394  1
  O2-  O270  1  0.91325204  0.04380177  0.06160829  1
  O2-  O271  1  0.92433547  0.05139798  0.39769488  1
  O2-  O272  1  0.92010165  0.03975706  0.73301334  1
  O2-  O273  1  0.91543875  0.55027108  0.05882152  1
  O2-  O274  1  0.91377886  0.53460974  0.39925498  1
  O2-  O275  1  0.91756436  0.54192283  0.73775485  1
  O2-  O276  1  0.29034840  0.16392511  0.06800221  1
  O2-  O277  1  0.28519801  0.16428999  0.40189616  1
  O2-  O278  1  0.29264835  0.16776506  0.73716987  1
  O2-  O279  1  0.29385240  0.67306260  0.06753904  1
  O2-  O280  1  0.29670059  0.66922101  0.38882808  1
  O2-  O281  1  0.29157442  0.66787197  0.73327648  1
  O2-  O282  1  0.79436745  0.16373888  0.05831894  1
  O2-  O283  1  0.79043720  0.17079094  0.40155388  1
  O2-  O284  1  0.78925727  0.16693089  0.73523478  1
  O2-  O285  1  0.79455491  0.66916386  0.06008400  1
  O2-  O286  1  0.79317847  0.66607518  0.39859764  1
  O2-  O287  1  0.79044442  0.66689562  0.73708217  1
