# generated using pymatgen
data_Ca2Al2SiO7
_symmetry_space_group_name_H-M   'P 1'
_cell_length_a   15.46759704
_cell_length_b   15.47260116
_cell_length_c   15.29265284
_cell_angle_alpha   89.98022903
_cell_angle_beta   90.00171358
_cell_angle_gamma   89.98847241
_symmetry_Int_Tables_number   1
_chemical_formula_structural   Ca2Al2SiO7
_chemical_formula_sum   'Ca48 Al48 Si24 O168'
_cell_volume   3659.89793973
_cell_formula_units_Z   24
loop_
 _symmetry_equiv_pos_site_id
 _symmetry_equiv_pos_as_xyz
  1  'x, y, z'
loop_
 _atom_type_symbol
 _atom_type_oxidation_number
  Ca2+  2.0
  Al0+  0.0
  Si0+  0.0
  O2-  -2.0
loop_
 _atom_site_type_symbol
 _atom_site_label
 _atom_site_symmetry_multiplicity
 _atom_site_fract_x
 _atom_site_fract_y
 _atom_site_fract_z
 _atom_site_occupancy
  Ca2+  Ca0  1  0.17366126  0.08399309  0.17581985  1
  Ca2+  Ca1  1  0.17401686  0.07553752  0.50336786  1
  Ca2+  Ca2  1  0.17787891  0.08435305  0.83829029  1
  Ca2+  Ca3  1  0.16900357  0.58504320  0.17123082  1
  Ca2+  Ca4  1  0.16847475  0.57956900  0.50689127  1
  Ca2+  Ca5  1  0.15213972  0.57904387  0.83430336  1
  Ca2+  Ca6  1  0.66274966  0.07374943  0.17130032  1
  Ca2+  Ca7  1  0.66795350  0.08216778  0.50468236  1
  Ca2+  Ca8  1  0.67076652  0.08436965  0.83903959  1
  Ca2+  Ca9  1  0.67219821  0.58852717  0.17317852  1
  Ca2+  Ca10  1  0.66478820  0.58629209  0.50194724  1
  Ca2+  Ca11  1  0.67496337  0.58040751  0.84337670  1
  Ca2+  Ca12  1  0.09013093  0.31997950  0.16491397  1
  Ca2+  Ca13  1  0.08711798  0.32782392  0.49824612  1
  Ca2+  Ca14  1  0.08695888  0.32884021  0.83117586  1
  Ca2+  Ca15  1  0.07220936  0.83645289  0.16038433  1
  Ca2+  Ca16  1  0.07462369  0.84948280  0.49668230  1
  Ca2+  Ca17  1  0.07648971  0.82593412  0.82228811  1
  Ca2+  Ca18  1  0.58070096  0.31852060  0.16294390  1
  Ca2+  Ca19  1  0.57724799  0.31954447  0.49827700  1
  Ca2+  Ca20  1  0.57530494  0.32081745  0.82461650  1
  Ca2+  Ca21  1  0.57971070  0.84043969  0.16831659  1
  Ca2+  Ca22  1  0.57550412  0.83225546  0.48679814  1
  Ca2+  Ca23  1  0.58511211  0.83722909  0.83383401  1
  Ca2+  Ca24  1  0.33543601  0.42620148  0.17317869  1
  Ca2+  Ca25  1  0.33314738  0.42157851  0.50557796  1
  Ca2+  Ca26  1  0.33073488  0.41321282  0.83033027  1
  Ca2+  Ca27  1  0.32499638  0.92438545  0.17684625  1
  Ca2+  Ca28  1  0.32610866  0.92192349  0.50212669  1
  Ca2+  Ca29  1  0.32857527  0.92634618  0.83478474  1
  Ca2+  Ca30  1  0.83708807  0.42617353  0.16883995  1
  Ca2+  Ca31  1  0.83060775  0.41787885  0.50569868  1
  Ca2+  Ca32  1  0.83467292  0.42500356  0.84075228  1
  Ca2+  Ca33  1  0.82463370  0.90622977  0.17027085  1
  Ca2+  Ca34  1  0.83042696  0.91665929  0.50204969  1
  Ca2+  Ca35  1  0.83044500  0.91418324  0.83489436  1
  Ca2+  Ca36  1  0.42568938  0.14937264  0.16448392  1
  Ca2+  Ca37  1  0.42001889  0.15992986  0.49614348  1
  Ca2+  Ca38  1  0.42464906  0.15984016  0.82658830  1
  Ca2+  Ca39  1  0.41548596  0.67288925  0.17053954  1
  Ca2+  Ca40  1  0.41891784  0.67330535  0.48776073  1
  Ca2+  Ca41  1  0.42060662  0.66925616  0.82871200  1
  Ca2+  Ca42  1  0.93238139  0.16263667  0.16378178  1
  Ca2+  Ca43  1  0.92371206  0.16023087  0.49464570  1
  Ca2+  Ca44  1  0.92247567  0.15969403  0.82877455  1
  Ca2+  Ca45  1  0.92032083  0.67717812  0.15861480  1
  Ca2+  Ca46  1  0.92537854  0.68035387  0.49779127  1
  Ca2+  Ca47  1  0.92025512  0.67691233  0.83146751  1
  Al0+  Al48  1  -0.00092641  0.00057831  -0.01024873  1
  Al0+  Al49  1  -0.00131426  0.00217780  0.32491548  1
  Al0+  Al50  1  -0.00219676  -0.00061404  0.66995800  1
  Al0+  Al51  1  -0.00011371  0.49974610  0.00549733  1
  Al0+  Al52  1  -0.00167774  0.50164546  0.33547828  1
  Al0+  Al53  1  0.00025450  0.50057738  0.66660859  1
  Al0+  Al54  1  0.50024524  -0.00074289  0.00092521  1
  Al0+  Al55  1  0.50034730  -0.00168610  0.33308051  1
  Al0+  Al56  1  0.50121085  -0.00336161  0.66567888  1
  Al0+  Al57  1  0.49901847  0.49925342  0.00055918  1
  Al0+  Al58  1  0.50159315  0.49908208  0.33411881  1
  Al0+  Al59  1  0.50052607  0.49697676  0.66541746  1
  Al0+  Al60  1  0.25129310  0.25203319  0.00108470  1
  Al0+  Al61  1  0.25066197  0.25230296  0.33324865  1
  Al0+  Al62  1  0.25087371  0.25369293  0.67104677  1
  Al0+  Al63  1  0.25047916  0.74930898  -0.00461332  1
  Al0+  Al64  1  0.24882602  0.74928290  0.33809976  1
  Al0+  Al65  1  0.25184901  0.74725007  0.66815761  1
  Al0+  Al66  1  0.74934466  0.24984716  -0.00165477  1
  Al0+  Al67  1  0.74943688  0.25290920  0.32816021  1
  Al0+  Al68  1  0.74922405  0.24960906  0.66840691  1
  Al0+  Al69  1  0.74977013  0.74869856  0.00435610  1
  Al0+  Al70  1  0.75155030  0.74961790  0.33331582  1
  Al0+  Al71  1  0.75305532  0.74961119  0.66374547  1
  Al0+  Al72  1  0.42740711  0.32076583  0.65008234  1
  Al0+  Al73  1  0.32172744  0.07073175  0.68162902  1
  Al0+  Al74  1  0.68096990  0.92906487  0.34728627  1
  Al0+  Al75  1  0.57102643  0.17644598  0.65069633  1
  Al0+  Al76  1  0.17859889  0.43124320  0.68130509  1
  Al0+  Al77  1  0.17485480  0.92940019  0.34529360  1
  Al0+  Al78  1  0.92587962  0.82099043  0.98303581  1
  Al0+  Al79  1  0.82030771  0.56903348  0.01549421  1
  Al0+  Al80  1  0.17784230  0.92714913  0.68286070  1
  Al0+  Al81  1  0.57107601  0.67810305  0.31824504  1
  Al0+  Al82  1  0.07233288  0.67893021  0.98572886  1
  Al0+  Al83  1  0.42624830  0.82135879  0.31763837  1
  Al0+  Al84  1  0.68122762  0.93071348  0.01382144  1
  Al0+  Al85  1  0.92999853  0.82273940  0.64813217  1
  Al0+  Al86  1  0.81959463  0.07212234  0.67910579  1
  Al0+  Al87  1  0.32163133  0.07190694  0.34824304  1
  Al0+  Al88  1  0.57060480  0.17814334  0.31858255  1
  Al0+  Al89  1  0.07269685  0.17994492  0.98431876  1
  Al0+  Al90  1  0.07185138  0.67773712  0.64994911  1
  Al0+  Al91  1  0.93079041  0.82157096  0.31842987  1
  Al0+  Al92  1  0.32119098  0.57090812  0.34672168  1
  Al0+  Al93  1  0.31911067  0.07079715  0.01406095  1
  Al0+  Al94  1  0.07118949  0.18161902  0.32199128  1
  Al0+  Al95  1  0.56925341  0.17757206  0.98561955  1
  Si0+  Si96  1  0.67991429  0.42778349  0.34995475  1
  Si0+  Si97  1  0.32501315  0.57101329  0.68480750  1
  Si0+  Si98  1  0.42944285  0.82035430  0.98400083  1
  Si0+  Si99  1  0.82440853  0.07486817  0.01744003  1
  Si0+  Si100  1  0.42838571  0.32211370  0.31612367  1
  Si0+  Si101  1  0.92898190  0.32185026  0.98459136  1
  Si0+  Si102  1  0.67846323  0.42849266  0.68287238  1
  Si0+  Si103  1  0.82084726  0.57111301  0.35205040  1
  Si0+  Si104  1  0.17722333  0.92711393  0.01377340  1
  Si0+  Si105  1  0.07139535  0.67496162  0.31737149  1
  Si0+  Si106  1  0.92832339  0.32202429  0.65388189  1
  Si0+  Si107  1  0.32385898  0.57294227  0.01515064  1
  Si0+  Si108  1  0.42877991  0.32561948  0.98276913  1
  Si0+  Si109  1  0.67625519  0.42718115  0.01793239  1
  Si0+  Si110  1  0.42970755  0.81941640  0.65236436  1
  Si0+  Si111  1  0.57022548  0.67725504  0.98606085  1
  Si0+  Si112  1  0.07076903  0.18012274  0.65358777  1
  Si0+  Si113  1  0.67923716  0.92560625  0.68197649  1
  Si0+  Si114  1  0.81956284  0.56996455  0.68165884  1
  Si0+  Si115  1  0.57219061  0.67793634  0.65482731  1
  Si0+  Si116  1  0.17976325  0.43049950  0.01682890  1
  Si0+  Si117  1  0.82082818  0.07486288  0.34623481  1
  Si0+  Si118  1  0.92691152  0.32526867  0.31684240  1
  Si0+  Si119  1  0.17694663  0.42914813  0.35002307  1
  O2-  O120  1  0.24036780  -0.00017204  0.05947350  1
  O2-  O121  1  0.24935517  -0.00104952  0.39555135  1
  O2-  O122  1  0.24782008  0.00119928  0.73309859  1
  O2-  O123  1  0.25040345  0.50347996  0.05598687  1
  O2-  O124  1  0.24480111  0.49832848  0.39368893  1
  O2-  O125  1  0.25233602  0.50673565  0.72940349  1
  O2-  O126  1  0.75734999  0.00446110  0.06074803  1
  O2-  O127  1  0.75191628  0.00783988  0.39237093  1
  O2-  O128  1  0.74438685  -0.00234379  0.72532294  1
  O2-  O129  1  0.74529214  0.49460906  0.06343242  1
  O2-  O130  1  0.74958952  0.49981136  0.39376601  1
  O2-  O131  1  0.74791811  0.50043654  0.72568084  1
  O2-  O132  1  -0.00326239  0.25737663  0.27457325  1
  O2-  O133  1  -0.00293457  0.24937309  0.61145447  1
  O2-  O134  1  -0.00648768  0.25098388  0.93802365  1
  O2-  O135  1  0.00836741  0.74859089  0.27396660  1
  O2-  O136  1  0.00874222  0.75691186  0.59908252  1
  O2-  O137  1  0.00328171  0.75322807  0.93531946  1
  O2-  O138  1  0.49089534  0.24822532  0.27158910  1
  O2-  O139  1  0.49414220  0.24364097  0.60096027  1
  O2-  O140  1  0.49502907  0.25373192  0.94084143  1
  O2-  O141  1  0.49964016  0.74982082  0.26721043  1
  O2-  O142  1  0.50063461  0.74696427  0.61239485  1
  O2-  O143  1  0.50033473  0.74794504  0.94204610  1
  O2-  O144  1  0.07361434  0.18325400  0.09744108  1
  O2-  O145  1  0.06881597  0.18338120  0.43535513  1
  O2-  O146  1  0.06965567  0.18336469  0.75877587  1
  O2-  O147  1  0.07303101  0.67919373  0.09950907  1
  O2-  O148  1  0.06560914  0.66573330  0.42198010  1
  O2-  O149  1  0.06350175  0.67488219  0.76324655  1
  O2-  O150  1  0.56785234  0.17838345  0.09869743  1
  O2-  O151  1  0.57500743  0.18195415  0.43116228  1
  O2-  O152  1  0.57255224  0.17981219  0.76447859  1
  O2-  O153  1  0.56826034  0.67429527  0.09026030  1
  O2-  O154  1  0.57000293  0.67815279  0.43260089  1
  O2-  O155  1  0.57248241  0.67758992  0.76049119  1
  O2-  O156  1  0.17667308  0.42978036  0.24416418  1
  O2-  O157  1  0.17659738  0.43251666  0.56841589  1
  O2-  O158  1  0.17846911  0.43020985  0.91190231  1
  O2-  O159  1  0.17358525  0.93176246  0.23126488  1
  O2-  O160  1  0.17895826  0.93181253  0.56943756  1
  O2-  O161  1  0.18254756  0.92598398  0.90846263  1
  O2-  O162  1  0.68240122  0.42710969  0.24499981  1
  O2-  O163  1  0.68018861  0.42929404  0.57770471  1
  O2-  O164  1  0.67640871  0.43048176  0.91206025  1
  O2-  O165  1  0.68254240  0.92929836  0.23418064  1
  O2-  O166  1  0.68021160  0.92263789  0.57672026  1
  O2-  O167  1  0.67993041  0.93123582  0.90038878  1
  O2-  O168  1  0.43123386  0.33324821  0.08792158  1
  O2-  O169  1  0.43084626  0.32459657  0.42129710  1
  O2-  O170  1  0.43295810  0.32536041  0.76365449  1
  O2-  O171  1  0.42782626  0.81862935  0.08844783  1
  O2-  O172  1  0.42896467  0.81907334  0.43161345  1
  O2-  O173  1  0.43225429  0.81890235  0.75811794  1
  O2-  O174  1  0.93155935  0.32301070  0.09014211  1
  O2-  O175  1  0.92506569  0.32672832  0.42263665  1
  O2-  O176  1  0.92878791  0.32426565  0.75885843  1
  O2-  O177  1  0.92553332  0.81727197  0.09673532  1
  O2-  O178  1  0.92968312  0.82097815  0.43122121  1
  O2-  O179  1  0.92289585  0.81687866  0.76103508  1
  O2-  O180  1  0.31860791  0.07066471  0.23436495  1
  O2-  O181  1  0.32138020  0.06877112  0.56850811  1
  O2-  O182  1  0.32058594  0.06894111  0.90104329  1
  O2-  O183  1  0.32039660  0.56802126  0.23289362  1
  O2-  O184  1  0.32868959  0.56814686  0.57963511  1
  O2-  O185  1  0.33066650  0.57132765  0.91060651  1
  O2-  O186  1  0.82057893  0.07574579  0.24082743  1
  O2-  O187  1  0.81940465  0.07467330  0.56593079  1
  O2-  O188  1  0.82111464  0.07776123  0.91183763  1
  O2-  O189  1  0.82196479  0.56863518  0.24704293  1
  O2-  O190  1  0.81687231  0.56797385  0.57650953  1
  O2-  O191  1  0.81714302  0.56655625  0.90190435  1
  O2-  O192  1  0.03842843  0.08900504  0.26218708  1
  O2-  O193  1  0.04290859  0.08831145  0.60790363  1
  O2-  O194  1  0.04636689  0.08379177  0.92816281  1
  O2-  O195  1  0.04046979  0.58347803  0.26813859  1
  O2-  O196  1  0.03530423  0.58165993  0.59649600  1
  O2-  O197  1  0.03949725  0.57955980  0.93669854  1
  O2-  O198  1  0.54309285  0.08089032  0.26526760  1
  O2-  O199  1  0.54915371  0.07553107  0.60072537  1
  O2-  O200  1  0.53742606  0.08176513  0.93127416  1
  O2-  O201  1  0.54524420  0.57849461  0.26618325  1
  O2-  O202  1  0.54719016  0.58527012  0.60823897  1
  O2-  O203  1  0.54229575  0.58566414  0.93691068  1
  O2-  O204  1  0.16668634  0.21465982  0.26609919  1
  O2-  O205  1  0.16134359  0.21206219  0.60786220  1
  O2-  O206  1  0.16785594  0.21735451  0.93135715  1
  O2-  O207  1  0.16782901  0.69348057  0.27628427  1
  O2-  O208  1  0.17612121  0.69234226  0.60534204  1
  O2-  O209  1  0.17264403  0.69892111  0.93190530  1
  O2-  O210  1  0.66517781  0.21500902  0.26331662  1
  O2-  O211  1  0.66809988  0.21262241  0.59900292  1
  O2-  O212  1  0.66721581  0.20772351  0.93329320  1
  O2-  O213  1  0.67026421  0.70531077  0.26762435  1
  O2-  O214  1  0.66365554  0.70434271  0.60676017  1
  O2-  O215  1  0.66194245  0.70470920  0.93903825  1
  O2-  O216  1  0.08867868  0.45590760  0.06657561  1
  O2-  O217  1  0.08232124  0.45291671  0.39556415  1
  O2-  O218  1  0.08124291  0.46098696  0.73650167  1
  O2-  O219  1  0.07998446  0.94841713  0.05334248  1
  O2-  O220  1  0.07765117  0.96479326  0.39712911  1
  O2-  O221  1  0.07784193  0.95126288  0.73354318  1
  O2-  O222  1  0.58301340  0.45415537  0.06352637  1
  O2-  O223  1  0.58860567  0.45475868  0.39796617  1
  O2-  O224  1  0.58721483  0.45654826  0.73103309  1
  O2-  O225  1  0.58478971  0.96221406  0.06758840  1
  O2-  O226  1  0.58322822  0.95565652  0.39986501  1
  O2-  O227  1  0.58453842  0.94607225  0.72765493  1
  O2-  O228  1  0.21042952  0.34043593  0.06588138  1
  O2-  O229  1  0.20326192  0.33655324  0.39679799  1
  O2-  O230  1  0.20914236  0.33642887  0.73916820  1
  O2-  O231  1  0.20694620  0.83416747  0.05934830  1
  O2-  O232  1  0.19664735  0.82966435  0.39798585  1
  O2-  O233  1  0.20835238  0.82800221  0.73404387  1
  O2-  O234  1  0.70136075  0.33296842  0.06274993  1
  O2-  O235  1  0.71117728  0.33747567  0.39881863  1
  O2-  O236  1  0.70794297  0.33835854  0.73174034  1
  O2-  O237  1  0.70758213  0.83290341  0.06760766  1
  O2-  O238  1  0.71331966  0.83283036  0.40138388  1
  O2-  O239  1  0.70841162  0.83276877  0.72953399  1
  O2-  O240  1  0.46122029  0.41293809  0.26823032  1
  O2-  O241  1  0.46253835  0.41742165  0.59591572  1
  O2-  O242  1  0.45678722  0.41750430  0.93306080  1
  O2-  O243  1  0.45622897  0.91846647  0.26380433  1
  O2-  O244  1  0.45845684  0.90934607  0.60320480  1
  O2-  O245  1  0.46170591  0.90981599  0.93550384  1
  O2-  O246  1  0.95307778  0.41890310  0.27069584  1
  O2-  O247  1  0.95736955  0.41213445  0.60384719  1
  O2-  O248  1  0.95852723  0.41444790  0.93868156  1
  O2-  O249  1  0.95594538  0.91789527  0.26152043  1
  O2-  O250  1  0.95247568  0.92387818  0.59750337  1
  O2-  O251  1  0.94510441  0.92133159  0.93119942  1
  O2-  O252  1  0.33227856  0.30608532  0.27178853  1
  O2-  O253  1  0.32569197  0.30229468  0.60068688  1
  O2-  O254  1  0.33390259  0.30290736  0.93937802  1
  O2-  O255  1  0.32758158  0.79074353  0.26573824  1
  O2-  O256  1  0.33831441  0.79208074  0.60537137  1
  O2-  O257  1  0.33930956  0.79183575  0.93390166  1
  O2-  O258  1  0.83445407  0.30189423  0.26801606  1
  O2-  O259  1  0.83562770  0.29758812  0.60669810  1
  O2-  O260  1  0.83311597  0.30323319  0.94001452  1
  O2-  O261  1  0.83609792  0.78432528  0.26575708  1
  O2-  O262  1  0.83347308  0.78638792  0.59440209  1
  O2-  O263  1  0.82879092  0.78475258  0.93133096  1
  O2-  O264  1  0.41411498  0.03405274  0.06639454  1
  O2-  O265  1  0.42023166  0.04388622  0.39931006  1
  O2-  O266  1  0.42022455  0.03739424  0.73343890  1
  O2-  O267  1  0.41390634  0.54206458  0.06510844  1
  O2-  O268  1  0.41778972  0.53805269  0.40019293  1
  O2-  O269  1  0.41757224  0.54072240  0.73265755  1
  O2-  O270  1  0.92053834  0.05130461  0.05903511  1
  O2-  O271  1  0.91423455  0.04747356  0.39089893  1
  O2-  O272  1  0.91514404  0.04274880  0.73535080  1
  O2-  O273  1  0.91522088  0.53627787  0.07241878  1
  O2-  O274  1  0.91166126  0.54130021  0.40057673  1
  O2-  O275  1  0.90960316  0.53844233  0.72891138  1
  O2-  O276  1  0.29448863  0.17010717  0.06581907  1
  O2-  O277  1  0.29447560  0.17195659  0.39860729  1
  O2-  O278  1  0.29677606  0.17067216  0.73311193  1
  O2-  O279  1  0.29719568  0.66538804  0.06143784  1
  O2-  O280  1  0.29456927  0.66674872  0.40297852  1
  O2-  O281  1  0.30626282  0.66577898  0.73059878  1
  O2-  O282  1  0.79940121  0.16907702  0.06308267  1
  O2-  O283  1  0.79849841  0.17026843  0.39093256  1
  O2-  O284  1  0.79128491  0.16891081  0.73576616  1
  O2-  O285  1  0.78736902  0.66352844  0.07078956  1
  O2-  O286  1  0.79182152  0.66145262  0.40027105  1
  O2-  O287  1  0.79116026  0.66151182  0.72886634  1
