# generated using pymatgen
data_Ca2Al2SiO7
_symmetry_space_group_name_H-M   'P 1'
_cell_length_a   15.45460724
_cell_length_b   15.45405280
_cell_length_c   15.28101618
_cell_angle_alpha   90.00615398
_cell_angle_beta   89.99584173
_cell_angle_gamma   90.00498942
_symmetry_Int_Tables_number   1
_chemical_formula_structural   Ca2Al2SiO7
_chemical_formula_sum   'Ca48 Al48 Si24 O168'
_cell_volume   3649.66157030
_cell_formula_units_Z   24
loop_
 _symmetry_equiv_pos_site_id
 _symmetry_equiv_pos_as_xyz
  1  'x, y, z'
loop_
 _atom_type_symbol
 _atom_type_oxidation_number
  Ca2+  2.0
  Al0+  0.0
  Si0+  0.0
  O2-  -2.0
loop_
 _atom_site_type_symbol
 _atom_site_label
 _atom_site_symmetry_multiplicity
 _atom_site_fract_x
 _atom_site_fract_y
 _atom_site_fract_z
 _atom_site_occupancy
  Ca2+  Ca0  1  0.15717748  0.07309139  0.16849445  1
  Ca2+  Ca1  1  0.16299421  0.07816638  0.50144425  1
  Ca2+  Ca2  1  0.16258157  0.08199527  0.84039095  1
  Ca2+  Ca3  1  0.17315613  0.58470013  0.16605817  1
  Ca2+  Ca4  1  0.17855655  0.58296669  0.50455886  1
  Ca2+  Ca5  1  0.17548171  0.57660504  0.84219995  1
  Ca2+  Ca6  1  0.67867575  0.08003931  0.16947567  1
  Ca2+  Ca7  1  0.66948410  0.08239229  0.50579701  1
  Ca2+  Ca8  1  0.66474915  0.07640097  0.83782043  1
  Ca2+  Ca9  1  0.66786711  0.57678076  0.17311977  1
  Ca2+  Ca10  1  0.67173857  0.57139863  0.50778417  1
  Ca2+  Ca11  1  0.67255427  0.57807117  0.83004362  1
  Ca2+  Ca12  1  0.07791575  0.33001336  0.15743045  1
  Ca2+  Ca13  1  0.07196780  0.32943556  0.49724661  1
  Ca2+  Ca14  1  0.08385308  0.32317457  0.82555389  1
  Ca2+  Ca15  1  0.08409186  0.83368159  0.16276332  1
  Ca2+  Ca16  1  0.07800126  0.83173489  0.49035450  1
  Ca2+  Ca17  1  0.08747285  0.82815427  0.83446668  1
  Ca2+  Ca18  1  0.57874447  0.33911327  0.16899596  1
  Ca2+  Ca19  1  0.58083191  0.33952834  0.49683245  1
  Ca2+  Ca20  1  0.57950517  0.32698330  0.82140578  1
  Ca2+  Ca21  1  0.57732846  0.83627053  0.16326629  1
  Ca2+  Ca22  1  0.57305110  0.83580740  0.49684215  1
  Ca2+  Ca23  1  0.57915257  0.83776300  0.82308613  1
  Ca2+  Ca24  1  0.32802876  0.42449382  0.17318794  1
  Ca2+  Ca25  1  0.34319597  0.42552080  0.50542812  1
  Ca2+  Ca26  1  0.33342002  0.42488305  0.83966266  1
  Ca2+  Ca27  1  0.32075663  0.91246379  0.17269815  1
  Ca2+  Ca28  1  0.32977366  0.90953477  0.50344857  1
  Ca2+  Ca29  1  0.33034730  0.91903018  0.83800210  1
  Ca2+  Ca30  1  0.82773088  0.41324507  0.17676855  1
  Ca2+  Ca31  1  0.82779169  0.41339869  0.50724278  1
  Ca2+  Ca32  1  0.83388751  0.41280584  0.82866116  1
  Ca2+  Ca33  1  0.83972840  0.92897210  0.17184064  1
  Ca2+  Ca34  1  0.83120037  0.92209639  0.50475199  1
  Ca2+  Ca35  1  0.81905769  0.92365416  0.84137185  1
  Ca2+  Ca36  1  0.41463245  0.17399425  0.16539284  1
  Ca2+  Ca37  1  0.42571234  0.17903545  0.49823972  1
  Ca2+  Ca38  1  0.42184439  0.17458445  0.82006315  1
  Ca2+  Ca39  1  0.40940485  0.66689083  0.16715434  1
  Ca2+  Ca40  1  0.41081268  0.67247541  0.49539504  1
  Ca2+  Ca41  1  0.41157562  0.67044927  0.82799239  1
  Ca2+  Ca42  1  0.91521507  0.16740242  0.16338898  1
  Ca2+  Ca43  1  0.91401901  0.17435179  0.49691690  1
  Ca2+  Ca44  1  0.92581078  0.16633346  0.82910627  1
  Ca2+  Ca45  1  0.92269405  0.67600385  0.15958648  1
  Ca2+  Ca46  1  0.91321094  0.67178324  0.49432864  1
  Ca2+  Ca47  1  0.92339028  0.66140153  0.82839523  1
  Al0+  Al48  1  -0.00148663  0.00131025  0.00121697  1
  Al0+  Al49  1  -0.00053731  -0.00104869  0.34019007  1
  Al0+  Al50  1  0.00033300  -0.00269099  0.66519456  1
  Al0+  Al51  1  -0.00056889  0.50138108  -0.00113596  1
  Al0+  Al52  1  0.00134019  0.49912861  0.32809535  1
  Al0+  Al53  1  0.00283300  0.49952543  0.66507459  1
  Al0+  Al54  1  0.49966178  0.00110296  0.00440019  1
  Al0+  Al55  1  0.49905440  0.00024741  0.32623338  1
  Al0+  Al56  1  0.49715882  0.00035348  0.66106504  1
  Al0+  Al57  1  0.50089060  0.50351640  0.00223397  1
  Al0+  Al58  1  0.50037603  0.50015104  0.33620345  1
  Al0+  Al59  1  0.50257365  0.50288575  0.67424391  1
  Al0+  Al60  1  0.24867278  0.25232600  -0.00133767  1
  Al0+  Al61  1  0.25052242  0.24859037  0.32946817  1
  Al0+  Al62  1  0.25055647  0.24814772  0.65595910  1
  Al0+  Al63  1  0.24969470  0.75097304  0.00184887  1
  Al0+  Al64  1  0.25009435  0.74966344  0.33754961  1
  Al0+  Al65  1  0.24916559  0.74872319  0.66764518  1
  Al0+  Al66  1  0.74810332  0.24985560  0.00252614  1
  Al0+  Al67  1  0.75072565  0.24854908  0.33692787  1
  Al0+  Al68  1  0.75204711  0.24810036  0.66648207  1
  Al0+  Al69  1  0.74640598  0.74900000  0.00253404  1
  Al0+  Al70  1  0.74988085  0.75109732  0.32635179  1
  Al0+  Al71  1  0.75023700  0.74992509  0.67470386  1
  Al0+  Al72  1  0.07240457  0.17470675  0.64906667  1
  Al0+  Al73  1  0.18057149  0.93105637  0.01186320  1
  Al0+  Al74  1  0.82421973  0.57141017  0.68103337  1
  Al0+  Al75  1  0.17707920  0.42716226  0.01436610  1
  Al0+  Al76  1  0.68130235  0.43071232  0.34669030  1
  Al0+  Al77  1  0.42993154  0.32273618  0.31800559  1
  Al0+  Al78  1  0.32132377  0.57083562  0.01677935  1
  Al0+  Al79  1  0.43086317  0.32508664  0.65291183  1
  Al0+  Al80  1  0.07000233  0.17936859  0.98740978  1
  Al0+  Al81  1  0.67700620  0.93118973  0.67771911  1
  Al0+  Al82  1  0.57209275  0.17762029  0.65247323  1
  Al0+  Al83  1  0.92871154  0.32016567  0.31857827  1
  Al0+  Al84  1  0.31832244  0.56807929  0.34882070  1
  Al0+  Al85  1  0.42790163  0.82067170  0.31778674  1
  Al0+  Al86  1  0.67556863  0.92685755  0.01731211  1
  Al0+  Al87  1  0.68023034  0.42633288  0.68347306  1
  Al0+  Al88  1  0.07084873  0.68035043  0.98535575  1
  Al0+  Al89  1  0.93081765  0.32136331  0.65191596  1
  Al0+  Al90  1  0.81999684  0.06912661  0.35031901  1
  Al0+  Al91  1  0.92845740  0.82162090  0.31994065  1
  Al0+  Al92  1  0.18124723  0.93053713  0.34876166  1
  Al0+  Al93  1  0.81961484  0.07059548  0.01468411  1
  Al0+  Al94  1  0.42826046  0.81901362  0.65402837  1
  Al0+  Al95  1  0.32102848  0.57101106  0.68185143  1
  Si0+  Si96  1  0.07117986  0.17740078  0.31596809  1
  Si0+  Si97  1  0.82460191  0.57403291  0.34605102  1
  Si0+  Si98  1  0.17936205  0.42605597  0.68058074  1
  Si0+  Si99  1  0.07155633  0.67945385  0.65136944  1
  Si0+  Si100  1  0.43023039  0.82057450  0.98564304  1
  Si0+  Si101  1  0.68007136  0.43002125  0.01548791  1
  Si0+  Si102  1  0.57233702  0.67740761  0.98270678  1
  Si0+  Si103  1  0.32464263  0.07404172  0.35072914  1
  Si0+  Si104  1  0.57002577  0.18022011  0.98643342  1
  Si0+  Si105  1  0.17590716  0.42423060  0.35048477  1
  Si0+  Si106  1  0.32307436  0.07477260  0.01556327  1
  Si0+  Si107  1  0.57496514  0.67963845  0.65126844  1
  Si0+  Si108  1  0.57275507  0.17803626  0.31389661  1
  Si0+  Si109  1  0.92484838  0.32286556  0.98350181  1
  Si0+  Si110  1  0.17807898  0.92819354  0.68249862  1
  Si0+  Si111  1  0.92776609  0.81889166  0.65406695  1
  Si0+  Si112  1  0.82220306  0.57183280  0.01603727  1
  Si0+  Si113  1  0.67570210  0.92654529  0.34941445  1
  Si0+  Si114  1  0.92626182  0.82227062  0.98214465  1
  Si0+  Si115  1  0.82405168  0.07076040  0.68428828  1
  Si0+  Si116  1  0.31919230  0.07086347  0.67889321  1
  Si0+  Si117  1  0.43000278  0.32319884  0.98614140  1
  Si0+  Si118  1  0.57124360  0.67830009  0.31662285  1
  Si0+  Si119  1  0.07274017  0.67863704  0.31673654  1
  O2-  O120  1  0.25253088  0.00786702  0.05946756  1
  O2-  O121  1  0.25724896  0.00402305  0.39544984  1
  O2-  O122  1  0.24638494  0.00234929  0.72324533  1
  O2-  O123  1  0.24937353  0.49827868  0.06544561  1
  O2-  O124  1  0.24599862  0.49108142  0.39570769  1
  O2-  O125  1  0.25171998  0.49041800  0.72604169  1
  O2-  O126  1  0.75144069  -0.00493697  0.06582003  1
  O2-  O127  1  0.74421101  -0.00584198  0.39498738  1
  O2-  O128  1  0.75014274  0.00643592  0.72662363  1
  O2-  O129  1  0.75376702  0.49825591  0.05792826  1
  O2-  O130  1  0.75878585  0.50367142  0.39098500  1
  O2-  O131  1  0.75506305  0.49688595  0.73234879  1
  O2-  O132  1  0.00595605  0.24887694  0.27094906  1
  O2-  O133  1  -0.00015244  0.24676828  0.60107363  1
  O2-  O134  1  -0.00296081  0.25647772  0.94155243  1
  O2-  O135  1  0.00066475  0.74447337  0.27340536  1
  O2-  O136  1  -0.00293329  0.74700306  0.61004593  1
  O2-  O137  1  -0.00614281  0.75272148  0.93682893  1
  O2-  O138  1  0.50275289  0.24635630  0.26985157  1
  O2-  O139  1  0.50736215  0.25698383  0.60336570  1
  O2-  O140  1  0.49761826  0.24934366  0.94373463  1
  O2-  O141  1  0.50454755  0.74838061  0.27066086  1
  O2-  O142  1  0.50385940  0.74556888  0.60664318  1
  O2-  O143  1  0.50393719  0.75258971  0.94296880  1
  O2-  O144  1  0.06789482  0.17849426  0.10032160  1
  O2-  O145  1  0.06979099  0.17811253  0.42144761  1
  O2-  O146  1  0.07168939  0.17339074  0.76306485  1
  O2-  O147  1  0.06939269  0.68310029  0.09844860  1
  O2-  O148  1  0.07251775  0.68000540  0.42283061  1
  O2-  O149  1  0.07348132  0.68203265  0.75647087  1
  O2-  O150  1  0.57047455  0.18252271  0.09138678  1
  O2-  O151  1  0.57168359  0.17689427  0.41916101  1
  O2-  O152  1  0.56605653  0.17561292  0.76692548  1
  O2-  O153  1  0.57270775  0.67330738  0.08765552  1
  O2-  O154  1  0.57230658  0.67921025  0.42192660  1
  O2-  O155  1  0.57522804  0.68262117  0.75727049  1
  O2-  O156  1  0.17596460  0.42570139  0.24490480  1
  O2-  O157  1  0.17707844  0.43113071  0.57502421  1
  O2-  O158  1  0.18106474  0.42593444  0.90054039  1
  O2-  O159  1  0.18074891  0.93097841  0.23546929  1
  O2-  O160  1  0.17854467  0.92581420  0.57756579  1
  O2-  O161  1  0.18400740  0.93036279  0.89836470  1
  O2-  O162  1  0.68128755  0.43304648  0.23261816  1
  O2-  O163  1  0.67993034  0.43042821  0.57003485  1
  O2-  O164  1  0.67907669  0.42982926  0.91095344  1
  O2-  O165  1  0.67648596  0.92865882  0.24393756  1
  O2-  O166  1  0.67963629  0.93013392  0.56467400  1
  O2-  O167  1  0.67267715  0.93046894  0.90341256  1
  O2-  O168  1  0.43239620  0.32314521  0.09133927  1
  O2-  O169  1  0.43356481  0.32381228  0.43055130  1
  O2-  O170  1  0.42899266  0.32043518  0.76736396  1
  O2-  O171  1  0.42989870  0.81879734  0.09064099  1
  O2-  O172  1  0.42820329  0.81861430  0.43092276  1
  O2-  O173  1  0.42723439  0.81971274  0.76767882  1
  O2-  O174  1  0.92253299  0.32141117  0.08928794  1
  O2-  O175  1  0.92867332  0.31991294  0.43108746  1
  O2-  O176  1  0.93451517  0.32082516  0.76596230  1
  O2-  O177  1  0.92840586  0.82087468  0.08790345  1
  O2-  O178  1  0.92874102  0.81898258  0.43370348  1
  O2-  O179  1  0.93023875  0.82000369  0.75904398  1
  O2-  O180  1  0.32297869  0.07425353  0.24473601  1
  O2-  O181  1  0.31978794  0.06827039  0.57414275  1
  O2-  O182  1  0.32625716  0.07208382  0.90966115  1
  O2-  O183  1  0.31634130  0.56869689  0.23590619  1
  O2-  O184  1  0.31729096  0.57450627  0.56884963  1
  O2-  O185  1  0.32182724  0.56989652  0.90313015  1
  O2-  O186  1  0.82032518  0.06910864  0.23719645  1
  O2-  O187  1  0.82616108  0.06655054  0.57879425  1
  O2-  O188  1  0.81697887  0.07075860  0.90108707  1
  O2-  O189  1  0.82220170  0.57369815  0.24000866  1
  O2-  O190  1  0.82119731  0.57543582  0.56743279  1
  O2-  O191  1  0.82109566  0.57274115  0.91124581  1
  O2-  O192  1  0.04049680  0.08406238  0.27278066  1
  O2-  O193  1  0.04409377  0.07518981  0.59743676  1
  O2-  O194  1  0.03844123  0.08304201  0.93198398  1
  O2-  O195  1  0.05233989  0.58423430  0.27011664  1
  O2-  O196  1  0.04942317  0.58700974  0.60357536  1
  O2-  O197  1  0.04126507  0.58315637  0.93088410  1
  O2-  O198  1  0.54779154  0.08503914  0.26550012  1
  O2-  O199  1  0.53578320  0.08402113  0.59498930  1
  O2-  O200  1  0.54337409  0.08706677  0.94061387  1
  O2-  O201  1  0.54253761  0.58594522  0.26954060  1
  O2-  O202  1  0.55183603  0.58475453  0.60829646  1
  O2-  O203  1  0.54118524  0.58726332  0.93333481  1
  O2-  O204  1  0.16665852  0.19614549  0.27075368  1
  O2-  O205  1  0.16984617  0.20011742  0.59324943  1
  O2-  O206  1  0.16815079  0.20660151  0.93254506  1
  O2-  O207  1  0.16418512  0.71023309  0.27077427  1
  O2-  O208  1  0.16054286  0.71305663  0.60200419  1
  O2-  O209  1  0.16690198  0.71445017  0.93124032  1
  O2-  O210  1  0.66564972  0.20663587  0.26858073  1
  O2-  O211  1  0.67383408  0.19528012  0.60400760  1
  O2-  O212  1  0.66089387  0.20965770  0.93809890  1
  O2-  O213  1  0.66481035  0.70079042  0.26750522  1
  O2-  O214  1  0.66810069  0.70678933  0.60533053  1
  O2-  O215  1  0.66528708  0.70117475  0.93510892  1
  O2-  O216  1  0.07781239  0.45556878  0.06592635  1
  O2-  O217  1  0.08218336  0.45241207  0.39549969  1
  O2-  O218  1  0.08821001  0.45546126  0.72894830  1
  O2-  O219  1  0.08299756  0.95859902  0.06503121  1
  O2-  O220  1  0.08588958  0.96102170  0.40509979  1
  O2-  O221  1  0.08533291  0.95232738  0.73003372  1
  O2-  O222  1  0.58992250  0.46258211  0.06370057  1
  O2-  O223  1  0.58655614  0.46438725  0.40125285  1
  O2-  O224  1  0.58428512  0.45838194  0.74006432  1
  O2-  O225  1  0.57886117  0.95902217  0.07182014  1
  O2-  O226  1  0.58057348  0.95235899  0.39232116  1
  O2-  O227  1  0.57907454  0.96112680  0.73072238  1
  O2-  O228  1  0.20462666  0.32905373  0.06875876  1
  O2-  O229  1  0.19892013  0.32903048  0.39361570  1
  O2-  O230  1  0.20082331  0.32923521  0.72167020  1
  O2-  O231  1  0.21366093  0.83664046  0.06779215  1
  O2-  O232  1  0.21125051  0.83427339  0.40384152  1
  O2-  O233  1  0.20951736  0.83787613  0.73066407  1
  O2-  O234  1  0.70400301  0.33779987  0.06382980  1
  O2-  O235  1  0.70858429  0.33357587  0.39940766  1
  O2-  O236  1  0.70650324  0.32667215  0.73615723  1
  O2-  O237  1  0.69646132  0.82558930  0.06742377  1
  O2-  O238  1  0.70002696  0.83126574  0.39220111  1
  O2-  O239  1  0.70796904  0.83624148  0.73511615  1
  O2-  O240  1  0.46422571  0.41833269  0.26361416  1
  O2-  O241  1  0.45734970  0.42583655  0.60422009  1
  O2-  O242  1  0.46160121  0.41453487  0.94009895  1
  O2-  O243  1  0.45409753  0.91796356  0.26208889  1
  O2-  O244  1  0.45609278  0.91480486  0.59791671  1
  O2-  O245  1  0.45501081  0.91485804  0.94054068  1
  O2-  O246  1  0.95480183  0.41831896  0.26357292  1
  O2-  O247  1  0.96005770  0.41954805  0.59775578  1
  O2-  O248  1  0.94587870  0.41815762  0.93969006  1
  O2-  O249  1  0.96428158  0.91729072  0.26775386  1
  O2-  O250  1  0.95711687  0.90925596  0.60490158  1
  O2-  O251  1  0.95269488  0.91545607  0.93659748  1
  O2-  O252  1  0.33258162  0.29257111  0.26379622  1
  O2-  O253  1  0.33483036  0.29445415  0.59703071  1
  O2-  O254  1  0.33723912  0.29921691  0.93952929  1
  O2-  O255  1  0.33154747  0.78602416  0.26546688  1
  O2-  O256  1  0.33194170  0.78619541  0.60006026  1
  O2-  O257  1  0.33924135  0.79138927  0.93763124  1
  O2-  O258  1  0.83222582  0.28678996  0.26538521  1
  O2-  O259  1  0.83138693  0.29521924  0.60078866  1
  O2-  O260  1  0.83177472  0.29401489  0.93737753  1
  O2-  O261  1  0.83219871  0.79539179  0.26225777  1
  O2-  O262  1  0.83550234  0.79218628  0.60734409  1
  O2-  O263  1  0.83067315  0.79664077  0.93984827  1
  O2-  O264  1  0.41489962  0.04878207  0.06471964  1
  O2-  O265  1  0.41959843  0.04919671  0.39351831  1
  O2-  O266  1  0.40930479  0.04039607  0.72836476  1
  O2-  O267  1  0.42048166  0.54394748  0.06945594  1
  O2-  O268  1  0.41609637  0.54047719  0.40137829  1
  O2-  O269  1  0.41921221  0.54957527  0.73633855  1
  O2-  O270  1  0.91779467  0.04367913  0.06863576  1
  O2-  O271  1  0.91470275  0.03682480  0.40617382  1
  O2-  O272  1  0.91575969  0.03807793  0.73118922  1
  O2-  O273  1  0.91481454  0.54889658  0.06335798  1
  O2-  O274  1  0.92008509  0.55268234  0.38968074  1
  O2-  O275  1  0.92412954  0.54501967  0.73308946  1
  O2-  O276  1  0.29985164  0.16919705  0.06000295  1
  O2-  O277  1  0.29861614  0.16770381  0.39648502  1
  O2-  O278  1  0.29435688  0.16412042  0.72545102  1
  O2-  O279  1  0.29068310  0.66888856  0.06839610  1
  O2-  O280  1  0.28535058  0.66367843  0.40340192  1
  O2-  O281  1  0.28310295  0.66554145  0.73662206  1
  O2-  O282  1  0.78730396  0.16794887  0.06898579  1
  O2-  O283  1  0.78817148  0.16470330  0.40462758  1
  O2-  O284  1  0.80574139  0.16588536  0.72862605  1
  O2-  O285  1  0.79158380  0.66250287  0.06434834  1
  O2-  O286  1  0.79721581  0.66802228  0.39064519  1
  O2-  O287  1  0.79406045  0.66748549  0.73906514  1
