# generated using pymatgen
data_Ca2Al2SiO7
_symmetry_space_group_name_H-M   'P 1'
_cell_length_a   15.45771809
_cell_length_b   15.45898841
_cell_length_c   15.28339674
_cell_angle_alpha   89.97998337
_cell_angle_beta   90.00909389
_cell_angle_gamma   89.98674771
_symmetry_Int_Tables_number   1
_chemical_formula_structural   Ca2Al2SiO7
_chemical_formula_sum   'Ca48 Al48 Si24 O168'
_cell_volume   3652.13058359
_cell_formula_units_Z   24
loop_
 _symmetry_equiv_pos_site_id
 _symmetry_equiv_pos_as_xyz
  1  'x, y, z'
loop_
 _atom_type_symbol
 _atom_type_oxidation_number
  Ca2+  2.0
  Al0+  0.0
  Si0+  0.0
  O2-  -2.0
loop_
 _atom_site_type_symbol
 _atom_site_label
 _atom_site_symmetry_multiplicity
 _atom_site_fract_x
 _atom_site_fract_y
 _atom_site_fract_z
 _atom_site_occupancy
  Ca2+  Ca0  1  0.16485525  0.08726721  0.16805452  1
  Ca2+  Ca1  1  0.16967111  0.09005070  0.50774552  1
  Ca2+  Ca2  1  0.17601175  0.08762318  0.84052897  1
  Ca2+  Ca3  1  0.16366528  0.57650309  0.17228748  1
  Ca2+  Ca4  1  0.16941374  0.57402798  0.50877787  1
  Ca2+  Ca5  1  0.17022573  0.58913387  0.83723700  1
  Ca2+  Ca6  1  0.67015370  0.08994241  0.17449612  1
  Ca2+  Ca7  1  0.66863888  0.08543660  0.50700234  1
  Ca2+  Ca8  1  0.65660108  0.07882115  0.83648150  1
  Ca2+  Ca9  1  0.67135381  0.58563758  0.16707338  1
  Ca2+  Ca10  1  0.67255676  0.57473090  0.51561880  1
  Ca2+  Ca11  1  0.67172727  0.58289784  0.83658746  1
  Ca2+  Ca12  1  0.08374267  0.32610424  0.16867784  1
  Ca2+  Ca13  1  0.08056889  0.32477793  0.49313526  1
  Ca2+  Ca14  1  0.08403192  0.32335078  0.82900216  1
  Ca2+  Ca15  1  0.07760660  0.83342030  0.15926047  1
  Ca2+  Ca16  1  0.07862490  0.82511861  0.49641509  1
  Ca2+  Ca17  1  0.08872142  0.82489649  0.83013778  1
  Ca2+  Ca18  1  0.57996590  0.32242265  0.16510474  1
  Ca2+  Ca19  1  0.57482306  0.33200542  0.49685472  1
  Ca2+  Ca20  1  0.57918294  0.32329260  0.82310346  1
  Ca2+  Ca21  1  0.58122287  0.82811457  0.16040120  1
  Ca2+  Ca22  1  0.59085464  0.82903962  0.50425070  1
  Ca2+  Ca23  1  0.58837328  0.82416312  0.82685128  1
  Ca2+  Ca24  1  0.32826867  0.41424160  0.17393118  1
  Ca2+  Ca25  1  0.33126465  0.41141797  0.50531137  1
  Ca2+  Ca26  1  0.33924510  0.41964062  0.82990332  1
  Ca2+  Ca27  1  0.32606208  0.92256458  0.16426210  1
  Ca2+  Ca28  1  0.33128785  0.92677040  0.50871866  1
  Ca2+  Ca29  1  0.32900259  0.93033272  0.83984336  1
  Ca2+  Ca30  1  0.83921935  0.42199331  0.17181977  1
  Ca2+  Ca31  1  0.82815059  0.41666259  0.50888776  1
  Ca2+  Ca32  1  0.82895858  0.42558362  0.83382464  1
  Ca2+  Ca33  1  0.83414863  0.92318807  0.17502847  1
  Ca2+  Ca34  1  0.83171282  0.92159582  0.50128716  1
  Ca2+  Ca35  1  0.82671415  0.91544384  0.83180147  1
  Ca2+  Ca36  1  0.42211536  0.16844555  0.16245686  1
  Ca2+  Ca37  1  0.42383878  0.17422466  0.49898025  1
  Ca2+  Ca38  1  0.41978426  0.16680747  0.82444823  1
  Ca2+  Ca39  1  0.42287366  0.66873986  0.15912600  1
  Ca2+  Ca40  1  0.42183667  0.65921843  0.50350826  1
  Ca2+  Ca41  1  0.42605530  0.66551160  0.82379746  1
  Ca2+  Ca42  1  0.92275235  0.16923481  0.16606487  1
  Ca2+  Ca43  1  0.92463656  0.16893187  0.48931630  1
  Ca2+  Ca44  1  0.93114268  0.16185980  0.82907586  1
  Ca2+  Ca45  1  0.91918026  0.67267698  0.15875675  1
  Ca2+  Ca46  1  0.91595090  0.66961029  0.49936686  1
  Ca2+  Ca47  1  0.92407279  0.65919400  0.82869117  1
  Al0+  Al48  1  -0.00228942  0.00055484  -0.00215388  1
  Al0+  Al49  1  -0.00115606  -0.00294979  0.33126254  1
  Al0+  Al50  1  -0.00020188  -0.00280300  0.66313903  1
  Al0+  Al51  1  -0.00143338  0.50230461  0.00109796  1
  Al0+  Al52  1  0.00262824  0.49963492  0.33740197  1
  Al0+  Al53  1  0.00090625  0.49880780  0.66657127  1
  Al0+  Al54  1  0.49786362  -0.00002681  0.00339911  1
  Al0+  Al55  1  0.49922907  -0.00415173  0.33068729  1
  Al0+  Al56  1  0.49958716  -0.00103260  0.67133750  1
  Al0+  Al57  1  0.50122749  0.49953234  -0.00109137  1
  Al0+  Al58  1  0.50168502  0.50039519  0.32802748  1
  Al0+  Al59  1  0.49901473  0.49895172  0.66694037  1
  Al0+  Al60  1  0.24998131  0.25242032  0.00115790  1
  Al0+  Al61  1  0.25094584  0.25080567  0.33141300  1
  Al0+  Al62  1  0.25003035  0.24976216  0.66469947  1
  Al0+  Al63  1  0.24920409  0.75206299  0.00223622  1
  Al0+  Al64  1  0.25304164  0.75034742  0.33441840  1
  Al0+  Al65  1  0.24954913  0.74847327  0.66397134  1
  Al0+  Al66  1  0.74724823  0.25125823  -0.00492542  1
  Al0+  Al67  1  0.75154636  0.25137540  0.33149303  1
  Al0+  Al68  1  0.75231109  0.24925347  0.67170166  1
  Al0+  Al69  1  0.74999901  0.75002411  0.00171251  1
  Al0+  Al70  1  0.75114635  0.75076589  0.32965812  1
  Al0+  Al71  1  0.75121695  0.75193660  0.66979294  1
  Al0+  Al72  1  0.57086334  0.67998781  0.98565051  1
  Al0+  Al73  1  0.82197686  0.57147486  0.68153996  1
  Al0+  Al74  1  0.57290404  0.17548705  0.65263914  1
  Al0+  Al75  1  0.67712674  0.42637969  0.68251922  1
  Al0+  Al76  1  0.06963303  0.18014505  0.98584708  1
  Al0+  Al77  1  0.07230823  0.67749851  0.65197313  1
  Al0+  Al78  1  0.32049494  0.07376721  0.01807772  1
  Al0+  Al79  1  0.07143479  0.17765494  0.31827207  1
  Al0+  Al80  1  0.17687219  0.92947797  0.01515513  1
  Al0+  Al81  1  0.82002384  0.57012635  0.01617469  1
  Al0+  Al82  1  0.18071827  0.42889567  0.34820421  1
  Al0+  Al83  1  0.07018272  0.17801336  0.65351340  1
  Al0+  Al84  1  0.42982952  0.32097461  0.65175776  1
  Al0+  Al85  1  0.92951873  0.81845088  0.31904822  1
  Al0+  Al86  1  0.92840559  0.32344151  0.31942988  1
  Al0+  Al87  1  0.57106986  0.17702932  0.31975768  1
  Al0+  Al88  1  0.07016928  0.67981161  0.98760200  1
  Al0+  Al89  1  0.67983067  0.93164775  0.68023185  1
  Al0+  Al90  1  0.31865224  0.07136953  0.67880336  1
  Al0+  Al91  1  0.31983164  0.57101687  0.68019120  1
  Al0+  Al92  1  0.57211402  0.67953757  0.65360780  1
  Al0+  Al93  1  0.56993476  0.17843819  0.98518065  1
  Al0+  Al94  1  0.42929628  0.32210025  0.31644097  1
  Al0+  Al95  1  0.82007280  0.07154147  0.34573465  1
  Si0+  Si96  1  0.32106035  0.06929496  0.34849294  1
  Si0+  Si97  1  0.92687821  0.82312412  0.98157161  1
  Si0+  Si98  1  0.32482362  0.57311074  0.34938331  1
  Si0+  Si99  1  0.67691726  0.92636509  0.34926272  1
  Si0+  Si100  1  0.17829994  0.92700901  0.34943189  1
  Si0+  Si101  1  0.67706254  0.42740319  0.01941087  1
  Si0+  Si102  1  0.67932534  0.43052420  0.34701554  1
  Si0+  Si103  1  0.67900577  0.92908100  0.01617216  1
  Si0+  Si104  1  0.17832214  0.43099214  0.01482339  1
  Si0+  Si105  1  0.42732433  0.82137696  0.98277549  1
  Si0+  Si106  1  0.42797515  0.82118727  0.65033254  1
  Si0+  Si107  1  0.07408122  0.67856040  0.31782500  1
  Si0+  Si108  1  0.81965547  0.07256261  0.01382791  1
  Si0+  Si109  1  0.82082677  0.57299459  0.34811948  1
  Si0+  Si110  1  0.42708194  0.32257207  0.98265579  1
  Si0+  Si111  1  0.57116121  0.68011117  0.31857576  1
  Si0+  Si112  1  0.32274584  0.57170242  0.01452893  1
  Si0+  Si113  1  0.92750366  0.82108037  0.64876414  1
  Si0+  Si114  1  0.92880169  0.32154677  0.65188529  1
  Si0+  Si115  1  0.42680683  0.82149137  0.31655346  1
  Si0+  Si116  1  0.82513119  0.07223924  0.68383814  1
  Si0+  Si117  1  0.17634646  0.92671414  0.68120927  1
  Si0+  Si118  1  0.17840554  0.42762752  0.68519354  1
  Si0+  Si119  1  0.92695879  0.32396784  0.98219528  1
  O2-  O120  1  0.24482905  0.00437795  0.06747369  1
  O2-  O121  1  0.24615737  0.00147435  0.39096787  1
  O2-  O122  1  0.24170898  -0.00175565  0.72482403  1
  O2-  O123  1  0.25064716  0.50200975  0.05653593  1
  O2-  O124  1  0.25647679  0.50416360  0.39262467  1
  O2-  O125  1  0.24466457  0.49854421  0.72996217  1
  O2-  O126  1  0.74685765  0.00328714  0.05717682  1
  O2-  O127  1  0.74093174  0.00010622  0.39149685  1
  O2-  O128  1  0.75070539  0.00961065  0.72830170  1
  O2-  O129  1  0.74641358  0.49523214  0.06500542  1
  O2-  O130  1  0.75251551  0.49958308  0.38954964  1
  O2-  O131  1  0.74763153  0.50141265  0.73102938  1
  O2-  O132  1  -0.00130525  0.24986226  0.26915270  1
  O2-  O133  1  -0.00711222  0.24925131  0.60704796  1
  O2-  O134  1  -0.00596237  0.25359134  0.93814567  1
  O2-  O135  1  0.00538110  0.74562527  0.27171475  1
  O2-  O136  1  -0.00380535  0.75112293  0.60626015  1
  O2-  O137  1  -0.00244230  0.75575392  0.93910663  1
  O2-  O138  1  0.49860380  0.24725430  0.26730227  1
  O2-  O139  1  0.50495644  0.25122237  0.60306267  1
  O2-  O140  1  0.49351177  0.25145846  0.93999256  1
  O2-  O141  1  0.49848262  0.74969305  0.27662381  1
  O2-  O142  1  0.49650741  0.75257040  0.60466280  1
  O2-  O143  1  0.49536220  0.75284004  0.93800955  1
  O2-  O144  1  0.06745883  0.18159877  0.09856273  1
  O2-  O145  1  0.07066092  0.17863863  0.43192542  1
  O2-  O146  1  0.07046764  0.17929411  0.76697424  1
  O2-  O147  1  0.06804682  0.67915444  0.10097583  1
  O2-  O148  1  0.07387513  0.68104392  0.42333554  1
  O2-  O149  1  0.07308223  0.68056085  0.76518130  1
  O2-  O150  1  0.57191550  0.18003307  0.09829685  1
  O2-  O151  1  0.56984367  0.17695109  0.43276853  1
  O2-  O152  1  0.56721191  0.17484574  0.76631888  1
  O2-  O153  1  0.56899599  0.68263115  0.09972793  1
  O2-  O154  1  0.57224951  0.68009667  0.42337169  1
  O2-  O155  1  0.57152114  0.68225804  0.76649766  1
  O2-  O156  1  0.18046253  0.43268592  0.23438096  1
  O2-  O157  1  0.17899333  0.42826195  0.57958447  1
  O2-  O158  1  0.17798657  0.43098084  0.90988498  1
  O2-  O159  1  0.18071649  0.92328183  0.24470878  1
  O2-  O160  1  0.17775270  0.92645756  0.57509883  1
  O2-  O161  1  0.18103977  0.92746619  0.90170813  1
  O2-  O162  1  0.67787028  0.43462016  0.24186697  1
  O2-  O163  1  0.67941588  0.42834136  0.56796317  1
  O2-  O164  1  0.67696920  0.42876311  0.91432544  1
  O2-  O165  1  0.67837190  0.92233076  0.24344293  1
  O2-  O166  1  0.68327051  0.92931679  0.56703676  1
  O2-  O167  1  0.68029762  0.92733980  0.91122143  1
  O2-  O168  1  0.42828432  0.32437825  0.08830398  1
  O2-  O169  1  0.43151251  0.32398943  0.42935612  1
  O2-  O170  1  0.42810065  0.31881514  0.76557581  1
  O2-  O171  1  0.42910325  0.81884194  0.08916682  1
  O2-  O172  1  0.42386907  0.82387087  0.42109753  1
  O2-  O173  1  0.42778256  0.81946617  0.75577346  1
  O2-  O174  1  0.92809151  0.32412043  0.08777962  1
  O2-  O175  1  0.92878473  0.32324830  0.43289810  1
  O2-  O176  1  0.93249757  0.32248481  0.75769013  1
  O2-  O177  1  0.92598109  0.82200919  0.08747731  1
  O2-  O178  1  0.92795451  0.81546033  0.43192229  1
  O2-  O179  1  0.92790808  0.82396424  0.75421234  1
  O2-  O180  1  0.32204999  0.06597736  0.24359919  1
  O2-  O181  1  0.31812443  0.06946097  0.56509674  1
  O2-  O182  1  0.32058629  0.07235605  0.90449307  1
  O2-  O183  1  0.32421124  0.57556220  0.24329927  1
  O2-  O184  1  0.31774439  0.57118423  0.56703187  1
  O2-  O185  1  0.32344056  0.57150717  0.90971999  1
  O2-  O186  1  0.81954588  0.06844201  0.23204041  1
  O2-  O187  1  0.82811156  0.06924502  0.57838802  1
  O2-  O188  1  0.82088365  0.06962357  0.90878998  1
  O2-  O189  1  0.81825533  0.57464411  0.24287528  1
  O2-  O190  1  0.82066035  0.57022529  0.56710556  1
  O2-  O191  1  0.82033028  0.56906403  0.90374608  1
  O2-  O192  1  0.04400967  0.07859427  0.26701035  1
  O2-  O193  1  0.04388396  0.07975073  0.60052205  1
  O2-  O194  1  0.03878010  0.08346276  0.93179471  1
  O2-  O195  1  0.04940827  0.58429594  0.27413721  1
  O2-  O196  1  0.04306186  0.58015947  0.59889722  1
  O2-  O197  1  0.03874927  0.58386924  0.93301090  1
  O2-  O198  1  0.54571707  0.07652778  0.26807047  1
  O2-  O199  1  0.54248296  0.07709990  0.60084473  1
  O2-  O200  1  0.54111188  0.07928898  0.93575456  1
  O2-  O201  1  0.54527875  0.58944808  0.26812048  1
  O2-  O202  1  0.54099074  0.58353578  0.59963117  1
  O2-  O203  1  0.54225580  0.58225243  0.93423624  1
  O2-  O204  1  0.16913188  0.20752211  0.26557600  1
  O2-  O205  1  0.16484687  0.21171305  0.59914936  1
  O2-  O206  1  0.16664791  0.21332511  0.93423683  1
  O2-  O207  1  0.16883121  0.70337161  0.27327779  1
  O2-  O208  1  0.16728390  0.70953039  0.59519396  1
  O2-  O209  1  0.16842176  0.70869557  0.93547639  1
  O2-  O210  1  0.66867126  0.20807066  0.26681713  1
  O2-  O211  1  0.67593449  0.19731409  0.60693527  1
  O2-  O212  1  0.66626865  0.20779181  0.92967897  1
  O2-  O213  1  0.66133685  0.71059112  0.26919876  1
  O2-  O214  1  0.66808019  0.71348470  0.59993981  1
  O2-  O215  1  0.66715289  0.71327584  0.93380357  1
  O2-  O216  1  0.08759582  0.46061693  0.06318513  1
  O2-  O217  1  0.08529123  0.46038431  0.40506655  1
  O2-  O218  1  0.08433148  0.45075429  0.73068163  1
  O2-  O219  1  0.07593555  0.95422299  0.06541339  1
  O2-  O220  1  0.08488262  0.94925100  0.39539764  1
  O2-  O221  1  0.08120332  0.94676939  0.72601364  1
  O2-  O222  1  0.58375994  0.45511962  0.06606299  1
  O2-  O223  1  0.58810875  0.46204813  0.39387003  1
  O2-  O224  1  0.57863745  0.45338562  0.73437690  1
  O2-  O225  1  0.58562686  0.95149721  0.06315012  1
  O2-  O226  1  0.58068508  0.94347788  0.39337919  1
  O2-  O227  1  0.58274818  0.95530085  0.73689759  1
  O2-  O228  1  0.20637767  0.34021538  0.06385414  1
  O2-  O229  1  0.21082664  0.33182140  0.40184753  1
  O2-  O230  1  0.20740957  0.33531933  0.73163128  1
  O2-  O231  1  0.20849682  0.83221777  0.07140122  1
  O2-  O232  1  0.21080624  0.83647107  0.39809125  1
  O2-  O233  1  0.20515315  0.83408563  0.72687264  1
  O2-  O234  1  0.70241210  0.33276481  0.06382005  1
  O2-  O235  1  0.70455725  0.33840500  0.39377292  1
  O2-  O236  1  0.70760659  0.32933228  0.73815215  1
  O2-  O237  1  0.70969235  0.83891806  0.06570843  1
  O2-  O238  1  0.70944976  0.83459422  0.39621149  1
  O2-  O239  1  0.71483618  0.83729498  0.73694823  1
  O2-  O240  1  0.45885785  0.42031135  0.26174579  1
  O2-  O241  1  0.45372599  0.42016599  0.59838772  1
  O2-  O242  1  0.45502378  0.41571186  0.93683908  1
  O2-  O243  1  0.45549016  0.91071950  0.26489868  1
  O2-  O244  1  0.45577371  0.91388756  0.60405718  1
  O2-  O245  1  0.45315088  0.91533468  0.93908481  1
  O2-  O246  1  0.95951079  0.42217555  0.26700606  1
  O2-  O247  1  0.95659505  0.41343752  0.60384483  1
  O2-  O248  1  0.95588471  0.41661898  0.93679313  1
  O2-  O249  1  0.95913335  0.91400663  0.26333651  1
  O2-  O250  1  0.95440248  0.91307020  0.59959087  1
  O2-  O251  1  0.94845102  0.91699251  0.93490430  1
  O2-  O252  1  0.33088139  0.29519068  0.26401050  1
  O2-  O253  1  0.33248967  0.28980132  0.59829916  1
  O2-  O254  1  0.33220498  0.30194792  0.93780280  1
  O2-  O255  1  0.33628535  0.79225210  0.26653826  1
  O2-  O256  1  0.33511563  0.79603272  0.60216766  1
  O2-  O257  1  0.33355773  0.79707765  0.93814909  1
  O2-  O258  1  0.83034580  0.29890748  0.26431409  1
  O2-  O259  1  0.83338775  0.30061787  0.60827250  1
  O2-  O260  1  0.83268761  0.30097134  0.93693898  1
  O2-  O261  1  0.83365565  0.78797561  0.26213275  1
  O2-  O262  1  0.83478003  0.79523998  0.60168016  1
  O2-  O263  1  0.83378050  0.79481740  0.93674974  1
  O2-  O264  1  0.41715202  0.03922373  0.07268750  1
  O2-  O265  1  0.41145634  0.03507858  0.39527159  1
  O2-  O266  1  0.41311273  0.03761516  0.73457923  1
  O2-  O267  1  0.41421523  0.54297504  0.06335121  1
  O2-  O268  1  0.41983787  0.54817154  0.39298132  1
  O2-  O269  1  0.41595411  0.54109147  0.73509753  1
  O2-  O270  1  0.91047645  0.04326496  0.06210734  1
  O2-  O271  1  0.91530669  0.03496715  0.39987452  1
  O2-  O272  1  0.91601297  0.03731664  0.73166533  1
  O2-  O273  1  0.91689381  0.54059740  0.07139375  1
  O2-  O274  1  0.91452968  0.55062850  0.39344415  1
  O2-  O275  1  0.92008940  0.54006676  0.73422221  1
  O2-  O276  1  0.29475025  0.17368315  0.06933562  1
  O2-  O277  1  0.29713430  0.16271587  0.39324999  1
  O2-  O278  1  0.28785321  0.16720522  0.73374314  1
  O2-  O279  1  0.29733076  0.66405587  0.06236471  1
  O2-  O280  1  0.30151713  0.66728888  0.39594647  1
  O2-  O281  1  0.29022351  0.66842578  0.73394744  1
  O2-  O282  1  0.79318166  0.16590870  0.05886768  1
  O2-  O283  1  0.79492021  0.16977165  0.39927225  1
  O2-  O284  1  0.81016413  0.16741010  0.72982442  1
  O2-  O285  1  0.78776142  0.66715750  0.07034033  1
  O2-  O286  1  0.78897529  0.66382664  0.39512570  1
  O2-  O287  1  0.79728806  0.67058467  0.73357495  1
