# generated using pymatgen
data_Ca2Al2SiO7
_symmetry_space_group_name_H-M   'P 1'
_cell_length_a   15.46287832
_cell_length_b   15.46231485
_cell_length_c   15.28657919
_cell_angle_alpha   90.01347708
_cell_angle_beta   90.00899348
_cell_angle_gamma   89.98693135
_symmetry_Int_Tables_number   1
_chemical_formula_structural   Ca2Al2SiO7
_chemical_formula_sum   'Ca48 Al48 Si24 O168'
_cell_volume   3654.89691661
_cell_formula_units_Z   24
loop_
 _symmetry_equiv_pos_site_id
 _symmetry_equiv_pos_as_xyz
  1  'x, y, z'
loop_
 _atom_type_symbol
 _atom_type_oxidation_number
  Ca2+  2.0
  Al0+  0.0
  Si0+  0.0
  O2-  -2.0
loop_
 _atom_site_type_symbol
 _atom_site_label
 _atom_site_symmetry_multiplicity
 _atom_site_fract_x
 _atom_site_fract_y
 _atom_site_fract_z
 _atom_site_occupancy
  Ca2+  Ca0  1  0.16251780  0.07540214  0.17743932  1
  Ca2+  Ca1  1  0.15797229  0.08161681  0.50322608  1
  Ca2+  Ca2  1  0.16368111  0.08392134  0.83321408  1
  Ca2+  Ca3  1  0.15964896  0.57377463  0.17025930  1
  Ca2+  Ca4  1  0.16355193  0.57366137  0.50681317  1
  Ca2+  Ca5  1  0.16159829  0.57716283  0.83284932  1
  Ca2+  Ca6  1  0.67312501  0.08025942  0.17019061  1
  Ca2+  Ca7  1  0.67999074  0.08598223  0.51142630  1
  Ca2+  Ca8  1  0.66935110  0.07852488  0.83085654  1
  Ca2+  Ca9  1  0.67198758  0.58251370  0.17052238  1
  Ca2+  Ca10  1  0.67119848  0.57377766  0.50874555  1
  Ca2+  Ca11  1  0.66857145  0.57778429  0.83206481  1
  Ca2+  Ca12  1  0.07609599  0.33673036  0.16271717  1
  Ca2+  Ca13  1  0.07996965  0.32699890  0.49421114  1
  Ca2+  Ca14  1  0.07555645  0.33473509  0.82527095  1
  Ca2+  Ca15  1  0.09170502  0.82136024  0.16479454  1
  Ca2+  Ca16  1  0.08565626  0.82274326  0.49623755  1
  Ca2+  Ca17  1  0.08054188  0.82027548  0.82231876  1
  Ca2+  Ca18  1  0.56769628  0.33392514  0.16202289  1
  Ca2+  Ca19  1  0.58347242  0.32972544  0.49749306  1
  Ca2+  Ca20  1  0.57923721  0.33040816  0.82405460  1
  Ca2+  Ca21  1  0.57976225  0.83495184  0.15774256  1
  Ca2+  Ca22  1  0.57881459  0.84051885  0.50353654  1
  Ca2+  Ca23  1  0.57694075  0.84314012  0.82708102  1
  Ca2+  Ca24  1  0.32188058  0.41056155  0.17277031  1
  Ca2+  Ca25  1  0.32201729  0.41890276  0.50861866  1
  Ca2+  Ca26  1  0.31904404  0.41714353  0.83788700  1
  Ca2+  Ca27  1  0.33007165  0.91789021  0.17065547  1
  Ca2+  Ca28  1  0.32748508  0.91540314  0.50452364  1
  Ca2+  Ca29  1  0.33898311  0.91627226  0.83641868  1
  Ca2+  Ca30  1  0.83822652  0.41183331  0.16953643  1
  Ca2+  Ca31  1  0.83265020  0.40913138  0.50862845  1
  Ca2+  Ca32  1  0.83132190  0.40619897  0.83336995  1
  Ca2+  Ca33  1  0.82916585  0.92356394  0.17499151  1
  Ca2+  Ca34  1  0.83386537  0.92891426  0.51202086  1
  Ca2+  Ca35  1  0.82833732  0.91742662  0.83427759  1
  Ca2+  Ca36  1  0.40912146  0.18022764  0.16495983  1
  Ca2+  Ca37  1  0.42547916  0.17204445  0.49799683  1
  Ca2+  Ca38  1  0.42270872  0.17243684  0.82819144  1
  Ca2+  Ca39  1  0.41750408  0.67408710  0.16043593  1
  Ca2+  Ca40  1  0.40998107  0.66778253  0.50388216  1
  Ca2+  Ca41  1  0.41183058  0.67749898  0.82543259  1
  Ca2+  Ca42  1  0.91876148  0.17286318  0.16981334  1
  Ca2+  Ca43  1  0.92036663  0.17115910  0.49752258  1
  Ca2+  Ca44  1  0.91981777  0.17417472  0.82325039  1
  Ca2+  Ca45  1  0.93133747  0.66338167  0.16232931  1
  Ca2+  Ca46  1  0.92766228  0.66901873  0.49999681  1
  Ca2+  Ca47  1  0.92734468  0.67045019  0.82596761  1
  Al0+  Al48  1  -0.00044956  -0.00021966  0.00350314  1
  Al0+  Al49  1  -0.00162982  -0.00078253  0.33812747  1
  Al0+  Al50  1  -0.00010674  0.00076860  0.66837872  1
  Al0+  Al51  1  -0.00041203  0.49920304  -0.00486118  1
  Al0+  Al52  1  0.00021574  0.50151735  0.33108404  1
  Al0+  Al53  1  -0.00098750  0.50073354  0.66341039  1
  Al0+  Al54  1  0.50075517  0.00065510  0.00392493  1
  Al0+  Al55  1  0.50000833  -0.00040950  0.33193718  1
  Al0+  Al56  1  0.49953459  0.00168722  0.65958580  1
  Al0+  Al57  1  0.49916976  0.50113472  -0.00344602  1
  Al0+  Al58  1  0.50101387  0.50172006  0.32841318  1
  Al0+  Al59  1  0.49916399  0.50356092  0.67529737  1
  Al0+  Al60  1  0.24969442  0.24994324  -0.00001739  1
  Al0+  Al61  1  0.25085244  0.24812415  0.33191281  1
  Al0+  Al62  1  0.24983019  0.24965834  0.66831019  1
  Al0+  Al63  1  0.25197409  0.74886356  -0.00788029  1
  Al0+  Al64  1  0.25118895  0.75044779  0.33216021  1
  Al0+  Al65  1  0.25107056  0.75051128  0.66174020  1
  Al0+  Al66  1  0.74978963  0.24907605  0.00032059  1
  Al0+  Al67  1  0.74933569  0.24859511  0.33146181  1
  Al0+  Al68  1  0.74901319  0.24866889  0.66978834  1
  Al0+  Al69  1  0.75015957  0.74898570  0.00651835  1
  Al0+  Al70  1  0.74879258  0.74900758  0.33452544  1
  Al0+  Al71  1  0.74762662  0.74964217  0.66682721  1
  Al0+  Al72  1  0.07049578  0.67990048  0.98485344  1
  Al0+  Al73  1  0.67957390  0.92982618  0.01514185  1
  Al0+  Al74  1  0.67959082  0.42804170  0.67978399  1
  Al0+  Al75  1  0.92951508  0.31873589  0.98524262  1
  Al0+  Al76  1  0.42656135  0.32240124  0.98419274  1
  Al0+  Al77  1  0.17739999  0.42777756  0.68208302  1
  Al0+  Al78  1  0.43053338  0.82155335  0.65087680  1
  Al0+  Al79  1  0.92872906  0.32038886  0.65243090  1
  Al0+  Al80  1  0.07141429  0.67954085  0.64926656  1
  Al0+  Al81  1  0.17878772  0.43017532  0.01515981  1
  Al0+  Al82  1  0.81907480  0.07090062  0.34846112  1
  Al0+  Al83  1  0.17879741  0.42863591  0.34679079  1
  Al0+  Al84  1  0.67750653  0.92918289  0.68064386  1
  Al0+  Al85  1  0.82360006  0.07116616  0.68479745  1
  Al0+  Al86  1  0.07395982  0.17886713  0.65259995  1
  Al0+  Al87  1  0.18080293  0.92844740  0.34719113  1
  Al0+  Al88  1  0.31978246  0.57334304  0.68276002  1
  Al0+  Al89  1  0.92582861  0.82178260  0.65317739  1
  Al0+  Al90  1  0.43235789  0.82081740  0.98685698  1
  Al0+  Al91  1  0.07141902  0.68060864  0.31820185  1
  Al0+  Al92  1  0.92874830  0.32098349  0.31775001  1
  Al0+  Al93  1  0.07146318  0.17637469  0.31799842  1
  Al0+  Al94  1  0.56959744  0.18081785  0.65388017  1
  Al0+  Al95  1  0.42970745  0.32188670  0.32183949  1
  Si0+  Si96  1  0.32434059  0.57197913  0.34771131  1
  Si0+  Si97  1  0.32253452  0.57338940  0.01740391  1
  Si0+  Si98  1  0.57193867  0.67581426  0.64942362  1
  Si0+  Si99  1  0.82331256  0.07323570  0.01986211  1
  Si0+  Si100  1  0.42816399  0.32491085  0.65220640  1
  Si0+  Si101  1  0.17924942  0.92716582  0.01267694  1
  Si0+  Si102  1  0.18002304  0.92923584  0.68168160  1
  Si0+  Si103  1  0.82126207  0.57164727  0.34790546  1
  Si0+  Si104  1  0.32213707  0.07075564  0.68083768  1
  Si0+  Si105  1  0.07248481  0.17467313  0.98476807  1
  Si0+  Si106  1  0.67660670  0.92615491  0.35122776  1
  Si0+  Si107  1  0.57548489  0.67767894  0.98273211  1
  Si0+  Si108  1  0.32103896  0.07024404  0.01489478  1
  Si0+  Si109  1  0.57061262  0.17977131  0.98440040  1
  Si0+  Si110  1  0.92664742  0.82313022  0.98655662  1
  Si0+  Si111  1  0.82188054  0.57268790  0.68322177  1
  Si0+  Si112  1  0.92628150  0.82126997  0.31701484  1
  Si0+  Si113  1  0.57188421  0.17758486  0.31500826  1
  Si0+  Si114  1  0.43033464  0.82095051  0.31732917  1
  Si0+  Si115  1  0.82025414  0.56929257  0.01541649  1
  Si0+  Si116  1  0.67832681  0.43080833  0.34513573  1
  Si0+  Si117  1  0.57282853  0.67896511  0.31738178  1
  Si0+  Si118  1  0.67701670  0.42763627  0.01629238  1
  Si0+  Si119  1  0.32417373  0.07205981  0.35133876  1
  O2-  O120  1  0.24747472  0.00076063  0.05589496  1
  O2-  O121  1  0.25252957  0.00609752  0.39452230  1
  O2-  O122  1  0.24910858  0.00220036  0.72432569  1
  O2-  O123  1  0.25621201  0.50316674  0.06256915  1
  O2-  O124  1  0.25645644  0.50238146  0.39049721  1
  O2-  O125  1  0.24913669  0.50044469  0.73263354  1
  O2-  O126  1  0.75642772  0.00145551  0.06282630  1
  O2-  O127  1  0.74481807  -0.00528534  0.39376279  1
  O2-  O128  1  0.75303053  -0.00409934  0.73245494  1
  O2-  O129  1  0.74848096  0.49841274  0.05859451  1
  O2-  O130  1  0.75364314  0.49644179  0.38817976  1
  O2-  O131  1  0.75613140  0.50071181  0.72748919  1
  O2-  O132  1  0.00388184  0.25213547  0.26691282  1
  O2-  O133  1  0.00295164  0.25130581  0.60266152  1
  O2-  O134  1  0.00363833  0.24284381  0.94137707  1
  O2-  O135  1  -0.00348556  0.75535091  0.27051454  1
  O2-  O136  1  -0.00086169  0.75251975  0.60102815  1
  O2-  O137  1  -0.00181600  0.75849138  0.94169387  1
  O2-  O138  1  0.50137819  0.24485031  0.27185841  1
  O2-  O139  1  0.49891413  0.25931402  0.60682862  1
  O2-  O140  1  0.50488254  0.25081431  0.93953557  1
  O2-  O141  1  0.50338341  0.75182018  0.27571573  1
  O2-  O142  1  0.50485095  0.74600672  0.60465738  1
  O2-  O143  1  0.50770631  0.74738211  0.93983486  1
  O2-  O144  1  0.07241036  0.17171314  0.09015158  1
  O2-  O145  1  0.06965211  0.17713413  0.43073958  1
  O2-  O146  1  0.07413279  0.17906948  0.76676728  1
  O2-  O147  1  0.06992562  0.68071146  0.09841678  1
  O2-  O148  1  0.07089580  0.68086911  0.43032785  1
  O2-  O149  1  0.07023310  0.68117561  0.76317672  1
  O2-  O150  1  0.56945264  0.18130561  0.09039550  1
  O2-  O151  1  0.57208350  0.17846477  0.42033135  1
  O2-  O152  1  0.56552359  0.17990317  0.76726029  1
  O2-  O153  1  0.57500489  0.67754631  0.08910515  1
  O2-  O154  1  0.57450729  0.67565075  0.42163576  1
  O2-  O155  1  0.57228150  0.67473094  0.75485229  1
  O2-  O156  1  0.17861514  0.43128351  0.23314116  1
  O2-  O157  1  0.18010961  0.42674601  0.56828511  1
  O2-  O158  1  0.17795347  0.43056367  0.90283023  1
  O2-  O159  1  0.18615418  0.92643876  0.23312036  1
  O2-  O160  1  0.18289032  0.92836404  0.57656620  1
  O2-  O161  1  0.17923307  0.92827422  0.90777144  1
  O2-  O162  1  0.67608767  0.43517848  0.23970426  1
  O2-  O163  1  0.67812265  0.43045475  0.56598361  1
  O2-  O164  1  0.67706925  0.42788808  0.91155832  1
  O2-  O165  1  0.67634616  0.92560214  0.24512201  1
  O2-  O166  1  0.67644955  0.93368845  0.56700404  1
  O2-  O167  1  0.67817825  0.93158557  0.90294505  1
  O2-  O168  1  0.42715972  0.32019931  0.09780838  1
  O2-  O169  1  0.43523032  0.32298846  0.43453604  1
  O2-  O170  1  0.42907357  0.32035175  0.75797931  1
  O2-  O171  1  0.43231795  0.81942091  0.10063377  1
  O2-  O172  1  0.43043919  0.82136597  0.42189228  1
  O2-  O173  1  0.43175037  0.82298887  0.76400880  1
  O2-  O174  1  0.92940221  0.31886578  0.09828727  1
  O2-  O175  1  0.92500346  0.32056215  0.43020000  1
  O2-  O176  1  0.92925653  0.31821509  0.76635703  1
  O2-  O177  1  0.92687727  0.82169797  0.09243242  1
  O2-  O178  1  0.92433244  0.81701168  0.42189159  1
  O2-  O179  1  0.92872927  0.81833094  0.76762163  1
  O2-  O180  1  0.32779919  0.06846366  0.24526621  1
  O2-  O181  1  0.32392447  0.06907323  0.57591542  1
  O2-  O182  1  0.32335098  0.06879304  0.90983164  1
  O2-  O183  1  0.32626428  0.57335205  0.24191176  1
  O2-  O184  1  0.32034561  0.57022631  0.56845787  1
  O2-  O185  1  0.32158721  0.57485282  0.91259468  1
  O2-  O186  1  0.81538273  0.06930132  0.23456738  1
  O2-  O187  1  0.82065520  0.07257439  0.57121242  1
  O2-  O188  1  0.82416583  0.07418574  0.91512216  1
  O2-  O189  1  0.81783610  0.57455047  0.24240148  1
  O2-  O190  1  0.81855040  0.57364506  0.57728891  1
  O2-  O191  1  0.81805931  0.57151724  0.91088695  1
  O2-  O192  1  0.03939194  0.07764479  0.26566926  1
  O2-  O193  1  0.04739757  0.07925094  0.60246430  1
  O2-  O194  1  0.04834366  0.08000031  0.93898097  1
  O2-  O195  1  0.03723077  0.58589397  0.26261779  1
  O2-  O196  1  0.04128867  0.58217797  0.59643550  1
  O2-  O197  1  0.03418325  0.58619483  0.93074184  1
  O2-  O198  1  0.54739308  0.08284315  0.26956767  1
  O2-  O199  1  0.53476129  0.08860619  0.59490995  1
  O2-  O200  1  0.54046732  0.08730211  0.94001664  1
  O2-  O201  1  0.54433366  0.58934201  0.26536923  1
  O2-  O202  1  0.54368761  0.58295245  0.60223826  1
  O2-  O203  1  0.55089786  0.58413430  0.93690842  1
  O2-  O204  1  0.17344854  0.19537021  0.26794818  1
  O2-  O205  1  0.17384641  0.20280788  0.59975480  1
  O2-  O206  1  0.16669834  0.19844141  0.94007250  1
  O2-  O207  1  0.16828766  0.71251796  0.26412658  1
  O2-  O208  1  0.16850890  0.70986008  0.59601326  1
  O2-  O209  1  0.16668582  0.70865818  0.93055783  1
  O2-  O210  1  0.66328268  0.20532502  0.26638951  1
  O2-  O211  1  0.66561615  0.21087040  0.60012062  1
  O2-  O212  1  0.66501627  0.20208095  0.93965262  1
  O2-  O213  1  0.66438806  0.70606225  0.26765754  1
  O2-  O214  1  0.66552808  0.69850848  0.60245352  1
  O2-  O215  1  0.67018960  0.70141592  0.93912149  1
  O2-  O216  1  0.08181794  0.46461706  0.06713790  1
  O2-  O217  1  0.08251773  0.46240875  0.39888808  1
  O2-  O218  1  0.07830172  0.45790270  0.73277122  1
  O2-  O219  1  0.08665002  0.95052452  0.06184366  1
  O2-  O220  1  0.08267492  0.95277532  0.39968010  1
  O2-  O221  1  0.08855487  0.95399279  0.73061300  1
  O2-  O222  1  0.58489168  0.45729514  0.06330558  1
  O2-  O223  1  0.58889528  0.46423805  0.39356668  1
  O2-  O224  1  0.58500753  0.46118564  0.73696173  1
  O2-  O225  1  0.58414031  0.96319058  0.07203723  1
  O2-  O226  1  0.58152079  0.95085090  0.39428166  1
  O2-  O227  1  0.57946460  0.96430338  0.73150189  1
  O2-  O228  1  0.20887335  0.33181113  0.06744069  1
  O2-  O229  1  0.20910420  0.33074231  0.39777535  1
  O2-  O230  1  0.20774567  0.32978643  0.73618352  1
  O2-  O231  1  0.21188533  0.83611321  0.05916616  1
  O2-  O232  1  0.21734450  0.83374808  0.40160456  1
  O2-  O233  1  0.21168743  0.83864933  0.72851220  1
  O2-  O234  1  0.70383197  0.33558465  0.06399625  1
  O2-  O235  1  0.69986319  0.33651723  0.38915056  1
  O2-  O236  1  0.70700073  0.33260117  0.73692504  1
  O2-  O237  1  0.70591442  0.83163317  0.07045988  1
  O2-  O238  1  0.69912563  0.83122105  0.39573183  1
  O2-  O239  1  0.69749947  0.82783935  0.73178515  1
  O2-  O240  1  0.46310306  0.41670208  0.26437827  1
  O2-  O241  1  0.45123355  0.42042673  0.61074881  1
  O2-  O242  1  0.45482449  0.42008881  0.93234131  1
  O2-  O243  1  0.45597044  0.91342170  0.26903322  1
  O2-  O244  1  0.46098040  0.91632169  0.59348664  1
  O2-  O245  1  0.46187871  0.91887865  0.93540594  1
  O2-  O246  1  0.95356447  0.42110487  0.26562420  1
  O2-  O247  1  0.94919339  0.42084131  0.60127627  1
  O2-  O248  1  0.95803145  0.41520251  0.93135755  1
  O2-  O249  1  0.94926263  0.91569773  0.27272601  1
  O2-  O250  1  0.95314583  0.92086599  0.60339589  1
  O2-  O251  1  0.94782668  0.91852242  0.94285635  1
  O2-  O252  1  0.33448606  0.29006852  0.26542459  1
  O2-  O253  1  0.33628285  0.29504881  0.60634545  1
  O2-  O254  1  0.33186789  0.28684682  0.93045737  1
  O2-  O255  1  0.34030490  0.79097096  0.26795914  1
  O2-  O256  1  0.33538118  0.79020120  0.59493373  1
  O2-  O257  1  0.33681258  0.79197582  0.93067635  1
  O2-  O258  1  0.82981443  0.29089093  0.26393851  1
  O2-  O259  1  0.82964653  0.29128527  0.60213241  1
  O2-  O260  1  0.83067954  0.29035911  0.93421840  1
  O2-  O261  1  0.83232111  0.79374526  0.27052464  1
  O2-  O262  1  0.82716085  0.79430763  0.60035833  1
  O2-  O263  1  0.83356786  0.79357549  0.94231929  1
  O2-  O264  1  0.41060879  0.04065426  0.06589849  1
  O2-  O265  1  0.41704920  0.04215850  0.39764812  1
  O2-  O266  1  0.41210659  0.03886531  0.72916573  1
  O2-  O267  1  0.41866451  0.55177473  0.06175151  1
  O2-  O268  1  0.41910962  0.54845763  0.39303691  1
  O2-  O269  1  0.41907955  0.55229429  0.73725142  1
  O2-  O270  1  0.91729899  0.04871959  0.06701349  1
  O2-  O271  1  0.91497340  0.04132691  0.40254291  1
  O2-  O272  1  0.92225154  0.04513278  0.73900934  1
  O2-  O273  1  0.91129994  0.53907209  0.06277717  1
  O2-  O274  1  0.91379100  0.54851339  0.39411307  1
  O2-  O275  1  0.91621416  0.55091936  0.72818141  1
  O2-  O276  1  0.29456282  0.16218763  0.06275955  1
  O2-  O277  1  0.30468398  0.16689467  0.39591607  1
  O2-  O278  1  0.29790366  0.16260668  0.73016093  1
  O2-  O279  1  0.29563238  0.66772425  0.06296453  1
  O2-  O280  1  0.29895904  0.66576495  0.39293957  1
  O2-  O281  1  0.29115586  0.67288683  0.73380537  1
  O2-  O282  1  0.79199735  0.16512283  0.06728056  1
  O2-  O283  1  0.78523047  0.16720623  0.40118154  1
  O2-  O284  1  0.78855188  0.16677418  0.73890473  1
  O2-  O285  1  0.79341612  0.65978774  0.06739704  1
  O2-  O286  1  0.78814405  0.66111111  0.39681872  1
  O2-  O287  1  0.79183077  0.66394875  0.73179239  1
