# generated using pymatgen
data_Ca2Al2SiO7
_symmetry_space_group_name_H-M   'P 1'
_cell_length_a   15.45719673
_cell_length_b   15.45735677
_cell_length_c   15.28284513
_cell_angle_alpha   90.00265851
_cell_angle_beta   89.99130260
_cell_angle_gamma   89.99342505
_symmetry_Int_Tables_number   1
_chemical_formula_structural   Ca2Al2SiO7
_chemical_formula_sum   'Ca48 Al48 Si24 O168'
_cell_volume   3651.49045031
_cell_formula_units_Z   24
loop_
 _symmetry_equiv_pos_site_id
 _symmetry_equiv_pos_as_xyz
  1  'x, y, z'
loop_
 _atom_type_symbol
 _atom_type_oxidation_number
  Ca2+  2.0
  Al0+  0.0
  Si0+  0.0
  O2-  -2.0
loop_
 _atom_site_type_symbol
 _atom_site_label
 _atom_site_symmetry_multiplicity
 _atom_site_fract_x
 _atom_site_fract_y
 _atom_site_fract_z
 _atom_site_occupancy
  Ca2+  Ca0  1  0.16782128  0.07839854  0.16795907  1
  Ca2+  Ca1  1  0.17288075  0.07432520  0.51197086  1
  Ca2+  Ca2  1  0.17556894  0.07592510  0.83972367  1
  Ca2+  Ca3  1  0.16994199  0.58704939  0.16950237  1
  Ca2+  Ca4  1  0.17949748  0.58834792  0.50681226  1
  Ca2+  Ca5  1  0.16846036  0.58993509  0.83281665  1
  Ca2+  Ca6  1  0.66497073  0.08416471  0.16696757  1
  Ca2+  Ca7  1  0.66264233  0.07523927  0.50826680  1
  Ca2+  Ca8  1  0.65756847  0.08001551  0.83449018  1
  Ca2+  Ca9  1  0.67316261  0.57624933  0.18151266  1
  Ca2+  Ca10  1  0.67455292  0.58695959  0.50421154  1
  Ca2+  Ca11  1  0.67394088  0.58542674  0.83153163  1
  Ca2+  Ca12  1  0.07022210  0.33945803  0.16347399  1
  Ca2+  Ca13  1  0.07180786  0.33771446  0.49912626  1
  Ca2+  Ca14  1  0.07246875  0.33737507  0.82795522  1
  Ca2+  Ca15  1  0.07429372  0.82841207  0.15797317  1
  Ca2+  Ca16  1  0.08336341  0.82928991  0.49682385  1
  Ca2+  Ca17  1  0.08870596  0.82935522  0.83096380  1
  Ca2+  Ca18  1  0.58042180  0.33309123  0.16561343  1
  Ca2+  Ca19  1  0.57385232  0.33486055  0.49754826  1
  Ca2+  Ca20  1  0.57723254  0.31818317  0.82356878  1
  Ca2+  Ca21  1  0.57893745  0.82630284  0.16916770  1
  Ca2+  Ca22  1  0.58075846  0.82416249  0.49595445  1
  Ca2+  Ca23  1  0.58270749  0.82953169  0.82314371  1
  Ca2+  Ca24  1  0.33175136  0.42146134  0.17779914  1
  Ca2+  Ca25  1  0.34121033  0.42322053  0.50450029  1
  Ca2+  Ca26  1  0.34106019  0.42196352  0.83115129  1
  Ca2+  Ca27  1  0.33071471  0.91751768  0.16836965  1
  Ca2+  Ca28  1  0.33186936  0.91947560  0.51004262  1
  Ca2+  Ca29  1  0.32441124  0.92509458  0.83669989  1
  Ca2+  Ca30  1  0.82948334  0.41972662  0.17800896  1
  Ca2+  Ca31  1  0.83095648  0.42332634  0.50303968  1
  Ca2+  Ca32  1  0.84117595  0.42095184  0.83456465  1
  Ca2+  Ca33  1  0.83830628  0.91426119  0.17198430  1
  Ca2+  Ca34  1  0.82851962  0.91400100  0.50573198  1
  Ca2+  Ca35  1  0.82650395  0.91234244  0.83590253  1
  Ca2+  Ca36  1  0.42050754  0.17069687  0.16053137  1
  Ca2+  Ca37  1  0.41596525  0.17315090  0.49969417  1
  Ca2+  Ca38  1  0.41917737  0.16374385  0.82547433  1
  Ca2+  Ca39  1  0.41836634  0.66550539  0.17127198  1
  Ca2+  Ca40  1  0.42591121  0.66275423  0.49249689  1
  Ca2+  Ca41  1  0.42239685  0.66742889  0.82168937  1
  Ca2+  Ca42  1  0.91410638  0.17968899  0.16306866  1
  Ca2+  Ca43  1  0.91293755  0.17934100  0.49709326  1
  Ca2+  Ca44  1  0.91401598  0.18000957  0.82817323  1
  Ca2+  Ca45  1  0.91667818  0.67462226  0.16111254  1
  Ca2+  Ca46  1  0.91853078  0.66589990  0.49690395  1
  Ca2+  Ca47  1  0.92938999  0.66903330  0.82691654  1
  Al0+  Al48  1  -0.00227174  0.00139501  0.00083947  1
  Al0+  Al49  1  0.00065224  -0.00074991  0.33166050  1
  Al0+  Al50  1  -0.00225998  0.00057846  0.67256279  1
  Al0+  Al51  1  0.00097134  0.50313672  -0.00548009  1
  Al0+  Al52  1  0.00082268  0.49932991  0.33267316  1
  Al0+  Al53  1  0.00056806  0.50298094  0.66122782  1
  Al0+  Al54  1  0.50023641  -0.00084215  0.00281383  1
  Al0+  Al55  1  0.49956637  -0.00078904  0.32995474  1
  Al0+  Al56  1  0.50042951  -0.00107839  0.67075146  1
  Al0+  Al57  1  0.50151265  0.49930017  0.00097714  1
  Al0+  Al58  1  0.50031964  0.49750604  0.33115456  1
  Al0+  Al59  1  0.50263297  0.49894613  0.66596275  1
  Al0+  Al60  1  0.24938082  0.25302326  0.00561332  1
  Al0+  Al61  1  0.25045208  0.24804749  0.33013943  1
  Al0+  Al62  1  0.24817788  0.25109125  0.66754981  1
  Al0+  Al63  1  0.25120383  0.75085289  0.00187221  1
  Al0+  Al64  1  0.25025637  0.75072735  0.33337598  1
  Al0+  Al65  1  0.24981265  0.74899074  0.67084069  1
  Al0+  Al66  1  0.74703445  0.24974423  -0.00811297  1
  Al0+  Al67  1  0.75041021  0.24933267  0.33406563  1
  Al0+  Al68  1  0.74837415  0.24979119  0.65784969  1
  Al0+  Al69  1  0.75019379  0.74983631  -0.00114282  1
  Al0+  Al70  1  0.75052885  0.75013556  0.32889833  1
  Al0+  Al71  1  0.75111264  0.74935548  0.67289824  1
  Al0+  Al72  1  0.82218418  0.56972960  0.68219994  1
  Al0+  Al73  1  0.57149101  0.67766357  0.31818454  1
  Al0+  Al74  1  0.56934950  0.17510395  0.64943234  1
  Al0+  Al75  1  0.92889180  0.32087417  0.98620458  1
  Al0+  Al76  1  0.31895976  0.57031223  0.34646450  1
  Al0+  Al77  1  0.67877262  0.42649628  0.34956663  1
  Al0+  Al78  1  0.07237203  0.68141014  0.98405108  1
  Al0+  Al79  1  0.92915822  0.32206810  0.65070261  1
  Al0+  Al80  1  0.32046893  0.07287112  0.68095057  1
  Al0+  Al81  1  0.17635029  0.92732125  0.68212215  1
  Al0+  Al82  1  0.32206070  0.07204642  0.01844049  1
  Al0+  Al83  1  0.92669108  0.82374121  0.98268258  1
  Al0+  Al84  1  0.92951741  0.32102410  0.31939812  1
  Al0+  Al85  1  0.42860513  0.32021529  0.31840851  1
  Al0+  Al86  1  0.57331690  0.67917471  0.65419256  1
  Al0+  Al87  1  0.42691809  0.32074498  0.65211962  1
  Al0+  Al88  1  0.07255150  0.68158481  0.65045856  1
  Al0+  Al89  1  0.56773778  0.17901511  0.98616909  1
  Al0+  Al90  1  0.42747957  0.82228878  0.31862575  1
  Al0+  Al91  1  0.17766839  0.92847824  0.01860309  1
  Al0+  Al92  1  0.82215555  0.57298553  0.34787113  1
  Al0+  Al93  1  0.32362365  0.56867728  0.68006681  1
  Al0+  Al94  1  0.68076937  0.92942671  0.67943624  1
  Al0+  Al95  1  0.92973818  0.82075981  0.32158802  1
  Si0+  Si96  1  0.82247054  0.07022345  0.34730203  1
  Si0+  Si97  1  0.17771627  0.42500980  0.34992772  1
  Si0+  Si98  1  0.07088072  0.17635047  0.65207415  1
  Si0+  Si99  1  0.17671695  0.42954166  0.68275583  1
  Si0+  Si100  1  0.17695078  0.43125398  0.01491989  1
  Si0+  Si101  1  0.57086753  0.67730644  0.98472541  1
  Si0+  Si102  1  0.81855498  0.07363438  0.01435732  1
  Si0+  Si103  1  0.82136778  0.56998982  0.01462331  1
  Si0+  Si104  1  0.82117364  0.07528530  0.68362548  1
  Si0+  Si105  1  0.67906323  0.42648581  0.68478777  1
  Si0+  Si106  1  0.68014870  0.42832502  0.01342625  1
  Si0+  Si107  1  0.07335837  0.17914014  0.98440557  1
  Si0+  Si108  1  0.67953571  0.92717520  0.01777547  1
  Si0+  Si109  1  0.17863153  0.93036397  0.34852062  1
  Si0+  Si110  1  0.42847458  0.81994242  0.65305832  1
  Si0+  Si111  1  0.67875627  0.92975612  0.34620426  1
  Si0+  Si112  1  0.43069771  0.81973179  0.98460843  1
  Si0+  Si113  1  0.32211509  0.07114749  0.34877989  1
  Si0+  Si114  1  0.92768438  0.82266461  0.65144035  1
  Si0+  Si115  1  0.07159186  0.17672220  0.31657989  1
  Si0+  Si116  1  0.32376185  0.57045401  0.01555495  1
  Si0+  Si117  1  0.42614062  0.32386900  0.98418915  1
  Si0+  Si118  1  0.07331508  0.67823060  0.31759110  1
  Si0+  Si119  1  0.57170202  0.17660213  0.31607925  1
  O2-  O120  1  0.24850228  0.00180403  0.06963845  1
  O2-  O121  1  0.25175449  -0.00066752  0.39046257  1
  O2-  O122  1  0.24651221  0.00232399  0.72991223  1
  O2-  O123  1  0.25145988  0.49953582  0.05610407  1
  O2-  O124  1  0.24610220  0.49381123  0.39365862  1
  O2-  O125  1  0.24964574  0.49346116  0.72809035  1
  O2-  O126  1  0.75246962  -0.00214534  0.05811100  1
  O2-  O127  1  0.75096603  -0.00044797  0.38864517  1
  O2-  O128  1  0.75263748  0.00650070  0.72786195  1
  O2-  O129  1  0.75093976  0.49875841  0.05692899  1
  O2-  O130  1  0.74937004  0.50128015  0.39766465  1
  O2-  O131  1  0.74980792  0.49271201  0.73044215  1
  O2-  O132  1  0.00568393  0.24804813  0.27198414  1
  O2-  O133  1  0.00258771  0.24447388  0.60608574  1
  O2-  O134  1  0.00453639  0.24718980  0.93937432  1
  O2-  O135  1  0.00044346  0.74280659  0.27440500  1
  O2-  O136  1  -0.00005936  0.75923001  0.60575144  1
  O2-  O137  1  0.00268449  0.75582292  0.93398913  1
  O2-  O138  1  0.50430737  0.24629589  0.27188551  1
  O2-  O139  1  0.49703396  0.24720014  0.60122469  1
  O2-  O140  1  0.48864058  0.24969220  0.94116734  1
  O2-  O141  1  0.49757722  0.74829070  0.26786988  1
  O2-  O142  1  0.49543541  0.75039964  0.60810574  1
  O2-  O143  1  0.50024754  0.74772373  0.94166084  1
  O2-  O144  1  0.07119388  0.18147350  0.09034530  1
  O2-  O145  1  0.06963858  0.17432868  0.42200746  1
  O2-  O146  1  0.06903013  0.17817365  0.75769534  1
  O2-  O147  1  0.06923953  0.67830031  0.09801019  1
  O2-  O148  1  0.07633915  0.68170384  0.42292993  1
  O2-  O149  1  0.07184397  0.68080546  0.76333933  1
  O2-  O150  1  0.57082028  0.18280921  0.09947994  1
  O2-  O151  1  0.56976368  0.17195504  0.42090653  1
  O2-  O152  1  0.56872397  0.17638064  0.76333368  1
  O2-  O153  1  0.57044263  0.67687569  0.08952008  1
  O2-  O154  1  0.57266924  0.68160665  0.43153678  1
  O2-  O155  1  0.57169419  0.68164855  0.76832813  1
  O2-  O156  1  0.17745437  0.42580057  0.24372628  1
  O2-  O157  1  0.17516569  0.43151264  0.57724027  1
  O2-  O158  1  0.17550926  0.43032387  0.91014551  1
  O2-  O159  1  0.17650243  0.93264152  0.24373544  1
  O2-  O160  1  0.17748537  0.92876929  0.56763586  1
  O2-  O161  1  0.18190234  0.92894820  0.90553202  1
  O2-  O162  1  0.68227259  0.42530649  0.23458387  1
  O2-  O163  1  0.67933584  0.42795119  0.57953960  1
  O2-  O164  1  0.67876967  0.43062373  0.90869867  1
  O2-  O165  1  0.67866307  0.93227351  0.24073382  1
  O2-  O166  1  0.68278465  0.92839180  0.56593519  1
  O2-  O167  1  0.67815463  0.92608646  0.91285667  1
  O2-  O168  1  0.42955051  0.32735818  0.08972125  1
  O2-  O169  1  0.42626017  0.31719811  0.43076603  1
  O2-  O170  1  0.43039349  0.32153834  0.76627771  1
  O2-  O171  1  0.43211789  0.81859728  0.08969475  1
  O2-  O172  1  0.42982567  0.82611537  0.43187263  1
  O2-  O173  1  0.43094125  0.81846373  0.75924539  1
  O2-  O174  1  0.92823411  0.32053043  0.09939795  1
  O2-  O175  1  0.93058044  0.31921147  0.43210585  1
  O2-  O176  1  0.93127141  0.32126436  0.76426295  1
  O2-  O177  1  0.92450539  0.81870256  0.09660935  1
  O2-  O178  1  0.93260632  0.82583966  0.43428337  1
  O2-  O179  1  0.92614953  0.81996079  0.75675736  1
  O2-  O180  1  0.32103778  0.07143722  0.24382434  1
  O2-  O181  1  0.31916507  0.07019684  0.56659846  1
  O2-  O182  1  0.32195414  0.06988582  0.90528073  1
  O2-  O183  1  0.31545291  0.56935346  0.23244329  1
  O2-  O184  1  0.32316731  0.56941976  0.56724988  1
  O2-  O185  1  0.32771656  0.56913786  0.91067191  1
  O2-  O186  1  0.82218636  0.07079509  0.24179445  1
  O2-  O187  1  0.82304186  0.07314823  0.57771784  1
  O2-  O188  1  0.81476789  0.07646939  0.90969693  1
  O2-  O189  1  0.82163982  0.57117258  0.23329179  1
  O2-  O190  1  0.82129490  0.57068925  0.56949740  1
  O2-  O191  1  0.82053343  0.56911261  0.90958721  1
  O2-  O192  1  0.04186455  0.08544979  0.26776067  1
  O2-  O193  1  0.04520402  0.08223111  0.60618008  1
  O2-  O194  1  0.04850311  0.08530624  0.93988923  1
  O2-  O195  1  0.05387198  0.58254484  0.27338583  1
  O2-  O196  1  0.04058821  0.58673623  0.59503769  1
  O2-  O197  1  0.04215820  0.58456387  0.92887311  1
  O2-  O198  1  0.54494364  0.08432759  0.26714232  1
  O2-  O199  1  0.54203121  0.07574341  0.59781485  1
  O2-  O200  1  0.54219198  0.07964509  0.93527691  1
  O2-  O201  1  0.54405232  0.57955972  0.26425631  1
  O2-  O202  1  0.54640714  0.58188686  0.60194768  1
  O2-  O203  1  0.54352078  0.58511907  0.93758804  1
  O2-  O204  1  0.16574172  0.19864185  0.27020268  1
  O2-  O205  1  0.16421886  0.20077037  0.60528737  1
  O2-  O206  1  0.16734435  0.20608372  0.94007467  1
  O2-  O207  1  0.16422374  0.70853153  0.26893042  1
  O2-  O208  1  0.17033325  0.71089139  0.59776657  1
  O2-  O209  1  0.17324528  0.70583907  0.93375422  1
  O2-  O210  1  0.66637260  0.20078231  0.27110249  1
  O2-  O211  1  0.66802042  0.20056027  0.59609040  1
  O2-  O212  1  0.66139489  0.21209876  0.92842573  1
  O2-  O213  1  0.66765636  0.70967994  0.26209022  1
  O2-  O214  1  0.66909467  0.71393428  0.60213463  1
  O2-  O215  1  0.66271915  0.70558720  0.93837619  1
  O2-  O216  1  0.08657166  0.46357310  0.06377377  1
  O2-  O217  1  0.08394472  0.44980622  0.39541134  1
  O2-  O218  1  0.08540914  0.46131467  0.72984610  1
  O2-  O219  1  0.07682077  0.95593539  0.06902636  1
  O2-  O220  1  0.08790915  0.96106683  0.39696703  1
  O2-  O221  1  0.07720611  0.95283919  0.73554245  1
  O2-  O222  1  0.58838621  0.45641110  0.06230761  1
  O2-  O223  1  0.57865845  0.45087579  0.39885338  1
  O2-  O224  1  0.58703443  0.45401622  0.73279348  1
  O2-  O225  1  0.58899929  0.95675091  0.06646319  1
  O2-  O226  1  0.58737839  0.95899260  0.39378785  1
  O2-  O227  1  0.58450429  0.95699807  0.73629451  1
  O2-  O228  1  0.19946075  0.33932039  0.06518413  1
  O2-  O229  1  0.20181990  0.33017691  0.39416578  1
  O2-  O230  1  0.19505707  0.33416500  0.72845627  1
  O2-  O231  1  0.20910829  0.83016140  0.07135097  1
  O2-  O232  1  0.20438728  0.83792896  0.39473682  1
  O2-  O233  1  0.20819897  0.83118902  0.73657166  1
  O2-  O234  1  0.70764993  0.33586203  0.05932460  1
  O2-  O235  1  0.70832579  0.32826613  0.40222012  1
  O2-  O236  1  0.70344792  0.33080246  0.72752815  1
  O2-  O237  1  0.70674068  0.83483828  0.06529214  1
  O2-  O238  1  0.70588367  0.83785347  0.39214554  1
  O2-  O239  1  0.71348136  0.83567582  0.73827262  1
  O2-  O240  1  0.45780474  0.41574012  0.26193028  1
  O2-  O241  1  0.46028526  0.41764607  0.59937854  1
  O2-  O242  1  0.45837911  0.41542054  0.93689651  1
  O2-  O243  1  0.45918841  0.91872286  0.26217838  1
  O2-  O244  1  0.45557475  0.91298786  0.60787508  1
  O2-  O245  1  0.46092528  0.91100003  0.93862252  1
  O2-  O246  1  0.96012496  0.41744558  0.26401111  1
  O2-  O247  1  0.96350293  0.41654514  0.59626634  1
  O2-  O248  1  0.96143882  0.41663290  0.93246355  1
  O2-  O249  1  0.96243850  0.91643533  0.26527254  1
  O2-  O250  1  0.94590300  0.91975783  0.60890542  1
  O2-  O251  1  0.94536778  0.92617945  0.93467190  1
  O2-  O252  1  0.33187128  0.28937773  0.26306999  1
  O2-  O253  1  0.32621164  0.29844758  0.60072497  1
  O2-  O254  1  0.32915075  0.30682493  0.94236870  1
  O2-  O255  1  0.32913755  0.79447097  0.26481197  1
  O2-  O256  1  0.33436485  0.79696978  0.60845290  1
  O2-  O257  1  0.33876396  0.79302899  0.93829185  1
  O2-  O258  1  0.83387886  0.28628512  0.26521401  1
  O2-  O259  1  0.83345705  0.29190580  0.59575350  1
  O2-  O260  1  0.83401647  0.28887895  0.93039096  1
  O2-  O261  1  0.83306357  0.79574554  0.26512061  1
  O2-  O262  1  0.83580942  0.79179019  0.60554375  1
  O2-  O263  1  0.82865128  0.79151250  0.93054869  1
  O2-  O264  1  0.42019297  0.04050297  0.07156607  1
  O2-  O265  1  0.41465104  0.04371819  0.39437270  1
  O2-  O266  1  0.41744219  0.04179944  0.73463859  1
  O2-  O267  1  0.41499711  0.54099595  0.06444385  1
  O2-  O268  1  0.41689998  0.54069462  0.39658914  1
  O2-  O269  1  0.42001583  0.53826030  0.73622040  1
  O2-  O270  1  0.91197263  0.05326104  0.06223393  1
  O2-  O271  1  0.91380825  0.04191764  0.39528845  1
  O2-  O272  1  0.91424832  0.05242756  0.73222684  1
  O2-  O273  1  0.91402947  0.54334495  0.06033248  1
  O2-  O274  1  0.92179750  0.54516259  0.39855340  1
  O2-  O275  1  0.91960155  0.53852528  0.73459184  1
  O2-  O276  1  0.29635350  0.17285509  0.06985806  1
  O2-  O277  1  0.29296750  0.16272302  0.39570233  1
  O2-  O278  1  0.29377451  0.17186283  0.73427393  1
  O2-  O279  1  0.29707992  0.66231027  0.06269311  1
  O2-  O280  1  0.28892157  0.66742722  0.40018660  1
  O2-  O281  1  0.29255070  0.66449802  0.73539159  1
  O2-  O282  1  0.78420742  0.16372132  0.06283246  1
  O2-  O283  1  0.79518632  0.16133790  0.39551243  1
  O2-  O284  1  0.79498792  0.16959022  0.72787056  1
  O2-  O285  1  0.79186596  0.66201575  0.06094429  1
  O2-  O286  1  0.79457592  0.67264717  0.39913528  1
  O2-  O287  1  0.78904279  0.66407284  0.73910789  1
