# generated using pymatgen
data_Ca2Al2SiO7
_symmetry_space_group_name_H-M   'P 1'
_cell_length_a   15.45888406
_cell_length_b   15.45962895
_cell_length_c   15.28427376
_cell_angle_alpha   89.99959858
_cell_angle_beta   89.99953073
_cell_angle_gamma   90.02578143
_symmetry_Int_Tables_number   1
_chemical_formula_structural   Ca2Al2SiO7
_chemical_formula_sum   'Ca48 Al48 Si24 O168'
_cell_volume   3652.76699597
_cell_formula_units_Z   24
loop_
 _symmetry_equiv_pos_site_id
 _symmetry_equiv_pos_as_xyz
  1  'x, y, z'
loop_
 _atom_type_symbol
 _atom_type_oxidation_number
  Ca2+  2.0
  Al0+  0.0
  Si0+  0.0
  O2-  -2.0
loop_
 _atom_site_type_symbol
 _atom_site_label
 _atom_site_symmetry_multiplicity
 _atom_site_fract_x
 _atom_site_fract_y
 _atom_site_fract_z
 _atom_site_occupancy
  Ca2+  Ca0  1  0.17023179  0.07588995  0.17006047  1
  Ca2+  Ca1  1  0.16811161  0.07524840  0.50592111  1
  Ca2+  Ca2  1  0.17777973  0.07236642  0.83780912  1
  Ca2+  Ca3  1  0.18093095  0.58921240  0.17107720  1
  Ca2+  Ca4  1  0.17428103  0.58262335  0.50278884  1
  Ca2+  Ca5  1  0.17184119  0.57747743  0.83740546  1
  Ca2+  Ca6  1  0.66875503  0.07541443  0.17139972  1
  Ca2+  Ca7  1  0.66547830  0.07804613  0.50194512  1
  Ca2+  Ca8  1  0.67667029  0.07745086  0.84005024  1
  Ca2+  Ca9  1  0.66772890  0.57712558  0.17231338  1
  Ca2+  Ca10  1  0.66917917  0.58376855  0.49855960  1
  Ca2+  Ca11  1  0.66636185  0.58207420  0.84453702  1
  Ca2+  Ca12  1  0.08457603  0.32504091  0.16394161  1
  Ca2+  Ca13  1  0.08074009  0.32876504  0.49516722  1
  Ca2+  Ca14  1  0.07545866  0.33328356  0.82171231  1
  Ca2+  Ca15  1  0.07784679  0.84184268  0.16574743  1
  Ca2+  Ca16  1  0.07853046  0.84199160  0.49112990  1
  Ca2+  Ca17  1  0.08826378  0.83656427  0.83220083  1
  Ca2+  Ca18  1  0.59311842  0.33101939  0.16519069  1
  Ca2+  Ca19  1  0.58518909  0.32536349  0.49140088  1
  Ca2+  Ca20  1  0.58329393  0.33430154  0.83136154  1
  Ca2+  Ca21  1  0.58065765  0.83300001  0.16066363  1
  Ca2+  Ca22  1  0.57039183  0.83579274  0.49319641  1
  Ca2+  Ca23  1  0.58425013  0.82289347  0.82767127  1
  Ca2+  Ca24  1  0.33996854  0.43183340  0.17018971  1
  Ca2+  Ca25  1  0.32903298  0.42241793  0.50279979  1
  Ca2+  Ca26  1  0.32732495  0.42053560  0.83808291  1
  Ca2+  Ca27  1  0.32304851  0.91216349  0.17312705  1
  Ca2+  Ca28  1  0.32641968  0.91532718  0.50666556  1
  Ca2+  Ca29  1  0.32989827  0.91900645  0.83519241  1
  Ca2+  Ca30  1  0.82382785  0.42852064  0.17095620  1
  Ca2+  Ca31  1  0.83194687  0.41718503  0.50105790  1
  Ca2+  Ca32  1  0.82781265  0.42174955  0.84157431  1
  Ca2+  Ca33  1  0.81958482  0.91222631  0.17081731  1
  Ca2+  Ca34  1  0.82867732  0.91872455  0.50041311  1
  Ca2+  Ca35  1  0.83034649  0.92882553  0.84110418  1
  Ca2+  Ca36  1  0.42241794  0.16512497  0.16354719  1
  Ca2+  Ca37  1  0.42023784  0.16412257  0.49232357  1
  Ca2+  Ca38  1  0.41380157  0.16097454  0.83018750  1
  Ca2+  Ca39  1  0.41782155  0.66925883  0.16026402  1
  Ca2+  Ca40  1  0.41782666  0.67677555  0.49582492  1
  Ca2+  Ca41  1  0.42737244  0.66986430  0.82749670  1
  Ca2+  Ca42  1  0.92225918  0.16010412  0.16281419  1
  Ca2+  Ca43  1  0.91991988  0.16842905  0.49466570  1
  Ca2+  Ca44  1  0.91129320  0.17023139  0.82569724  1
  Ca2+  Ca45  1  0.90792330  0.66941363  0.16522867  1
  Ca2+  Ca46  1  0.92011997  0.67247903  0.48998134  1
  Ca2+  Ca47  1  0.91576718  0.66744494  0.83056867  1
  Al0+  Al48  1  0.00194446  0.00071837  0.00173121  1
  Al0+  Al49  1  -0.00019190  -0.00000384  0.32702452  1
  Al0+  Al50  1  0.00022128  0.00083885  0.67435404  1
  Al0+  Al51  1  -0.00059572  0.49926422  0.00248841  1
  Al0+  Al52  1  0.00098464  0.50009526  0.33374442  1
  Al0+  Al53  1  -0.00131485  0.50003155  0.66450468  1
  Al0+  Al54  1  0.49915739  0.00136086  0.00220359  1
  Al0+  Al55  1  0.49975201  0.00048721  0.32690429  1
  Al0+  Al56  1  0.50061111  -0.00156041  0.66726047  1
  Al0+  Al57  1  0.49882638  0.49878944  0.00124678  1
  Al0+  Al58  1  0.50003326  0.50044724  0.34440836  1
  Al0+  Al59  1  0.50177888  0.49849153  0.66078709  1
  Al0+  Al60  1  0.24974090  0.24801128  0.00057854  1
  Al0+  Al61  1  0.25055111  0.25116298  0.32616002  1
  Al0+  Al62  1  0.24891704  0.25029471  0.67282833  1
  Al0+  Al63  1  0.24808012  0.74928093  0.00390563  1
  Al0+  Al64  1  0.24929636  0.75075156  0.33917673  1
  Al0+  Al65  1  0.25110020  0.74835368  0.66801410  1
  Al0+  Al66  1  0.75110530  0.25002858  0.00507129  1
  Al0+  Al67  1  0.75081746  0.25125343  0.33089242  1
  Al0+  Al68  1  0.74988307  0.25194026  0.66520652  1
  Al0+  Al69  1  0.75094874  0.75141607  -0.00127784  1
  Al0+  Al70  1  0.74927608  0.75064236  0.33908100  1
  Al0+  Al71  1  0.75185721  0.74782005  0.66160625  1
  Al0+  Al72  1  0.67735873  0.42964306  0.01382421  1
  Al0+  Al73  1  0.68007392  0.42764177  0.35180253  1
  Al0+  Al74  1  0.07089542  0.17937781  0.31891528  1
  Al0+  Al75  1  0.31959007  0.56892756  0.01087998  1
  Al0+  Al76  1  0.67890682  0.92809051  0.01298192  1
  Al0+  Al77  1  0.57055468  0.67924150  0.98872964  1
  Al0+  Al78  1  0.17775147  0.43025455  0.67866379  1
  Al0+  Al79  1  0.57377328  0.67650415  0.64867828  1
  Al0+  Al80  1  0.17837892  0.93200776  0.34774246  1
  Al0+  Al81  1  0.32087028  0.57243734  0.34969320  1
  Al0+  Al82  1  0.92794232  0.81982583  0.31943456  1
  Al0+  Al83  1  0.42934421  0.82114590  0.65189403  1
  Al0+  Al84  1  0.57156060  0.17967745  0.31878079  1
  Al0+  Al85  1  0.32216292  0.07283168  0.01778528  1
  Al0+  Al86  1  0.92804327  0.32158246  0.65219051  1
  Al0+  Al87  1  0.82268411  0.57250122  0.01329354  1
  Al0+  Al88  1  0.82215884  0.57192776  0.35091634  1
  Al0+  Al89  1  0.18092965  0.92814717  0.01752627  1
  Al0+  Al90  1  0.67641481  0.92992687  0.34827236  1
  Al0+  Al91  1  0.81908512  0.07197646  0.67772094  1
  Al0+  Al92  1  0.82145838  0.07214241  0.01609436  1
  Al0+  Al93  1  0.42723670  0.82017285  0.31807820  1
  Al0+  Al94  1  0.17827270  0.92646302  0.68203073  1
  Al0+  Al95  1  0.32367044  0.07108359  0.67962126  1
  Si0+  Si96  1  0.57047862  0.18021118  0.65416886  1
  Si0+  Si97  1  0.67879594  0.92609396  0.68195311  1
  Si0+  Si98  1  0.07154263  0.17858301  0.65176364  1
  Si0+  Si99  1  0.07178235  0.67750131  0.98489457  1
  Si0+  Si100  1  0.92844948  0.32413070  0.31338301  1
  Si0+  Si101  1  0.07217345  0.67694787  0.31692744  1
  Si0+  Si102  1  0.17889110  0.42585599  0.34833482  1
  Si0+  Si103  1  0.82220409  0.07118878  0.34869618  1
  Si0+  Si104  1  0.92979998  0.82132193  0.98356738  1
  Si0+  Si105  1  0.42645559  0.32070975  0.65236561  1
  Si0+  Si106  1  0.93104505  0.82295210  0.65317570  1
  Si0+  Si107  1  0.82113196  0.57139712  0.68156581  1
  Si0+  Si108  1  0.07187446  0.17833593  0.98081266  1
  Si0+  Si109  1  0.32171781  0.07359005  0.34793579  1
  Si0+  Si110  1  0.93017301  0.32027335  0.98482382  1
  Si0+  Si111  1  0.67925996  0.42916612  0.68170951  1
  Si0+  Si112  1  0.42845881  0.32415877  0.31665584  1
  Si0+  Si113  1  0.42546810  0.82196597  0.98368797  1
  Si0+  Si114  1  0.42850884  0.32041324  0.98424519  1
  Si0+  Si115  1  0.57252050  0.17902006  0.98364362  1
  Si0+  Si116  1  0.57034081  0.67814007  0.31728967  1
  Si0+  Si117  1  0.17644103  0.42693218  0.01655667  1
  Si0+  Si118  1  0.07057378  0.67821095  0.65301342  1
  Si0+  Si119  1  0.32373359  0.56999347  0.68402114  1
  O2-  O120  1  0.25464936  -0.00240452  0.06798743  1
  O2-  O121  1  0.25302856  0.00647203  0.39398255  1
  O2-  O122  1  0.25328581  -0.00299008  0.72892188  1
  O2-  O123  1  0.24505681  0.49523346  0.06037563  1
  O2-  O124  1  0.24541930  0.49623366  0.39302081  1
  O2-  O125  1  0.25397474  0.50195323  0.72780846  1
  O2-  O126  1  0.74954020  0.00035964  0.06495524  1
  O2-  O127  1  0.75095205  0.00591634  0.39419614  1
  O2-  O128  1  0.74734719  -0.00480402  0.72556202  1
  O2-  O129  1  0.74651421  0.50488751  0.06206898  1
  O2-  O130  1  0.75246726  0.49865577  0.40280180  1
  O2-  O131  1  0.74638255  0.50405652  0.72328798  1
  O2-  O132  1  -0.00322946  0.25446048  0.27011887  1
  O2-  O133  1  0.00267588  0.24641991  0.60622720  1
  O2-  O134  1  0.00015415  0.24948806  0.93954936  1
  O2-  O135  1  0.00062325  0.74246773  0.27256287  1
  O2-  O136  1  0.00540061  0.75489354  0.61160927  1
  O2-  O137  1  0.00025479  0.74835389  0.94208838  1
  O2-  O138  1  0.49840546  0.25685367  0.27249328  1
  O2-  O139  1  0.49390172  0.24551769  0.61196823  1
  O2-  O140  1  0.49942145  0.24878878  0.94148455  1
  O2-  O141  1  0.50188251  0.74556531  0.27113564  1
  O2-  O142  1  0.50232323  0.75020478  0.60108105  1
  O2-  O143  1  0.49753315  0.75570749  0.94069377  1
  O2-  O144  1  0.07190845  0.18037373  0.08592628  1
  O2-  O145  1  0.07011612  0.18109331  0.43245070  1
  O2-  O146  1  0.06997983  0.18129570  0.75739991  1
  O2-  O147  1  0.07326076  0.67615838  0.08939589  1
  O2-  O148  1  0.07169523  0.67732704  0.42309225  1
  O2-  O149  1  0.06738178  0.67473150  0.75841262  1
  O2-  O150  1  0.57318253  0.18103886  0.08835978  1
  O2-  O151  1  0.56892810  0.17969223  0.43288381  1
  O2-  O152  1  0.57293330  0.18374016  0.75939787  1
  O2-  O153  1  0.56790374  0.67771150  0.10149008  1
  O2-  O154  1  0.56808111  0.68033283  0.42293572  1
  O2-  O155  1  0.57346127  0.67536009  0.76290965  1
  O2-  O156  1  0.18056721  0.42557034  0.24264457  1
  O2-  O157  1  0.17982117  0.43201677  0.56569347  1
  O2-  O158  1  0.17570959  0.42853843  0.91055272  1
  O2-  O159  1  0.17857770  0.93223182  0.23517038  1
  O2-  O160  1  0.17453906  0.93026290  0.56864080  1
  O2-  O161  1  0.18146442  0.92836175  0.90386029  1
  O2-  O162  1  0.68024417  0.42930799  0.23844824  1
  O2-  O163  1  0.68125055  0.42548727  0.57733707  1
  O2-  O164  1  0.67892952  0.42869369  0.89932331  1
  O2-  O165  1  0.67718094  0.92973549  0.23550756  1
  O2-  O166  1  0.67866010  0.92878148  0.57640066  1
  O2-  O167  1  0.68274029  0.92883828  0.89869676  1
  O2-  O168  1  0.42771741  0.32133073  0.08890610  1
  O2-  O169  1  0.42530070  0.32055454  0.42265514  1
  O2-  O170  1  0.42921789  0.32460535  0.75761110  1
  O2-  O171  1  0.42357822  0.81850219  0.08918883  1
  O2-  O172  1  0.42692930  0.82023413  0.43114278  1
  O2-  O173  1  0.43069700  0.81903283  0.76586433  1
  O2-  O174  1  0.93362708  0.32057405  0.08945360  1
  O2-  O175  1  0.92984309  0.32327395  0.41937782  1
  O2-  O176  1  0.92790429  0.32178908  0.76574656  1
  O2-  O177  1  0.92949543  0.82104685  0.08829256  1
  O2-  O178  1  0.93152111  0.82160645  0.43331528  1
  O2-  O179  1  0.92858862  0.82017260  0.75846652  1
  O2-  O180  1  0.31955433  0.07349945  0.24264017  1
  O2-  O181  1  0.32199754  0.07442121  0.56610752  1
  O2-  O182  1  0.31938161  0.07409979  0.90419477  1
  O2-  O183  1  0.32101006  0.57091670  0.23624484  1
  O2-  O184  1  0.32131716  0.56883945  0.57853785  1
  O2-  O185  1  0.31744817  0.56567354  0.89769423  1
  O2-  O186  1  0.82140427  0.06873250  0.24333785  1
  O2-  O187  1  0.81808125  0.07124092  0.56475979  1
  O2-  O188  1  0.81935923  0.07309967  0.90180433  1
  O2-  O189  1  0.82008022  0.57084539  0.23755581  1
  O2-  O190  1  0.82383751  0.57044414  0.57712809  1
  O2-  O191  1  0.82508804  0.56855216  0.89901792  1
  O2-  O192  1  0.03822638  0.08537718  0.26155920  1
  O2-  O193  1  0.04491750  0.08426792  0.60767848  1
  O2-  O194  1  0.04456801  0.08606189  0.93408187  1
  O2-  O195  1  0.05278282  0.58165808  0.27119301  1
  O2-  O196  1  0.03736874  0.58996743  0.60216003  1
  O2-  O197  1  0.04423783  0.58491238  0.93697695  1
  O2-  O198  1  0.53939329  0.08567059  0.26150920  1
  O2-  O199  1  0.54910278  0.08639004  0.60810205  1
  O2-  O200  1  0.54646428  0.08669530  0.93544649  1
  O2-  O201  1  0.54456855  0.58235293  0.27617879  1
  O2-  O202  1  0.54540222  0.57802711  0.59525746  1
  O2-  O203  1  0.53806291  0.58238645  0.93387865  1
  O2-  O204  1  0.16646698  0.21101924  0.26174687  1
  O2-  O205  1  0.16528054  0.20535966  0.60660907  1
  O2-  O206  1  0.16374355  0.20730142  0.93381297  1
  O2-  O207  1  0.16493589  0.70637782  0.27215452  1
  O2-  O208  1  0.16509307  0.69808412  0.60800591  1
  O2-  O209  1  0.16281407  0.70604637  0.93518755  1
  O2-  O210  1  0.66865020  0.20913731  0.26466006  1
  O2-  O211  1  0.65885065  0.21415760  0.60422348  1
  O2-  O212  1  0.66439291  0.20937548  0.93645508  1
  O2-  O213  1  0.66508656  0.70302650  0.27480108  1
  O2-  O214  1  0.67356651  0.70144088  0.59655281  1
  O2-  O215  1  0.66793047  0.70812649  0.93296781  1
  O2-  O216  1  0.08370642  0.45140028  0.06343809  1
  O2-  O217  1  0.08437033  0.44804955  0.39329947  1
  O2-  O218  1  0.08193009  0.46367676  0.73347567  1
  O2-  O219  1  0.08279121  0.95943023  0.06790448  1
  O2-  O220  1  0.08101763  0.96452183  0.39935321  1
  O2-  O221  1  0.08161084  0.95623861  0.73823894  1
  O2-  O222  1  0.57831858  0.45218368  0.06646959  1
  O2-  O223  1  0.58169348  0.45275868  0.40632538  1
  O2-  O224  1  0.58515051  0.45274302  0.72697187  1
  O2-  O225  1  0.57978731  0.95338840  0.06376778  1
  O2-  O226  1  0.57997736  0.96402841  0.40090680  1
  O2-  O227  1  0.58593192  0.95094636  0.72865529  1
  O2-  O228  1  0.20226267  0.33329567  0.06062055  1
  O2-  O229  1  0.20734625  0.33320344  0.39505235  1
  O2-  O230  1  0.20518360  0.33446944  0.73565296  1
  O2-  O231  1  0.20333554  0.82859091  0.07004038  1
  O2-  O232  1  0.20587657  0.83511474  0.40189261  1
  O2-  O233  1  0.20339078  0.82644741  0.73412686  1
  O2-  O234  1  0.70931344  0.33338767  0.06738810  1
  O2-  O235  1  0.70943718  0.32820838  0.40345392  1
  O2-  O236  1  0.70998588  0.33921510  0.73113295  1
  O2-  O237  1  0.70920002  0.83133124  0.06686431  1
  O2-  O238  1  0.70785879  0.83518083  0.40418543  1
  O2-  O239  1  0.70649283  0.83180313  0.72524242  1
  O2-  O240  1  0.45459004  0.41935104  0.27452441  1
  O2-  O241  1  0.45721071  0.40981147  0.60151663  1
  O2-  O242  1  0.45655847  0.41107259  0.93411601  1
  O2-  O243  1  0.45620195  0.91646075  0.26348450  1
  O2-  O244  1  0.45654760  0.92035628  0.59852551  1
  O2-  O245  1  0.44750471  0.91788912  0.94056421  1
  O2-  O246  1  0.95588307  0.41736261  0.26734728  1
  O2-  O247  1  0.96020510  0.41723879  0.59708381  1
  O2-  O248  1  0.95796159  0.41261666  0.93683760  1
  O2-  O249  1  0.96001822  0.91431373  0.26298548  1
  O2-  O250  1  0.95646028  0.91609180  0.60729653  1
  O2-  O251  1  0.96044727  0.91294467  0.93608017  1
  O2-  O252  1  0.33612638  0.30043951  0.26702415  1
  O2-  O253  1  0.33290697  0.29715115  0.60646611  1
  O2-  O254  1  0.33586310  0.29312621  0.93639509  1
  O2-  O255  1  0.32995326  0.78688380  0.26676752  1
  O2-  O256  1  0.33001628  0.79154909  0.60005066  1
  O2-  O257  1  0.33272077  0.79193516  0.93763673  1
  O2-  O258  1  0.83470827  0.29986584  0.26821440  1
  O2-  O259  1  0.83217777  0.29031624  0.59701592  1
  O2-  O260  1  0.83729237  0.29285586  0.93842183  1
  O2-  O261  1  0.83028276  0.78921634  0.26718491  1
  O2-  O262  1  0.84076809  0.79325085  0.60391553  1
  O2-  O263  1  0.83896392  0.79530581  0.93300184  1
  O2-  O264  1  0.42327750  0.05331171  0.06676807  1
  O2-  O265  1  0.41583253  0.04829086  0.39153112  1
  O2-  O266  1  0.42275392  0.04549474  0.73401302  1
  O2-  O267  1  0.41375177  0.53628746  0.06696774  1
  O2-  O268  1  0.41476362  0.54136380  0.40741168  1
  O2-  O269  1  0.41757957  0.54080236  0.72725618  1
  O2-  O270  1  0.92089715  0.04541384  0.06513972  1
  O2-  O271  1  0.91470588  0.04222098  0.39439605  1
  O2-  O272  1  0.91489405  0.04444058  0.73469214  1
  O2-  O273  1  0.91940429  0.54143360  0.06828886  1
  O2-  O274  1  0.92302707  0.54552331  0.40132098  1
  O2-  O275  1  0.91160714  0.54075572  0.72976138  1
  O2-  O276  1  0.29064488  0.17057920  0.07046683  1
  O2-  O277  1  0.29809486  0.16921363  0.39110522  1
  O2-  O278  1  0.29547840  0.16888043  0.73489999  1
  O2-  O279  1  0.28813906  0.66370852  0.06653595  1
  O2-  O280  1  0.28574471  0.66568096  0.40669132  1
  O2-  O281  1  0.29858822  0.66305442  0.73013923  1
  O2-  O282  1  0.79520325  0.16962290  0.07006415  1
  O2-  O283  1  0.80135239  0.16702460  0.39141858  1
  O2-  O284  1  0.78568663  0.16785919  0.73241923  1
  O2-  O285  1  0.80049585  0.67266817  0.06225846  1
  O2-  O286  1  0.79352566  0.66924781  0.40561159  1
  O2-  O287  1  0.79781007  0.66498607  0.72829763  1
