# generated using pymatgen
data_Ca2Al2SiO7
_symmetry_space_group_name_H-M   'P 1'
_cell_length_a   15.46153885
_cell_length_b   15.46132446
_cell_length_c   15.28633084
_cell_angle_alpha   89.99453861
_cell_angle_beta   90.00762732
_cell_angle_gamma   90.02920691
_symmetry_Int_Tables_number   1
_chemical_formula_structural   Ca2Al2SiO7
_chemical_formula_sum   'Ca48 Al48 Si24 O168'
_cell_volume   3654.28657612
_cell_formula_units_Z   24
loop_
 _symmetry_equiv_pos_site_id
 _symmetry_equiv_pos_as_xyz
  1  'x, y, z'
loop_
 _atom_type_symbol
 _atom_type_oxidation_number
  Ca2+  2.0
  Al0+  0.0
  Si0+  0.0
  O2-  -2.0
loop_
 _atom_site_type_symbol
 _atom_site_label
 _atom_site_symmetry_multiplicity
 _atom_site_fract_x
 _atom_site_fract_y
 _atom_site_fract_z
 _atom_site_occupancy
  Ca2+  Ca0  1  0.16483822  0.07490741  0.17030233  1
  Ca2+  Ca1  1  0.17264627  0.08182918  0.50269709  1
  Ca2+  Ca2  1  0.16316625  0.08389300  0.83748996  1
  Ca2+  Ca3  1  0.17372016  0.57800303  0.17086110  1
  Ca2+  Ca4  1  0.17453581  0.57571617  0.50915994  1
  Ca2+  Ca5  1  0.17164041  0.57258903  0.84407619  1
  Ca2+  Ca6  1  0.67881397  0.08181566  0.16849782  1
  Ca2+  Ca7  1  0.67443819  0.08261592  0.50163169  1
  Ca2+  Ca8  1  0.67462165  0.07636006  0.84463887  1
  Ca2+  Ca9  1  0.65907863  0.57333958  0.16625515  1
  Ca2+  Ca10  1  0.67094570  0.57999706  0.50553488  1
  Ca2+  Ca11  1  0.67125378  0.58671745  0.83855745  1
  Ca2+  Ca12  1  0.08986323  0.32789084  0.15782671  1
  Ca2+  Ca13  1  0.08559248  0.33543742  0.50069724  1
  Ca2+  Ca14  1  0.08739730  0.32577790  0.82548086  1
  Ca2+  Ca15  1  0.08386910  0.83561147  0.16016203  1
  Ca2+  Ca16  1  0.07954253  0.83305134  0.49071056  1
  Ca2+  Ca17  1  0.08954109  0.82769261  0.83716931  1
  Ca2+  Ca18  1  0.57740970  0.33897740  0.15667342  1
  Ca2+  Ca19  1  0.58165755  0.33392983  0.49334636  1
  Ca2+  Ca20  1  0.57600800  0.34216633  0.83545378  1
  Ca2+  Ca21  1  0.57949193  0.82724773  0.15640566  1
  Ca2+  Ca22  1  0.58064297  0.82480074  0.49705315  1
  Ca2+  Ca23  1  0.58635085  0.82358972  0.82951087  1
  Ca2+  Ca24  1  0.32598441  0.42303909  0.16676230  1
  Ca2+  Ca25  1  0.32116608  0.42347706  0.50245320  1
  Ca2+  Ca26  1  0.32536129  0.42209137  0.83839756  1
  Ca2+  Ca27  1  0.31980285  0.91924451  0.17239377  1
  Ca2+  Ca28  1  0.33071603  0.92599000  0.50146168  1
  Ca2+  Ca29  1  0.32915221  0.92544984  0.83823905  1
  Ca2+  Ca30  1  0.81916631  0.41301132  0.16931611  1
  Ca2+  Ca31  1  0.82903637  0.41789909  0.50720622  1
  Ca2+  Ca32  1  0.83093426  0.41758788  0.83478622  1
  Ca2+  Ca33  1  0.83630320  0.92601028  0.16829869  1
  Ca2+  Ca34  1  0.84158860  0.92142234  0.49899219  1
  Ca2+  Ca35  1  0.82807914  0.92342978  0.84407247  1
  Ca2+  Ca36  1  0.41135381  0.17544786  0.16008857  1
  Ca2+  Ca37  1  0.41283643  0.16345895  0.49482030  1
  Ca2+  Ca38  1  0.41083192  0.17512666  0.82911308  1
  Ca2+  Ca39  1  0.41728574  0.65985521  0.15715370  1
  Ca2+  Ca40  1  0.41926777  0.65393604  0.49889369  1
  Ca2+  Ca41  1  0.42509378  0.65613216  0.83084488  1
  Ca2+  Ca42  1  0.91981426  0.16388609  0.15924020  1
  Ca2+  Ca43  1  0.92227083  0.17100353  0.49708269  1
  Ca2+  Ca44  1  0.92606561  0.17142651  0.82921311  1
  Ca2+  Ca45  1  0.92597235  0.67450803  0.16092965  1
  Ca2+  Ca46  1  0.91603001  0.67117471  0.49432281  1
  Ca2+  Ca47  1  0.92316121  0.66142531  0.82947956  1
  Al0+  Al48  1  0.00070492  0.00164944  0.00113123  1
  Al0+  Al49  1  -0.00114946  0.00068875  0.33694505  1
  Al0+  Al50  1  0.00042523  0.00080740  0.66365722  1
  Al0+  Al51  1  -0.00086877  0.50028882  0.00063394  1
  Al0+  Al52  1  -0.00247313  0.49955184  0.33269997  1
  Al0+  Al53  1  -0.00251900  0.49945395  0.66884717  1
  Al0+  Al54  1  0.50106893  0.00066687  0.00341810  1
  Al0+  Al55  1  0.50272261  -0.00223762  0.33315268  1
  Al0+  Al56  1  0.49931195  -0.00109329  0.66979840  1
  Al0+  Al57  1  0.50056821  0.50072032  -0.00328925  1
  Al0+  Al58  1  0.50043942  0.49667934  0.33988687  1
  Al0+  Al59  1  0.50007289  0.49817580  0.66192898  1
  Al0+  Al60  1  0.25008457  0.25173754  -0.00729146  1
  Al0+  Al61  1  0.25062012  0.25112552  0.33743293  1
  Al0+  Al62  1  0.25087098  0.24825610  0.66691813  1
  Al0+  Al63  1  0.25040037  0.75223753  0.00136254  1
  Al0+  Al64  1  0.25213789  0.74981166  0.34133863  1
  Al0+  Al65  1  0.25182392  0.75224335  0.66834871  1
  Al0+  Al66  1  0.75004774  0.25078390  0.00589105  1
  Al0+  Al67  1  0.75024193  0.24828430  0.34095533  1
  Al0+  Al68  1  0.74995234  0.24912438  0.66428787  1
  Al0+  Al69  1  0.74959018  0.75175477  0.00093078  1
  Al0+  Al70  1  0.74968870  0.75012595  0.32484583  1
  Al0+  Al71  1  0.74853516  0.74807732  0.66427651  1
  Al0+  Al72  1  0.32262498  0.07086326  0.34552354  1
  Al0+  Al73  1  0.17663178  0.42694367  0.01433497  1
  Al0+  Al74  1  0.93029477  0.82205860  0.31792859  1
  Al0+  Al75  1  0.32061296  0.57058108  0.01306647  1
  Al0+  Al76  1  0.07220233  0.67847413  0.98736387  1
  Al0+  Al77  1  0.07221890  0.17856787  0.64781546  1
  Al0+  Al78  1  0.17795412  0.42976209  0.68306128  1
  Al0+  Al79  1  0.17533783  0.42844401  0.34816419  1
  Al0+  Al80  1  0.18077505  0.93074041  0.01216856  1
  Al0+  Al81  1  0.68055445  0.43226908  0.01100395  1
  Al0+  Al82  1  0.81926546  0.57195027  0.67945174  1
  Al0+  Al83  1  0.56959848  0.67874047  0.65059764  1
  Al0+  Al84  1  0.82049243  0.06947032  0.34997857  1
  Al0+  Al85  1  0.92777608  0.32180096  0.65052252  1
  Al0+  Al86  1  0.32127389  0.57074621  0.34862093  1
  Al0+  Al87  1  0.17779821  0.92878447  0.34935337  1
  Al0+  Al88  1  0.32129363  0.06964179  0.68176617  1
  Al0+  Al89  1  0.67710260  0.92672523  0.01580961  1
  Al0+  Al90  1  0.68004490  0.42921499  0.34787412  1
  Al0+  Al91  1  0.06984347  0.17997925  0.98752297  1
  Al0+  Al92  1  0.42997990  0.32056667  0.98554064  1
  Al0+  Al93  1  0.82120006  0.07097744  0.01392138  1
  Al0+  Al94  1  0.32272405  0.57221859  0.68380913  1
  Al0+  Al95  1  0.57024233  0.68060083  0.98639697  1
  Si0+  Si96  1  0.57362583  0.17790899  0.98458547  1
  Si0+  Si97  1  0.92590808  0.32165239  0.31750121  1
  Si0+  Si98  1  0.42888734  0.82201845  0.31802037  1
  Si0+  Si99  1  0.82411244  0.57493947  0.01806226  1
  Si0+  Si100  1  0.67860415  0.92522420  0.35103200  1
  Si0+  Si101  1  0.92456479  0.32285005  0.98533970  1
  Si0+  Si102  1  0.17511841  0.92852339  0.68467500  1
  Si0+  Si103  1  0.57362902  0.17714720  0.31840578  1
  Si0+  Si104  1  0.07194771  0.67929486  0.65318517  1
  Si0+  Si105  1  0.57093348  0.17595618  0.65171886  1
  Si0+  Si106  1  0.67998097  0.92888001  0.67979642  1
  Si0+  Si107  1  0.92988675  0.82215739  0.98287430  1
  Si0+  Si108  1  0.82143989  0.07092228  0.68188871  1
  Si0+  Si109  1  0.92832683  0.82000953  0.65331189  1
  Si0+  Si110  1  0.42852208  0.82445664  0.64875723  1
  Si0+  Si111  1  0.67823512  0.42590747  0.68321536  1
  Si0+  Si112  1  0.43022375  0.31924787  0.64843108  1
  Si0+  Si113  1  0.82031284  0.57360148  0.34717285  1
  Si0+  Si114  1  0.07055870  0.18197396  0.31844026  1
  Si0+  Si115  1  0.32282715  0.07460709  0.01488002  1
  Si0+  Si116  1  0.43092666  0.31874876  0.31845757  1
  Si0+  Si117  1  0.07389163  0.67733948  0.31863387  1
  Si0+  Si118  1  0.42696223  0.82511482  0.98334439  1
  Si0+  Si119  1  0.56848175  0.67717110  0.31725676  1
  O2-  O120  1  0.25606985  0.00470296  0.05881055  1
  O2-  O121  1  0.25117083  -0.00003268  0.39790226  1
  O2-  O122  1  0.24398245  -0.00238187  0.72744953  1
  O2-  O123  1  0.24563602  0.50212650  0.06313577  1
  O2-  O124  1  0.24277177  0.50526572  0.39701242  1
  O2-  O125  1  0.24721086  0.50437417  0.73296466  1
  O2-  O126  1  0.74872777  -0.00063437  0.06441229  1
  O2-  O127  1  0.74745531  -0.00734551  0.39705438  1
  O2-  O128  1  0.75060035  -0.00041441  0.72306644  1
  O2-  O129  1  0.75519995  0.50557821  0.06066189  1
  O2-  O130  1  0.75499385  0.50331262  0.39368241  1
  O2-  O131  1  0.74628069  0.49539462  0.72591248  1
  O2-  O132  1  0.00122152  0.25499417  0.27587256  1
  O2-  O133  1  0.00142739  0.25251737  0.59837292  1
  O2-  O134  1  -0.00253757  0.25813760  0.94251151  1
  O2-  O135  1  0.00794888  0.74906470  0.27385601  1
  O2-  O136  1  0.00151439  0.75129126  0.61083998  1
  O2-  O137  1  -0.00493585  0.75066273  0.93807148  1
  O2-  O138  1  0.49985702  0.24498065  0.27634003  1
  O2-  O139  1  0.50127657  0.24694881  0.60733643  1
  O2-  O140  1  0.50360481  0.24360584  0.93830457  1
  O2-  O141  1  0.49571586  0.74669904  0.27594933  1
  O2-  O142  1  0.49116493  0.74999697  0.60375747  1
  O2-  O143  1  0.49725113  0.75749456  0.93958253  1
  O2-  O144  1  0.06901400  0.17860535  0.10120641  1
  O2-  O145  1  0.06938820  0.18194729  0.42332445  1
  O2-  O146  1  0.06771387  0.17560444  0.76133194  1
  O2-  O147  1  0.07073540  0.68079273  0.10053804  1
  O2-  O148  1  0.06954973  0.67742823  0.42462230  1
  O2-  O149  1  0.07096073  0.68091134  0.75822483  1
  O2-  O150  1  0.57349128  0.17997310  0.09030359  1
  O2-  O151  1  0.57389403  0.17827744  0.42401982  1
  O2-  O152  1  0.57169911  0.17487047  0.75649955  1
  O2-  O153  1  0.56713594  0.67898463  0.09997041  1
  O2-  O154  1  0.57025455  0.67928032  0.42253622  1
  O2-  O155  1  0.57299889  0.68223483  0.76325914  1
  O2-  O156  1  0.17867427  0.42580355  0.23488311  1
  O2-  O157  1  0.17944261  0.43232830  0.56927975  1
  O2-  O158  1  0.17837725  0.42604664  0.90120336  1
  O2-  O159  1  0.17813888  0.93062329  0.23572851  1
  O2-  O160  1  0.17397156  0.92768966  0.57925858  1
  O2-  O161  1  0.18146429  0.93162422  0.89900325  1
  O2-  O162  1  0.67772055  0.43008755  0.23485917  1
  O2-  O163  1  0.67907358  0.42581539  0.57728642  1
  O2-  O164  1  0.68175674  0.43253805  0.89801825  1
  O2-  O165  1  0.67759790  0.92698226  0.24607283  1
  O2-  O166  1  0.68061203  0.93024531  0.57454145  1
  O2-  O167  1  0.67988267  0.92766839  0.90126614  1
  O2-  O168  1  0.43120507  0.31940980  0.09919140  1
  O2-  O169  1  0.43336867  0.31789249  0.42374915  1
  O2-  O170  1  0.43257982  0.31998218  0.75351148  1
  O2-  O171  1  0.42745077  0.82505720  0.08915800  1
  O2-  O172  1  0.43362225  0.82631271  0.42296035  1
  O2-  O173  1  0.43350868  0.83040615  0.75375102  1
  O2-  O174  1  0.92122619  0.31997860  0.09121082  1
  O2-  O175  1  0.92323246  0.31985540  0.42227826  1
  O2-  O176  1  0.92220223  0.31678440  0.76384953  1
  O2-  O177  1  0.93208239  0.82253546  0.08846604  1
  O2-  O178  1  0.92892792  0.81855748  0.43190827  1
  O2-  O179  1  0.92655211  0.82055094  0.75813031  1
  O2-  O180  1  0.32116024  0.07108418  0.23204954  1
  O2-  O181  1  0.32443580  0.06597615  0.56886896  1
  O2-  O182  1  0.32314062  0.07254973  0.90918914  1
  O2-  O183  1  0.32425782  0.56825646  0.23537014  1
  O2-  O184  1  0.32104316  0.56825105  0.57015522  1
  O2-  O185  1  0.32136880  0.56789154  0.89983889  1
  O2-  O186  1  0.81932870  0.07100598  0.23747692  1
  O2-  O187  1  0.82009742  0.06942918  0.57664476  1
  O2-  O188  1  0.81984334  0.06940579  0.89973105  1
  O2-  O189  1  0.81853992  0.57290766  0.24184691  1
  O2-  O190  1  0.81592982  0.57536038  0.56613806  1
  O2-  O191  1  0.82311851  0.57546317  0.91228426  1
  O2-  O192  1  0.03964279  0.08998093  0.27342821  1
  O2-  O193  1  0.04044016  0.08030366  0.59464361  1
  O2-  O194  1  0.03646445  0.08466802  0.93178185  1
  O2-  O195  1  0.04519987  0.58476674  0.27123689  1
  O2-  O196  1  0.04214450  0.58847678  0.60590239  1
  O2-  O197  1  0.04138491  0.58171143  0.93267880  1
  O2-  O198  1  0.55139774  0.08339097  0.27217377  1
  O2-  O199  1  0.54315063  0.08411470  0.60365297  1
  O2-  O200  1  0.55199438  0.08242009  0.93984708  1
  O2-  O201  1  0.54099943  0.58355113  0.27346060  1
  O2-  O202  1  0.54312975  0.58080564  0.59587101  1
  O2-  O203  1  0.53996465  0.58540537  0.93014159  1
  O2-  O204  1  0.16364395  0.20768088  0.27234161  1
  O2-  O205  1  0.17244691  0.20393915  0.59711903  1
  O2-  O206  1  0.16590941  0.20697568  0.93091120  1
  O2-  O207  1  0.16998676  0.69983313  0.27696699  1
  O2-  O208  1  0.16440929  0.70673606  0.60608983  1
  O2-  O209  1  0.16712923  0.71339942  0.93230325  1
  O2-  O210  1  0.66496572  0.20828551  0.27241945  1
  O2-  O211  1  0.66266886  0.20320888  0.60304695  1
  O2-  O212  1  0.66698398  0.20534626  0.93871438  1
  O2-  O213  1  0.65943350  0.70495367  0.26837469  1
  O2-  O214  1  0.66444744  0.71440126  0.59449180  1
  O2-  O215  1  0.66840688  0.71001861  0.93313644  1
  O2-  O216  1  0.07623032  0.44984180  0.06555520  1
  O2-  O217  1  0.07388780  0.45007970  0.39807780  1
  O2-  O218  1  0.07765887  0.45289840  0.73325962  1
  O2-  O219  1  0.08500390  0.96204569  0.06637623  1
  O2-  O220  1  0.08049780  0.95794874  0.40283899  1
  O2-  O221  1  0.08132654  0.95411127  0.73052542  1
  O2-  O222  1  0.58510359  0.46444128  0.06597099  1
  O2-  O223  1  0.58567657  0.45980620  0.40521552  1
  O2-  O224  1  0.58383144  0.45137505  0.72580047  1
  O2-  O225  1  0.57868453  0.95352936  0.06971441  1
  O2-  O226  1  0.58604323  0.95184457  0.39872677  1
  O2-  O227  1  0.58909495  0.95632858  0.72811426  1
  O2-  O228  1  0.21075819  0.32939759  0.06565581  1
  O2-  O229  1  0.20994794  0.33311139  0.40302338  1
  O2-  O230  1  0.20962143  0.33093030  0.73176114  1
  O2-  O231  1  0.21027581  0.83548006  0.06865745  1
  O2-  O232  1  0.20430055  0.83086371  0.40382082  1
  O2-  O233  1  0.20174565  0.83513891  0.73048171  1
  O2-  O234  1  0.70793625  0.33602124  0.06797876  1
  O2-  O235  1  0.70906998  0.33330337  0.40347487  1
  O2-  O236  1  0.70293010  0.33178573  0.72874615  1
  O2-  O237  1  0.70485223  0.82907030  0.06992388  1
  O2-  O238  1  0.70396278  0.83040325  0.39462921  1
  O2-  O239  1  0.70907213  0.83759732  0.72631217  1
  O2-  O240  1  0.46383227  0.40951068  0.27228732  1
  O2-  O241  1  0.45971987  0.40930247  0.59845204  1
  O2-  O242  1  0.46598942  0.41417749  0.92952095  1
  O2-  O243  1  0.46059052  0.91166171  0.26785572  1
  O2-  O244  1  0.46225169  0.91494623  0.59954352  1
  O2-  O245  1  0.45187626  0.91997984  0.93794246  1
  O2-  O246  1  0.94522861  0.41595049  0.27084306  1
  O2-  O247  1  0.95113120  0.42241761  0.59853973  1
  O2-  O248  1  0.94320754  0.41870003  0.94155377  1
  O2-  O249  1  0.95898504  0.92024225  0.26591104  1
  O2-  O250  1  0.95466570  0.91215780  0.60505369  1
  O2-  O251  1  0.95841908  0.91441371  0.93590627  1
  O2-  O252  1  0.33836340  0.29263106  0.27161047  1
  O2-  O253  1  0.33907441  0.29015743  0.60152669  1
  O2-  O254  1  0.33566943  0.29013132  0.92734092  1
  O2-  O255  1  0.33438495  0.79888746  0.27413597  1
  O2-  O256  1  0.33205862  0.80650424  0.60512899  1
  O2-  O257  1  0.33400105  0.80089095  0.93624282  1
  O2-  O258  1  0.83494367  0.28765107  0.27127797  1
  O2-  O259  1  0.82938428  0.29031570  0.59619333  1
  O2-  O260  1  0.83261011  0.29304431  0.93742983  1
  O2-  O261  1  0.83426213  0.79123101  0.26184300  1
  O2-  O262  1  0.83806965  0.79068018  0.60348051  1
  O2-  O263  1  0.83441349  0.80037802  0.93893940  1
  O2-  O264  1  0.41768784  0.05400992  0.06048618  1
  O2-  O265  1  0.42224521  0.04263804  0.39756537  1
  O2-  O266  1  0.41741372  0.03789025  0.73715378  1
  O2-  O267  1  0.41798063  0.53824198  0.06529276  1
  O2-  O268  1  0.41636260  0.53445938  0.40370772  1
  O2-  O269  1  0.42186165  0.53890670  0.73181055  1
  O2-  O270  1  0.91757202  0.03981840  0.06835872  1
  O2-  O271  1  0.91559463  0.03876518  0.40574198  1
  O2-  O272  1  0.91316973  0.04210166  0.72767602  1
  O2-  O273  1  0.91704578  0.55050471  0.06510361  1
  O2-  O274  1  0.91479119  0.55209814  0.39273704  1
  O2-  O275  1  0.91537209  0.54411149  0.73477763  1
  O2-  O276  1  0.29553944  0.16785715  0.05878581  1
  O2-  O277  1  0.29560036  0.16845675  0.39974351  1
  O2-  O278  1  0.29415354  0.16697921  0.73431157  1
  O2-  O279  1  0.29723414  0.67066120  0.06428377  1
  O2-  O280  1  0.30416956  0.67104367  0.40228817  1
  O2-  O281  1  0.30397529  0.67513380  0.73082037  1
  O2-  O282  1  0.79289828  0.16795776  0.06948598  1
  O2-  O283  1  0.78647305  0.16327406  0.40710550  1
  O2-  O284  1  0.79159762  0.16219012  0.72798894  1
  O2-  O285  1  0.79889721  0.66858460  0.06326460  1
  O2-  O286  1  0.79143027  0.66685949  0.39249440  1
  O2-  O287  1  0.78617621  0.66747977  0.73478073  1
