# generated using pymatgen
data_Ca2Al2SiO7
_symmetry_space_group_name_H-M   'P 1'
_cell_length_a   15.46570910
_cell_length_b   15.46368790
_cell_length_c   15.28868052
_cell_angle_alpha   90.01789439
_cell_angle_beta   90.00124159
_cell_angle_gamma   90.03467504
_symmetry_Int_Tables_number   1
_chemical_formula_structural   Ca2Al2SiO7
_chemical_formula_sum   'Ca48 Al48 Si24 O168'
_cell_volume   3656.39256941
_cell_formula_units_Z   24
loop_
 _symmetry_equiv_pos_site_id
 _symmetry_equiv_pos_as_xyz
  1  'x, y, z'
loop_
 _atom_type_symbol
 _atom_type_oxidation_number
  Ca2+  2.0
  Al0+  0.0
  Si0+  0.0
  O2-  -2.0
loop_
 _atom_site_type_symbol
 _atom_site_label
 _atom_site_symmetry_multiplicity
 _atom_site_fract_x
 _atom_site_fract_y
 _atom_site_fract_z
 _atom_site_occupancy
  Ca2+  Ca0  1  0.17267601  0.08667740  0.17133987  1
  Ca2+  Ca1  1  0.18417551  0.07872656  0.50655389  1
  Ca2+  Ca2  1  0.17114735  0.08328771  0.83416113  1
  Ca2+  Ca3  1  0.16943093  0.57351771  0.16725283  1
  Ca2+  Ca4  1  0.17390822  0.57746255  0.50440273  1
  Ca2+  Ca5  1  0.18088839  0.57817941  0.83814610  1
  Ca2+  Ca6  1  0.66370276  0.07470386  0.17177387  1
  Ca2+  Ca7  1  0.65098991  0.07673815  0.50263908  1
  Ca2+  Ca8  1  0.66345814  0.07380775  0.83747213  1
  Ca2+  Ca9  1  0.66896981  0.57282576  0.16557424  1
  Ca2+  Ca10  1  0.66573788  0.57096697  0.50628381  1
  Ca2+  Ca11  1  0.66878567  0.57144818  0.83813494  1
  Ca2+  Ca12  1  0.08792784  0.33118997  0.15866118  1
  Ca2+  Ca13  1  0.08249413  0.33658981  0.49371549  1
  Ca2+  Ca14  1  0.08627840  0.33211054  0.83497193  1
  Ca2+  Ca15  1  0.07373300  0.83070691  0.15524547  1
  Ca2+  Ca16  1  0.08538868  0.83396560  0.49858564  1
  Ca2+  Ca17  1  0.07596971  0.83582669  0.82765979  1
  Ca2+  Ca18  1  0.58383956  0.33440196  0.16533637  1
  Ca2+  Ca19  1  0.57493992  0.32936099  0.49312901  1
  Ca2+  Ca20  1  0.58444298  0.32981916  0.82140883  1
  Ca2+  Ca21  1  0.58306176  0.83820400  0.16563926  1
  Ca2+  Ca22  1  0.57503120  0.83903954  0.49594688  1
  Ca2+  Ca23  1  0.58218114  0.83413172  0.82533594  1
  Ca2+  Ca24  1  0.32584537  0.41558882  0.17084015  1
  Ca2+  Ca25  1  0.33402615  0.41361182  0.50530964  1
  Ca2+  Ca26  1  0.33910188  0.42664469  0.83918687  1
  Ca2+  Ca27  1  0.33682336  0.92498089  0.17643799  1
  Ca2+  Ca28  1  0.34103868  0.92639843  0.50764079  1
  Ca2+  Ca29  1  0.33437386  0.92114082  0.82967777  1
  Ca2+  Ca30  1  0.82109133  0.41361871  0.16868740  1
  Ca2+  Ca31  1  0.81895907  0.41806080  0.50650576  1
  Ca2+  Ca32  1  0.82323804  0.42461591  0.83701094  1
  Ca2+  Ca33  1  0.82550297  0.91772436  0.16485169  1
  Ca2+  Ca34  1  0.81808223  0.91855110  0.50471966  1
  Ca2+  Ca35  1  0.82154594  0.91865526  0.84204867  1
  Ca2+  Ca36  1  0.42018936  0.17018751  0.17107838  1
  Ca2+  Ca37  1  0.42332733  0.17000845  0.49694219  1
  Ca2+  Ca38  1  0.42350481  0.17539236  0.82070533  1
  Ca2+  Ca39  1  0.41471468  0.67260725  0.16276515  1
  Ca2+  Ca40  1  0.40892279  0.67890756  0.49920683  1
  Ca2+  Ca41  1  0.41336865  0.66926225  0.82544171  1
  Ca2+  Ca42  1  0.92506291  0.16329784  0.15452172  1
  Ca2+  Ca43  1  0.92102019  0.16663839  0.49769911  1
  Ca2+  Ca44  1  0.92183261  0.15933422  0.83462721  1
  Ca2+  Ca45  1  0.91252843  0.67105979  0.15653136  1
  Ca2+  Ca46  1  0.91544553  0.66282993  0.49817597  1
  Ca2+  Ca47  1  0.90827779  0.66665990  0.83061909  1
  Al0+  Al48  1  0.00004149  -0.00120943  -0.00693693  1
  Al0+  Al49  1  -0.00101976  -0.00090680  0.33238961  1
  Al0+  Al50  1  -0.00022798  -0.00193376  0.66486413  1
  Al0+  Al51  1  0.00179047  0.49999908  0.00324637  1
  Al0+  Al52  1  0.00217580  0.50011787  0.33479294  1
  Al0+  Al53  1  0.00048048  0.50073634  0.66862268  1
  Al0+  Al54  1  0.49822374  0.00110981  0.00251282  1
  Al0+  Al55  1  0.49971173  0.00093342  0.33212423  1
  Al0+  Al56  1  0.49853355  0.00045681  0.67025805  1
  Al0+  Al57  1  0.49960674  0.50319928  0.00826655  1
  Al0+  Al58  1  0.49958909  0.50287399  0.33267752  1
  Al0+  Al59  1  0.49947925  0.50026752  0.66955490  1
  Al0+  Al60  1  0.25144000  0.24953483  -0.00321773  1
  Al0+  Al61  1  0.25040461  0.24982753  0.33907148  1
  Al0+  Al62  1  0.24906012  0.24814722  0.66660275  1
  Al0+  Al63  1  0.24885994  0.75140175  0.00204829  1
  Al0+  Al64  1  0.24767264  0.74920752  0.32552866  1
  Al0+  Al65  1  0.24698524  0.74818152  0.66907530  1
  Al0+  Al66  1  0.75212838  0.24805782  0.00412625  1
  Al0+  Al67  1  0.75156959  0.25008825  0.33388555  1
  Al0+  Al68  1  0.75356717  0.24775579  0.66463680  1
  Al0+  Al69  1  0.74681710  0.74957361  0.00191020  1
  Al0+  Al70  1  0.75028659  0.75177811  0.33657102  1
  Al0+  Al71  1  0.75032373  0.75161091  0.66943221  1
  Al0+  Al72  1  0.32061115  0.56974562  0.67780994  1
  Al0+  Al73  1  0.67801351  0.93182083  0.67970834  1
  Al0+  Al74  1  0.67853527  0.42637208  0.01519573  1
  Al0+  Al75  1  0.18078521  0.42993724  0.34827833  1
  Al0+  Al76  1  0.82321407  0.06915667  0.01406847  1
  Al0+  Al77  1  0.92774155  0.81784839  0.98432978  1
  Al0+  Al78  1  0.07262287  0.17979336  0.98502126  1
  Al0+  Al79  1  0.32189448  0.57449828  0.01782781  1
  Al0+  Al80  1  0.82096976  0.57144021  0.01442626  1
  Al0+  Al81  1  0.68045197  0.93092282  0.34864346  1
  Al0+  Al82  1  0.67829383  0.42665599  0.67980626  1
  Al0+  Al83  1  0.32119426  0.07158293  0.68424171  1
  Al0+  Al84  1  0.32017097  0.06958525  0.34706958  1
  Al0+  Al85  1  0.42830628  0.81849673  0.65509440  1
  Al0+  Al86  1  0.57341510  0.17876474  0.65338577  1
  Al0+  Al87  1  0.67757760  0.42816735  0.34877987  1
  Al0+  Al88  1  0.82196232  0.57089391  0.68022240  1
  Al0+  Al89  1  0.67613392  0.92985718  0.01635273  1
  Al0+  Al90  1  0.57201591  0.18004547  0.31636599  1
  Al0+  Al91  1  0.18210816  0.42728368  0.01345957  1
  Al0+  Al92  1  0.42749170  0.32337924  0.31709225  1
  Al0+  Al93  1  0.42954741  0.82057561  0.31946915  1
  Al0+  Al94  1  0.42847814  0.32380288  0.65339547  1
  Al0+  Al95  1  0.17789248  0.92784003  0.68131303  1
  Si0+  Si96  1  0.93068196  0.32221573  0.31846019  1
  Si0+  Si97  1  0.82556598  0.07156755  0.68255996  1
  Si0+  Si98  1  0.06930463  0.67852962  0.65056021  1
  Si0+  Si99  1  0.57473076  0.67890494  0.31590707  1
  Si0+  Si100  1  0.42714698  0.82317190  0.98430158  1
  Si0+  Si101  1  0.31999324  0.07064660  0.01577065  1
  Si0+  Si102  1  0.07073891  0.17674749  0.64928975  1
  Si0+  Si103  1  0.17809014  0.93002239  0.01441502  1
  Si0+  Si104  1  0.82558379  0.07235589  0.35062219  1
  Si0+  Si105  1  0.07334590  0.67693638  0.98092031  1
  Si0+  Si106  1  0.92727253  0.82117881  0.64876076  1
  Si0+  Si107  1  0.56814017  0.67946724  0.98491453  1
  Si0+  Si108  1  0.17706584  0.42676618  0.68273353  1
  Si0+  Si109  1  0.92706126  0.32321093  0.98276947  1
  Si0+  Si110  1  0.93220281  0.32239354  0.65128242  1
  Si0+  Si111  1  0.82195971  0.57152502  0.34904113  1
  Si0+  Si112  1  0.92834423  0.82061839  0.31795050  1
  Si0+  Si113  1  0.57418773  0.67846614  0.65079193  1
  Si0+  Si114  1  0.17581564  0.92630385  0.34678487  1
  Si0+  Si115  1  0.06958493  0.67770740  0.31594773  1
  Si0+  Si116  1  0.43132295  0.32143717  0.98698478  1
  Si0+  Si117  1  0.32125797  0.57538676  0.35007983  1
  Si0+  Si118  1  0.57167208  0.17831981  0.98632242  1
  Si0+  Si119  1  0.06991764  0.17912670  0.32019722  1
  O2-  O120  1  0.24968389  -0.00110450  0.05844438  1
  O2-  O121  1  0.24737961  -0.00909239  0.39081908  1
  O2-  O122  1  0.24826066  -0.00029950  0.73357624  1
  O2-  O123  1  0.25123722  0.50038517  0.06577578  1
  O2-  O124  1  0.25840834  0.50140023  0.39449790  1
  O2-  O125  1  0.25276802  0.48842643  0.72437281  1
  O2-  O126  1  0.74815862  0.00220281  0.06600297  1
  O2-  O127  1  0.75260880  0.00869698  0.39472582  1
  O2-  O128  1  0.75179004  0.00796247  0.72481955  1
  O2-  O129  1  0.75433809  0.49530642  0.06486392  1
  O2-  O130  1  0.75250066  0.50440027  0.39317684  1
  O2-  O131  1  0.74787166  0.50136380  0.72914259  1
  O2-  O132  1  -0.00110233  0.24863082  0.27610657  1
  O2-  O133  1  0.00266224  0.25083148  0.60758220  1
  O2-  O134  1  -0.00340216  0.25421619  0.93898565  1
  O2-  O135  1  -0.00111799  0.74954332  0.27507732  1
  O2-  O136  1  -0.00254912  0.74869547  0.60691724  1
  O2-  O137  1  0.00050601  0.74109630  0.93637581  1
  O2-  O138  1  0.50325784  0.25549366  0.26583245  1
  O2-  O139  1  0.50341886  0.25390216  0.60476586  1
  O2-  O140  1  0.50704097  0.25542733  0.94508458  1
  O2-  O141  1  0.50388320  0.74612907  0.27172087  1
  O2-  O142  1  0.50393202  0.74559332  0.60634740  1
  O2-  O143  1  0.49677231  0.75077434  0.94301422  1
  O2-  O144  1  0.07344651  0.17995317  0.09874814  1
  O2-  O145  1  0.06658124  0.17859426  0.42530539  1
  O2-  O146  1  0.06922955  0.17558527  0.75422268  1
  O2-  O147  1  0.07476265  0.68154880  0.08691503  1
  O2-  O148  1  0.07015027  0.67757461  0.42117071  1
  O2-  O149  1  0.06904975  0.67813035  0.75513581  1
  O2-  O150  1  0.56759641  0.17512587  0.09101814  1
  O2-  O151  1  0.56906171  0.17916452  0.42946614  1
  O2-  O152  1  0.57198202  0.17948119  0.76783262  1
  O2-  O153  1  0.56752707  0.67980258  0.09007426  1
  O2-  O154  1  0.57686235  0.68017453  0.42138287  1
  O2-  O155  1  0.57467490  0.68041784  0.75658953  1
  O2-  O156  1  0.17736717  0.43125285  0.23570037  1
  O2-  O157  1  0.17271041  0.43078480  0.57701289  1
  O2-  O158  1  0.18631284  0.42676719  0.89980270  1
  O2-  O159  1  0.17260605  0.92922218  0.24095213  1
  O2-  O160  1  0.17642542  0.93049107  0.56730166  1
  O2-  O161  1  0.17917443  0.92980359  0.90983710  1
  O2-  O162  1  0.68152731  0.42862131  0.23591292  1
  O2-  O163  1  0.68031375  0.42770696  0.56612274  1
  O2-  O164  1  0.67691319  0.42726259  0.90190862  1
  O2-  O165  1  0.68387365  0.92910746  0.23593979  1
  O2-  O166  1  0.67964814  0.93065765  0.56651529  1
  O2-  O167  1  0.67403820  0.93116548  0.90283573  1
  O2-  O168  1  0.42831738  0.31786652  0.09179218  1
  O2-  O169  1  0.42653229  0.32129429  0.43023519  1
  O2-  O170  1  0.42888706  0.32305690  0.76778619  1
  O2-  O171  1  0.42720847  0.82427130  0.08952419  1
  O2-  O172  1  0.42809931  0.81953934  0.43248598  1
  O2-  O173  1  0.42914494  0.81655200  0.76850794  1
  O2-  O174  1  0.92792040  0.32207141  0.08863240  1
  O2-  O175  1  0.93341222  0.32297421  0.42387547  1
  O2-  O176  1  0.93411173  0.32361671  0.75598579  1
  O2-  O177  1  0.93152453  0.81778981  0.09823674  1
  O2-  O178  1  0.92966318  0.82071149  0.42305728  1
  O2-  O179  1  0.92805119  0.82229615  0.75346312  1
  O2-  O180  1  0.31621181  0.06953972  0.23320382  1
  O2-  O181  1  0.32034654  0.07054259  0.57068561  1
  O2-  O182  1  0.32063332  0.06963930  0.91117822  1
  O2-  O183  1  0.31571295  0.57869220  0.24485065  1
  O2-  O184  1  0.31463033  0.57424684  0.56494303  1
  O2-  O185  1  0.32171129  0.57464302  0.90409839  1
  O2-  O186  1  0.83319511  0.06787091  0.24577782  1
  O2-  O187  1  0.83235178  0.06785432  0.57702670  1
  O2-  O188  1  0.82206039  0.06662614  0.90047756  1
  O2-  O189  1  0.82313865  0.57116250  0.24374253  1
  O2-  O190  1  0.82358251  0.56712539  0.56622557  1
  O2-  O191  1  0.81629694  0.57054856  0.90121826  1
  O2-  O192  1  0.04362925  0.08643811  0.27220054  1
  O2-  O193  1  0.03899706  0.08666235  0.60027636  1
  O2-  O194  1  0.04164456  0.08411270  0.92911791  1
  O2-  O195  1  0.04053338  0.58640702  0.26799068  1
  O2-  O196  1  0.04126298  0.58683042  0.60139452  1
  O2-  O197  1  0.05467744  0.58068467  0.93797715  1
  O2-  O198  1  0.53838675  0.08312881  0.26284083  1
  O2-  O199  1  0.53827685  0.08188098  0.60156351  1
  O2-  O200  1  0.53694138  0.08861015  0.93811621  1
  O2-  O201  1  0.55063584  0.58548635  0.26906054  1
  O2-  O202  1  0.54937231  0.58419274  0.60645556  1
  O2-  O203  1  0.53974605  0.58729739  0.93766273  1
  O2-  O204  1  0.16169282  0.20732008  0.27433735  1
  O2-  O205  1  0.16308535  0.20172057  0.60205255  1
  O2-  O206  1  0.16811110  0.21180272  0.92851120  1
  O2-  O207  1  0.15981685  0.70444237  0.26513486  1
  O2-  O208  1  0.15930638  0.70823320  0.60065291  1
  O2-  O209  1  0.16556410  0.70867793  0.93478835  1
  O2-  O210  1  0.67400266  0.20241014  0.26667591  1
  O2-  O211  1  0.67506371  0.19685801  0.60160079  1
  O2-  O212  1  0.66675470  0.19814818  0.94236741  1
  O2-  O213  1  0.66775824  0.70796210  0.26965449  1
  O2-  O214  1  0.66736738  0.70503381  0.60396710  1
  O2-  O215  1  0.65937869  0.70702380  0.93701769  1
  O2-  O216  1  0.08236641  0.45129707  0.06575387  1
  O2-  O217  1  0.08507852  0.46457898  0.40336980  1
  O2-  O218  1  0.08731405  0.45994162  0.73131566  1
  O2-  O219  1  0.08675258  0.95888536  0.06124576  1
  O2-  O220  1  0.08317082  0.95349898  0.39444998  1
  O2-  O221  1  0.07898367  0.95704221  0.73293502  1
  O2-  O222  1  0.58332812  0.46050905  0.07051340  1
  O2-  O223  1  0.58054316  0.46033454  0.40058598  1
  O2-  O224  1  0.58037078  0.45322367  0.73341769  1
  O2-  O225  1  0.57811207  0.96014305  0.06996057  1
  O2-  O226  1  0.58268427  0.95998562  0.39976803  1
  O2-  O227  1  0.58282582  0.95994929  0.73625083  1
  O2-  O228  1  0.21256888  0.32932660  0.06687450  1
  O2-  O229  1  0.20536705  0.33282909  0.40344265  1
  O2-  O230  1  0.19264660  0.33002545  0.72441758  1
  O2-  O231  1  0.20264894  0.83791602  0.06274357  1
  O2-  O232  1  0.19662240  0.83019600  0.38889528  1
  O2-  O233  1  0.20270153  0.82949316  0.73462252  1
  O2-  O234  1  0.70485484  0.32788954  0.06864058  1
  O2-  O235  1  0.71176887  0.33212805  0.40178666  1
  O2-  O236  1  0.71142611  0.32885134  0.73107589  1
  O2-  O237  1  0.70399108  0.83153689  0.06799647  1
  O2-  O238  1  0.71389117  0.83531302  0.40357850  1
  O2-  O239  1  0.71053481  0.83594393  0.73350875  1
  O2-  O240  1  0.44970778  0.42490906  0.26697403  1
  O2-  O241  1  0.45176032  0.42374518  0.60064265  1
  O2-  O242  1  0.45418073  0.41694659  0.94480898  1
  O2-  O243  1  0.46044336  0.91625628  0.26448670  1
  O2-  O244  1  0.45894487  0.91575538  0.60343097  1
  O2-  O245  1  0.45576034  0.91526197  0.93765473  1
  O2-  O246  1  0.96140412  0.41312099  0.27105049  1
  O2-  O247  1  0.96215135  0.41321839  0.60226157  1
  O2-  O248  1  0.95394300  0.41696254  0.93726716  1
  O2-  O249  1  0.95699586  0.91214437  0.26981434  1
  O2-  O250  1  0.95756553  0.91159787  0.59934026  1
  O2-  O251  1  0.96200111  0.91241088  0.92888000  1
  O2-  O252  1  0.32895732  0.28869996  0.26613010  1
  O2-  O253  1  0.32858028  0.29483993  0.60228055  1
  O2-  O254  1  0.34229302  0.28907260  0.93732686  1
  O2-  O255  1  0.33195671  0.79237752  0.26364352  1
  O2-  O256  1  0.33110340  0.78685972  0.60189448  1
  O2-  O257  1  0.33397129  0.79712207  0.93869856  1
  O2-  O258  1  0.83836863  0.29728896  0.27175362  1
  O2-  O259  1  0.84149495  0.29396695  0.60171292  1
  O2-  O260  1  0.83373436  0.29679223  0.93628725  1
  O2-  O261  1  0.83671693  0.79277113  0.27069559  1
  O2-  O262  1  0.83563789  0.79377815  0.60029989  1
  O2-  O263  1  0.82929566  0.78951466  0.93257413  1
  O2-  O264  1  0.41038934  0.04215252  0.06491110  1
  O2-  O265  1  0.41601889  0.03858401  0.40008627  1
  O2-  O266  1  0.41716076  0.04124575  0.73953917  1
  O2-  O267  1  0.41922346  0.54941625  0.07256157  1
  O2-  O268  1  0.41774747  0.55963383  0.39208998  1
  O2-  O269  1  0.41802172  0.54763211  0.73374927  1
  O2-  O270  1  0.92160595  0.03712027  0.06588215  1
  O2-  O271  1  0.91712569  0.04136805  0.40007080  1
  O2-  O272  1  0.91633743  0.04017258  0.73056683  1
  O2-  O273  1  0.92269652  0.55232502  0.06428067  1
  O2-  O274  1  0.91566088  0.54525280  0.39473716  1
  O2-  O275  1  0.91959723  0.54147247  0.73433391  1
  O2-  O276  1  0.29003944  0.16163723  0.06232832  1
  O2-  O277  1  0.28556638  0.16296802  0.40334488  1
  O2-  O278  1  0.28982075  0.16948477  0.73721604  1
  O2-  O279  1  0.29079860  0.67269616  0.07034636  1
  O2-  O280  1  0.28658921  0.66697608  0.39594871  1
  O2-  O281  1  0.28233482  0.66211807  0.73471523  1
  O2-  O282  1  0.80418073  0.16948232  0.06603610  1
  O2-  O283  1  0.80731746  0.16826167  0.39410470  1
  O2-  O284  1  0.80872750  0.16747926  0.72614599  1
  O2-  O285  1  0.78774254  0.66736600  0.06914015  1
  O2-  O286  1  0.79919493  0.66590449  0.39496532  1
  O2-  O287  1  0.79879023  0.67097634  0.73031031  1
