# generated using pymatgen
data_Ca2Al2SiO7
_symmetry_space_group_name_H-M   'P 1'
_cell_length_a   15.46215715
_cell_length_b   15.46126294
_cell_length_c   15.28566305
_cell_angle_alpha   89.99513298
_cell_angle_beta   90.01075965
_cell_angle_gamma   90.00211742
_symmetry_Int_Tables_number   1
_chemical_formula_structural   Ca2Al2SiO7
_chemical_formula_sum   'Ca48 Al48 Si24 O168'
_cell_volume   3654.25896560
_cell_formula_units_Z   24
loop_
 _symmetry_equiv_pos_site_id
 _symmetry_equiv_pos_as_xyz
  1  'x, y, z'
loop_
 _atom_type_symbol
 _atom_type_oxidation_number
  Ca2+  2.0
  Al0+  0.0
  Si0+  0.0
  O2-  -2.0
loop_
 _atom_site_type_symbol
 _atom_site_label
 _atom_site_symmetry_multiplicity
 _atom_site_fract_x
 _atom_site_fract_y
 _atom_site_fract_z
 _atom_site_occupancy
  Ca2+  Ca0  1  0.16245328  0.06975847  0.17425491  1
  Ca2+  Ca1  1  0.16833535  0.07210738  0.51149754  1
  Ca2+  Ca2  1  0.16864236  0.07642262  0.83358501  1
  Ca2+  Ca3  1  0.16691127  0.58145487  0.17734993  1
  Ca2+  Ca4  1  0.16468573  0.58205022  0.49816910  1
  Ca2+  Ca5  1  0.16393160  0.58782487  0.83658171  1
  Ca2+  Ca6  1  0.66736375  0.07885518  0.17357429  1
  Ca2+  Ca7  1  0.66588056  0.08146845  0.50135092  1
  Ca2+  Ca8  1  0.65395489  0.07563205  0.83511002  1
  Ca2+  Ca9  1  0.68299186  0.58444410  0.17434729  1
  Ca2+  Ca10  1  0.67479999  0.58664937  0.50152633  1
  Ca2+  Ca11  1  0.67650320  0.58031665  0.84191075  1
  Ca2+  Ca12  1  0.07991707  0.33601725  0.16399652  1
  Ca2+  Ca13  1  0.08981493  0.32550965  0.49746199  1
  Ca2+  Ca14  1  0.07673202  0.32757982  0.82865200  1
  Ca2+  Ca15  1  0.08246976  0.82693184  0.16493460  1
  Ca2+  Ca16  1  0.08517891  0.82777699  0.49006432  1
  Ca2+  Ca17  1  0.09242388  0.82568483  0.82802174  1
  Ca2+  Ca18  1  0.58375948  0.32130070  0.16353421  1
  Ca2+  Ca19  1  0.57147130  0.32256497  0.49226005  1
  Ca2+  Ca20  1  0.57869366  0.31902161  0.82307130  1
  Ca2+  Ca21  1  0.58621090  0.83876074  0.16410722  1
  Ca2+  Ca22  1  0.57788248  0.84580240  0.49871608  1
  Ca2+  Ca23  1  0.57979515  0.83961126  0.82556576  1
  Ca2+  Ca24  1  0.32728803  0.42236927  0.18132030  1
  Ca2+  Ca25  1  0.33739390  0.41687537  0.49939070  1
  Ca2+  Ca26  1  0.33389611  0.41406075  0.83266299  1
  Ca2+  Ca27  1  0.32018126  0.91524029  0.17038039  1
  Ca2+  Ca28  1  0.32409457  0.91925631  0.50854813  1
  Ca2+  Ca29  1  0.32700715  0.91860915  0.83047594  1
  Ca2+  Ca30  1  0.84207009  0.42681241  0.17065104  1
  Ca2+  Ca31  1  0.83659037  0.42466479  0.49988841  1
  Ca2+  Ca32  1  0.83772070  0.42110114  0.84140493  1
  Ca2+  Ca33  1  0.82362493  0.91998685  0.17921721  1
  Ca2+  Ca34  1  0.82522292  0.91683380  0.49871289  1
  Ca2+  Ca35  1  0.82043849  0.91794909  0.83729011  1
  Ca2+  Ca36  1  0.42682286  0.16660898  0.16634139  1
  Ca2+  Ca37  1  0.42324169  0.16561557  0.49456587  1
  Ca2+  Ca38  1  0.42366096  0.16556743  0.82197586  1
  Ca2+  Ca39  1  0.41463920  0.66540510  0.16732561  1
  Ca2+  Ca40  1  0.41366142  0.67327598  0.49537905  1
  Ca2+  Ca41  1  0.41959085  0.67687748  0.82530003  1
  Ca2+  Ca42  1  0.91223223  0.17138861  0.16440943  1
  Ca2+  Ca43  1  0.92091579  0.16016821  0.49575399  1
  Ca2+  Ca44  1  0.92085586  0.17117278  0.83060022  1
  Ca2+  Ca45  1  0.92368327  0.66637241  0.16451349  1
  Ca2+  Ca46  1  0.92592471  0.67516637  0.49058989  1
  Ca2+  Ca47  1  0.92672711  0.66679504  0.83105790  1
  Al0+  Al48  1  -0.00180711  -0.00112047  0.00272022  1
  Al0+  Al49  1  -0.00302441  -0.00177883  0.33575604  1
  Al0+  Al50  1  -0.00335209  -0.00105616  0.66975789  1
  Al0+  Al51  1  0.00155773  0.50060126  -0.00473713  1
  Al0+  Al52  1  0.00185622  0.49953916  0.34059237  1
  Al0+  Al53  1  0.00168370  0.50168552  0.66396075  1
  Al0+  Al54  1  0.49783300  0.00002533  0.00086598  1
  Al0+  Al55  1  0.49849547  -0.00039891  0.32871031  1
  Al0+  Al56  1  0.49884597  -0.00046163  0.66512403  1
  Al0+  Al57  1  0.50082625  0.50053521  -0.00034841  1
  Al0+  Al58  1  0.49943885  0.50112445  0.33258253  1
  Al0+  Al59  1  0.50206832  0.49975018  0.66630408  1
  Al0+  Al60  1  0.25095079  0.24966338  0.00132785  1
  Al0+  Al61  1  0.25009237  0.25000817  0.33000069  1
  Al0+  Al62  1  0.24794222  0.25189078  0.66551988  1
  Al0+  Al63  1  0.25060812  0.75001602  0.00021555  1
  Al0+  Al64  1  0.25106688  0.74827966  0.33559714  1
  Al0+  Al65  1  0.25195271  0.74755940  0.66214205  1
  Al0+  Al66  1  0.74871786  0.24978638  -0.01094578  1
  Al0+  Al67  1  0.75071003  0.24967051  0.33312121  1
  Al0+  Al68  1  0.74977616  0.25223647  0.66315423  1
  Al0+  Al69  1  0.75143118  0.74921216  0.00712231  1
  Al0+  Al70  1  0.74943845  0.75092546  0.33914164  1
  Al0+  Al71  1  0.75262377  0.74978558  0.67323644  1
  Al0+  Al72  1  0.56827389  0.17886636  0.98398723  1
  Al0+  Al73  1  0.31942059  0.07287891  0.68010429  1
  Al0+  Al74  1  0.32281116  0.57074494  0.34983852  1
  Al0+  Al75  1  0.17869088  0.42689784  0.34963494  1
  Al0+  Al76  1  0.57051691  0.17739408  0.64874110  1
  Al0+  Al77  1  0.43123192  0.81942453  0.65293990  1
  Al0+  Al78  1  0.07115946  0.68054493  0.65111245  1
  Al0+  Al79  1  0.07077532  0.68193923  0.98609046  1
  Al0+  Al80  1  0.67830245  0.93045995  0.01392261  1
  Al0+  Al81  1  0.67639238  0.92958238  0.34942804  1
  Al0+  Al82  1  0.57162710  0.17838888  0.31554303  1
  Al0+  Al83  1  0.82042109  0.07359787  0.34815605  1
  Al0+  Al84  1  0.17855785  0.92883833  0.34653543  1
  Al0+  Al85  1  0.06846481  0.17792319  0.65472255  1
  Al0+  Al86  1  0.17855515  0.92812152  0.01432867  1
  Al0+  Al87  1  0.68006580  0.93125458  0.68084560  1
  Al0+  Al88  1  0.42745191  0.32345259  0.65121262  1
  Al0+  Al89  1  0.82198382  0.57124445  0.34895349  1
  Al0+  Al90  1  0.07104029  0.67917003  0.31754356  1
  Al0+  Al91  1  0.17689274  0.92589547  0.68163770  1
  Al0+  Al92  1  0.42753125  0.32244641  0.31544525  1
  Al0+  Al93  1  0.93125342  0.32055348  0.98774360  1
  Al0+  Al94  1  0.92699840  0.82174614  0.31760290  1
  Al0+  Al95  1  0.82279209  0.56838243  0.01419725  1
  Si0+  Si96  1  0.93006368  0.32127976  0.32044704  1
  Si0+  Si97  1  0.82247984  0.56924809  0.68412113  1
  Si0+  Si98  1  0.82186497  0.07599732  0.68593633  1
  Si0+  Si99  1  0.32218102  0.57108373  0.01270425  1
  Si0+  Si100  1  0.67850519  0.42839927  0.34923491  1
  Si0+  Si101  1  0.82168773  0.07413508  0.01469923  1
  Si0+  Si102  1  0.42901980  0.82015033  0.31644896  1
  Si0+  Si103  1  0.18051656  0.42886180  0.01218457  1
  Si0+  Si104  1  0.92873293  0.32330864  0.64837089  1
  Si0+  Si105  1  0.57220368  0.67857143  0.31856158  1
  Si0+  Si106  1  0.32100319  0.07255860  0.01802679  1
  Si0+  Si107  1  0.57391852  0.67819850  0.98659573  1
  Si0+  Si108  1  0.67929399  0.42952646  0.68231784  1
  Si0+  Si109  1  0.92513962  0.82142509  0.65151502  1
  Si0+  Si110  1  0.07087167  0.17701138  0.31907578  1
  Si0+  Si111  1  0.92546456  0.82293024  0.98289330  1
  Si0+  Si112  1  0.43001235  0.81857036  0.98564936  1
  Si0+  Si113  1  0.32306767  0.57012110  0.68315649  1
  Si0+  Si114  1  0.32026884  0.07103951  0.34752810  1
  Si0+  Si115  1  0.07378554  0.17494173  0.98489288  1
  Si0+  Si116  1  0.67785847  0.42688490  0.01542525  1
  Si0+  Si117  1  0.57524359  0.67796082  0.65211301  1
  Si0+  Si118  1  0.17783928  0.43028935  0.68426556  1
  Si0+  Si119  1  0.42678870  0.32436357  0.98299868  1
  O2-  O120  1  0.24770520  0.00816217  0.06123117  1
  O2-  O121  1  0.24965123  0.00611281  0.39311200  1
  O2-  O122  1  0.24652013  0.00124139  0.73075691  1
  O2-  O123  1  0.25563754  0.49563343  0.05326781  1
  O2-  O124  1  0.25233631  0.49731565  0.39961067  1
  O2-  O125  1  0.25141322  0.49961447  0.72613107  1
  O2-  O126  1  0.75417635  0.00454744  0.05857350  1
  O2-  O127  1  0.74753058  0.00277243  0.39803309  1
  O2-  O128  1  0.75092022  0.00911290  0.72943518  1
  O2-  O129  1  0.74716168  0.49402763  0.06092848  1
  O2-  O130  1  0.74621171  0.49723297  0.39566747  1
  O2-  O131  1  0.75146778  0.49852650  0.72664229  1
  O2-  O132  1  0.00038820  0.24958823  0.27788661  1
  O2-  O133  1  -0.00726134  0.25052456  0.60505611  1
  O2-  O134  1  0.00447308  0.24391421  0.94183569  1
  O2-  O135  1  -0.00098989  0.75022506  0.26638441  1
  O2-  O136  1  0.00096175  0.76051668  0.60806406  1
  O2-  O137  1  -0.00171308  0.75858473  0.93827783  1
  O2-  O138  1  0.50064458  0.25188691  0.26554431  1
  O2-  O139  1  0.49537951  0.24780731  0.60171743  1
  O2-  O140  1  0.49398742  0.25512557  0.93866045  1
  O2-  O141  1  0.50195864  0.75012828  0.27522780  1
  O2-  O142  1  0.50850684  0.74688130  0.60650939  1
  O2-  O143  1  0.50461995  0.75037193  0.94370015  1
  O2-  O144  1  0.07460695  0.17582748  0.09053658  1
  O2-  O145  1  0.07075234  0.17741852  0.42411173  1
  O2-  O146  1  0.06692001  0.18210243  0.76838871  1
  O2-  O147  1  0.07179793  0.67926084  0.09830904  1
  O2-  O148  1  0.06967467  0.68077670  0.43099558  1
  O2-  O149  1  0.06858118  0.67807468  0.76490988  1
  O2-  O150  1  0.56852089  0.17982456  0.09668494  1
  O2-  O151  1  0.56989550  0.17847637  0.42859003  1
  O2-  O152  1  0.56928878  0.17971296  0.76282685  1
  O2-  O153  1  0.57211027  0.67584976  0.09137320  1
  O2-  O154  1  0.57179759  0.67710621  0.42365337  1
  O2-  O155  1  0.57338756  0.67717639  0.75833607  1
  O2-  O156  1  0.17718299  0.42863826  0.23500994  1
  O2-  O157  1  0.17418916  0.43142073  0.58000888  1
  O2-  O158  1  0.18079020  0.42862982  0.90692919  1
  O2-  O159  1  0.18103871  0.92926496  0.23281151  1
  O2-  O160  1  0.17918836  0.92634813  0.56829447  1
  O2-  O161  1  0.18327596  0.92640300  0.90159293  1
  O2-  O162  1  0.68124066  0.43028025  0.24335354  1
  O2-  O163  1  0.68033417  0.43261011  0.57743868  1
  O2-  O164  1  0.67713473  0.43118546  0.90961616  1
  O2-  O165  1  0.67731966  0.93083442  0.23539630  1
  O2-  O166  1  0.68273339  0.92832442  0.56877499  1
  O2-  O167  1  0.67738831  0.93031743  0.90063914  1
  O2-  O168  1  0.42716437  0.32645738  0.08792763  1
  O2-  O169  1  0.42962845  0.32096126  0.42859316  1
  O2-  O170  1  0.43258089  0.32595443  0.76547684  1
  O2-  O171  1  0.42835345  0.81563833  0.09078358  1
  O2-  O172  1  0.42930938  0.82045453  0.42134747  1
  O2-  O173  1  0.43138627  0.81644423  0.76691154  1
  O2-  O174  1  0.93397351  0.32190490  0.10093553  1
  O2-  O175  1  0.92987725  0.32139788  0.42550013  1
  O2-  O176  1  0.93118039  0.32579744  0.75429881  1
  O2-  O177  1  0.92388174  0.82094149  0.08787929  1
  O2-  O178  1  0.92766009  0.81988399  0.43140154  1
  O2-  O179  1  0.91970555  0.81598973  0.75723274  1
  O2-  O180  1  0.31869932  0.06778429  0.24135276  1
  O2-  O181  1  0.31800177  0.07053027  0.56656381  1
  O2-  O182  1  0.32195641  0.07267770  0.91272100  1
  O2-  O183  1  0.32150653  0.57101366  0.23518276  1
  O2-  O184  1  0.32484363  0.57010343  0.57884886  1
  O2-  O185  1  0.32272714  0.57263383  0.90747554  1
  O2-  O186  1  0.81959799  0.07548972  0.23411170  1
  O2-  O187  1  0.82332551  0.07593725  0.58083932  1
  O2-  O188  1  0.82347660  0.07316427  0.90916890  1
  O2-  O189  1  0.82220662  0.56807462  0.23563743  1
  O2-  O190  1  0.82119186  0.56882700  0.57923226  1
  O2-  O191  1  0.82115252  0.56696115  0.90061305  1
  O2-  O192  1  0.04063117  0.08654605  0.27081051  1
  O2-  O193  1  0.03958412  0.08008960  0.60205950  1
  O2-  O194  1  0.04753209  0.08163627  0.93853845  1
  O2-  O195  1  0.04210089  0.57840908  0.26904854  1
  O2-  O196  1  0.03628410  0.58514320  0.59776615  1
  O2-  O197  1  0.03906825  0.58622770  0.93018864  1
  O2-  O198  1  0.53908937  0.08112889  0.26127869  1
  O2-  O199  1  0.54424065  0.07883901  0.59751987  1
  O2-  O200  1  0.53379326  0.08231858  0.93155090  1
  O2-  O201  1  0.54490815  0.58784488  0.26859776  1
  O2-  O202  1  0.54997388  0.58483642  0.60599895  1
  O2-  O203  1  0.54562747  0.58676352  0.93700703  1
  O2-  O204  1  0.16187480  0.20307172  0.26931272  1
  O2-  O205  1  0.16336504  0.21118722  0.60024742  1
  O2-  O206  1  0.16733793  0.20213464  0.93912747  1
  O2-  O207  1  0.17085853  0.70665674  0.26651834  1
  O2-  O208  1  0.16960412  0.70289204  0.59891292  1
  O2-  O209  1  0.16852773  0.71126177  0.93187492  1
  O2-  O210  1  0.67073396  0.20847194  0.26380519  1
  O2-  O211  1  0.66930400  0.20884222  0.59846276  1
  O2-  O212  1  0.66412308  0.20712066  0.92701122  1
  O2-  O213  1  0.66395243  0.70646839  0.27140423  1
  O2-  O214  1  0.67037798  0.70152205  0.60903676  1
  O2-  O215  1  0.66668269  0.70372150  0.93998943  1
  O2-  O216  1  0.09031364  0.46062946  0.05913578  1
  O2-  O217  1  0.08239153  0.45462616  0.40639169  1
  O2-  O218  1  0.08678657  0.46206228  0.73258824  1
  O2-  O219  1  0.07962237  0.95349689  0.06673959  1
  O2-  O220  1  0.08141015  0.95621315  0.39886629  1
  O2-  O221  1  0.07668451  0.95003218  0.73378114  1
  O2-  O222  1  0.58421426  0.45289035  0.06150118  1
  O2-  O223  1  0.58520336  0.45478925  0.39422607  1
  O2-  O224  1  0.58875267  0.45856883  0.73200519  1
  O2-  O225  1  0.58065678  0.95953903  0.06666414  1
  O2-  O226  1  0.57631121  0.95751894  0.39852043  1
  O2-  O227  1  0.58208416  0.95872509  0.73401019  1
  O2-  O228  1  0.20185487  0.33542998  0.06032007  1
  O2-  O229  1  0.20538253  0.32679874  0.40009814  1
  O2-  O230  1  0.20260897  0.33857762  0.73332896  1
  O2-  O231  1  0.21662498  0.83375211  0.06865044  1
  O2-  O232  1  0.21312260  0.83395244  0.39920435  1
  O2-  O233  1  0.21265440  0.82799824  0.73272361  1
  O2-  O234  1  0.70316854  0.33190022  0.05733017  1
  O2-  O235  1  0.70562541  0.33589833  0.39548455  1
  O2-  O236  1  0.70640569  0.33730686  0.72964447  1
  O2-  O237  1  0.70580586  0.83292625  0.06757675  1
  O2-  O238  1  0.70239232  0.83145409  0.40328746  1
  O2-  O239  1  0.71174723  0.83425229  0.73675841  1
  O2-  O240  1  0.45444921  0.42271576  0.26448172  1
  O2-  O241  1  0.46114751  0.42077011  0.59862111  1
  O2-  O242  1  0.45156478  0.41888132  0.93675248  1
  O2-  O243  1  0.45439352  0.91111132  0.26609262  1
  O2-  O244  1  0.45928566  0.91522765  0.59805783  1
  O2-  O245  1  0.45469897  0.91125633  0.93941307  1
  O2-  O246  1  0.96053410  0.41242692  0.27345299  1
  O2-  O247  1  0.95921931  0.41513066  0.60194326  1
  O2-  O248  1  0.96545735  0.41421570  0.92955627  1
  O2-  O249  1  0.95354304  0.92084843  0.26462903  1
  O2-  O250  1  0.94042573  0.91840946  0.61022544  1
  O2-  O251  1  0.94547278  0.91881559  0.93873636  1
  O2-  O252  1  0.32900337  0.29390135  0.26140949  1
  O2-  O253  1  0.32574332  0.30491498  0.60330637  1
  O2-  O254  1  0.33172445  0.30027955  0.93806218  1
  O2-  O255  1  0.33897548  0.78824071  0.26784896  1
  O2-  O256  1  0.33738156  0.78511842  0.59705315  1
  O2-  O257  1  0.34093821  0.78563927  0.93632828  1
  O2-  O258  1  0.83853713  0.29615489  0.27127850  1
  O2-  O259  1  0.83331791  0.30473362  0.60403637  1
  O2-  O260  1  0.83516543  0.29442740  0.92966619  1
  O2-  O261  1  0.82725241  0.79231277  0.26748140  1
  O2-  O262  1  0.83525429  0.78650296  0.60330525  1
  O2-  O263  1  0.83316892  0.79115859  0.93649962  1
  O2-  O264  1  0.41150071  0.04011530  0.06595624  1
  O2-  O265  1  0.41288896  0.04191256  0.39201408  1
  O2-  O266  1  0.41684526  0.04105885  0.73339321  1
  O2-  O267  1  0.41588617  0.54875270  0.06000935  1
  O2-  O268  1  0.42269574  0.54677259  0.40221088  1
  O2-  O269  1  0.41549370  0.54344192  0.73183478  1
  O2-  O270  1  0.91605676  0.05306325  0.06165166  1
  O2-  O271  1  0.91752924  0.04365304  0.40254345  1
  O2-  O272  1  0.91380584  0.04828252  0.73488837  1
  O2-  O273  1  0.91917652  0.53466080  0.06644183  1
  O2-  O274  1  0.91572631  0.53772915  0.40540332  1
  O2-  O275  1  0.91414017  0.53875712  0.73066333  1
  O2-  O276  1  0.30110722  0.16813473  0.06354763  1
  O2-  O277  1  0.29944358  0.16618668  0.39040281  1
  O2-  O278  1  0.29239986  0.17202222  0.73384432  1
  O2-  O279  1  0.29154098  0.66073172  0.06176861  1
  O2-  O280  1  0.29405427  0.66823503  0.40330773  1
  O2-  O281  1  0.29430849  0.66136189  0.73116289  1
  O2-  O282  1  0.79464445  0.16892848  0.05758295  1
  O2-  O283  1  0.79620477  0.17274651  0.40224793  1
  O2-  O284  1  0.79980547  0.17217103  0.72934411  1
  O2-  O285  1  0.79156548  0.66356016  0.06961986  1
  O2-  O286  1  0.78877117  0.66555352  0.40468865  1
  O2-  O287  1  0.79508686  0.65995610  0.73370601  1
