# generated using pymatgen
data_Ca2Al2SiO7
_symmetry_space_group_name_H-M   'P 1'
_cell_length_a   15.47328513
_cell_length_b   15.47809592
_cell_length_c   15.29757067
_cell_angle_alpha   90.00942781
_cell_angle_beta   89.98894012
_cell_angle_gamma   90.00332777
_symmetry_Int_Tables_number   1
_chemical_formula_structural   Ca2Al2SiO7
_chemical_formula_sum   'Ca48 Al48 Si24 O168'
_cell_volume   3663.72202732
_cell_formula_units_Z   24
loop_
 _symmetry_equiv_pos_site_id
 _symmetry_equiv_pos_as_xyz
  1  'x, y, z'
loop_
 _atom_type_symbol
 _atom_type_oxidation_number
  Ca2+  2.0
  Al0+  0.0
  Si0+  0.0
  O2-  -2.0
loop_
 _atom_site_type_symbol
 _atom_site_label
 _atom_site_symmetry_multiplicity
 _atom_site_fract_x
 _atom_site_fract_y
 _atom_site_fract_z
 _atom_site_occupancy
  Ca2+  Ca0  1  0.17298307  0.06790558  0.17084497  1
  Ca2+  Ca1  1  0.16637847  0.07086215  0.49574060  1
  Ca2+  Ca2  1  0.17393196  0.06801747  0.84006749  1
  Ca2+  Ca3  1  0.15558169  0.58130229  0.17475553  1
  Ca2+  Ca4  1  0.16148532  0.58209334  0.49817863  1
  Ca2+  Ca5  1  0.16341164  0.58114319  0.84014879  1
  Ca2+  Ca6  1  0.67928425  0.07643673  0.17350572  1
  Ca2+  Ca7  1  0.67171101  0.07522849  0.49331461  1
  Ca2+  Ca8  1  0.67411912  0.07922155  0.84034060  1
  Ca2+  Ca9  1  0.67568341  0.58727818  0.17247323  1
  Ca2+  Ca10  1  0.66963138  0.58942137  0.50081149  1
  Ca2+  Ca11  1  0.66624828  0.59039287  0.84089515  1
  Ca2+  Ca12  1  0.08801367  0.32681531  0.16900343  1
  Ca2+  Ca13  1  0.08706055  0.32447764  0.48763572  1
  Ca2+  Ca14  1  0.08033445  0.32845304  0.83042660  1
  Ca2+  Ca15  1  0.07618099  0.83297888  0.16272840  1
  Ca2+  Ca16  1  0.07741024  0.83561525  0.48986049  1
  Ca2+  Ca17  1  0.07565217  0.84154873  0.83303419  1
  Ca2+  Ca18  1  0.58946942  0.33250988  0.16624420  1
  Ca2+  Ca19  1  0.58019961  0.33416310  0.49448150  1
  Ca2+  Ca20  1  0.57681406  0.32854769  0.82558060  1
  Ca2+  Ca21  1  0.57422146  0.84071529  0.16293551  1
  Ca2+  Ca22  1  0.57274801  0.83852686  0.49342359  1
  Ca2+  Ca23  1  0.57432606  0.82521334  0.82898328  1
  Ca2+  Ca24  1  0.32618112  0.42506024  0.17513562  1
  Ca2+  Ca25  1  0.32985472  0.41635511  0.50144268  1
  Ca2+  Ca26  1  0.33663555  0.41801949  0.83540835  1
  Ca2+  Ca27  1  0.32877169  0.91677865  0.17591798  1
  Ca2+  Ca28  1  0.32198053  0.90570760  0.50239986  1
  Ca2+  Ca29  1  0.32556852  0.90831730  0.84050242  1
  Ca2+  Ca30  1  0.83064320  0.43332550  0.17552724  1
  Ca2+  Ca31  1  0.83033591  0.42592337  0.49662943  1
  Ca2+  Ca32  1  0.82940736  0.42873049  0.84370961  1
  Ca2+  Ca33  1  0.83290411  0.91704072  0.17567258  1
  Ca2+  Ca34  1  0.83908158  0.91514223  0.50005246  1
  Ca2+  Ca35  1  0.83628996  0.91508384  0.84032405  1
  Ca2+  Ca36  1  0.40834242  0.16405905  0.16482731  1
  Ca2+  Ca37  1  0.40822559  0.17199063  0.49256099  1
  Ca2+  Ca38  1  0.41079817  0.16992845  0.83112267  1
  Ca2+  Ca39  1  0.42203703  0.68195906  0.16275332  1
  Ca2+  Ca40  1  0.42172523  0.67742482  0.49790950  1
  Ca2+  Ca41  1  0.42506060  0.67674619  0.83118028  1
  Ca2+  Ca42  1  0.92079257  0.15770167  0.16517240  1
  Ca2+  Ca43  1  0.92385643  0.16649060  0.48654558  1
  Ca2+  Ca44  1  0.91633340  0.16366934  0.83067873  1
  Ca2+  Ca45  1  0.91955437  0.67327603  0.16325491  1
  Ca2+  Ca46  1  0.92117417  0.67760287  0.49094022  1
  Ca2+  Ca47  1  0.91865372  0.67670424  0.83571775  1
  Al0+  Al48  1  0.00353878  0.00167228  0.00108830  1
  Al0+  Al49  1  0.00335110  0.00171787  0.33065986  1
  Al0+  Al50  1  0.00234896  0.00127263  0.66760018  1
  Al0+  Al51  1  -0.00326285  0.49838591  0.00030801  1
  Al0+  Al52  1  -0.00150416  0.49788272  0.34123385  1
  Al0+  Al53  1  -0.00198826  0.49921788  0.66952973  1
  Al0+  Al54  1  0.50037040  0.00481882  -0.00421006  1
  Al0+  Al55  1  0.50207311  0.00584013  0.33536783  1
  Al0+  Al56  1  0.50214582  0.00172669  0.66456529  1
  Al0+  Al57  1  0.49744489  0.49726332  -0.00190199  1
  Al0+  Al58  1  0.49818714  0.49992493  0.33543068  1
  Al0+  Al59  1  0.49950470  0.49714484  0.65973577  1
  Al0+  Al60  1  0.24818985  0.24933787  0.00046990  1
  Al0+  Al61  1  0.24905333  0.25216483  0.33385890  1
  Al0+  Al62  1  0.24907550  0.24958573  0.66433740  1
  Al0+  Al63  1  0.24928100  0.74503859  -0.00189197  1
  Al0+  Al64  1  0.25204293  0.74812561  0.33028889  1
  Al0+  Al65  1  0.25020198  0.74579681  0.67114084  1
  Al0+  Al66  1  0.74913470  0.25015551  0.00088468  1
  Al0+  Al67  1  0.74910201  0.25165626  0.34003468  1
  Al0+  Al68  1  0.74961475  0.25228859  0.66692043  1
  Al0+  Al69  1  0.75036397  0.75001890  -0.00162743  1
  Al0+  Al70  1  0.74895779  0.75013314  0.33927547  1
  Al0+  Al71  1  0.75301633  0.75039317  0.66227451  1
  Al0+  Al72  1  0.18011305  0.92746719  0.68143095  1
  Al0+  Al73  1  0.42900104  0.31733796  0.65140968  1
  Al0+  Al74  1  0.42752913  0.82227664  0.65145048  1
  Al0+  Al75  1  0.17928227  0.43078701  0.34671983  1
  Al0+  Al76  1  0.07021194  0.67437157  0.98492093  1
  Al0+  Al77  1  0.57190934  0.67907094  0.65093151  1
  Al0+  Al78  1  0.67831784  0.92840624  0.34756686  1
  Al0+  Al79  1  0.07223695  0.17986134  0.31709293  1
  Al0+  Al80  1  0.18182171  0.92586375  0.34760414  1
  Al0+  Al81  1  0.92845307  0.82191691  0.31843010  1
  Al0+  Al82  1  0.93122479  0.82355783  0.98570909  1
  Al0+  Al83  1  0.67705260  0.43002458  0.34913746  1
  Al0+  Al84  1  0.32142806  0.07191086  0.34817886  1
  Al0+  Al85  1  0.32182534  0.07184487  0.01343515  1
  Al0+  Al86  1  0.82374013  0.06938320  0.34782796  1
  Al0+  Al87  1  0.81921835  0.57234025  0.01362619  1
  Al0+  Al88  1  0.82102505  0.57314232  0.35132623  1
  Al0+  Al89  1  0.07079162  0.67702764  0.32097829  1
  Al0+  Al90  1  0.82156373  0.07188605  0.01167396  1
  Al0+  Al91  1  0.43106544  0.82383413  0.32032101  1
  Al0+  Al92  1  0.93302488  0.82211424  0.65263615  1
  Al0+  Al93  1  0.18121922  0.92410570  0.01576854  1
  Al0+  Al94  1  0.57059795  0.67806396  0.98838265  1
  Al0+  Al95  1  0.42800873  0.82471841  0.98625154  1
  Si0+  Si96  1  0.92714312  0.31970940  0.98499711  1
  Si0+  Si97  1  0.17820670  0.42702236  0.68323486  1
  Si0+  Si98  1  0.67846255  0.42963726  0.68342638  1
  Si0+  Si99  1  0.57268602  0.18199280  0.31641424  1
  Si0+  Si100  1  0.57594687  0.17845976  0.64734781  1
  Si0+  Si101  1  0.92747423  0.32271794  0.65159235  1
  Si0+  Si102  1  0.42695986  0.31898409  0.98586520  1
  Si0+  Si103  1  0.32288399  0.57220435  0.35176079  1
  Si0+  Si104  1  0.32196796  0.56708044  0.68324347  1
  Si0+  Si105  1  0.57098855  0.67692213  0.31778971  1
  Si0+  Si106  1  0.32234235  0.07341121  0.68190417  1
  Si0+  Si107  1  0.06848989  0.18165681  0.65148956  1
  Si0+  Si108  1  0.07138209  0.18091124  0.98270365  1
  Si0+  Si109  1  0.42872003  0.32175209  0.31582130  1
  Si0+  Si110  1  0.67559966  0.42813697  0.01444509  1
  Si0+  Si111  1  0.82055542  0.57140689  0.68486296  1
  Si0+  Si112  1  0.17754729  0.42918790  0.01390391  1
  Si0+  Si113  1  0.32253199  0.56820604  0.01459200  1
  Si0+  Si114  1  0.07164882  0.67412755  0.65167920  1
  Si0+  Si115  1  0.67930937  0.92816844  0.68231188  1
  Si0+  Si116  1  0.57397213  0.18130887  0.98392273  1
  Si0+  Si117  1  0.82086334  0.07147284  0.68061403  1
  Si0+  Si118  1  0.92632570  0.32066876  0.31670521  1
  Si0+  Si119  1  0.67835588  0.92873931  0.01313332  1
  O2-  O120  1  0.26057115  -0.00926656  0.06213803  1
  O2-  O121  1  0.25634888  -0.00494538  0.39931405  1
  O2-  O122  1  0.26173412  -0.00234239  0.72567302  1
  O2-  O123  1  0.24446664  0.50373769  0.05540452  1
  O2-  O124  1  0.25007109  0.50724065  0.39559250  1
  O2-  O125  1  0.24778914  0.49828366  0.72631367  1
  O2-  O126  1  0.75147923  -0.00687708  0.05660945  1
  O2-  O127  1  0.75726979  -0.00700643  0.39890981  1
  O2-  O128  1  0.75053914  0.00043508  0.72367983  1
  O2-  O129  1  0.73932449  0.50103616  0.05719260  1
  O2-  O130  1  0.74515492  0.50395794  0.40113845  1
  O2-  O131  1  0.74597760  0.50289041  0.72689376  1
  O2-  O132  1  -0.00737974  0.25074791  0.27091887  1
  O2-  O133  1  -0.00278095  0.25192803  0.60879332  1
  O2-  O134  1  -0.00427415  0.24749005  0.94016094  1
  O2-  O135  1  0.00048831  0.74925930  0.26968120  1
  O2-  O136  1  0.00924101  0.74804897  0.60865569  1
  O2-  O137  1  0.00456089  0.75229051  0.93490322  1
  O2-  O138  1  0.50061751  0.25229114  0.27345725  1
  O2-  O139  1  0.50105926  0.24088600  0.60417476  1
  O2-  O140  1  0.49836644  0.24867540  0.94347044  1
  O2-  O141  1  0.50873410  0.75138798  0.27415454  1
  O2-  O142  1  0.50340954  0.75432426  0.60147529  1
  O2-  O143  1  0.50132644  0.75246636  0.93805172  1
  O2-  O144  1  0.07368962  0.18501989  0.08699388  1
  O2-  O145  1  0.07156344  0.18300546  0.43096898  1
  O2-  O146  1  0.06697228  0.18437649  0.75702313  1
  O2-  O147  1  0.06374287  0.66681751  0.09715791  1
  O2-  O148  1  0.06939187  0.67746580  0.43509646  1
  O2-  O149  1  0.06701488  0.66766191  0.75677448  1
  O2-  O150  1  0.57996993  0.18445073  0.08816427  1
  O2-  O151  1  0.57349876  0.18433587  0.42146559  1
  O2-  O152  1  0.58078415  0.18290611  0.75324594  1
  O2-  O153  1  0.56757615  0.67438874  0.10140030  1
  O2-  O154  1  0.56545542  0.67398782  0.42321867  1
  O2-  O155  1  0.56927807  0.67881548  0.76473914  1
  O2-  O156  1  0.18283427  0.42943642  0.23324611  1
  O2-  O157  1  0.17786488  0.42583071  0.57883375  1
  O2-  O158  1  0.17938927  0.42645781  0.90817957  1
  O2-  O159  1  0.18201907  0.92604391  0.23460607  1
  O2-  O160  1  0.17650458  0.93038326  0.56908400  1
  O2-  O161  1  0.17933768  0.93064030  0.90146552  1
  O2-  O162  1  0.67825547  0.43040814  0.23510620  1
  O2-  O163  1  0.68116980  0.42654510  0.57923428  1
  O2-  O164  1  0.67719420  0.42500499  0.90845618  1
  O2-  O165  1  0.67571705  0.93385782  0.23379338  1
  O2-  O166  1  0.67892364  0.92999709  0.57786095  1
  O2-  O167  1  0.67810272  0.93225859  0.90692699  1
  O2-  O168  1  0.42558658  0.32020875  0.09043600  1
  O2-  O169  1  0.42787261  0.32026253  0.42093926  1
  O2-  O170  1  0.43002070  0.31682961  0.76531413  1
  O2-  O171  1  0.43131354  0.82459496  0.09978174  1
  O2-  O172  1  0.42977796  0.82042082  0.43328751  1
  O2-  O173  1  0.42837762  0.81950714  0.76501328  1
  O2-  O174  1  0.92767357  0.32052380  0.08928606  1
  O2-  O175  1  0.92866413  0.31904621  0.42292995  1
  O2-  O176  1  0.92828506  0.32227073  0.75716401  1
  O2-  O177  1  0.92905542  0.82403891  0.09824549  1
  O2-  O178  1  0.93204499  0.82153827  0.43243375  1
  O2-  O179  1  0.93105983  0.82276905  0.76558055  1
  O2-  O180  1  0.31846925  0.07213373  0.23481680  1
  O2-  O181  1  0.31681430  0.08027568  0.57741100  1
  O2-  O182  1  0.31588058  0.08051057  0.89998394  1
  O2-  O183  1  0.32757106  0.56740567  0.24626092  1
  O2-  O184  1  0.32097504  0.56526269  0.57853544  1
  O2-  O185  1  0.32641072  0.56168629  0.90937711  1
  O2-  O186  1  0.81917985  0.07220661  0.23437051  1
  O2-  O187  1  0.82118798  0.07369743  0.57632631  1
  O2-  O188  1  0.81697444  0.07588092  0.89775627  1
  O2-  O189  1  0.82130865  0.57024755  0.23763661  1
  O2-  O190  1  0.82338044  0.56722066  0.58060932  1
  O2-  O191  1  0.81996077  0.56795892  0.89996130  1
  O2-  O192  1  0.04517112  0.08402951  0.26159333  1
  O2-  O193  1  0.04039931  0.09060925  0.60478122  1
  O2-  O194  1  0.04674576  0.08930272  0.93426177  1
  O2-  O195  1  0.04208715  0.57617319  0.27266387  1
  O2-  O196  1  0.04126533  0.58157876  0.60469503  1
  O2-  O197  1  0.03699720  0.57673733  0.92946283  1
  O2-  O198  1  0.54700573  0.09121393  0.26736544  1
  O2-  O199  1  0.55817559  0.08267060  0.60466059  1
  O2-  O200  1  0.55041009  0.09033590  0.93301016  1
  O2-  O201  1  0.53979312  0.58491998  0.27109318  1
  O2-  O202  1  0.54162740  0.58116458  0.59864406  1
  O2-  O203  1  0.53980575  0.57920164  0.93427678  1
  O2-  O204  1  0.16528571  0.22079572  0.26323495  1
  O2-  O205  1  0.15913898  0.21176390  0.60460542  1
  O2-  O206  1  0.15971868  0.21672243  0.93258566  1
  O2-  O207  1  0.17170608  0.69655224  0.26968726  1
  O2-  O208  1  0.16864700  0.69091810  0.61109126  1
  O2-  O209  1  0.17257978  0.69012822  0.93516346  1
  O2-  O210  1  0.66376961  0.21366796  0.26927217  1
  O2-  O211  1  0.66652262  0.21227395  0.59997808  1
  O2-  O212  1  0.66263784  0.21418842  0.93178441  1
  O2-  O213  1  0.66770003  0.69518968  0.27732815  1
  O2-  O214  1  0.67209822  0.70238366  0.60102817  1
  O2-  O215  1  0.66905119  0.70329999  0.93413409  1
  O2-  O216  1  0.08439877  0.45114651  0.06002765  1
  O2-  O217  1  0.08284724  0.45316928  0.40446408  1
  O2-  O218  1  0.08532016  0.45308215  0.73098411  1
  O2-  O219  1  0.08605042  0.96293530  0.06743140  1
  O2-  O220  1  0.08502594  0.96093009  0.39935122  1
  O2-  O221  1  0.08629190  0.96789335  0.73646602  1
  O2-  O222  1  0.57974770  0.44585836  0.05872977  1
  O2-  O223  1  0.57653455  0.45273640  0.40061447  1
  O2-  O224  1  0.58405945  0.45259087  0.72808934  1
  O2-  O225  1  0.58657892  0.96113693  0.05828861  1
  O2-  O226  1  0.58519002  0.96877075  0.40400056  1
  O2-  O227  1  0.58752258  0.95654580  0.73069449  1
  O2-  O228  1  0.21022176  0.33942253  0.06146278  1
  O2-  O229  1  0.21595966  0.33728282  0.40275997  1
  O2-  O230  1  0.20738498  0.33559208  0.73161480  1
  O2-  O231  1  0.19804119  0.82161203  0.06337555  1
  O2-  O232  1  0.20850730  0.82677429  0.40039135  1
  O2-  O233  1  0.20384468  0.82828367  0.73429238  1
  O2-  O234  1  0.70603481  0.33673775  0.06150179  1
  O2-  O235  1  0.70678898  0.33365428  0.40554288  1
  O2-  O236  1  0.70909468  0.33861115  0.73268318  1
  O2-  O237  1  0.69729681  0.83401243  0.05769716  1
  O2-  O238  1  0.69377633  0.82816999  0.40016906  1
  O2-  O239  1  0.70921634  0.83660895  0.72869398  1
  O2-  O240  1  0.45504966  0.41420148  0.26880105  1
  O2-  O241  1  0.46045143  0.41187242  0.59556021  1
  O2-  O242  1  0.45479697  0.40924653  0.93522980  1
  O2-  O243  1  0.46105221  0.92219242  0.26949051  1
  O2-  O244  1  0.45146394  0.92345375  0.60211278  1
  O2-  O245  1  0.45338165  0.92401630  0.93241915  1
  O2-  O246  1  0.95567587  0.41352112  0.27264895  1
  O2-  O247  1  0.95599710  0.41420986  0.60514284  1
  O2-  O248  1  0.95802036  0.40907804  0.93434271  1
  O2-  O249  1  0.95557955  0.92081467  0.26712610  1
  O2-  O250  1  0.96190672  0.92018830  0.60071034  1
  O2-  O251  1  0.95979756  0.92276796  0.93156121  1
  O2-  O252  1  0.33771565  0.29301193  0.26805395  1
  O2-  O253  1  0.33084210  0.29045238  0.59807799  1
  O2-  O254  1  0.33569631  0.29103037  0.93627392  1
  O2-  O255  1  0.33693478  0.78841633  0.26524509  1
  O2-  O256  1  0.32966974  0.78650513  0.60158644  1
  O2-  O257  1  0.33096934  0.79114152  0.93400696  1
  O2-  O258  1  0.83118038  0.29874251  0.27319108  1
  O2-  O259  1  0.83518807  0.29657944  0.60542330  1
  O2-  O260  1  0.83506093  0.29356711  0.93594587  1
  O2-  O261  1  0.82705224  0.79571795  0.27049762  1
  O2-  O262  1  0.83692147  0.79172459  0.59908523  1
  O2-  O263  1  0.83223665  0.79477707  0.93288570  1
  O2-  O264  1  0.42609395  0.06025682  0.05972547  1
  O2-  O265  1  0.42332233  0.05773634  0.39785535  1
  O2-  O266  1  0.42078643  0.05953495  0.72307474  1
  O2-  O267  1  0.40976289  0.53117567  0.06489557  1
  O2-  O268  1  0.41274324  0.53974651  0.40095618  1
  O2-  O269  1  0.41224745  0.53213123  0.72958716  1
  O2-  O270  1  0.92110942  0.05060377  0.06136325  1
  O2-  O271  1  0.92402252  0.04851425  0.39910347  1
  O2-  O272  1  0.91299931  0.04576812  0.72856152  1
  O2-  O273  1  0.91217034  0.53160257  0.06732675  1
  O2-  O274  1  0.91533905  0.53699462  0.40796112  1
  O2-  O275  1  0.91040586  0.53741603  0.73359324  1
  O2-  O276  1  0.28528341  0.16806011  0.06734332  1
  O2-  O277  1  0.28694040  0.16908314  0.40029936  1
  O2-  O278  1  0.28869555  0.16473159  0.73050879  1
  O2-  O279  1  0.30309974  0.66160752  0.06037767  1
  O2-  O280  1  0.30051267  0.66566204  0.39764067  1
  O2-  O281  1  0.29735568  0.65808301  0.73320599  1
  O2-  O282  1  0.78711702  0.16713333  0.06586024  1
  O2-  O283  1  0.79050676  0.16643775  0.40183693  1
  O2-  O284  1  0.79241433  0.16424503  0.72790794  1
  O2-  O285  1  0.79247583  0.66939436  0.06732981  1
  O2-  O286  1  0.79528549  0.67052515  0.40645251  1
  O2-  O287  1  0.79604710  0.66474656  0.73008492  1
