# generated using pymatgen
data_Ca2Al2SiO7
_symmetry_space_group_name_H-M   'P 1'
_cell_length_a   15.45222691
_cell_length_b   15.45351996
_cell_length_c   15.27976480
_cell_angle_alpha   89.99520336
_cell_angle_beta   89.99687820
_cell_angle_gamma   89.99072122
_symmetry_Int_Tables_number   1
_chemical_formula_structural   Ca2Al2SiO7
_chemical_formula_sum   'Ca48 Al48 Si24 O168'
_cell_volume   3648.67478839
_cell_formula_units_Z   24
loop_
 _symmetry_equiv_pos_site_id
 _symmetry_equiv_pos_as_xyz
  1  'x, y, z'
loop_
 _atom_type_symbol
 _atom_type_oxidation_number
  Ca2+  2.0
  Al0+  0.0
  Si0+  0.0
  O2-  -2.0
loop_
 _atom_site_type_symbol
 _atom_site_label
 _atom_site_symmetry_multiplicity
 _atom_site_fract_x
 _atom_site_fract_y
 _atom_site_fract_z
 _atom_site_occupancy
  Ca2+  Ca0  1  0.15987092  0.07717553  0.16934962  1
  Ca2+  Ca1  1  0.17136015  0.07837332  0.50836687  1
  Ca2+  Ca2  1  0.16651162  0.07497664  0.83638346  1
  Ca2+  Ca3  1  0.16852797  0.58869425  0.17510714  1
  Ca2+  Ca4  1  0.17993917  0.59107247  0.50176686  1
  Ca2+  Ca5  1  0.17129712  0.58593193  0.83687261  1
  Ca2+  Ca6  1  0.67284483  0.08410644  0.17674719  1
  Ca2+  Ca7  1  0.66712196  0.07779462  0.50309843  1
  Ca2+  Ca8  1  0.66756522  0.07584437  0.83454494  1
  Ca2+  Ca9  1  0.67566952  0.58393134  0.17019791  1
  Ca2+  Ca10  1  0.66940855  0.59327169  0.50316241  1
  Ca2+  Ca11  1  0.67157915  0.58051933  0.84153027  1
  Ca2+  Ca12  1  0.08638048  0.31955500  0.16190195  1
  Ca2+  Ca13  1  0.07872782  0.32759863  0.49627379  1
  Ca2+  Ca14  1  0.07868393  0.32789483  0.82841625  1
  Ca2+  Ca15  1  0.07952713  0.82149479  0.15650664  1
  Ca2+  Ca16  1  0.08235542  0.83305778  0.49790629  1
  Ca2+  Ca17  1  0.07634407  0.83656686  0.83410708  1
  Ca2+  Ca18  1  0.58279575  0.33293067  0.16324253  1
  Ca2+  Ca19  1  0.57659646  0.32724578  0.49668087  1
  Ca2+  Ca20  1  0.57500809  0.33979362  0.83053204  1
  Ca2+  Ca21  1  0.57089990  0.83046699  0.16509883  1
  Ca2+  Ca22  1  0.57963543  0.82572622  0.49480575  1
  Ca2+  Ca23  1  0.58138457  0.82786349  0.82575312  1
  Ca2+  Ca24  1  0.33375639  0.42219359  0.17059109  1
  Ca2+  Ca25  1  0.33749456  0.42664110  0.50590949  1
  Ca2+  Ca26  1  0.34233135  0.42141971  0.83577305  1
  Ca2+  Ca27  1  0.32834270  0.90565957  0.16863936  1
  Ca2+  Ca28  1  0.32917807  0.92047071  0.50990013  1
  Ca2+  Ca29  1  0.32148515  0.91638276  0.83960489  1
  Ca2+  Ca30  1  0.83093583  0.42767421  0.17048994  1
  Ca2+  Ca31  1  0.83501028  0.42204939  0.50305242  1
  Ca2+  Ca32  1  0.82820229  0.42130380  0.84348489  1
  Ca2+  Ca33  1  0.83576372  0.91953048  0.17049367  1
  Ca2+  Ca34  1  0.83060958  0.92066826  0.50705887  1
  Ca2+  Ca35  1  0.83041064  0.90527836  0.83504105  1
  Ca2+  Ca36  1  0.42474932  0.17279048  0.16029931  1
  Ca2+  Ca37  1  0.41733790  0.16774517  0.49667898  1
  Ca2+  Ca38  1  0.41027828  0.17868330  0.82792201  1
  Ca2+  Ca39  1  0.41550158  0.67396697  0.16727189  1
  Ca2+  Ca40  1  0.42511071  0.66593349  0.49241392  1
  Ca2+  Ca41  1  0.42152524  0.66982097  0.82716269  1
  Ca2+  Ca42  1  0.92624180  0.15949972  0.16399547  1
  Ca2+  Ca43  1  0.91771986  0.17059053  0.49337594  1
  Ca2+  Ca44  1  0.92252335  0.17092703  0.82920773  1
  Ca2+  Ca45  1  0.92297501  0.66418821  0.15966946  1
  Ca2+  Ca46  1  0.92127043  0.67373302  0.49322148  1
  Ca2+  Ca47  1  0.91887739  0.67208674  0.83103218  1
  Al0+  Al48  1  0.00132353  -0.00162124  -0.00433625  1
  Al0+  Al49  1  -0.00131486  0.00124170  0.33638583  1
  Al0+  Al50  1  -0.00015216  0.00030038  0.66602754  1
  Al0+  Al51  1  0.00214516  0.49849354  0.00017716  1
  Al0+  Al52  1  -0.00140959  0.49951305  0.33552275  1
  Al0+  Al53  1  0.00156107  0.50020477  0.66194862  1
  Al0+  Al54  1  0.49966372  0.00086969  -0.00382298  1
  Al0+  Al55  1  0.49826851  0.00139032  0.32516038  1
  Al0+  Al56  1  0.50098051  0.00128937  0.67697821  1
  Al0+  Al57  1  0.50069723  0.49907784  0.00312594  1
  Al0+  Al58  1  0.50026103  0.50043445  0.33292153  1
  Al0+  Al59  1  0.50134354  0.49951800  0.66172737  1
  Al0+  Al60  1  0.25234092  0.24986243  -0.00786618  1
  Al0+  Al61  1  0.24762041  0.24903189  0.32980119  1
  Al0+  Al62  1  0.24940531  0.25197380  0.66442143  1
  Al0+  Al63  1  0.24979902  0.75072213  -0.00377659  1
  Al0+  Al64  1  0.24789229  0.74943885  0.33295056  1
  Al0+  Al65  1  0.25032804  0.74971124  0.67695778  1
  Al0+  Al66  1  0.74956911  0.24860732  0.00461965  1
  Al0+  Al67  1  0.74935076  0.25096126  0.33451050  1
  Al0+  Al68  1  0.75018585  0.25087705  0.66331160  1
  Al0+  Al69  1  0.74964389  0.75025502  0.00451014  1
  Al0+  Al70  1  0.74805625  0.75008405  0.33362385  1
  Al0+  Al71  1  0.75207517  0.75087646  0.66280790  1
  Al0+  Al72  1  0.07195043  0.67533552  0.98375114  1
  Al0+  Al73  1  0.06916439  0.67974022  0.32210611  1
  Al0+  Al74  1  0.92753573  0.32226763  0.65309278  1
  Al0+  Al75  1  0.68123587  0.92794178  0.67986318  1
  Al0+  Al76  1  0.32203299  0.07409077  0.68230352  1
  Al0+  Al77  1  0.57047205  0.68014912  0.65438751  1
  Al0+  Al78  1  0.42742424  0.82135782  0.32102186  1
  Al0+  Al79  1  0.57293719  0.67714736  0.31598097  1
  Al0+  Al80  1  0.17977961  0.93047112  0.01677105  1
  Al0+  Al81  1  0.82123023  0.07067651  0.34755407  1
  Al0+  Al82  1  0.93025518  0.82071886  0.65106384  1
  Al0+  Al83  1  0.42889214  0.32062697  0.65111150  1
  Al0+  Al84  1  0.82091378  0.57197910  0.35001399  1
  Al0+  Al85  1  0.82275367  0.57187832  0.01454317  1
  Al0+  Al86  1  0.31958185  0.57060968  0.34616757  1
  Al0+  Al87  1  0.57101257  0.17958236  0.32062018  1
  Al0+  Al88  1  0.06968502  0.17878058  0.32019523  1
  Al0+  Al89  1  0.67754804  0.42804468  0.01605914  1
  Al0+  Al90  1  0.32321271  0.56874408  0.68134139  1
  Al0+  Al91  1  0.92776052  0.81981669  0.98619460  1
  Al0+  Al92  1  0.43214781  0.32108097  0.98664236  1
  Al0+  Al93  1  0.42869245  0.82158785  0.98336526  1
  Al0+  Al94  1  0.17749991  0.92866035  0.68355987  1
  Al0+  Al95  1  0.07114071  0.17805752  0.98453811  1
  Si0+  Si96  1  0.57229655  0.17610503  0.65108941  1
  Si0+  Si97  1  0.17937556  0.92960611  0.34734810  1
  Si0+  Si98  1  0.82247824  0.57081399  0.68017476  1
  Si0+  Si99  1  0.67779325  0.42809933  0.35324547  1
  Si0+  Si100  1  0.32192941  0.07377321  0.01830718  1
  Si0+  Si101  1  0.17783944  0.42469214  0.34991382  1
  Si0+  Si102  1  0.07418219  0.67789203  0.64918311  1
  Si0+  Si103  1  0.68065537  0.42848962  0.67977635  1
  Si0+  Si104  1  0.07070638  0.17882168  0.64903802  1
  Si0+  Si105  1  0.42716817  0.82305552  0.65375260  1
  Si0+  Si106  1  0.32006759  0.57057249  0.01519632  1
  Si0+  Si107  1  0.67504596  0.92967147  0.34847378  1
  Si0+  Si108  1  0.17679013  0.42912350  0.68312256  1
  Si0+  Si109  1  0.92747246  0.82285816  0.31847620  1
  Si0+  Si110  1  0.17966467  0.42599418  0.01374617  1
  Si0+  Si111  1  0.57539001  0.17738684  0.98166303  1
  Si0+  Si112  1  0.67659175  0.92871871  0.01662578  1
  Si0+  Si113  1  0.57092407  0.67915448  0.98466740  1
  Si0+  Si114  1  0.82130177  0.07402936  0.68370734  1
  Si0+  Si115  1  0.32138948  0.07271126  0.34532248  1
  Si0+  Si116  1  0.42718025  0.32189390  0.31685857  1
  Si0+  Si117  1  0.92716948  0.32254904  0.31521556  1
  Si0+  Si118  1  0.92751096  0.32077749  0.98575884  1
  Si0+  Si119  1  0.82081127  0.06992060  0.01387161  1
  O2-  O120  1  0.25570763  0.00401474  0.06509349  1
  O2-  O121  1  0.25150360  0.00070612  0.38778722  1
  O2-  O122  1  0.25172541  0.00013121  0.73180385  1
  O2-  O123  1  0.24643070  0.50103371  0.05636452  1
  O2-  O124  1  0.24605352  0.49424855  0.39343981  1
  O2-  O125  1  0.24734493  0.49510026  0.72865799  1
  O2-  O126  1  0.74859279  0.00002722  0.05684437  1
  O2-  O127  1  0.74587928  -0.00367889  0.39317322  1
  O2-  O128  1  0.75547014  0.00305758  0.72858824  1
  O2-  O129  1  0.75091193  0.49917971  0.06457368  1
  O2-  O130  1  0.74362224  0.49964618  0.39788869  1
  O2-  O131  1  0.75294668  0.49817086  0.72206274  1
  O2-  O132  1  -0.00488152  0.25274761  0.27154849  1
  O2-  O133  1  0.00068744  0.24655621  0.60550837  1
  O2-  O134  1  -0.00388442  0.25332388  0.93960903  1
  O2-  O135  1  -0.00840604  0.75045277  0.27435986  1
  O2-  O136  1  0.00755605  0.74863935  0.60506277  1
  O2-  O137  1  -0.00269007  0.74553214  0.93568937  1
  O2-  O138  1  0.49703404  0.25441337  0.27312518  1
  O2-  O139  1  0.49988372  0.24120833  0.60691611  1
  O2-  O140  1  0.50753788  0.24732330  0.93887003  1
  O2-  O141  1  0.49919801  0.74927619  0.26957093  1
  O2-  O142  1  0.49481800  0.75464039  0.60813795  1
  O2-  O143  1  0.50459335  0.74806976  0.93760398  1
  O2-  O144  1  0.06943034  0.17853149  0.09799896  1
  O2-  O145  1  0.07033911  0.18019513  0.43310119  1
  O2-  O146  1  0.06926320  0.18039030  0.75473303  1
  O2-  O147  1  0.07261607  0.67685771  0.09773844  1
  O2-  O148  1  0.07190153  0.68467165  0.43520683  1
  O2-  O149  1  0.07089761  0.67350223  0.75432891  1
  O2-  O150  1  0.57502646  0.17646108  0.08745545  1
  O2-  O151  1  0.56788655  0.17863977  0.43379206  1
  O2-  O152  1  0.57680869  0.17951175  0.75644388  1
  O2-  O153  1  0.56940901  0.68044819  0.08998814  1
  O2-  O154  1  0.57173800  0.68001470  0.42988610  1
  O2-  O155  1  0.57117987  0.67925593  0.76777419  1
  O2-  O156  1  0.18023269  0.42173387  0.24402939  1
  O2-  O157  1  0.17613035  0.43000513  0.57746416  1
  O2-  O158  1  0.18050092  0.42488878  0.90871661  1
  O2-  O159  1  0.17813063  0.92985836  0.24233608  1
  O2-  O160  1  0.17875162  0.93001491  0.56887028  1
  O2-  O161  1  0.17900133  0.93303114  0.90422641  1
  O2-  O162  1  0.68044291  0.42637610  0.24779980  1
  O2-  O163  1  0.68145137  0.42721798  0.57489004  1
  O2-  O164  1  0.67807909  0.42960725  0.90165471  1
  O2-  O165  1  0.67538938  0.93232434  0.24257358  1
  O2-  O166  1  0.68128560  0.93004127  0.56669472  1
  O2-  O167  1  0.67712382  0.92829840  0.91140410  1
  O2-  O168  1  0.43109884  0.31941412  0.09990306  1
  O2-  O169  1  0.42693450  0.32000080  0.42250562  1
  O2-  O170  1  0.43318610  0.32270665  0.76415008  1
  O2-  O171  1  0.42920941  0.81884840  0.09650175  1
  O2-  O172  1  0.42798059  0.82383624  0.43479704  1
  O2-  O173  1  0.43012601  0.81966986  0.75933780  1
  O2-  O174  1  0.92876869  0.31911417  0.09122151  1
  O2-  O175  1  0.92884159  0.32151629  0.42118761  1
  O2-  O176  1  0.92803129  0.32098826  0.76647228  1
  O2-  O177  1  0.92983045  0.82212120  0.10002656  1
  O2-  O178  1  0.93067667  0.82390069  0.42426000  1
  O2-  O179  1  0.92733657  0.81613833  0.76362616  1
  O2-  O180  1  0.32029502  0.07579468  0.24056969  1
  O2-  O181  1  0.32103087  0.07236526  0.56751673  1
  O2-  O182  1  0.31919129  0.07412561  0.91297448  1
  O2-  O183  1  0.31687953  0.56938217  0.23269370  1
  O2-  O184  1  0.32261942  0.56861631  0.56811767  1
  O2-  O185  1  0.32261107  0.56761359  0.91000307  1
  O2-  O186  1  0.82235713  0.06747205  0.23392121  1
  O2-  O187  1  0.81890120  0.07468754  0.57803598  1
  O2-  O188  1  0.81838987  0.07300285  0.90885122  1
  O2-  O189  1  0.82317964  0.56868062  0.23731719  1
  O2-  O190  1  0.82143969  0.57015304  0.57505140  1
  O2-  O191  1  0.82038122  0.57020434  0.90013664  1
  O2-  O192  1  0.03696634  0.08243917  0.26635075  1
  O2-  O193  1  0.04618982  0.08529480  0.60308574  1
  O2-  O194  1  0.03762965  0.08401039  0.92910458  1
  O2-  O195  1  0.04386682  0.58045800  0.27067089  1
  O2-  O196  1  0.04826568  0.58542443  0.60087715  1
  O2-  O197  1  0.04858826  0.57510740  0.93124492  1
  O2-  O198  1  0.54103043  0.08558497  0.26170174  1
  O2-  O199  1  0.54960397  0.08076757  0.60726121  1
  O2-  O200  1  0.54942893  0.08438486  0.93493713  1
  O2-  O201  1  0.54565007  0.57800192  0.26463955  1
  O2-  O202  1  0.54138753  0.58455010  0.59810816  1
  O2-  O203  1  0.54436924  0.58521343  0.94017933  1
  O2-  O204  1  0.16544840  0.20867879  0.26318618  1
  O2-  O205  1  0.16343238  0.20608043  0.60222819  1
  O2-  O206  1  0.16637129  0.20997106  0.92979123  1
  O2-  O207  1  0.16358167  0.71247433  0.26598532  1
  O2-  O208  1  0.16956121  0.70435419  0.60706842  1
  O2-  O209  1  0.16904361  0.70590129  0.93072058  1
  O2-  O210  1  0.66785609  0.20998515  0.26645096  1
  O2-  O211  1  0.66394471  0.20543749  0.60258135  1
  O2-  O212  1  0.66986684  0.20091709  0.93642901  1
  O2-  O213  1  0.67106946  0.70659254  0.26314375  1
  O2-  O214  1  0.66593893  0.71242331  0.59938765  1
  O2-  O215  1  0.66535861  0.70394432  0.94039930  1
  O2-  O216  1  0.08655476  0.44678686  0.06178718  1
  O2-  O217  1  0.08349100  0.44797970  0.39483783  1
  O2-  O218  1  0.08361756  0.45660897  0.73028310  1
  O2-  O219  1  0.08253284  0.96298328  0.06918950  1
  O2-  O220  1  0.08855904  0.95911412  0.39595550  1
  O2-  O221  1  0.07901120  0.95984977  0.73540971  1
  O2-  O222  1  0.58022870  0.45679798  0.07136912  1
  O2-  O223  1  0.58205451  0.44924462  0.39674381  1
  O2-  O224  1  0.58956714  0.45863703  0.72662415  1
  O2-  O225  1  0.58478988  0.95859611  0.06321501  1
  O2-  O226  1  0.58197298  0.95932617  0.39359708  1
  O2-  O227  1  0.58615279  0.95691062  0.73810663  1
  O2-  O228  1  0.21286837  0.33556391  0.06162625  1
  O2-  O229  1  0.20430527  0.33143773  0.39750142  1
  O2-  O230  1  0.19884374  0.33428057  0.72755702  1
  O2-  O231  1  0.21148966  0.83219815  0.06807114  1
  O2-  O232  1  0.20684808  0.83870852  0.39602027  1
  O2-  O233  1  0.20258617  0.83079143  0.73879013  1
  O2-  O234  1  0.70403234  0.32861083  0.06913605  1
  O2-  O235  1  0.70577620  0.33545230  0.40066338  1
  O2-  O236  1  0.70675332  0.33635116  0.72804179  1
  O2-  O237  1  0.70299049  0.83773672  0.06581439  1
  O2-  O238  1  0.69768982  0.83521938  0.39344569  1
  O2-  O239  1  0.71512018  0.83222989  0.73470449  1
  O2-  O240  1  0.45221701  0.41534203  0.27107878  1
  O2-  O241  1  0.46551188  0.41383646  0.59462394  1
  O2-  O242  1  0.46325244  0.41795935  0.93242907  1
  O2-  O243  1  0.45354602  0.91843729  0.26330256  1
  O2-  O244  1  0.45214441  0.91871766  0.61199248  1
  O2-  O245  1  0.45731636  0.91942660  0.93106369  1
  O2-  O246  1  0.95405585  0.41554244  0.26963359  1
  O2-  O247  1  0.95997042  0.41741012  0.59657273  1
  O2-  O248  1  0.95272348  0.41380490  0.93897761  1
  O2-  O249  1  0.95639112  0.91544428  0.27276701  1
  O2-  O250  1  0.95682062  0.91956806  0.59855812  1
  O2-  O251  1  0.95750807  0.91655723  0.93075803  1
  O2-  O252  1  0.33403556  0.29560882  0.27037355  1
  O2-  O253  1  0.33046696  0.29599258  0.59753238  1
  O2-  O254  1  0.33706879  0.29143484  0.92923733  1
  O2-  O255  1  0.33044563  0.78969836  0.26670533  1
  O2-  O256  1  0.33186721  0.79896925  0.61106220  1
  O2-  O257  1  0.33345817  0.78944091  0.92935920  1
  O2-  O258  1  0.83304864  0.29840639  0.27097683  1
  O2-  O259  1  0.83172255  0.29246056  0.59666724  1
  O2-  O260  1  0.83358959  0.29392964  0.94041709  1
  O2-  O261  1  0.83161850  0.80359300  0.27549822  1
  O2-  O262  1  0.83580313  0.78798200  0.59445055  1
  O2-  O263  1  0.82729944  0.79409056  0.93519422  1
  O2-  O264  1  0.41826386  0.05083114  0.06069752  1
  O2-  O265  1  0.41386545  0.04621924  0.39203636  1
  O2-  O266  1  0.42135118  0.05388929  0.73678429  1
  O2-  O267  1  0.41054678  0.54014842  0.06362694  1
  O2-  O268  1  0.41724106  0.54119088  0.39926080  1
  O2-  O269  1  0.41959477  0.53454548  0.73437859  1
  O2-  O270  1  0.91231770  0.03988794  0.06019191  1
  O2-  O271  1  0.91663727  0.04036580  0.40486809  1
  O2-  O272  1  0.91629007  0.05189716  0.72724268  1
  O2-  O273  1  0.92176245  0.54209455  0.06667414  1
  O2-  O274  1  0.91702350  0.53899458  0.40516667  1
  O2-  O275  1  0.91533763  0.54375161  0.72564481  1
  O2-  O276  1  0.29571387  0.16822777  0.06265680  1
  O2-  O277  1  0.29217247  0.16396419  0.39402643  1
  O2-  O278  1  0.29093561  0.17297982  0.73355813  1
  O2-  O279  1  0.29327412  0.66298445  0.06088139  1
  O2-  O280  1  0.28608270  0.66613092  0.40143586  1
  O2-  O281  1  0.29492817  0.66456044  0.73761606  1
  O2-  O282  1  0.79540061  0.16109772  0.06440202  1
  O2-  O283  1  0.79180144  0.16831112  0.40028709  1
  O2-  O284  1  0.79295498  0.16704171  0.73043533  1
  O2-  O285  1  0.79367955  0.66928847  0.06975725  1
  O2-  O286  1  0.79219215  0.67041421  0.40268671  1
  O2-  O287  1  0.79262176  0.66177218  0.72674971  1
