# generated using pymatgen
data_Ca2Al2SiO7
_symmetry_space_group_name_H-M   'P 1'
_cell_length_a   15.46009224
_cell_length_b   15.45923916
_cell_length_c   15.28514659
_cell_angle_alpha   89.99470655
_cell_angle_beta   89.99791032
_cell_angle_gamma   89.99090266
_symmetry_Int_Tables_number   1
_chemical_formula_structural   Ca2Al2SiO7
_chemical_formula_sum   'Ca48 Al48 Si24 O168'
_cell_volume   3653.16928414
_cell_formula_units_Z   24
loop_
 _symmetry_equiv_pos_site_id
 _symmetry_equiv_pos_as_xyz
  1  'x, y, z'
loop_
 _atom_type_symbol
 _atom_type_oxidation_number
  Ca2+  2.0
  Al0+  0.0
  Si0+  0.0
  O2-  -2.0
loop_
 _atom_site_type_symbol
 _atom_site_label
 _atom_site_symmetry_multiplicity
 _atom_site_fract_x
 _atom_site_fract_y
 _atom_site_fract_z
 _atom_site_occupancy
  Ca2+  Ca0  1  0.17337535  0.08268678  0.16531386  1
  Ca2+  Ca1  1  0.17671629  0.07987673  0.51107075  1
  Ca2+  Ca2  1  0.17267443  0.07937442  0.83811508  1
  Ca2+  Ca3  1  0.17136427  0.57580160  0.17151192  1
  Ca2+  Ca4  1  0.17027574  0.57853022  0.50774982  1
  Ca2+  Ca5  1  0.15826977  0.57160188  0.83620414  1
  Ca2+  Ca6  1  0.67661014  0.09325667  0.16889047  1
  Ca2+  Ca7  1  0.67731878  0.08595650  0.50269854  1
  Ca2+  Ca8  1  0.67278160  0.08490659  0.84170480  1
  Ca2+  Ca9  1  0.66242142  0.58546059  0.17015581  1
  Ca2+  Ca10  1  0.66165502  0.58257208  0.50810164  1
  Ca2+  Ca11  1  0.65873491  0.58078079  0.83431679  1
  Ca2+  Ca12  1  0.07353906  0.32776348  0.15614586  1
  Ca2+  Ca13  1  0.08601045  0.32719949  0.49914913  1
  Ca2+  Ca14  1  0.09057785  0.32299799  0.82954979  1
  Ca2+  Ca15  1  0.08678730  0.83523246  0.16216025  1
  Ca2+  Ca16  1  0.08658735  0.83401925  0.50514437  1
  Ca2+  Ca17  1  0.08330015  0.83528164  0.82202449  1
  Ca2+  Ca18  1  0.57744290  0.32605718  0.15947748  1
  Ca2+  Ca19  1  0.57782124  0.33781125  0.50320907  1
  Ca2+  Ca20  1  0.57680649  0.32738120  0.82761067  1
  Ca2+  Ca21  1  0.57690279  0.82529406  0.16290450  1
  Ca2+  Ca22  1  0.57141872  0.82536826  0.49576400  1
  Ca2+  Ca23  1  0.57752427  0.82465548  0.82442351  1
  Ca2+  Ca24  1  0.32584196  0.41945959  0.16953689  1
  Ca2+  Ca25  1  0.33378687  0.42348462  0.51014287  1
  Ca2+  Ca26  1  0.32332107  0.41168271  0.83279116  1
  Ca2+  Ca27  1  0.33263309  0.92406890  0.17014803  1
  Ca2+  Ca28  1  0.33729531  0.92397056  0.50757084  1
  Ca2+  Ca29  1  0.32457172  0.91954265  0.83678157  1
  Ca2+  Ca30  1  0.83459393  0.41158362  0.17142028  1
  Ca2+  Ca31  1  0.82714757  0.41515804  0.50619170  1
  Ca2+  Ca32  1  0.82892541  0.41441843  0.83668833  1
  Ca2+  Ca33  1  0.83247187  0.93279115  0.17020469  1
  Ca2+  Ca34  1  0.83524369  0.91864240  0.50462805  1
  Ca2+  Ca35  1  0.83563263  0.92054062  0.83895625  1
  Ca2+  Ca36  1  0.41924485  0.15860668  0.16004226  1
  Ca2+  Ca37  1  0.40725764  0.17073305  0.49914872  1
  Ca2+  Ca38  1  0.41444251  0.16478108  0.82755370  1
  Ca2+  Ca39  1  0.42061287  0.66712770  0.16597327  1
  Ca2+  Ca40  1  0.41799828  0.67595969  0.49170660  1
  Ca2+  Ca41  1  0.42403582  0.67309239  0.82418769  1
  Ca2+  Ca42  1  0.91640880  0.17407262  0.15677355  1
  Ca2+  Ca43  1  0.92561268  0.16928181  0.49472340  1
  Ca2+  Ca44  1  0.93085091  0.16371933  0.83338591  1
  Ca2+  Ca45  1  0.91788816  0.67078107  0.16219110  1
  Ca2+  Ca46  1  0.92257141  0.67073632  0.50436486  1
  Ca2+  Ca47  1  0.92453970  0.67647057  0.82348163  1
  Al0+  Al48  1  -0.00138536  0.00184793  0.00631009  1
  Al0+  Al49  1  0.00073724  -0.00005005  0.33672482  1
  Al0+  Al50  1  0.00183311  0.00238945  0.66014981  1
  Al0+  Al51  1  -0.00326110  0.50119902  0.00231216  1
  Al0+  Al52  1  -0.00271218  0.49947199  0.33092466  1
  Al0+  Al53  1  -0.00195633  0.50092645  0.66766458  1
  Al0+  Al54  1  0.50033089  -0.00273311  -0.00224233  1
  Al0+  Al55  1  0.50047624  -0.00106629  0.33336288  1
  Al0+  Al56  1  0.50585243  0.00030424  0.66609410  1
  Al0+  Al57  1  0.50036021  0.49984987  -0.00258593  1
  Al0+  Al58  1  0.49904852  0.49876646  0.33262796  1
  Al0+  Al59  1  0.50110105  0.49636074  0.66713905  1
  Al0+  Al60  1  0.24833062  0.25103901  0.00730862  1
  Al0+  Al61  1  0.24806465  0.24832615  0.33413201  1
  Al0+  Al62  1  0.25162040  0.25159150  0.66419191  1
  Al0+  Al63  1  0.25021493  0.74891266  0.00344888  1
  Al0+  Al64  1  0.25006601  0.74871685  0.33166641  1
  Al0+  Al65  1  0.25085410  0.75096947  0.66259766  1
  Al0+  Al66  1  0.74683680  0.25200053  -0.00378135  1
  Al0+  Al67  1  0.75032590  0.25105347  0.33650739  1
  Al0+  Al68  1  0.75013029  0.25162146  0.67212243  1
  Al0+  Al69  1  0.74973610  0.74854693  -0.00295451  1
  Al0+  Al70  1  0.75119528  0.74940696  0.33014380  1
  Al0+  Al71  1  0.75189972  0.75104595  0.65988538  1
  Al0+  Al72  1  0.32195749  0.07013239  0.34829911  1
  Al0+  Al73  1  0.17761203  0.92725557  0.01553313  1
  Al0+  Al74  1  0.07232651  0.18088457  0.65230635  1
  Al0+  Al75  1  0.42710817  0.82271644  0.31496594  1
  Al0+  Al76  1  0.32421218  0.07184766  0.68155180  1
  Al0+  Al77  1  0.17646996  0.42917845  0.01495278  1
  Al0+  Al78  1  0.42884131  0.82331621  0.65191780  1
  Al0+  Al79  1  0.82080452  0.07246418  0.34855355  1
  Al0+  Al80  1  0.07132173  0.17903108  0.98532895  1
  Al0+  Al81  1  0.92722567  0.32352788  0.98287034  1
  Al0+  Al82  1  0.56908291  0.17719046  0.98735852  1
  Al0+  Al83  1  0.42986712  0.31725541  0.65387225  1
  Al0+  Al84  1  0.17791185  0.43049878  0.67900139  1
  Al0+  Al85  1  0.67842594  0.42980274  0.68262229  1
  Al0+  Al86  1  0.32067615  0.56880303  0.34698714  1
  Al0+  Al87  1  0.81803315  0.07198224  0.01259012  1
  Al0+  Al88  1  0.93035155  0.82380483  0.65153392  1
  Al0+  Al89  1  0.92908056  0.31930295  0.32093245  1
  Al0+  Al90  1  0.07266422  0.67636992  0.65236291  1
  Al0+  Al91  1  0.17940878  0.92925227  0.68015068  1
  Al0+  Al92  1  0.57027327  0.67775971  0.65126898  1
  Al0+  Al93  1  0.57081513  0.67732382  0.31688538  1
  Al0+  Al94  1  0.57081050  0.67901214  0.98408744  1
  Al0+  Al95  1  0.32269511  0.07063082  0.01469204  1
  Si0+  Si96  1  0.57625852  0.17776193  0.64905137  1
  Si0+  Si97  1  0.42623615  0.82104574  0.98188563  1
  Si0+  Si98  1  0.06966101  0.67841408  0.31716179  1
  Si0+  Si99  1  0.82198519  0.07185523  0.68215027  1
  Si0+  Si100  1  0.67802155  0.43049411  0.01650297  1
  Si0+  Si101  1  0.17573091  0.42923031  0.35002120  1
  Si0+  Si102  1  0.68021015  0.92664824  0.35000847  1
  Si0+  Si103  1  0.42714459  0.32063571  0.31847813  1
  Si0+  Si104  1  0.82093289  0.57375597  0.68417107  1
  Si0+  Si105  1  0.81931276  0.57226886  0.01592861  1
  Si0+  Si106  1  0.32295101  0.57076169  0.01582818  1
  Si0+  Si107  1  0.92921392  0.82218875  0.31620131  1
  Si0+  Si108  1  0.17782279  0.92635429  0.35143313  1
  Si0+  Si109  1  0.57094932  0.18032034  0.32104665  1
  Si0+  Si110  1  0.93017885  0.82092153  0.98834811  1
  Si0+  Si111  1  0.92635581  0.32147828  0.65113450  1
  Si0+  Si112  1  0.42704873  0.32193727  0.98522860  1
  Si0+  Si113  1  0.32271804  0.57238035  0.68262538  1
  Si0+  Si114  1  0.67874170  0.92474263  0.01594410  1
  Si0+  Si115  1  0.67952805  0.42999644  0.34768605  1
  Si0+  Si116  1  0.07166266  0.67916321  0.98787574  1
  Si0+  Si117  1  0.68226791  0.92806077  0.68118857  1
  Si0+  Si118  1  0.82202690  0.57290999  0.34883527  1
  Si0+  Si119  1  0.07248351  0.17675097  0.31504539  1
  O2-  O120  1  0.25060652  -0.00148790  0.06499283  1
  O2-  O121  1  0.24818374  -0.00580164  0.39355350  1
  O2-  O122  1  0.25337293  -0.00148540  0.73069409  1
  O2-  O123  1  0.25252566  0.50350652  0.06028965  1
  O2-  O124  1  0.24683125  0.49436466  0.39506523  1
  O2-  O125  1  0.24900343  0.50875726  0.72681392  1
  O2-  O126  1  0.74145629  -0.00103924  0.06076507  1
  O2-  O127  1  0.74840171  -0.00434941  0.39554798  1
  O2-  O128  1  0.75307136  -0.00109797  0.72416517  1
  O2-  O129  1  0.74972994  0.50030675  0.05951187  1
  O2-  O130  1  0.74732888  0.50483310  0.38890646  1
  O2-  O131  1  0.75091996  0.50687703  0.72919638  1
  O2-  O132  1  0.00224624  0.24486214  0.27243726  1
  O2-  O133  1  -0.00219491  0.25675063  0.60605820  1
  O2-  O134  1  0.00151737  0.25350282  0.93437524  1
  O2-  O135  1  0.00139608  0.75220454  0.27407192  1
  O2-  O136  1  0.00362949  0.75196628  0.60253335  1
  O2-  O137  1  0.00609663  0.75537656  0.94658149  1
  O2-  O138  1  0.49488998  0.24574202  0.27777709  1
  O2-  O139  1  0.50289377  0.24139177  0.60513080  1
  O2-  O140  1  0.48951479  0.24700701  0.94213010  1
  O2-  O141  1  0.49900043  0.74899198  0.26630842  1
  O2-  O142  1  0.49599515  0.74650359  0.60133647  1
  O2-  O143  1  0.49598171  0.75280448  0.93865493  1
  O2-  O144  1  0.06829340  0.17947557  0.09923260  1
  O2-  O145  1  0.07298183  0.17891205  0.42068914  1
  O2-  O146  1  0.07147292  0.17911062  0.76503454  1
  O2-  O147  1  0.06815358  0.67802470  0.09352810  1
  O2-  O148  1  0.06711671  0.67597547  0.42162800  1
  O2-  O149  1  0.06759268  0.67425866  0.76637143  1
  O2-  O150  1  0.57172520  0.18274935  0.10120842  1
  O2-  O151  1  0.57452631  0.18402233  0.42580675  1
  O2-  O152  1  0.57951368  0.18004990  0.75451912  1
  O2-  O153  1  0.57079519  0.67948430  0.09706890  1
  O2-  O154  1  0.57079492  0.67734249  0.42976284  1
  O2-  O155  1  0.56956069  0.68075661  0.76514683  1
  O2-  O156  1  0.17551639  0.43237936  0.24421290  1
  O2-  O157  1  0.18017676  0.43086786  0.56561332  1
  O2-  O158  1  0.17739176  0.43075365  0.90200711  1
  O2-  O159  1  0.17556342  0.92778953  0.24567858  1
  O2-  O160  1  0.17820241  0.93277379  0.56654896  1
  O2-  O161  1  0.17738132  0.92387062  0.90269020  1
  O2-  O162  1  0.68074021  0.42766957  0.24230730  1
  O2-  O163  1  0.68195010  0.42780710  0.56890963  1
  O2-  O164  1  0.67730162  0.43213692  0.91187367  1
  O2-  O165  1  0.68322456  0.92678508  0.24419508  1
  O2-  O166  1  0.68347974  0.92971036  0.57601767  1
  O2-  O167  1  0.68381885  0.92219167  0.91036117  1
  O2-  O168  1  0.43198335  0.32617817  0.09139840  1
  O2-  O169  1  0.42928411  0.32307402  0.42324424  1
  O2-  O170  1  0.43085994  0.31753173  0.76696376  1
  O2-  O171  1  0.42673030  0.82009615  0.08749643  1
  O2-  O172  1  0.42924602  0.82265783  0.42811003  1
  O2-  O173  1  0.43215174  0.82265378  0.76581618  1
  O2-  O174  1  0.92713883  0.32186927  0.09710077  1
  O2-  O175  1  0.92905407  0.31925479  0.43391516  1
  O2-  O176  1  0.92424770  0.31851914  0.75625880  1
  O2-  O177  1  0.92783041  0.81688119  0.09386672  1
  O2-  O178  1  0.92776308  0.82103220  0.42068175  1
  O2-  O179  1  0.92849044  0.82257394  0.76572509  1
  O2-  O180  1  0.32110140  0.07128514  0.23543386  1
  O2-  O181  1  0.32124651  0.07153383  0.56760609  1
  O2-  O182  1  0.32327743  0.06918247  0.90174088  1
  O2-  O183  1  0.31888689  0.56511268  0.23341236  1
  O2-  O184  1  0.32367458  0.56802980  0.57683567  1
  O2-  O185  1  0.32340825  0.57123655  0.91059604  1
  O2-  O186  1  0.81774127  0.07365925  0.23541421  1
  O2-  O187  1  0.81878374  0.07340630  0.57671727  1
  O2-  O188  1  0.81914490  0.06759387  0.89951040  1
  O2-  O189  1  0.82409756  0.57275738  0.24344331  1
  O2-  O190  1  0.82169275  0.57184278  0.57818108  1
  O2-  O191  1  0.81906232  0.57507315  0.91147240  1
  O2-  O192  1  0.04778531  0.08187293  0.27199924  1
  O2-  O193  1  0.03918263  0.08761796  0.59422240  1
  O2-  O194  1  0.03828037  0.08059440  0.93453528  1
  O2-  O195  1  0.03732922  0.58839185  0.26804785  1
  O2-  O196  1  0.03797026  0.58028343  0.59667392  1
  O2-  O197  1  0.03710311  0.59016449  0.94016395  1
  O2-  O198  1  0.55018589  0.08685512  0.27445692  1
  O2-  O199  1  0.55979967  0.08240660  0.60414191  1
  O2-  O200  1  0.54874460  0.07791419  0.93390909  1
  O2-  O201  1  0.54249277  0.57787480  0.26434724  1
  O2-  O202  1  0.54747751  0.57671133  0.60268726  1
  O2-  O203  1  0.54104970  0.58157244  0.93154775  1
  O2-  O204  1  0.16536458  0.20412005  0.26816359  1
  O2-  O205  1  0.16683994  0.21396574  0.59632982  1
  O2-  O206  1  0.17119119  0.20760999  0.93592073  1
  O2-  O207  1  0.16177451  0.70289481  0.26907543  1
  O2-  O208  1  0.17139207  0.69975600  0.59865459  1
  O2-  O209  1  0.16583427  0.69857201  0.94263969  1
  O2-  O210  1  0.66028795  0.21509699  0.27237713  1
  O2-  O211  1  0.66767640  0.21112982  0.60206436  1
  O2-  O212  1  0.66214963  0.21344892  0.93066242  1
  O2-  O213  1  0.67104775  0.70452746  0.26506004  1
  O2-  O214  1  0.66852456  0.70662939  0.59886374  1
  O2-  O215  1  0.66795332  0.70887859  0.93053952  1
  O2-  O216  1  0.08049139  0.46339303  0.06942541  1
  O2-  O217  1  0.08272109  0.45817581  0.39521707  1
  O2-  O218  1  0.08006050  0.45749322  0.73299273  1
  O2-  O219  1  0.07961014  0.95493398  0.07069301  1
  O2-  O220  1  0.08406834  0.95149791  0.39747929  1
  O2-  O221  1  0.07962852  0.95920241  0.73046179  1
  O2-  O222  1  0.58650092  0.45932653  0.06493707  1
  O2-  O223  1  0.58669638  0.45435458  0.39438401  1
  O2-  O224  1  0.58177807  0.45692778  0.73851074  1
  O2-  O225  1  0.58289270  0.94350078  0.05874516  1
  O2-  O226  1  0.58667992  0.95230209  0.39497233  1
  O2-  O227  1  0.59185881  0.95550468  0.73106734  1
  O2-  O228  1  0.20591574  0.33478854  0.07351418  1
  O2-  O229  1  0.19821376  0.33365165  0.39215408  1
  O2-  O230  1  0.21436866  0.33612338  0.73278715  1
  O2-  O231  1  0.20457286  0.82780286  0.06970544  1
  O2-  O232  1  0.19975327  0.83089554  0.39430569  1
  O2-  O233  1  0.20205663  0.82790105  0.73067465  1
  O2-  O234  1  0.70443927  0.33847176  0.06418660  1
  O2-  O235  1  0.71075745  0.34092102  0.39805745  1
  O2-  O236  1  0.71131835  0.33445066  0.73862366  1
  O2-  O237  1  0.71114391  0.83377923  0.06414949  1
  O2-  O238  1  0.70839973  0.83338592  0.39560372  1
  O2-  O239  1  0.71081903  0.83612150  0.72811749  1
  O2-  O240  1  0.45936562  0.40961992  0.26833112  1
  O2-  O241  1  0.46445542  0.41234529  0.59853562  1
  O2-  O242  1  0.45931944  0.41213693  0.93674124  1
  O2-  O243  1  0.45950539  0.92062656  0.26203055  1
  O2-  O244  1  0.46525452  0.91954707  0.59845297  1
  O2-  O245  1  0.45155349  0.91387082  0.93557538  1
  O2-  O246  1  0.95639203  0.41695278  0.26590122  1
  O2-  O247  1  0.94597710  0.41720716  0.60773834  1
  O2-  O248  1  0.95022506  0.42495376  0.93390761  1
  O2-  O249  1  0.95626995  0.91506438  0.26995306  1
  O2-  O250  1  0.95615313  0.92089435  0.59518913  1
  O2-  O251  1  0.95151672  0.91474769  0.94369310  1
  O2-  O252  1  0.33354887  0.29687270  0.27247209  1
  O2-  O253  1  0.33487831  0.29116502  0.59504447  1
  O2-  O254  1  0.33059879  0.30352200  0.94421696  1
  O2-  O255  1  0.32823442  0.79358571  0.26291548  1
  O2-  O256  1  0.32978762  0.80106180  0.59869348  1
  O2-  O257  1  0.33280836  0.79259356  0.93697986  1
  O2-  O258  1  0.83146286  0.28940364  0.26733707  1
  O2-  O259  1  0.83383596  0.29176547  0.60428884  1
  O2-  O260  1  0.82827681  0.29613522  0.93197247  1
  O2-  O261  1  0.83882184  0.79251326  0.26697204  1
  O2-  O262  1  0.83436036  0.79289636  0.59455227  1
  O2-  O263  1  0.84103376  0.78811068  0.93892793  1
  O2-  O264  1  0.42250211  0.04151844  0.06695871  1
  O2-  O265  1  0.42087964  0.04431292  0.40048453  1
  O2-  O266  1  0.42667330  0.04962394  0.72922466  1
  O2-  O267  1  0.41566650  0.54160676  0.06282025  1
  O2-  O268  1  0.41709839  0.53718633  0.40065219  1
  O2-  O269  1  0.41381191  0.54010548  0.72974838  1
  O2-  O270  1  0.91185124  0.04005761  0.07087959  1
  O2-  O271  1  0.91801027  0.04263148  0.40136151  1
  O2-  O272  1  0.91465511  0.04459219  0.72646016  1
  O2-  O273  1  0.91055351  0.54706422  0.06638986  1
  O2-  O274  1  0.91205048  0.54119377  0.39741484  1
  O2-  O275  1  0.91328863  0.54714418  0.73200216  1
  O2-  O276  1  0.29743542  0.16954779  0.06914994  1
  O2-  O277  1  0.29043788  0.16802090  0.40072297  1
  O2-  O278  1  0.29443150  0.17061798  0.73170731  1
  O2-  O279  1  0.29848254  0.66371089  0.06381910  1
  O2-  O280  1  0.28990783  0.66602333  0.39878951  1
  O2-  O281  1  0.30376449  0.66820443  0.72546606  1
  O2-  O282  1  0.78498337  0.16914430  0.06537975  1
  O2-  O283  1  0.78624041  0.16710166  0.40439878  1
  O2-  O284  1  0.79178938  0.16186119  0.73077058  1
  O2-  O285  1  0.78989068  0.66336138  0.06542047  1
  O2-  O286  1  0.79854460  0.66606671  0.39527938  1
  O2-  O287  1  0.79769893  0.66900423  0.72803056  1
