# generated using pymatgen
data_Ca2Al2SiO7
_symmetry_space_group_name_H-M   'P 1'
_cell_length_a   15.45774655
_cell_length_b   15.45817785
_cell_length_c   15.28363608
_cell_angle_alpha   90.00843928
_cell_angle_beta   89.99522158
_cell_angle_gamma   90.00968228
_symmetry_Int_Tables_number   1
_chemical_formula_structural   Ca2Al2SiO7
_chemical_formula_sum   'Ca48 Al48 Si24 O168'
_cell_volume   3652.00326802
_cell_formula_units_Z   24
loop_
 _symmetry_equiv_pos_site_id
 _symmetry_equiv_pos_as_xyz
  1  'x, y, z'
loop_
 _atom_type_symbol
 _atom_type_oxidation_number
  Ca2+  2.0
  Al0+  0.0
  Si0+  0.0
  O2-  -2.0
loop_
 _atom_site_type_symbol
 _atom_site_label
 _atom_site_symmetry_multiplicity
 _atom_site_fract_x
 _atom_site_fract_y
 _atom_site_fract_z
 _atom_site_occupancy
  Ca2+  Ca0  1  0.17058238  0.08052447  0.17279765  1
  Ca2+  Ca1  1  0.16814081  0.07356847  0.50181078  1
  Ca2+  Ca2  1  0.16529667  0.08274713  0.83759240  1
  Ca2+  Ca3  1  0.17098389  0.57836326  0.16975861  1
  Ca2+  Ca4  1  0.17728366  0.57843454  0.50807394  1
  Ca2+  Ca5  1  0.17248937  0.57034422  0.83281986  1
  Ca2+  Ca6  1  0.67479129  0.07552429  0.17475553  1
  Ca2+  Ca7  1  0.66525688  0.08804561  0.49749186  1
  Ca2+  Ca8  1  0.67005680  0.08099168  0.84112529  1
  Ca2+  Ca9  1  0.66412845  0.57805049  0.17103579  1
  Ca2+  Ca10  1  0.67358315  0.57451008  0.50384918  1
  Ca2+  Ca11  1  0.66906458  0.58564304  0.83589436  1
  Ca2+  Ca12  1  0.07313877  0.32749550  0.15565004  1
  Ca2+  Ca13  1  0.07244987  0.34420428  0.49783527  1
  Ca2+  Ca14  1  0.08006886  0.33396557  0.83073086  1
  Ca2+  Ca15  1  0.07909889  0.83665586  0.16137069  1
  Ca2+  Ca16  1  0.08941988  0.83528561  0.49662071  1
  Ca2+  Ca17  1  0.07666045  0.83773027  0.82823381  1
  Ca2+  Ca18  1  0.58697542  0.32791524  0.16871155  1
  Ca2+  Ca19  1  0.58436499  0.32394390  0.49476948  1
  Ca2+  Ca20  1  0.57696309  0.32508393  0.82279843  1
  Ca2+  Ca21  1  0.58372006  0.83101222  0.15639545  1
  Ca2+  Ca22  1  0.57806018  0.83401371  0.49594347  1
  Ca2+  Ca23  1  0.57471038  0.83377187  0.83198477  1
  Ca2+  Ca24  1  0.32698559  0.42233949  0.17265614  1
  Ca2+  Ca25  1  0.33343961  0.42654835  0.51149819  1
  Ca2+  Ca26  1  0.32521025  0.40967131  0.83671602  1
  Ca2+  Ca27  1  0.32946721  0.91990837  0.17503646  1
  Ca2+  Ca28  1  0.32678084  0.91953016  0.50427654  1
  Ca2+  Ca29  1  0.33243648  0.91017446  0.83313662  1
  Ca2+  Ca30  1  0.83055993  0.41078242  0.17189732  1
  Ca2+  Ca31  1  0.83113780  0.41211081  0.50441080  1
  Ca2+  Ca32  1  0.84148792  0.41922131  0.83400198  1
  Ca2+  Ca33  1  0.82781322  0.92489406  0.17014772  1
  Ca2+  Ca34  1  0.82687898  0.92553610  0.50095156  1
  Ca2+  Ca35  1  0.82636771  0.92401103  0.84775596  1
  Ca2+  Ca36  1  0.42302186  0.15668057  0.16745718  1
  Ca2+  Ca37  1  0.42492221  0.16737074  0.49629146  1
  Ca2+  Ca38  1  0.42484785  0.17114200  0.82278774  1
  Ca2+  Ca39  1  0.42186896  0.67226757  0.15882244  1
  Ca2+  Ca40  1  0.40486673  0.66958893  0.49796106  1
  Ca2+  Ca41  1  0.41757106  0.67438241  0.83007739  1
  Ca2+  Ca42  1  0.91485227  0.17060876  0.16035592  1
  Ca2+  Ca43  1  0.91507672  0.17687484  0.49256984  1
  Ca2+  Ca44  1  0.91855009  0.17479150  0.83253754  1
  Ca2+  Ca45  1  0.91768538  0.67636964  0.15874613  1
  Ca2+  Ca46  1  0.91750976  0.66494011  0.49796908  1
  Ca2+  Ca47  1  0.91391791  0.67179487  0.82957350  1
  Al0+  Al48  1  0.00066982  0.00157379  -0.00383417  1
  Al0+  Al49  1  -0.00160054  0.00059739  0.34081397  1
  Al0+  Al50  1  -0.00153914  0.00100163  0.66920560  1
  Al0+  Al51  1  0.00021322  0.50012310  0.00264610  1
  Al0+  Al52  1  0.00024230  0.50249714  0.32529612  1
  Al0+  Al53  1  0.00058595  0.50190475  0.67010569  1
  Al0+  Al54  1  0.49947434  -0.00138995  -0.00156906  1
  Al0+  Al55  1  0.49890507  -0.00005942  0.33536324  1
  Al0+  Al56  1  0.49973016  -0.00295886  0.65835474  1
  Al0+  Al57  1  0.50072823  0.50081796  -0.00378972  1
  Al0+  Al58  1  0.50111106  0.50036024  0.34144617  1
  Al0+  Al59  1  0.50292233  0.50167475  0.66888332  1
  Al0+  Al60  1  0.24862472  0.24923913  0.00397588  1
  Al0+  Al61  1  0.24842467  0.25088879  0.33788402  1
  Al0+  Al62  1  0.25024417  0.24773463  0.66461291  1
  Al0+  Al63  1  0.25073917  0.74879966  -0.00290944  1
  Al0+  Al64  1  0.24899442  0.74819349  0.33637898  1
  Al0+  Al65  1  0.24860722  0.74932176  0.67208716  1
  Al0+  Al66  1  0.75085788  0.25163557  -0.00138430  1
  Al0+  Al67  1  0.74819576  0.25032095  0.33172190  1
  Al0+  Al68  1  0.75204800  0.24957533  0.66094750  1
  Al0+  Al69  1  0.74997952  0.74861323  -0.00390159  1
  Al0+  Al70  1  0.74958721  0.75035571  0.33578006  1
  Al0+  Al71  1  0.74944466  0.75116445  0.66876796  1
  Al0+  Al72  1  0.82062664  0.57147160  0.68051093  1
  Al0+  Al73  1  0.07320486  0.17897452  0.98515967  1
  Al0+  Al74  1  0.17868676  0.92883471  0.34670999  1
  Al0+  Al75  1  0.42787232  0.82258895  0.98544028  1
  Al0+  Al76  1  0.68080457  0.42942885  0.34654453  1
  Al0+  Al77  1  0.17863852  0.93036065  0.68322960  1
  Al0+  Al78  1  0.17883749  0.42798533  0.01636115  1
  Al0+  Al79  1  0.42788293  0.81636802  0.64959147  1
  Al0+  Al80  1  0.93363144  0.32181838  0.65195868  1
  Al0+  Al81  1  0.32050128  0.56874157  0.34562390  1
  Al0+  Al82  1  0.32437209  0.57142606  0.68498807  1
  Al0+  Al83  1  0.92964813  0.32096004  0.31791829  1
  Al0+  Al84  1  0.67783890  0.92837231  0.01388026  1
  Al0+  Al85  1  0.56796674  0.17888925  0.31630949  1
  Al0+  Al86  1  0.42703049  0.32310575  0.65224010  1
  Al0+  Al87  1  0.57177218  0.67693054  0.98444367  1
  Al0+  Al88  1  0.92765566  0.32196864  0.98332986  1
  Al0+  Al89  1  0.57161676  0.17845073  0.65068255  1
  Al0+  Al90  1  0.82179673  0.07291571  0.01452408  1
  Al0+  Al91  1  0.93065015  0.82110525  0.98712480  1
  Al0+  Al92  1  0.81980835  0.07223085  0.34967448  1
  Al0+  Al93  1  0.17995664  0.42669195  0.68099667  1
  Al0+  Al94  1  0.32231394  0.07338542  0.34941075  1
  Al0+  Al95  1  0.67788043  0.92664001  0.34926095  1
  Si0+  Si96  1  0.32258353  0.57112063  0.01683987  1
  Si0+  Si97  1  0.07186793  0.68084228  0.31716174  1
  Si0+  Si98  1  0.57550004  0.67886655  0.64740174  1
  Si0+  Si99  1  0.07224253  0.17604680  0.31822538  1
  Si0+  Si100  1  0.81990666  0.07202016  0.68278444  1
  Si0+  Si101  1  0.07209164  0.17487367  0.64790478  1
  Si0+  Si102  1  0.17536477  0.42919846  0.34837616  1
  Si0+  Si103  1  0.82381646  0.57311055  0.34733270  1
  Si0+  Si104  1  0.67823902  0.92938134  0.68228919  1
  Si0+  Si105  1  0.92709845  0.82325959  0.65052649  1
  Si0+  Si106  1  0.17916994  0.92785246  0.01286676  1
  Si0+  Si107  1  0.67715628  0.42933354  0.01375205  1
  Si0+  Si108  1  0.68093794  0.42613228  0.68433656  1
  Si0+  Si109  1  0.32151846  0.07126566  0.01329402  1
  Si0+  Si110  1  0.92791633  0.82180579  0.32021346  1
  Si0+  Si111  1  0.06819378  0.68154362  0.65239809  1
  Si0+  Si112  1  0.57069006  0.17930078  0.98723344  1
  Si0+  Si113  1  0.07257932  0.67729269  0.98189273  1
  Si0+  Si114  1  0.42885809  0.32094096  0.98886360  1
  Si0+  Si115  1  0.57196328  0.67831077  0.32026920  1
  Si0+  Si116  1  0.32368739  0.06942054  0.68356924  1
  Si0+  Si117  1  0.82097244  0.57110354  0.01556692  1
  Si0+  Si118  1  0.42712648  0.32499223  0.31754920  1
  Si0+  Si119  1  0.42784286  0.81879989  0.31920359  1
  O2-  O120  1  0.25146193  -0.00213758  0.05395231  1
  O2-  O121  1  0.24918464  0.00143512  0.39755981  1
  O2-  O122  1  0.25279339  0.00478335  0.73097815  1
  O2-  O123  1  0.25371751  0.50338146  0.06212313  1
  O2-  O124  1  0.24952680  0.49108290  0.39262453  1
  O2-  O125  1  0.25918828  0.49116665  0.73192168  1
  O2-  O126  1  0.75018236  -0.00013632  0.06368431  1
  O2-  O127  1  0.74707988  0.00074321  0.40032941  1
  O2-  O128  1  0.74774245  0.00183830  0.72414794  1
  O2-  O129  1  0.74979082  0.49941351  0.05601871  1
  O2-  O130  1  0.75907531  0.50151197  0.39155995  1
  O2-  O131  1  0.74699316  0.49689192  0.72939003  1
  O2-  O132  1  0.00550671  0.24628893  0.27347367  1
  O2-  O133  1  0.00954340  0.24914412  0.60368431  1
  O2-  O134  1  0.00092030  0.25057820  0.93493224  1
  O2-  O135  1  0.00043039  0.75244118  0.27688967  1
  O2-  O136  1  -0.00138780  0.75326283  0.60764905  1
  O2-  O137  1  0.00581322  0.74789959  0.93773154  1
  O2-  O138  1  0.49005022  0.25209285  0.27017209  1
  O2-  O139  1  0.49994681  0.25213585  0.60226831  1
  O2-  O140  1  0.49965365  0.25029409  0.94568701  1
  O2-  O141  1  0.50248695  0.75087797  0.27772244  1
  O2-  O142  1  0.50064995  0.73981469  0.60172873  1
  O2-  O143  1  0.50088387  0.75086295  0.93642114  1
  O2-  O144  1  0.07620279  0.17969422  0.09883452  1
  O2-  O145  1  0.07061176  0.17558706  0.42377899  1
  O2-  O146  1  0.06793989  0.17142277  0.75323568  1
  O2-  O147  1  0.07184996  0.67897324  0.08817902  1
  O2-  O148  1  0.07139746  0.67865370  0.42219768  1
  O2-  O149  1  0.06514010  0.68303142  0.75734772  1
  O2-  O150  1  0.56965247  0.17934767  0.09210239  1
  O2-  O151  1  0.56834838  0.18206311  0.42881466  1
  O2-  O152  1  0.57140449  0.17871746  0.76551932  1
  O2-  O153  1  0.56896597  0.67371372  0.09877970  1
  O2-  O154  1  0.57362188  0.67862348  0.42502424  1
  O2-  O155  1  0.57948907  0.68458857  0.75257610  1
  O2-  O156  1  0.17505665  0.43286922  0.24270228  1
  O2-  O157  1  0.17561311  0.43433305  0.56731769  1
  O2-  O158  1  0.18141510  0.42797061  0.90362080  1
  O2-  O159  1  0.17951837  0.92697830  0.23256534  1
  O2-  O160  1  0.17874969  0.93092076  0.57035793  1
  O2-  O161  1  0.17950006  0.92813761  0.90796498  1
  O2-  O162  1  0.67940631  0.43265667  0.23280206  1
  O2-  O163  1  0.68357815  0.42637048  0.57872236  1
  O2-  O164  1  0.67500499  0.42893943  0.90897183  1
  O2-  O165  1  0.68106535  0.92317280  0.23589682  1
  O2-  O166  1  0.68114616  0.92695918  0.57739197  1
  O2-  O167  1  0.67708126  0.93265542  0.89975529  1
  O2-  O168  1  0.43055296  0.32241104  0.09393616  1
  O2-  O169  1  0.43150522  0.32713235  0.42243381  1
  O2-  O170  1  0.42910659  0.31793721  0.76708381  1
  O2-  O171  1  0.42521400  0.82083634  0.09950176  1
  O2-  O172  1  0.42577596  0.81508973  0.42411740  1
  O2-  O173  1  0.43071988  0.81811098  0.76246724  1
  O2-  O174  1  0.92747950  0.32105437  0.09701553  1
  O2-  O175  1  0.93235569  0.32408477  0.43114980  1
  O2-  O176  1  0.93284961  0.32038102  0.76457496  1
  O2-  O177  1  0.93281499  0.81935571  0.10083194  1
  O2-  O178  1  0.92726015  0.81817247  0.42546059  1
  O2-  O179  1  0.92726186  0.82259772  0.75552058  1
  O2-  O180  1  0.32172754  0.06889695  0.23485564  1
  O2-  O181  1  0.32305936  0.06636302  0.57842085  1
  O2-  O182  1  0.32251683  0.07386422  0.90845033  1
  O2-  O183  1  0.31860337  0.56988237  0.23217487  1
  O2-  O184  1  0.31697306  0.57341481  0.57116100  1
  O2-  O185  1  0.32225359  0.56966276  0.91186362  1
  O2-  O186  1  0.82097388  0.06933989  0.23623091  1
  O2-  O187  1  0.82126786  0.07029913  0.57790597  1
  O2-  O188  1  0.81778421  0.07278448  0.90029194  1
  O2-  O189  1  0.82206582  0.57668078  0.24173795  1
  O2-  O190  1  0.81965926  0.57200335  0.56714669  1
  O2-  O191  1  0.82155886  0.57127689  0.91055164  1
  O2-  O192  1  0.04579345  0.08171890  0.27335304  1
  O2-  O193  1  0.03879192  0.08364625  0.60044636  1
  O2-  O194  1  0.04722400  0.08102739  0.93039444  1
  O2-  O195  1  0.04391750  0.59120154  0.26499628  1
  O2-  O196  1  0.03847107  0.59122862  0.60343278  1
  O2-  O197  1  0.04343270  0.58479878  0.93704017  1
  O2-  O198  1  0.53809744  0.08083493  0.26310791  1
  O2-  O199  1  0.54338673  0.08083124  0.59685746  1
  O2-  O200  1  0.54248684  0.08836406  0.93882348  1
  O2-  O201  1  0.54234122  0.58650361  0.27355242  1
  O2-  O202  1  0.55985424  0.58116519  0.60684857  1
  O2-  O203  1  0.54273921  0.57974509  0.92825137  1
  O2-  O204  1  0.16780077  0.19858261  0.27375128  1
  O2-  O205  1  0.16873513  0.19111363  0.60545690  1
  O2-  O206  1  0.17198180  0.20774912  0.93186326  1
  O2-  O207  1  0.16274472  0.70937852  0.26788151  1
  O2-  O208  1  0.16000105  0.70961237  0.60561095  1
  O2-  O209  1  0.16684498  0.69946423  0.93677692  1
  O2-  O210  1  0.66339694  0.21335561  0.26237902  1
  O2-  O211  1  0.66937038  0.20753940  0.59707156  1
  O2-  O212  1  0.66131082  0.20824315  0.93885544  1
  O2-  O213  1  0.66456363  0.70384096  0.27209857  1
  O2-  O214  1  0.66660254  0.71157129  0.59916622  1
  O2-  O215  1  0.67041076  0.70160001  0.93102618  1
  O2-  O216  1  0.08278749  0.46113471  0.07051127  1
  O2-  O217  1  0.08393960  0.46404065  0.39348705  1
  O2-  O218  1  0.08536830  0.46483038  0.73584259  1
  O2-  O219  1  0.08786833  0.95605184  0.06042445  1
  O2-  O220  1  0.08065744  0.95330012  0.40209548  1
  O2-  O221  1  0.08056846  0.96048952  0.73570957  1
  O2-  O222  1  0.58600503  0.45833118  0.06269678  1
  O2-  O223  1  0.58743477  0.46262622  0.40447449  1
  O2-  O224  1  0.58649032  0.44899514  0.72985766  1
  O2-  O225  1  0.57878602  0.95589994  0.06625650  1
  O2-  O226  1  0.57871533  0.95212968  0.40009945  1
  O2-  O227  1  0.58494893  0.95599843  0.72666281  1
  O2-  O228  1  0.21085526  0.33254363  0.07209127  1
  O2-  O229  1  0.19009044  0.33332047  0.39236601  1
  O2-  O230  1  0.19970782  0.32460467  0.73108576  1
  O2-  O231  1  0.20441482  0.83466611  0.05981761  1
  O2-  O232  1  0.20789436  0.83100610  0.40038882  1
  O2-  O233  1  0.20730389  0.83382466  0.73721087  1
  O2-  O234  1  0.70463513  0.33779399  0.06178946  1
  O2-  O235  1  0.71008620  0.33370360  0.40080544  1
  O2-  O236  1  0.70915711  0.33287430  0.72966968  1
  O2-  O237  1  0.70542475  0.82812367  0.06332431  1
  O2-  O238  1  0.70867656  0.82935194  0.40434939  1
  O2-  O239  1  0.70811760  0.83890244  0.73055898  1
  O2-  O240  1  0.45860188  0.41741989  0.27094204  1
  O2-  O241  1  0.45377621  0.42390473  0.60343405  1
  O2-  O242  1  0.45561384  0.41168292  0.93944804  1
  O2-  O243  1  0.45083367  0.91229076  0.27396994  1
  O2-  O244  1  0.45991782  0.91176128  0.59445520  1
  O2-  O245  1  0.45504735  0.92054398  0.92987351  1
  O2-  O246  1  0.95776295  0.41881760  0.26314892  1
  O2-  O247  1  0.96179623  0.42040672  0.59944786  1
  O2-  O248  1  0.95653098  0.42193891  0.93414841  1
  O2-  O249  1  0.95494311  0.91439630  0.27467420  1
  O2-  O250  1  0.95496231  0.91529674  0.60382600  1
  O2-  O251  1  0.95995852  0.91666969  0.93111127  1
  O2-  O252  1  0.32970348  0.30590280  0.27572451  1
  O2-  O253  1  0.32815343  0.29705583  0.59895822  1
  O2-  O254  1  0.33757485  0.29142789  0.94271617  1
  O2-  O255  1  0.33707056  0.78690131  0.27126948  1
  O2-  O256  1  0.32909292  0.78654131  0.59894079  1
  O2-  O257  1  0.33008600  0.79270667  0.93116310  1
  O2-  O258  1  0.83255528  0.29099696  0.26542822  1
  O2-  O259  1  0.83757301  0.28952677  0.59802341  1
  O2-  O260  1  0.82882328  0.29558926  0.92949362  1
  O2-  O261  1  0.83736831  0.79107809  0.27162086  1
  O2-  O262  1  0.83569784  0.79376565  0.60341824  1
  O2-  O263  1  0.83532788  0.78898045  0.93195543  1
  O2-  O264  1  0.41292648  0.04307184  0.06138108  1
  O2-  O265  1  0.41910442  0.04357689  0.40272858  1
  O2-  O266  1  0.41707915  0.03986342  0.72846551  1
  O2-  O267  1  0.41650787  0.54442093  0.06218177  1
  O2-  O268  1  0.41667096  0.54421134  0.40240957  1
  O2-  O269  1  0.42730323  0.55550639  0.73331105  1
  O2-  O270  1  0.92142751  0.04468517  0.06487956  1
  O2-  O271  1  0.91648555  0.04322087  0.40570888  1
  O2-  O272  1  0.91068181  0.04255001  0.73068169  1
  O2-  O273  1  0.91271222  0.54590621  0.06466778  1
  O2-  O274  1  0.91951848  0.55131892  0.39072096  1
  O2-  O275  1  0.91653617  0.54295721  0.73607923  1
  O2-  O276  1  0.29377650  0.16097643  0.06464795  1
  O2-  O277  1  0.29770351  0.17290608  0.40220179  1
  O2-  O278  1  0.30241051  0.16488371  0.72763582  1
  O2-  O279  1  0.29619768  0.66526883  0.06249587  1
  O2-  O280  1  0.28436858  0.66262687  0.40090648  1
  O2-  O281  1  0.28573367  0.66559475  0.73938593  1
  O2-  O282  1  0.79224377  0.17157674  0.06622726  1
  O2-  O283  1  0.78993850  0.17013480  0.40142103  1
  O2-  O284  1  0.79266064  0.16443589  0.72876836  1
  O2-  O285  1  0.79292411  0.66251916  0.06368927  1
  O2-  O286  1  0.79603735  0.66449917  0.39639797  1
  O2-  O287  1  0.78965903  0.66853580  0.73486975  1
