# generated using pymatgen
data_Ca2Al2SiO7
_symmetry_space_group_name_H-M   'P 1'
_cell_length_a   15.45618472
_cell_length_b   15.45630686
_cell_length_c   15.28280242
_cell_angle_alpha   90.00081069
_cell_angle_beta   90.01086742
_cell_angle_gamma   90.00806332
_symmetry_Int_Tables_number   1
_chemical_formula_structural   Ca2Al2SiO7
_chemical_formula_sum   'Ca48 Al48 Si24 O168'
_cell_volume   3650.99314112
_cell_formula_units_Z   24
loop_
 _symmetry_equiv_pos_site_id
 _symmetry_equiv_pos_as_xyz
  1  'x, y, z'
loop_
 _atom_type_symbol
 _atom_type_oxidation_number
  Ca2+  2.0
  Al0+  0.0
  Si0+  0.0
  O2-  -2.0
loop_
 _atom_site_type_symbol
 _atom_site_label
 _atom_site_symmetry_multiplicity
 _atom_site_fract_x
 _atom_site_fract_y
 _atom_site_fract_z
 _atom_site_occupancy
  Ca2+  Ca0  1  0.17474582  0.08375594  0.16964297  1
  Ca2+  Ca1  1  0.17048524  0.07145745  0.50310539  1
  Ca2+  Ca2  1  0.17046375  0.07078505  0.84568507  1
  Ca2+  Ca3  1  0.16890475  0.58405248  0.16103063  1
  Ca2+  Ca4  1  0.16479394  0.58446028  0.50637086  1
  Ca2+  Ca5  1  0.17030337  0.58240445  0.84540685  1
  Ca2+  Ca6  1  0.66960600  0.08161471  0.16939394  1
  Ca2+  Ca7  1  0.67101749  0.07162838  0.50964383  1
  Ca2+  Ca8  1  0.67283544  0.09122598  0.83552978  1
  Ca2+  Ca9  1  0.66017647  0.57052818  0.17366342  1
  Ca2+  Ca10  1  0.66021669  0.58212970  0.50115675  1
  Ca2+  Ca11  1  0.66201852  0.57830639  0.83968091  1
  Ca2+  Ca12  1  0.07842959  0.32918654  0.15721202  1
  Ca2+  Ca13  1  0.07264532  0.32932252  0.49084604  1
  Ca2+  Ca14  1  0.09312308  0.32365670  0.83502531  1
  Ca2+  Ca15  1  0.08292749  0.83885235  0.16149871  1
  Ca2+  Ca16  1  0.08250415  0.83562350  0.49663662  1
  Ca2+  Ca17  1  0.09445508  0.82522104  0.82872662  1
  Ca2+  Ca18  1  0.57981335  0.32984172  0.15554090  1
  Ca2+  Ca19  1  0.58693335  0.32512189  0.49628694  1
  Ca2+  Ca20  1  0.58224098  0.32486547  0.83668044  1
  Ca2+  Ca21  1  0.58714301  0.82911839  0.16613185  1
  Ca2+  Ca22  1  0.58941594  0.82897895  0.49386831  1
  Ca2+  Ca23  1  0.57371809  0.83098241  0.82032550  1
  Ca2+  Ca24  1  0.33194512  0.41636867  0.16293395  1
  Ca2+  Ca25  1  0.33232022  0.42076816  0.50185782  1
  Ca2+  Ca26  1  0.33245966  0.42524406  0.84665167  1
  Ca2+  Ca27  1  0.32276348  0.92833634  0.17066259  1
  Ca2+  Ca28  1  0.32647617  0.91430602  0.50241068  1
  Ca2+  Ca29  1  0.32685896  0.91490973  0.83928489  1
  Ca2+  Ca30  1  0.82180661  0.41215494  0.17134786  1
  Ca2+  Ca31  1  0.82930034  0.41414463  0.49979885  1
  Ca2+  Ca32  1  0.82532605  0.41914625  0.84051637  1
  Ca2+  Ca33  1  0.83262971  0.92170443  0.17170205  1
  Ca2+  Ca34  1  0.82581775  0.91446453  0.50516472  1
  Ca2+  Ca35  1  0.82540551  0.92645540  0.83544903  1
  Ca2+  Ca36  1  0.41952379  0.16657559  0.15443626  1
  Ca2+  Ca37  1  0.42205112  0.15989440  0.49759579  1
  Ca2+  Ca38  1  0.42434199  0.16454473  0.83335269  1
  Ca2+  Ca39  1  0.41861816  0.66536503  0.16285140  1
  Ca2+  Ca40  1  0.42668120  0.67771691  0.50056991  1
  Ca2+  Ca41  1  0.41774091  0.67104882  0.82607999  1
  Ca2+  Ca42  1  0.91898589  0.16886489  0.15884083  1
  Ca2+  Ca43  1  0.91337751  0.16747218  0.49662450  1
  Ca2+  Ca44  1  0.91713051  0.15991660  0.83486590  1
  Ca2+  Ca45  1  0.92151047  0.67793401  0.16181874  1
  Ca2+  Ca46  1  0.92284547  0.67455072  0.49308296  1
  Ca2+  Ca47  1  0.93039031  0.66726651  0.83014164  1
  Al0+  Al48  1  -0.00456732  0.00152575  0.00221124  1
  Al0+  Al49  1  0.00222050  0.00041512  0.33287322  1
  Al0+  Al50  1  0.00100136  -0.00047758  0.67433779  1
  Al0+  Al51  1  -0.00139184  0.50308036  -0.00002591  1
  Al0+  Al52  1  -0.00114350  0.49959507  0.32765289  1
  Al0+  Al53  1  -0.00115812  0.49889657  0.66257756  1
  Al0+  Al54  1  0.50086193  -0.00202536  -0.00152849  1
  Al0+  Al55  1  0.50088065  -0.00124408  0.33879668  1
  Al0+  Al56  1  0.49800590  0.00119373  0.66076336  1
  Al0+  Al57  1  0.49990800  0.49945464  0.00388970  1
  Al0+  Al58  1  0.50003673  0.49867858  0.33648076  1
  Al0+  Al59  1  0.49879983  0.50006179  0.66349782  1
  Al0+  Al60  1  0.24901837  0.25161934  -0.00226339  1
  Al0+  Al61  1  0.25131840  0.25168991  0.33959098  1
  Al0+  Al62  1  0.24857564  0.24973301  0.66291441  1
  Al0+  Al63  1  0.24990384  0.74943824  0.00616355  1
  Al0+  Al64  1  0.25222272  0.74915244  0.33647141  1
  Al0+  Al65  1  0.25183196  0.74790767  0.66023005  1
  Al0+  Al66  1  0.74979874  0.25025680  0.00429460  1
  Al0+  Al67  1  0.74894649  0.25107769  0.33345521  1
  Al0+  Al68  1  0.74919492  0.25144359  0.66630742  1
  Al0+  Al69  1  0.75109107  0.75045452  -0.00306543  1
  Al0+  Al70  1  0.75293547  0.74800912  0.32611242  1
  Al0+  Al71  1  0.75217177  0.74835012  0.66974054  1
  Al0+  Al72  1  0.67631004  0.92634347  0.68151633  1
  Al0+  Al73  1  0.18209970  0.92814314  0.68154465  1
  Al0+  Al74  1  0.68226145  0.92685393  0.34516443  1
  Al0+  Al75  1  0.32217633  0.07349119  0.35012958  1
  Al0+  Al76  1  0.57381768  0.67834973  0.65254964  1
  Al0+  Al77  1  0.57206950  0.17698170  0.98609292  1
  Al0+  Al78  1  0.17644668  0.42800615  0.01396779  1
  Al0+  Al79  1  0.57020353  0.67908390  0.31797753  1
  Al0+  Al80  1  0.42878733  0.82254147  0.65100393  1
  Al0+  Al81  1  0.07032056  0.68238892  0.98719463  1
  Al0+  Al82  1  0.68065409  0.43147077  0.01316846  1
  Al0+  Al83  1  0.32291400  0.07141176  0.01173636  1
  Al0+  Al84  1  0.93102374  0.82192944  0.31983386  1
  Al0+  Al85  1  0.17830827  0.92864073  0.34984773  1
  Al0+  Al86  1  0.32168956  0.57163370  0.01549798  1
  Al0+  Al87  1  0.42801679  0.32226190  0.98572854  1
  Al0+  Al88  1  0.67849244  0.42894320  0.34955264  1
  Al0+  Al89  1  0.17784664  0.92832295  0.01482997  1
  Al0+  Al90  1  0.57134496  0.18099031  0.65107934  1
  Al0+  Al91  1  0.81806723  0.07065918  0.01583302  1
  Al0+  Al92  1  0.92743203  0.32040165  0.31799949  1
  Al0+  Al93  1  0.07082196  0.67813639  0.65260348  1
  Al0+  Al94  1  0.81959396  0.07258861  0.68224448  1
  Al0+  Al95  1  0.07027598  0.17909965  0.98676991  1
  Si0+  Si96  1  0.42855817  0.32112512  0.31921444  1
  Si0+  Si97  1  0.82402350  0.57038189  0.68108891  1
  Si0+  Si98  1  0.07303066  0.18005036  0.31789614  1
  Si0+  Si99  1  0.82203440  0.07256856  0.34882255  1
  Si0+  Si100  1  0.07480955  0.67723073  0.31524927  1
  Si0+  Si101  1  0.17612601  0.42837533  0.67952751  1
  Si0+  Si102  1  0.17717736  0.43048742  0.34895720  1
  Si0+  Si103  1  0.42793338  0.82272347  0.31401307  1
  Si0+  Si104  1  0.32187612  0.57028377  0.35142863  1
  Si0+  Si105  1  0.56945760  0.17780958  0.31900561  1
  Si0+  Si106  1  0.92920178  0.32048969  0.65210419  1
  Si0+  Si107  1  0.32143125  0.07538052  0.68423946  1
  Si0+  Si108  1  0.92986182  0.82269820  0.65213617  1
  Si0+  Si109  1  0.67878013  0.43077869  0.68169146  1
  Si0+  Si110  1  0.42638233  0.32233771  0.64822588  1
  Si0+  Si111  1  0.07116985  0.17705368  0.65144782  1
  Si0+  Si112  1  0.67705929  0.92500234  0.01635680  1
  Si0+  Si113  1  0.57137795  0.67817463  0.98669236  1
  Si0+  Si114  1  0.82256512  0.57481415  0.01746644  1
  Si0+  Si115  1  0.31942359  0.56770797  0.67964109  1
  Si0+  Si116  1  0.42972788  0.81955046  0.98773881  1
  Si0+  Si117  1  0.82267297  0.57063229  0.34956714  1
  Si0+  Si118  1  0.92727955  0.32271965  0.98287458  1
  Si0+  Si119  1  0.92589803  0.82435553  0.97969171  1
  O2-  O120  1  0.24675567  0.00445836  0.06265264  1
  O2-  O121  1  0.25129193  -0.00007265  0.39950385  1
  O2-  O122  1  0.25623701  0.00348092  0.72784775  1
  O2-  O123  1  0.25012676  0.49810838  0.06463997  1
  O2-  O124  1  0.24558130  0.50347263  0.39279224  1
  O2-  O125  1  0.24846615  0.49707464  0.72175657  1
  O2-  O126  1  0.74390673  -0.00490676  0.06076790  1
  O2-  O127  1  0.75673641  0.00119871  0.39302975  1
  O2-  O128  1  0.74478782  0.00221331  0.73112409  1
  O2-  O129  1  0.75344930  0.50708633  0.06165457  1
  O2-  O130  1  0.75393948  0.50314280  0.39644476  1
  O2-  O131  1  0.74671152  0.50548702  0.72280877  1
  O2-  O132  1  0.00240670  0.24616274  0.27289249  1
  O2-  O133  1  -0.00131814  0.24754732  0.61020242  1
  O2-  O134  1  -0.00139528  0.25726390  0.93785634  1
  O2-  O135  1  0.01022028  0.75082691  0.27379219  1
  O2-  O136  1  -0.00182396  0.75426673  0.60619377  1
  O2-  O137  1  -0.00137000  0.75855304  0.93740400  1
  O2-  O138  1  0.49565383  0.24644581  0.27785638  1
  O2-  O139  1  0.49348351  0.25268326  0.60333969  1
  O2-  O140  1  0.49687229  0.24675845  0.93653349  1
  O2-  O141  1  0.49731058  0.75456155  0.26947132  1
  O2-  O142  1  0.50976255  0.75795098  0.60298227  1
  O2-  O143  1  0.50204615  0.74983935  0.94454006  1
  O2-  O144  1  0.06760782  0.18017604  0.09998661  1
  O2-  O145  1  0.07168241  0.18282395  0.42419914  1
  O2-  O146  1  0.07415741  0.17958268  0.75610266  1
  O2-  O147  1  0.06756106  0.68276853  0.10017505  1
  O2-  O148  1  0.07170956  0.67348725  0.42120006  1
  O2-  O149  1  0.07067735  0.67507827  0.76538293  1
  O2-  O150  1  0.57237652  0.17851657  0.10016319  1
  O2-  O151  1  0.57073559  0.18083044  0.42433417  1
  O2-  O152  1  0.57370006  0.18591734  0.76364444  1
  O2-  O153  1  0.57153565  0.67881821  0.09180598  1
  O2-  O154  1  0.56847991  0.67954256  0.43093950  1
  O2-  O155  1  0.56738346  0.67232673  0.76626478  1
  O2-  O156  1  0.17812005  0.42870022  0.24472168  1
  O2-  O157  1  0.17577453  0.42981289  0.57381821  1
  O2-  O158  1  0.17654876  0.43173726  0.89964182  1
  O2-  O159  1  0.17875153  0.93102386  0.23675422  1
  O2-  O160  1  0.18020077  0.93027975  0.56859125  1
  O2-  O161  1  0.18292898  0.92507100  0.90101255  1
  O2-  O162  1  0.67779316  0.42893155  0.23685410  1
  O2-  O163  1  0.68087698  0.42928989  0.57652954  1
  O2-  O164  1  0.68168726  0.43339037  0.89931941  1
  O2-  O165  1  0.68250802  0.92968616  0.23200339  1
  O2-  O166  1  0.68297653  0.92531126  0.56770370  1
  O2-  O167  1  0.67805171  0.92075400  0.91115756  1
  O2-  O168  1  0.43221333  0.32355570  0.09976766  1
  O2-  O169  1  0.42967409  0.32288648  0.42472106  1
  O2-  O170  1  0.42585353  0.32507612  0.75312397  1
  O2-  O171  1  0.43196647  0.81899819  0.09276552  1
  O2-  O172  1  0.42742501  0.82004491  0.41954099  1
  O2-  O173  1  0.42537566  0.81555298  0.76510984  1
  O2-  O174  1  0.92669863  0.31995187  0.08852405  1
  O2-  O175  1  0.92948543  0.31999427  0.43200707  1
  O2-  O176  1  0.92975322  0.32469007  0.75664851  1
  O2-  O177  1  0.92237809  0.82123918  0.08537942  1
  O2-  O178  1  0.92986159  0.81851327  0.43324672  1
  O2-  O179  1  0.93045972  0.82002363  0.75745555  1
  O2-  O180  1  0.32077725  0.07633194  0.23674260  1
  O2-  O181  1  0.31602633  0.07918145  0.57873261  1
  O2-  O182  1  0.32416717  0.06597118  0.89808117  1
  O2-  O183  1  0.32334654  0.56890375  0.24688579  1
  O2-  O184  1  0.31888360  0.56468564  0.57412371  1
  O2-  O185  1  0.32160479  0.57304249  0.90136633  1
  O2-  O186  1  0.81948277  0.07359296  0.24342404  1
  O2-  O187  1  0.82003649  0.07343062  0.56826667  1
  O2-  O188  1  0.81717634  0.07061436  0.90289797  1
  O2-  O189  1  0.82219039  0.56857086  0.24427043  1
  O2-  O190  1  0.82862553  0.56632899  0.57631271  1
  O2-  O191  1  0.82158786  0.57365181  0.91125532  1
  O2-  O192  1  0.05160393  0.08570480  0.27320012  1
  O2-  O193  1  0.04269401  0.08509959  0.60524550  1
  O2-  O194  1  0.03517753  0.08364339  0.93246739  1
  O2-  O195  1  0.04526835  0.58543336  0.26788510  1
  O2-  O196  1  0.03715582  0.58245027  0.59665093  1
  O2-  O197  1  0.03785758  0.58587683  0.93207687  1
  O2-  O198  1  0.54520281  0.08456147  0.27332827  1
  O2-  O199  1  0.54453156  0.08389083  0.59624802  1
  O2-  O200  1  0.54823698  0.07736004  0.93268412  1
  O2-  O201  1  0.53526552  0.58175515  0.26725048  1
  O2-  O202  1  0.53813691  0.58220950  0.59742835  1
  O2-  O203  1  0.54287102  0.58689261  0.93953286  1
  O2-  O204  1  0.16633776  0.21070371  0.27447100  1
  O2-  O205  1  0.16105068  0.20711387  0.60064850  1
  O2-  O206  1  0.16628977  0.20757913  0.93006662  1
  O2-  O207  1  0.17127784  0.69720663  0.27342993  1
  O2-  O208  1  0.16690746  0.70513974  0.59679691  1
  O2-  O209  1  0.16913833  0.70962432  0.93498634  1
  O2-  O210  1  0.66064605  0.20840402  0.27252033  1
  O2-  O211  1  0.66638924  0.21719162  0.59608994  1
  O2-  O212  1  0.66871667  0.21322862  0.93371365  1
  O2-  O213  1  0.66739239  0.70512502  0.26318025  1
  O2-  O214  1  0.67653691  0.69577934  0.60358941  1
  O2-  O215  1  0.66440165  0.70212371  0.93915101  1
  O2-  O216  1  0.07824393  0.45863028  0.06678903  1
  O2-  O217  1  0.08400707  0.45713840  0.39549414  1
  O2-  O218  1  0.08448783  0.45588139  0.72609425  1
  O2-  O219  1  0.07692998  0.95237527  0.06277362  1
  O2-  O220  1  0.08000576  0.95819365  0.40375173  1
  O2-  O221  1  0.08571858  0.95698714  0.73634162  1
  O2-  O222  1  0.58530716  0.46163836  0.06891118  1
  O2-  O223  1  0.58262000  0.45998743  0.40509361  1
  O2-  O224  1  0.58530066  0.45612359  0.72673061  1
  O2-  O225  1  0.58327595  0.94785475  0.06234831  1
  O2-  O226  1  0.58564636  0.95482948  0.39968361  1
  O2-  O227  1  0.57438484  0.95064309  0.72818123  1
  O2-  O228  1  0.20147576  0.32952553  0.06741468  1
  O2-  O229  1  0.20647459  0.34071182  0.40026147  1
  O2-  O230  1  0.20216514  0.33496520  0.72429027  1
  O2-  O231  1  0.20900003  0.83276472  0.07063894  1
  O2-  O232  1  0.20558822  0.82846286  0.40114949  1
  O2-  O233  1  0.21427168  0.82935654  0.73068953  1
  O2-  O234  1  0.71255454  0.33654759  0.06868425  1
  O2-  O235  1  0.71167566  0.33283891  0.40404257  1
  O2-  O236  1  0.71166934  0.34156228  0.72994418  1
  O2-  O237  1  0.70569519  0.83177548  0.06281921  1
  O2-  O238  1  0.71449188  0.82931642  0.39639492  1
  O2-  O239  1  0.70551796  0.82788059  0.73544181  1
  O2-  O240  1  0.45942360  0.41163914  0.27220832  1
  O2-  O241  1  0.45387085  0.41494059  0.60031373  1
  O2-  O242  1  0.46173815  0.41989328  0.93222802  1
  O2-  O243  1  0.45404721  0.91711704  0.27051034  1
  O2-  O244  1  0.44316275  0.92361994  0.59912614  1
  O2-  O245  1  0.45594542  0.91006674  0.93732823  1
  O2-  O246  1  0.95710239  0.41682317  0.26353120  1
  O2-  O247  1  0.95947685  0.40984161  0.60034342  1
  O2-  O248  1  0.94698548  0.41874554  0.93924559  1
  O2-  O249  1  0.95783083  0.91996433  0.26582531  1
  O2-  O250  1  0.95551171  0.91674761  0.60716500  1
  O2-  O251  1  0.94552392  0.91953896  0.93645975  1
  O2-  O252  1  0.33403448  0.29890602  0.27467933  1
  O2-  O253  1  0.33171731  0.29920226  0.60103453  1
  O2-  O254  1  0.32789268  0.30306209  0.93302846  1
  O2-  O255  1  0.33446748  0.79396665  0.26922967  1
  O2-  O256  1  0.33648801  0.78223834  0.59281772  1
  O2-  O257  1  0.33843570  0.78918372  0.94137056  1
  O2-  O258  1  0.83051540  0.29001872  0.26469908  1
  O2-  O259  1  0.83744463  0.29432941  0.60362384  1
  O2-  O260  1  0.83501116  0.29315213  0.93647319  1
  O2-  O261  1  0.83838837  0.78675524  0.26072774  1
  O2-  O262  1  0.83653912  0.79531604  0.60629536  1
  O2-  O263  1  0.83432384  0.79326642  0.93107876  1
  O2-  O264  1  0.42036485  0.04007744  0.06587724  1
  O2-  O265  1  0.42023622  0.04441365  0.40325933  1
  O2-  O266  1  0.41799128  0.05556314  0.72463288  1
  O2-  O267  1  0.41906861  0.54333535  0.07034125  1
  O2-  O268  1  0.41004524  0.53523303  0.40118661  1
  O2-  O269  1  0.41116121  0.53968974  0.72740009  1
  O2-  O270  1  0.91362746  0.04084180  0.07178753  1
  O2-  O271  1  0.91769197  0.05213490  0.39234243  1
  O2-  O272  1  0.91756301  0.04420862  0.73603730  1
  O2-  O273  1  0.91546508  0.55063116  0.06427049  1
  O2-  O274  1  0.91666572  0.54377561  0.39564002  1
  O2-  O275  1  0.91264277  0.53452319  0.73098335  1
  O2-  O276  1  0.29915142  0.17190071  0.06139531  1
  O2-  O277  1  0.29464949  0.17186140  0.40577919  1
  O2-  O278  1  0.29302302  0.16903959  0.72945640  1
  O2-  O279  1  0.29113205  0.66687800  0.07299632  1
  O2-  O280  1  0.29865429  0.66295862  0.39916810  1
  O2-  O281  1  0.29208606  0.65953005  0.72539883  1
  O2-  O282  1  0.78861709  0.16665471  0.07117264  1
  O2-  O283  1  0.79338632  0.16503198  0.39567110  1
  O2-  O284  1  0.79204243  0.17235265  0.73432166  1
  O2-  O285  1  0.79764477  0.66911664  0.06214093  1
  O2-  O286  1  0.79762989  0.66438834  0.39461136  1
  O2-  O287  1  0.80475406  0.66317646  0.72958414  1
