# generated using pymatgen
data_Ca2Al2SiO7
_symmetry_space_group_name_H-M   'P 1'
_cell_length_a   15.46129337
_cell_length_b   15.46100401
_cell_length_c   15.28673260
_cell_angle_alpha   90.00843580
_cell_angle_beta   90.01284861
_cell_angle_gamma   89.98971160
_symmetry_Int_Tables_number   1
_chemical_formula_structural   Ca2Al2SiO7
_chemical_formula_sum   'Ca48 Al48 Si24 O168'
_cell_volume   3654.24919354
_cell_formula_units_Z   24
loop_
 _symmetry_equiv_pos_site_id
 _symmetry_equiv_pos_as_xyz
  1  'x, y, z'
loop_
 _atom_type_symbol
 _atom_type_oxidation_number
  Ca2+  2.0
  Al0+  0.0
  Si0+  0.0
  O2-  -2.0
loop_
 _atom_site_type_symbol
 _atom_site_label
 _atom_site_symmetry_multiplicity
 _atom_site_fract_x
 _atom_site_fract_y
 _atom_site_fract_z
 _atom_site_occupancy
  Ca2+  Ca0  1  0.17470063  0.07969551  0.16267122  1
  Ca2+  Ca1  1  0.16663726  0.08864086  0.50713171  1
  Ca2+  Ca2  1  0.17352757  0.08283102  0.84254055  1
  Ca2+  Ca3  1  0.16727263  0.58050249  0.16373457  1
  Ca2+  Ca4  1  0.17441129  0.57452663  0.50917212  1
  Ca2+  Ca5  1  0.16488882  0.57232717  0.84170485  1
  Ca2+  Ca6  1  0.65919565  0.07743684  0.16953073  1
  Ca2+  Ca7  1  0.66844835  0.07316753  0.51313850  1
  Ca2+  Ca8  1  0.66820276  0.08923938  0.83541032  1
  Ca2+  Ca9  1  0.66339244  0.58456995  0.16500606  1
  Ca2+  Ca10  1  0.66272800  0.57882377  0.50897392  1
  Ca2+  Ca11  1  0.66493474  0.57381379  0.83853181  1
  Ca2+  Ca12  1  0.07638619  0.33950769  0.16182626  1
  Ca2+  Ca13  1  0.07344036  0.33320979  0.50264671  1
  Ca2+  Ca14  1  0.07977737  0.33341619  0.82309265  1
  Ca2+  Ca15  1  0.08387926  0.82661829  0.15391864  1
  Ca2+  Ca16  1  0.07322751  0.83698413  0.50034329  1
  Ca2+  Ca17  1  0.08112140  0.82948645  0.83014831  1
  Ca2+  Ca18  1  0.57178421  0.32993073  0.15373264  1
  Ca2+  Ca19  1  0.57766991  0.33355467  0.49891129  1
  Ca2+  Ca20  1  0.58109211  0.32779015  0.82626992  1
  Ca2+  Ca21  1  0.58388248  0.82520524  0.15878227  1
  Ca2+  Ca22  1  0.59788300  0.82395888  0.49880086  1
  Ca2+  Ca23  1  0.58871452  0.82238355  0.82939502  1
  Ca2+  Ca24  1  0.33035639  0.40662128  0.16665731  1
  Ca2+  Ca25  1  0.33219589  0.40991770  0.50869658  1
  Ca2+  Ca26  1  0.32426976  0.40469749  0.83781598  1
  Ca2+  Ca27  1  0.33790212  0.91792638  0.16213249  1
  Ca2+  Ca28  1  0.33027531  0.92001747  0.50612284  1
  Ca2+  Ca29  1  0.33126875  0.92281422  0.84652758  1
  Ca2+  Ca30  1  0.82643206  0.42119112  0.16525914  1
  Ca2+  Ca31  1  0.83004358  0.41483270  0.50909517  1
  Ca2+  Ca32  1  0.82158742  0.41584843  0.83960307  1
  Ca2+  Ca33  1  0.82503398  0.91952051  0.17249204  1
  Ca2+  Ca34  1  0.82540926  0.92104199  0.51130384  1
  Ca2+  Ca35  1  0.83186995  0.91927193  0.82926282  1
  Ca2+  Ca36  1  0.42013142  0.17251536  0.15722860  1
  Ca2+  Ca37  1  0.42088990  0.17765682  0.50199629  1
  Ca2+  Ca38  1  0.42454023  0.17225912  0.83219472  1
  Ca2+  Ca39  1  0.42859303  0.67307331  0.15723169  1
  Ca2+  Ca40  1  0.43173057  0.66476770  0.49779159  1
  Ca2+  Ca41  1  0.42545427  0.67046134  0.83256216  1
  Ca2+  Ca42  1  0.91487512  0.17448120  0.16470723  1
  Ca2+  Ca43  1  0.91177236  0.17545409  0.50550539  1
  Ca2+  Ca44  1  0.92446380  0.17005736  0.81989680  1
  Ca2+  Ca45  1  0.92050430  0.66519446  0.15621620  1
  Ca2+  Ca46  1  0.91280058  0.67371787  0.50192139  1
  Ca2+  Ca47  1  0.91730659  0.66686750  0.83273894  1
  Al0+  Al48  1  -0.00074350  0.00059106  0.00635985  1
  Al0+  Al49  1  0.00038392  0.00101249  0.33238613  1
  Al0+  Al50  1  -0.00041741  -0.00122250  0.66149309  1
  Al0+  Al51  1  -0.00078503  0.50173810  0.00359725  1
  Al0+  Al52  1  0.00019785  0.49955590  0.33182298  1
  Al0+  Al53  1  0.00243515  0.50095706  0.66554047  1
  Al0+  Al54  1  0.50048400  0.00183198  -0.00119499  1
  Al0+  Al55  1  0.49780209  -0.00113802  0.34188045  1
  Al0+  Al56  1  0.49853021  -0.00166894  0.66763572  1
  Al0+  Al57  1  0.49677439  0.49976529  -0.00365563  1
  Al0+  Al58  1  0.49940635  0.50116085  0.32458327  1
  Al0+  Al59  1  0.49985223  0.50265814  0.66439011  1
  Al0+  Al60  1  0.24820587  0.24790519  0.00835798  1
  Al0+  Al61  1  0.24836164  0.24840440  0.33122662  1
  Al0+  Al62  1  0.24974371  0.24920274  0.66381039  1
  Al0+  Al63  1  0.24779901  0.74774063  -0.00461772  1
  Al0+  Al64  1  0.25052456  0.74925055  0.33696628  1
  Al0+  Al65  1  0.25170473  0.74907878  0.66570542  1
  Al0+  Al66  1  0.74967132  0.25162127  0.00393153  1
  Al0+  Al67  1  0.75100564  0.25065281  0.32861213  1
  Al0+  Al68  1  0.75052502  0.24858225  0.66653121  1
  Al0+  Al69  1  0.75212925  0.75117177  -0.00006356  1
  Al0+  Al70  1  0.75232082  0.74964043  0.33194537  1
  Al0+  Al71  1  0.75165538  0.75033829  0.66329407  1
  Al0+  Al72  1  0.07180703  0.17829824  0.65347298  1
  Al0+  Al73  1  0.92879165  0.32203589  0.31693800  1
  Al0+  Al74  1  0.32297841  0.07004903  0.01591898  1
  Al0+  Al75  1  0.18108982  0.42938092  0.67916822  1
  Al0+  Al76  1  0.17802147  0.92690861  0.01387915  1
  Al0+  Al77  1  0.57236878  0.68116584  0.31822605  1
  Al0+  Al78  1  0.92763142  0.32350934  0.65464688  1
  Al0+  Al79  1  0.82123359  0.07066810  0.68183741  1
  Al0+  Al80  1  0.81912072  0.57163479  0.01422329  1
  Al0+  Al81  1  0.42895015  0.31982809  0.31834937  1
  Al0+  Al82  1  0.57339699  0.17978772  0.98571642  1
  Al0+  Al83  1  0.06966538  0.67818983  0.98603596  1
  Al0+  Al84  1  0.57385944  0.67892047  0.98283240  1
  Al0+  Al85  1  0.67976404  0.92916866  0.34701582  1
  Al0+  Al86  1  0.42889547  0.82157314  0.98569547  1
  Al0+  Al87  1  0.17918828  0.42852487  0.01502104  1
  Al0+  Al88  1  0.42503203  0.32050539  0.98460531  1
  Al0+  Al89  1  0.42992068  0.32082564  0.65288019  1
  Al0+  Al90  1  0.57271541  0.17669023  0.65101321  1
  Al0+  Al91  1  0.67801102  0.92718755  0.68442771  1
  Al0+  Al92  1  0.93096408  0.81950797  0.65337151  1
  Al0+  Al93  1  0.67533644  0.42854926  0.01592217  1
  Al0+  Al94  1  0.67846988  0.42880547  0.67754875  1
  Al0+  Al95  1  0.57056584  0.68115722  0.65273043  1
  Si0+  Si96  1  0.42586561  0.82238095  0.64877799  1
  Si0+  Si97  1  0.67819038  0.43083430  0.34653761  1
  Si0+  Si98  1  0.68047757  0.92981712  0.01421896  1
  Si0+  Si99  1  0.17806932  0.92752936  0.34986055  1
  Si0+  Si100  1  0.32303014  0.57348145  0.68444219  1
  Si0+  Si101  1  0.07206348  0.68013643  0.31944940  1
  Si0+  Si102  1  0.07469461  0.67738186  0.64815182  1
  Si0+  Si103  1  0.42534421  0.82261545  0.31847426  1
  Si0+  Si104  1  0.82326608  0.57232674  0.68117828  1
  Si0+  Si105  1  0.17840880  0.92706354  0.68009603  1
  Si0+  Si106  1  0.82245404  0.07302455  0.01670371  1
  Si0+  Si107  1  0.31956741  0.07028985  0.68141737  1
  Si0+  Si108  1  0.82333613  0.07359700  0.35067793  1
  Si0+  Si109  1  0.32126888  0.57298299  0.01700796  1
  Si0+  Si110  1  0.93080996  0.82126275  0.31711835  1
  Si0+  Si111  1  0.92828294  0.82529169  0.98392139  1
  Si0+  Si112  1  0.31893162  0.07150448  0.35178457  1
  Si0+  Si113  1  0.06819395  0.17821785  0.98802045  1
  Si0+  Si114  1  0.57096600  0.17613567  0.31895646  1
  Si0+  Si115  1  0.93010941  0.32159004  0.98605396  1
  Si0+  Si116  1  0.32163565  0.57101813  0.34805936  1
  Si0+  Si117  1  0.82322326  0.57007370  0.34947584  1
  Si0+  Si118  1  0.07197069  0.17718022  0.31297305  1
  Si0+  Si119  1  0.17882770  0.42909529  0.34961077  1
  O2-  O120  1  0.25335608  -0.00568915  0.06576318  1
  O2-  O121  1  0.24757134  -0.00064199  0.39305326  1
  O2-  O122  1  0.24945118  -0.00285544  0.72199569  1
  O2-  O123  1  0.25684381  0.50010893  0.06263775  1
  O2-  O124  1  0.25368993  0.49671397  0.39092563  1
  O2-  O125  1  0.25498112  0.50372700  0.72712450  1
  O2-  O126  1  0.74951090  0.00298196  0.05718083  1
  O2-  O127  1  0.75226584  0.00672100  0.39281460  1
  O2-  O128  1  0.74553181  0.00372559  0.73425720  1
  O2-  O129  1  0.74403798  0.50427976  0.06657902  1
  O2-  O130  1  0.75059967  0.50030762  0.39053932  1
  O2-  O131  1  0.75754636  0.50035346  0.72297101  1
  O2-  O132  1  0.00279717  0.24605685  0.27009210  1
  O2-  O133  1  -0.00093911  0.25024061  0.60446079  1
  O2-  O134  1  -0.00035413  0.24964135  0.94410840  1
  O2-  O135  1  0.00327177  0.75219797  0.27538586  1
  O2-  O136  1  0.00587498  0.74568621  0.60368210  1
  O2-  O137  1  -0.00253826  0.75618006  0.94164859  1
  O2-  O138  1  0.50505371  0.24614316  0.27341660  1
  O2-  O139  1  0.50490664  0.25283077  0.60086807  1
  O2-  O140  1  0.50297785  0.25392110  0.93702318  1
  O2-  O141  1  0.49842513  0.75867990  0.27538318  1
  O2-  O142  1  0.49783715  0.75758480  0.60429067  1
  O2-  O143  1  0.50202301  0.75210491  0.93442187  1
  O2-  O144  1  0.06444907  0.17771279  0.09341754  1
  O2-  O145  1  0.07407042  0.17651150  0.41812527  1
  O2-  O146  1  0.07307019  0.17818748  0.76733572  1
  O2-  O147  1  0.06748430  0.67909222  0.10016837  1
  O2-  O148  1  0.07148493  0.68140883  0.42444374  1
  O2-  O149  1  0.07544673  0.67768975  0.75324245  1
  O2-  O150  1  0.57235438  0.17805744  0.10023158  1
  O2-  O151  1  0.56984015  0.17690831  0.42415241  1
  O2-  O152  1  0.56954909  0.17691603  0.76398695  1
  O2-  O153  1  0.57365922  0.68377732  0.09699947  1
  O2-  O154  1  0.57168321  0.67974219  0.43133164  1
  O2-  O155  1  0.56988139  0.68065426  0.76491220  1
  O2-  O156  1  0.17708552  0.43182537  0.24460298  1
  O2-  O157  1  0.18156012  0.43191511  0.56517451  1
  O2-  O158  1  0.17673579  0.42848592  0.90221749  1
  O2-  O159  1  0.17787535  0.92515163  0.24546416  1
  O2-  O160  1  0.18091953  0.92630122  0.57421058  1
  O2-  O161  1  0.17433852  0.93216672  0.90036940  1
  O2-  O162  1  0.67923993  0.43297770  0.24192419  1
  O2-  O163  1  0.67797808  0.43251348  0.56331610  1
  O2-  O164  1  0.68028259  0.42565963  0.90257406  1
  O2-  O165  1  0.68165603  0.92999849  0.23332921  1
  O2-  O166  1  0.68329134  0.92624361  0.57036778  1
  O2-  O167  1  0.68349028  0.92763351  0.90985865  1
  O2-  O168  1  0.42545096  0.31528160  0.09887293  1
  O2-  O169  1  0.42850745  0.31963266  0.43126202  1
  O2-  O170  1  0.42596552  0.31695720  0.76536019  1
  O2-  O171  1  0.43220614  0.81990422  0.10027175  1
  O2-  O172  1  0.41914905  0.81955422  0.42365069  1
  O2-  O173  1  0.42019015  0.81954562  0.75349531  1
  O2-  O174  1  0.93175818  0.31977297  0.09174007  1
  O2-  O175  1  0.93017831  0.32426026  0.42944207  1
  O2-  O176  1  0.93101393  0.32420852  0.76826837  1
  O2-  O177  1  0.92868233  0.82605116  0.09020247  1
  O2-  O178  1  0.93170123  0.82068807  0.42207676  1
  O2-  O179  1  0.93387051  0.81877988  0.76614070  1
  O2-  O180  1  0.31948573  0.07066639  0.24725094  1
  O2-  O181  1  0.31733702  0.06904889  0.57554326  1
  O2-  O182  1  0.31825320  0.07144760  0.90239133  1
  O2-  O183  1  0.31768749  0.57533124  0.24362513  1
  O2-  O184  1  0.32047225  0.57561172  0.57800944  1
  O2-  O185  1  0.31701837  0.57577534  0.91181323  1
  O2-  O186  1  0.82542938  0.07109559  0.24459746  1
  O2-  O187  1  0.82235502  0.06715778  0.56784018  1
  O2-  O188  1  0.82763791  0.07276044  0.91243978  1
  O2-  O189  1  0.82599296  0.57056474  0.24486909  1
  O2-  O190  1  0.82200603  0.57314429  0.57468392  1
  O2-  O191  1  0.82194071  0.56841275  0.90093306  1
  O2-  O192  1  0.04629903  0.08289337  0.26712372  1
  O2-  O193  1  0.04549939  0.08057224  0.59751990  1
  O2-  O194  1  0.03952576  0.08649355  0.94129356  1
  O2-  O195  1  0.04342424  0.58870151  0.27255292  1
  O2-  O196  1  0.04911140  0.58494667  0.59998671  1
  O2-  O197  1  0.03502004  0.58310553  0.93183399  1
  O2-  O198  1  0.54150796  0.08192994  0.27529606  1
  O2-  O199  1  0.53938235  0.07864315  0.59860508  1
  O2-  O200  1  0.54627528  0.08165416  0.93333123  1
  O2-  O201  1  0.53884760  0.58697833  0.26216733  1
  O2-  O202  1  0.53692089  0.58678427  0.59543481  1
  O2-  O203  1  0.54513513  0.58027076  0.93247470  1
  O2-  O204  1  0.16488825  0.20329433  0.26638254  1
  O2-  O205  1  0.16756319  0.20856932  0.59630913  1
  O2-  O206  1  0.16152718  0.20309793  0.94473958  1
  O2-  O207  1  0.16467565  0.70723416  0.27308985  1
  O2-  O208  1  0.16801556  0.70413449  0.60091327  1
  O2-  O209  1  0.16508450  0.70464208  0.92946364  1
  O2-  O210  1  0.66625223  0.19624420  0.27400585  1
  O2-  O211  1  0.67256131  0.19900938  0.59924164  1
  O2-  O212  1  0.67345261  0.20619975  0.93510725  1
  O2-  O213  1  0.67006852  0.71014070  0.26536143  1
  O2-  O214  1  0.66740997  0.70999085  0.59750998  1
  O2-  O215  1  0.67279215  0.70866642  0.93212186  1
  O2-  O216  1  0.08481895  0.46504268  0.07082255  1
  O2-  O217  1  0.08830846  0.46167600  0.39702567  1
  O2-  O218  1  0.08436058  0.46073609  0.73273924  1
  O2-  O219  1  0.08170994  0.95912365  0.07153684  1
  O2-  O220  1  0.08528387  0.95574284  0.39627272  1
  O2-  O221  1  0.08595506  0.95249145  0.72489972  1
  O2-  O222  1  0.57457511  0.45313329  0.06592808  1
  O2-  O223  1  0.58579106  0.46041716  0.39188067  1
  O2-  O224  1  0.58310611  0.46339294  0.73083378  1
  O2-  O225  1  0.58864989  0.95616044  0.06204674  1
  O2-  O226  1  0.58148966  0.95246785  0.40187832  1
  O2-  O227  1  0.57557750  0.94606280  0.73182374  1
  O2-  O228  1  0.20480457  0.33230414  0.07282453  1
  O2-  O229  1  0.20309619  0.33492490  0.39357642  1
  O2-  O230  1  0.20997145  0.33179605  0.73162304  1
  O2-  O231  1  0.20214924  0.82650933  0.06492277  1
  O2-  O232  1  0.20568202  0.83620557  0.39937440  1
  O2-  O233  1  0.20484260  0.83415940  0.72615424  1
  O2-  O234  1  0.70938278  0.33250658  0.07245917  1
  O2-  O235  1  0.70482575  0.33693025  0.39068849  1
  O2-  O236  1  0.70555946  0.33162059  0.73065128  1
  O2-  O237  1  0.71165370  0.83998134  0.06412272  1
  O2-  O238  1  0.71653069  0.83328340  0.39941381  1
  O2-  O239  1  0.71515325  0.83047522  0.73531638  1
  O2-  O240  1  0.45569758  0.41669895  0.26374123  1
  O2-  O241  1  0.45278218  0.42109431  0.60060924  1
  O2-  O242  1  0.44112001  0.42225010  0.93592917  1
  O2-  O243  1  0.44682546  0.91890546  0.27667917  1
  O2-  O244  1  0.44595117  0.91721751  0.60343683  1
  O2-  O245  1  0.45241902  0.92145260  0.93552626  1
  O2-  O246  1  0.96316208  0.41794447  0.26284096  1
  O2-  O247  1  0.95829206  0.42092570  0.59904846  1
  O2-  O248  1  0.95922275  0.41283853  0.94090728  1
  O2-  O249  1  0.95604338  0.91446231  0.27075922  1
  O2-  O250  1  0.96269043  0.91332338  0.59422652  1
  O2-  O251  1  0.95507375  0.91893450  0.93908380  1
  O2-  O252  1  0.33130367  0.28805634  0.26675941  1
  O2-  O253  1  0.33379453  0.28691095  0.59717580  1
  O2-  O254  1  0.32639810  0.28576911  0.93588255  1
  O2-  O255  1  0.33291576  0.79305104  0.27111750  1
  O2-  O256  1  0.33354573  0.79344899  0.59914481  1
  O2-  O257  1  0.33034651  0.79375301  0.93333451  1
  O2-  O258  1  0.83250468  0.29202927  0.26082997  1
  O2-  O259  1  0.83098864  0.29455975  0.59878175  1
  O2-  O260  1  0.83740115  0.29481575  0.94221522  1
  O2-  O261  1  0.84059604  0.79148408  0.26860993  1
  O2-  O262  1  0.83688587  0.78697658  0.59533453  1
  O2-  O263  1  0.83605549  0.79932293  0.93722496  1
  O2-  O264  1  0.42164708  0.04374229  0.07084216  1
  O2-  O265  1  0.40946617  0.04445228  0.40224294  1
  O2-  O266  1  0.41100891  0.04371944  0.72870713  1
  O2-  O267  1  0.41637129  0.55324004  0.06199292  1
  O2-  O268  1  0.41500406  0.54485789  0.39308105  1
  O2-  O269  1  0.41686431  0.55101963  0.72887465  1
  O2-  O270  1  0.91154536  0.04288898  0.06924991  1
  O2-  O271  1  0.91722144  0.04617769  0.39556596  1
  O2-  O272  1  0.91967709  0.03663580  0.73311641  1
  O2-  O273  1  0.91541253  0.53935966  0.07068491  1
  O2-  O274  1  0.91487458  0.54180856  0.39783613  1
  O2-  O275  1  0.91911112  0.55272684  0.72473298  1
  O2-  O276  1  0.28697364  0.16354828  0.07458594  1
  O2-  O277  1  0.28741294  0.16255706  0.39908590  1
  O2-  O278  1  0.28884353  0.16059963  0.72821331  1
  O2-  O279  1  0.28949766  0.66406069  0.06552210  1
  O2-  O280  1  0.29092509  0.66088256  0.39931211  1
  O2-  O281  1  0.29564707  0.66686087  0.73046012  1
  O2-  O282  1  0.79590432  0.16415325  0.06620877  1
  O2-  O283  1  0.80078185  0.16926430  0.39339663  1
  O2-  O284  1  0.80039627  0.17064549  0.73390568  1
  O2-  O285  1  0.79762659  0.67247765  0.06777199  1
  O2-  O286  1  0.79740300  0.66327785  0.39535538  1
  O2-  O287  1  0.79617403  0.66493045  0.72685694  1
