# generated using pymatgen
data_Ca2Al2SiO7
_symmetry_space_group_name_H-M   'P 1'
_cell_length_a   15.45583528
_cell_length_b   15.45486494
_cell_length_c   15.28214132
_cell_angle_alpha   89.99880166
_cell_angle_beta   89.99985290
_cell_angle_gamma   90.00448969
_symmetry_Int_Tables_number   1
_chemical_formula_structural   Ca2Al2SiO7
_chemical_formula_sum   'Ca48 Al48 Si24 O168'
_cell_volume   3650.41217833
_cell_formula_units_Z   24
loop_
 _symmetry_equiv_pos_site_id
 _symmetry_equiv_pos_as_xyz
  1  'x, y, z'
loop_
 _atom_type_symbol
 _atom_type_oxidation_number
  Ca2+  2.0
  Al0+  0.0
  Si0+  0.0
  O2-  -2.0
loop_
 _atom_site_type_symbol
 _atom_site_label
 _atom_site_symmetry_multiplicity
 _atom_site_fract_x
 _atom_site_fract_y
 _atom_site_fract_z
 _atom_site_occupancy
  Ca2+  Ca0  1  0.16256985  0.08729165  0.16899473  1
  Ca2+  Ca1  1  0.16768417  0.08165230  0.50794397  1
  Ca2+  Ca2  1  0.16823734  0.08175855  0.83482182  1
  Ca2+  Ca3  1  0.17515878  0.57839453  0.17870070  1
  Ca2+  Ca4  1  0.16516722  0.57380605  0.50621495  1
  Ca2+  Ca5  1  0.15709212  0.57742065  0.83200475  1
  Ca2+  Ca6  1  0.66824266  0.07238956  0.17275316  1
  Ca2+  Ca7  1  0.66779070  0.07979577  0.50382831  1
  Ca2+  Ca8  1  0.68382376  0.07997739  0.84146589  1
  Ca2+  Ca9  1  0.66694928  0.58588958  0.16604494  1
  Ca2+  Ca10  1  0.67245746  0.58338099  0.50418707  1
  Ca2+  Ca11  1  0.67645333  0.58046366  0.84259545  1
  Ca2+  Ca12  1  0.08246065  0.32670993  0.16733483  1
  Ca2+  Ca13  1  0.07513395  0.33652947  0.49453019  1
  Ca2+  Ca14  1  0.07777721  0.32882542  0.82497247  1
  Ca2+  Ca15  1  0.07526177  0.83136194  0.15692936  1
  Ca2+  Ca16  1  0.07958681  0.83550754  0.50375755  1
  Ca2+  Ca17  1  0.07122711  0.82814769  0.82338981  1
  Ca2+  Ca18  1  0.58743471  0.32995713  0.16296993  1
  Ca2+  Ca19  1  0.57674084  0.32591970  0.49482478  1
  Ca2+  Ca20  1  0.57873840  0.33865885  0.82766937  1
  Ca2+  Ca21  1  0.58637770  0.82591714  0.15859928  1
  Ca2+  Ca22  1  0.58466709  0.82871939  0.49091757  1
  Ca2+  Ca23  1  0.58717700  0.83297262  0.83688099  1
  Ca2+  Ca24  1  0.32730178  0.42429977  0.17663457  1
  Ca2+  Ca25  1  0.32214450  0.41532523  0.50504302  1
  Ca2+  Ca26  1  0.32792970  0.41194811  0.83263448  1
  Ca2+  Ca27  1  0.33522269  0.91450194  0.16889267  1
  Ca2+  Ca28  1  0.32519373  0.92526273  0.51076158  1
  Ca2+  Ca29  1  0.32896920  0.91583168  0.83350639  1
  Ca2+  Ca30  1  0.83239305  0.42015750  0.16638712  1
  Ca2+  Ca31  1  0.83899630  0.41865116  0.50856047  1
  Ca2+  Ca32  1  0.83563738  0.42773813  0.83765713  1
  Ca2+  Ca33  1  0.82566133  0.91596780  0.16507652  1
  Ca2+  Ca34  1  0.82937760  0.92255174  0.50744374  1
  Ca2+  Ca35  1  0.83820923  0.92277408  0.84100204  1
  Ca2+  Ca36  1  0.42553309  0.16523280  0.16551385  1
  Ca2+  Ca37  1  0.41573572  0.16894104  0.49871320  1
  Ca2+  Ca38  1  0.42006951  0.17020318  0.82448763  1
  Ca2+  Ca39  1  0.42612013  0.66828185  0.15943100  1
  Ca2+  Ca40  1  0.42214374  0.66586912  0.49185372  1
  Ca2+  Ca41  1  0.42429884  0.66978696  0.83338868  1
  Ca2+  Ca42  1  0.92586331  0.16735147  0.16189084  1
  Ca2+  Ca43  1  0.91771899  0.17736428  0.49347067  1
  Ca2+  Ca44  1  0.91760796  0.16576327  0.82705044  1
  Ca2+  Ca45  1  0.91363854  0.67217382  0.15916335  1
  Ca2+  Ca46  1  0.92077827  0.66629481  0.50466620  1
  Ca2+  Ca47  1  0.91066661  0.67482531  0.82565406  1
  Al0+  Al48  1  0.00312571  0.00007024  -0.00343210  1
  Al0+  Al49  1  -0.00148457  0.00141589  0.33008141  1
  Al0+  Al50  1  -0.00068565  -0.00175749  0.66878035  1
  Al0+  Al51  1  0.00043200  0.49727497  0.00758951  1
  Al0+  Al52  1  -0.00055069  0.50167186  0.33110956  1
  Al0+  Al53  1  0.00003385  0.50024981  0.66861219  1
  Al0+  Al54  1  0.49914388  0.00133487  -0.00182283  1
  Al0+  Al55  1  0.49943101  -0.00039717  0.33487117  1
  Al0+  Al56  1  0.49973122  -0.00146236  0.67018318  1
  Al0+  Al57  1  0.49912511  0.49994841  -0.00098264  1
  Al0+  Al58  1  0.50217408  0.50116449  0.33343592  1
  Al0+  Al59  1  0.49767289  0.49882443  0.66006789  1
  Al0+  Al60  1  0.24988373  0.24818633  -0.00236617  1
  Al0+  Al61  1  0.24879517  0.25046230  0.33345588  1
  Al0+  Al62  1  0.25154319  0.25116159  0.67053925  1
  Al0+  Al63  1  0.25084255  0.74966720  -0.00323247  1
  Al0+  Al64  1  0.24981102  0.75153852  0.33840715  1
  Al0+  Al65  1  0.25158711  0.74853272  0.66630684  1
  Al0+  Al66  1  0.75238138  0.25115003  0.00708963  1
  Al0+  Al67  1  0.75003576  0.25120387  0.32469676  1
  Al0+  Al68  1  0.74854426  0.24819709  0.66630308  1
  Al0+  Al69  1  0.75052997  0.75021144  -0.00165406  1
  Al0+  Al70  1  0.74851326  0.75061677  0.33478186  1
  Al0+  Al71  1  0.74988625  0.74922347  0.66481941  1
  Al0+  Al72  1  0.82618295  0.07166248  0.01761231  1
  Al0+  Al73  1  0.17842955  0.92705696  0.68299109  1
  Al0+  Al74  1  0.81985258  0.56943390  0.67892358  1
  Al0+  Al75  1  0.07181406  0.67832770  0.65157109  1
  Al0+  Al76  1  0.92810979  0.32500530  0.31558036  1
  Al0+  Al77  1  0.42740510  0.82330643  0.98321815  1
  Al0+  Al78  1  0.42809543  0.32065302  0.65173932  1
  Al0+  Al79  1  0.67835134  0.93102549  0.01477925  1
  Al0+  Al80  1  0.57006083  0.17766331  0.31948550  1
  Al0+  Al81  1  0.67633149  0.42958862  0.01526628  1
  Al0+  Al82  1  0.81978988  0.07171863  0.67784189  1
  Al0+  Al83  1  0.93007273  0.81893323  0.98743273  1
  Al0+  Al84  1  0.32139430  0.07164536  0.68303087  1
  Al0+  Al85  1  0.67938716  0.92950617  0.34785473  1
  Al0+  Al86  1  0.57129043  0.67932787  0.31932338  1
  Al0+  Al87  1  0.07115981  0.18061901  0.98294635  1
  Al0+  Al88  1  0.32353976  0.57251321  0.34912672  1
  Al0+  Al89  1  0.17908960  0.43075589  0.68187077  1
  Al0+  Al90  1  0.07119626  0.17838524  0.31950146  1
  Al0+  Al91  1  0.17868341  0.42947290  0.34928551  1
  Al0+  Al92  1  0.57112611  0.67848566  0.98288295  1
  Al0+  Al93  1  0.92832065  0.31999161  0.65581441  1
  Al0+  Al94  1  0.82171013  0.57179930  0.01620615  1
  Al0+  Al95  1  0.92708369  0.82281525  0.64935810  1
  Si0+  Si96  1  0.18146479  0.92845689  0.01498217  1
  Si0+  Si97  1  0.31978451  0.57119437  0.01360469  1
  Si0+  Si98  1  0.32497695  0.57173035  0.68491006  1
  Si0+  Si99  1  0.07204656  0.17796828  0.65173416  1
  Si0+  Si100  1  0.81985137  0.57179971  0.34941587  1
  Si0+  Si101  1  0.32075927  0.07030466  0.34684323  1
  Si0+  Si102  1  0.57143156  0.17627540  0.65120515  1
  Si0+  Si103  1  0.42936488  0.82172655  0.65014814  1
  Si0+  Si104  1  0.67772581  0.92627274  0.68329872  1
  Si0+  Si105  1  0.82187678  0.07287875  0.34927938  1
  Si0+  Si106  1  0.57307152  0.17954910  0.98563049  1
  Si0+  Si107  1  0.17561020  0.92923561  0.34712549  1
  Si0+  Si108  1  0.42836303  0.32137882  0.31648341  1
  Si0+  Si109  1  0.32056168  0.07251254  0.01664060  1
  Si0+  Si110  1  0.18032357  0.42634424  0.01595479  1
  Si0+  Si111  1  0.92784857  0.32269671  0.98223265  1
  Si0+  Si112  1  0.67565426  0.42754612  0.67928003  1
  Si0+  Si113  1  0.67950859  0.42661778  0.34937741  1
  Si0+  Si114  1  0.57024271  0.67904077  0.65039055  1
  Si0+  Si115  1  0.07192597  0.68081618  0.31887061  1
  Si0+  Si116  1  0.07321128  0.67507825  0.98637749  1
  Si0+  Si117  1  0.92915023  0.82104941  0.31852880  1
  Si0+  Si118  1  0.42670793  0.82198010  0.31890649  1
  Si0+  Si119  1  0.42944932  0.31989681  0.98634854  1
  O2-  O120  1  0.25322786  -0.00193546  0.05924993  1
  O2-  O121  1  0.24673105  0.00140440  0.38724920  1
  O2-  O122  1  0.24899983  0.00050329  0.73370297  1
  O2-  O123  1  0.24724958  0.50203926  0.05644591  1
  O2-  O124  1  0.25133808  0.50106965  0.39930315  1
  O2-  O125  1  0.25325237  0.50630774  0.72972479  1
  O2-  O126  1  0.75034527  0.00250205  0.06642493  1
  O2-  O127  1  0.75165292  0.00623113  0.39462654  1
  O2-  O128  1  0.74787570  -0.00563077  0.72495962  1
  O2-  O129  1  0.74796864  0.50142003  0.06667875  1
  O2-  O130  1  0.75227060  0.49645905  0.39096006  1
  O2-  O131  1  0.74547430  0.49391585  0.72419910  1
  O2-  O132  1  0.00007461  0.25088002  0.26880710  1
  O2-  O133  1  0.00181095  0.24474657  0.60746179  1
  O2-  O134  1  -0.00619608  0.25210323  0.93691995  1
  O2-  O135  1  0.00224766  0.75216057  0.27588247  1
  O2-  O136  1  0.00178051  0.75228893  0.60048327  1
  O2-  O137  1  0.00101945  0.73958051  0.94286980  1
  O2-  O138  1  0.49718255  0.25368481  0.27081902  1
  O2-  O139  1  0.50159993  0.24402846  0.60675945  1
  O2-  O140  1  0.50531479  0.25408963  0.94387231  1
  O2-  O141  1  0.49285212  0.75126286  0.27472890  1
  O2-  O142  1  0.50026391  0.75105614  0.60772882  1
  O2-  O143  1  0.50156851  0.75348017  0.93308189  1
  O2-  O144  1  0.07498170  0.18400597  0.09592995  1
  O2-  O145  1  0.06985066  0.17464316  0.43282722  1
  O2-  O146  1  0.07149535  0.18061545  0.75750358  1
  O2-  O147  1  0.07694894  0.67935482  0.09261213  1
  O2-  O148  1  0.07127566  0.68041987  0.42348217  1
  O2-  O149  1  0.06817070  0.67793210  0.76541358  1
  O2-  O150  1  0.56794874  0.17819683  0.09086294  1
  O2-  O151  1  0.56730907  0.17849995  0.43266889  1
  O2-  O152  1  0.57195405  0.17791736  0.75686546  1
  O2-  O153  1  0.56706082  0.67773028  0.09657807  1
  O2-  O154  1  0.57262563  0.68215699  0.43295756  1
  O2-  O155  1  0.56928956  0.67777147  0.75508197  1
  O2-  O156  1  0.18208973  0.43130942  0.23487829  1
  O2-  O157  1  0.17948621  0.43046142  0.56917177  1
  O2-  O158  1  0.18088855  0.42575954  0.91090878  1
  O2-  O159  1  0.17627029  0.92635052  0.24185035  1
  O2-  O160  1  0.18106388  0.92996198  0.56835623  1
  O2-  O161  1  0.18265156  0.92884845  0.91062191  1
  O2-  O162  1  0.67762646  0.42809109  0.24465738  1
  O2-  O163  1  0.67508359  0.42918752  0.57334035  1
  O2-  O164  1  0.67467672  0.43048626  0.90134300  1
  O2-  O165  1  0.68063595  0.92806292  0.23531623  1
  O2-  O166  1  0.67586411  0.92745381  0.57718251  1
  O2-  O167  1  0.67863462  0.93491473  0.90113949  1
  O2-  O168  1  0.42663295  0.31713792  0.09149246  1
  O2-  O169  1  0.42858705  0.31864935  0.42192939  1
  O2-  O170  1  0.43168725  0.32174208  0.76545768  1
  O2-  O171  1  0.42306837  0.81933358  0.09707786  1
  O2-  O172  1  0.42819506  0.82318682  0.42468586  1
  O2-  O173  1  0.43029309  0.82168028  0.75490488  1
  O2-  O174  1  0.93219086  0.32456944  0.08766147  1
  O2-  O175  1  0.92797844  0.32429123  0.42972031  1
  O2-  O176  1  0.92961247  0.31989992  0.76871888  1
  O2-  O177  1  0.93365212  0.81857342  0.10155199  1
  O2-  O178  1  0.93037915  0.82159369  0.42329222  1
  O2-  O179  1  0.92573711  0.82097455  0.76271886  1
  O2-  O180  1  0.32311390  0.06849576  0.24146524  1
  O2-  O181  1  0.32190324  0.06952587  0.56867698  1
  O2-  O182  1  0.31896073  0.07605158  0.91221925  1
  O2-  O183  1  0.32058244  0.57205576  0.23465405  1
  O2-  O184  1  0.32756182  0.56934297  0.57958763  1
  O2-  O185  1  0.32033320  0.56978342  0.90867517  1
  O2-  O186  1  0.82302002  0.06858801  0.24406862  1
  O2-  O187  1  0.81558262  0.07355895  0.56444900  1
  O2-  O188  1  0.82455040  0.07099957  0.90366312  1
  O2-  O189  1  0.81842235  0.57461106  0.24460781  1
  O2-  O190  1  0.81754437  0.56915626  0.56515493  1
  O2-  O191  1  0.82295553  0.56940575  0.90263153  1
  O2-  O192  1  0.04269582  0.08040127  0.26318251  1
  O2-  O193  1  0.05016024  0.08296250  0.60813122  1
  O2-  O194  1  0.04599517  0.08243512  0.93056785  1
  O2-  O195  1  0.04443708  0.59001200  0.26975162  1
  O2-  O196  1  0.03875681  0.58166487  0.59768803  1
  O2-  O197  1  0.05189830  0.57858090  0.94529570  1
  O2-  O198  1  0.53499876  0.08228279  0.26496931  1
  O2-  O199  1  0.54579050  0.08202854  0.60577204  1
  O2-  O200  1  0.54104541  0.09049839  0.93630240  1
  O2-  O201  1  0.54490395  0.58137895  0.26569187  1
  O2-  O202  1  0.54154627  0.58803766  0.60142079  1
  O2-  O203  1  0.53758904  0.58107929  0.92963048  1
  O2-  O204  1  0.17050237  0.20515878  0.26567251  1
  O2-  O205  1  0.16618188  0.20446242  0.60802664  1
  O2-  O206  1  0.16748856  0.21361836  0.92889506  1
  O2-  O207  1  0.16459893  0.70878337  0.27225132  1
  O2-  O208  1  0.17237320  0.70227311  0.59986666  1
  O2-  O209  1  0.16500367  0.70199848  0.93811757  1
  O2-  O210  1  0.66566581  0.20588851  0.26362080  1
  O2-  O211  1  0.66315744  0.20303095  0.60231285  1
  O2-  O212  1  0.66719935  0.20396071  0.94178150  1
  O2-  O213  1  0.66671507  0.71376553  0.26530632  1
  O2-  O214  1  0.66159854  0.70636757  0.60208481  1
  O2-  O215  1  0.66986566  0.70484343  0.93089052  1
  O2-  O216  1  0.08821281  0.44856354  0.06470122  1
  O2-  O217  1  0.07974200  0.46066539  0.39946117  1
  O2-  O218  1  0.08394747  0.46200010  0.73815286  1
  O2-  O219  1  0.09098509  0.95815569  0.06347575  1
  O2-  O220  1  0.08395997  0.95737144  0.39452846  1
  O2-  O221  1  0.07937572  0.95199893  0.73482930  1
  O2-  O222  1  0.57659249  0.45551772  0.06844567  1
  O2-  O223  1  0.58803075  0.45521661  0.39732793  1
  O2-  O224  1  0.58222794  0.45567815  0.72443852  1
  O2-  O225  1  0.57852108  0.95907721  0.06671957  1
  O2-  O226  1  0.58181167  0.95888197  0.40181228  1
  O2-  O227  1  0.58446639  0.95092121  0.72968250  1
  O2-  O228  1  0.21521693  0.33675931  0.06326536  1
  O2-  O229  1  0.20614865  0.33016239  0.40114655  1
  O2-  O230  1  0.21242525  0.33565502  0.73712363  1
  O2-  O231  1  0.20764399  0.83566249  0.06287172  1
  O2-  O232  1  0.20303307  0.83883443  0.39728746  1
  O2-  O233  1  0.20970102  0.82872664  0.73449351  1
  O2-  O234  1  0.70379804  0.33161392  0.06977351  1
  O2-  O235  1  0.70447663  0.33323051  0.39522453  1
  O2-  O236  1  0.69625942  0.33285156  0.72433130  1
  O2-  O237  1  0.70615634  0.83160095  0.06526719  1
  O2-  O238  1  0.71213248  0.83404611  0.40322507  1
  O2-  O239  1  0.70156018  0.83211219  0.72772895  1
  O2-  O240  1  0.45435621  0.41538943  0.27182840  1
  O2-  O241  1  0.45860460  0.41553772  0.59405208  1
  O2-  O242  1  0.45160279  0.41260525  0.93845822  1
  O2-  O243  1  0.45293487  0.91490898  0.27229697  1
  O2-  O244  1  0.45687007  0.91409835  0.60280978  1
  O2-  O245  1  0.45169485  0.92338846  0.93138585  1
  O2-  O246  1  0.95754378  0.42315265  0.26178598  1
  O2-  O247  1  0.96058787  0.41572973  0.60171682  1
  O2-  O248  1  0.95784055  0.41632040  0.93791618  1
  O2-  O249  1  0.95511724  0.91271599  0.27037374  1
  O2-  O250  1  0.95581641  0.92145351  0.59579297  1
  O2-  O251  1  0.96601803  0.91330408  0.93337617  1
  O2-  O252  1  0.33518001  0.29525213  0.27006318  1
  O2-  O253  1  0.33175852  0.28910137  0.59793635  1
  O2-  O254  1  0.34021161  0.28674778  0.93709664  1
  O2-  O255  1  0.33127878  0.80039757  0.27389234  1
  O2-  O256  1  0.33782668  0.79488847  0.60199831  1
  O2-  O257  1  0.33032913  0.79093844  0.92870969  1
  O2-  O258  1  0.82995200  0.29925261  0.26178821  1
  O2-  O259  1  0.83067063  0.29193061  0.60115360  1
  O2-  O260  1  0.83179073  0.30203710  0.93977539  1
  O2-  O261  1  0.83845806  0.78891493  0.27226129  1
  O2-  O262  1  0.82916324  0.79190697  0.59570341  1
  O2-  O263  1  0.83328049  0.79382475  0.93271447  1
  O2-  O264  1  0.41329080  0.04738480  0.06357360  1
  O2-  O265  1  0.41027525  0.04046790  0.39730912  1
  O2-  O266  1  0.41989691  0.04238898  0.73620191  1
  O2-  O267  1  0.41028564  0.54113972  0.06183910  1
  O2-  O268  1  0.42296594  0.54551583  0.40057457  1
  O2-  O269  1  0.41719412  0.54058634  0.73137315  1
  O2-  O270  1  0.92455003  0.03966657  0.06872629  1
  O2-  O271  1  0.91489751  0.04496355  0.39559635  1
  O2-  O272  1  0.91686940  0.04464189  0.73153783  1
  O2-  O273  1  0.91984888  0.54282206  0.07206368  1
  O2-  O274  1  0.91350722  0.54753822  0.39442289  1
  O2-  O275  1  0.91512887  0.53980777  0.73424333  1
  O2-  O276  1  0.28907292  0.16264563  0.06602288  1
  O2-  O277  1  0.29577227  0.16294281  0.39355911  1
  O2-  O278  1  0.29638481  0.17016905  0.73658335  1
  O2-  O279  1  0.29346768  0.66343237  0.06139879  1
  O2-  O280  1  0.29684513  0.67182523  0.40170538  1
  O2-  O281  1  0.30474827  0.66692358  0.72894199  1
  O2-  O282  1  0.80244488  0.17139977  0.06892671  1
  O2-  O283  1  0.79714218  0.16860629  0.39081229  1
  O2-  O284  1  0.78648567  0.16642165  0.73532489  1
  O2-  O285  1  0.79467956  0.67065212  0.06822399  1
  O2-  O286  1  0.78789930  0.66150403  0.39834214  1
  O2-  O287  1  0.78722234  0.66587509  0.73164373  1
