# generated using pymatgen
data_Ca2Al2SiO7
_symmetry_space_group_name_H-M   'P 1'
_cell_length_a   15.46329559
_cell_length_b   15.46196217
_cell_length_c   15.28679782
_cell_angle_alpha   90.00107739
_cell_angle_beta   90.01901988
_cell_angle_gamma   90.01405156
_symmetry_Int_Tables_number   1
_chemical_formula_structural   Ca2Al2SiO7
_chemical_formula_sum   'Ca48 Al48 Si24 O168'
_cell_volume   3654.96438081
_cell_formula_units_Z   24
loop_
 _symmetry_equiv_pos_site_id
 _symmetry_equiv_pos_as_xyz
  1  'x, y, z'
loop_
 _atom_type_symbol
 _atom_type_oxidation_number
  Ca2+  2.0
  Al0+  0.0
  Si0+  0.0
  O2-  -2.0
loop_
 _atom_site_type_symbol
 _atom_site_label
 _atom_site_symmetry_multiplicity
 _atom_site_fract_x
 _atom_site_fract_y
 _atom_site_fract_z
 _atom_site_occupancy
  Ca2+  Ca0  1  0.17697043  0.07731767  0.17200877  1
  Ca2+  Ca1  1  0.18146936  0.08413782  0.50382419  1
  Ca2+  Ca2  1  0.17989466  0.08402937  0.84442149  1
  Ca2+  Ca3  1  0.16593471  0.58087640  0.17097663  1
  Ca2+  Ca4  1  0.16915850  0.57269539  0.50282462  1
  Ca2+  Ca5  1  0.16484379  0.57882023  0.83715228  1
  Ca2+  Ca6  1  0.65717556  0.07899252  0.17191760  1
  Ca2+  Ca7  1  0.65128883  0.07464512  0.50311478  1
  Ca2+  Ca8  1  0.65725446  0.08256907  0.83556893  1
  Ca2+  Ca9  1  0.66931021  0.58070068  0.17437866  1
  Ca2+  Ca10  1  0.66580311  0.57456381  0.50206983  1
  Ca2+  Ca11  1  0.66800438  0.56898801  0.84466083  1
  Ca2+  Ca12  1  0.08409858  0.32886691  0.16061341  1
  Ca2+  Ca13  1  0.07943862  0.34272584  0.49772602  1
  Ca2+  Ca14  1  0.07893679  0.33062859  0.82564843  1
  Ca2+  Ca15  1  0.08707747  0.83177109  0.15636961  1
  Ca2+  Ca16  1  0.08192081  0.83453688  0.49297803  1
  Ca2+  Ca17  1  0.08908998  0.82884800  0.83498840  1
  Ca2+  Ca18  1  0.58970789  0.32541068  0.16169331  1
  Ca2+  Ca19  1  0.58551061  0.32533902  0.49447073  1
  Ca2+  Ca20  1  0.58290117  0.32505173  0.82382301  1
  Ca2+  Ca21  1  0.58340194  0.82347607  0.16096040  1
  Ca2+  Ca22  1  0.58881708  0.83093658  0.49151531  1
  Ca2+  Ca23  1  0.58121298  0.83146856  0.83243965  1
  Ca2+  Ca24  1  0.32651322  0.41705893  0.17175467  1
  Ca2+  Ca25  1  0.32420270  0.40728140  0.50593872  1
  Ca2+  Ca26  1  0.32927576  0.40813165  0.83231718  1
  Ca2+  Ca27  1  0.33082969  0.92260130  0.16813169  1
  Ca2+  Ca28  1  0.33742016  0.93100099  0.50211893  1
  Ca2+  Ca29  1  0.33420610  0.92807011  0.84367633  1
  Ca2+  Ca30  1  0.82105005  0.42703658  0.16848144  1
  Ca2+  Ca31  1  0.82254461  0.41702096  0.50290954  1
  Ca2+  Ca32  1  0.82320332  0.41349062  0.83818197  1
  Ca2+  Ca33  1  0.82742788  0.91923093  0.17218676  1
  Ca2+  Ca34  1  0.82017961  0.91932153  0.50189008  1
  Ca2+  Ca35  1  0.82698690  0.91854742  0.83358789  1
  Ca2+  Ca36  1  0.42213178  0.16097070  0.16382340  1
  Ca2+  Ca37  1  0.42087843  0.16649454  0.50070885  1
  Ca2+  Ca38  1  0.42216883  0.16686935  0.82871231  1
  Ca2+  Ca39  1  0.42855717  0.67241117  0.15783232  1
  Ca2+  Ca40  1  0.42511830  0.67036421  0.49190176  1
  Ca2+  Ca41  1  0.41858528  0.67417267  0.83524511  1
  Ca2+  Ca42  1  0.92544780  0.16813093  0.15808479  1
  Ca2+  Ca43  1  0.91489346  0.17656231  0.49762482  1
  Ca2+  Ca44  1  0.92575650  0.17127664  0.82828320  1
  Ca2+  Ca45  1  0.91803113  0.66202328  0.16045130  1
  Ca2+  Ca46  1  0.91368172  0.66550241  0.49394535  1
  Ca2+  Ca47  1  0.91895695  0.66005263  0.83600082  1
  Al0+  Al48  1  0.00008016  -0.00057171  -0.00368845  1
  Al0+  Al49  1  -0.00065939  0.00053208  0.33613229  1
  Al0+  Al50  1  -0.00045697  -0.00295942  0.66442825  1
  Al0+  Al51  1  -0.00254254  0.50071605  -0.00109156  1
  Al0+  Al52  1  -0.00109788  0.50188497  0.33832394  1
  Al0+  Al53  1  0.00175372  0.49993301  0.66563146  1
  Al0+  Al54  1  0.49944612  0.00088426  -0.00236406  1
  Al0+  Al55  1  0.49849513  0.00074145  0.33675990  1
  Al0+  Al56  1  0.49855188  -0.00164694  0.67283510  1
  Al0+  Al57  1  0.49737694  0.49777770  0.00066997  1
  Al0+  Al58  1  0.49970489  0.49945214  0.33162283  1
  Al0+  Al59  1  0.49882549  0.50118911  0.66744481  1
  Al0+  Al60  1  0.25086928  0.24827520  0.00169512  1
  Al0+  Al61  1  0.24915602  0.24988605  0.34022429  1
  Al0+  Al62  1  0.25103424  0.24894869  0.67283015  1
  Al0+  Al63  1  0.24911629  0.74918068  -0.00609137  1
  Al0+  Al64  1  0.24855435  0.74981699  0.33623840  1
  Al0+  Al65  1  0.25060455  0.74941454  0.66291616  1
  Al0+  Al66  1  0.75036620  0.24943687  0.00005281  1
  Al0+  Al67  1  0.75142523  0.25184124  0.32857911  1
  Al0+  Al68  1  0.75319887  0.24821277  0.66118666  1
  Al0+  Al69  1  0.75197768  0.74965658  -0.00253739  1
  Al0+  Al70  1  0.75176401  0.75153871  0.33520209  1
  Al0+  Al71  1  0.75160532  0.75116258  0.67128580  1
  Al0+  Al72  1  0.06997856  0.67829147  0.98654403  1
  Al0+  Al73  1  0.17854994  0.92778449  0.01313442  1
  Al0+  Al74  1  0.57403870  0.67645141  0.98422771  1
  Al0+  Al75  1  0.31937214  0.06945085  0.68417013  1
  Al0+  Al76  1  0.42827881  0.32260968  0.65178305  1
  Al0+  Al77  1  0.43024864  0.82026616  0.98542602  1
  Al0+  Al78  1  0.17686207  0.92713586  0.34905649  1
  Al0+  Al79  1  0.81999706  0.57099022  0.01425420  1
  Al0+  Al80  1  0.57122032  0.18085813  0.98671123  1
  Al0+  Al81  1  0.81935687  0.57149953  0.34931940  1
  Al0+  Al82  1  0.32274919  0.07183879  0.01787864  1
  Al0+  Al83  1  0.67550370  0.42647277  0.01501793  1
  Al0+  Al84  1  0.68029654  0.93185793  0.34365887  1
  Al0+  Al85  1  0.93081872  0.32124093  0.65161908  1
  Al0+  Al86  1  0.67966543  0.92982709  0.68215548  1
  Al0+  Al87  1  0.57206893  0.67915472  0.32089077  1
  Al0+  Al88  1  0.18019591  0.43112331  0.68216122  1
  Al0+  Al89  1  0.56977306  0.17977838  0.31888497  1
  Al0+  Al90  1  0.32109629  0.07053459  0.35096123  1
  Al0+  Al91  1  0.67859660  0.42758302  0.67970227  1
  Al0+  Al92  1  0.17977547  0.43042390  0.34558933  1
  Al0+  Al93  1  0.57087992  0.17814703  0.65112887  1
  Al0+  Al94  1  0.67684419  0.42708683  0.34918516  1
  Al0+  Al95  1  0.07246610  0.17813878  0.98758478  1
  Si0+  Si96  1  0.67970465  0.93000295  0.01420456  1
  Si0+  Si97  1  0.32299817  0.57284464  0.34868612  1
  Si0+  Si98  1  0.07272816  0.17677075  0.64972105  1
  Si0+  Si99  1  0.32237283  0.57572596  0.68452926  1
  Si0+  Si100  1  0.92721355  0.82402034  0.98110149  1
  Si0+  Si101  1  0.82182131  0.57193779  0.68410013  1
  Si0+  Si102  1  0.42546913  0.32287054  0.98473048  1
  Si0+  Si103  1  0.17634827  0.92590948  0.68348748  1
  Si0+  Si104  1  0.82515963  0.07163491  0.68314625  1
  Si0+  Si105  1  0.31992002  0.57203933  0.01411573  1
  Si0+  Si106  1  0.82242465  0.07105947  0.01318892  1
  Si0+  Si107  1  0.93014774  0.32082131  0.98381996  1
  Si0+  Si108  1  0.82412550  0.07418864  0.34840507  1
  Si0+  Si109  1  0.17832336  0.42944432  0.01341206  1
  Si0+  Si110  1  0.93025693  0.32382538  0.31554113  1
  Si0+  Si111  1  0.92781164  0.82042178  0.64917213  1
  Si0+  Si112  1  0.42675027  0.82182521  0.31794829  1
  Si0+  Si113  1  0.57282582  0.67996109  0.65236634  1
  Si0+  Si114  1  0.07119021  0.67953459  0.64899343  1
  Si0+  Si115  1  0.92962686  0.82226026  0.31831109  1
  Si0+  Si116  1  0.42485982  0.32178196  0.31659532  1
  Si0+  Si117  1  0.42957679  0.82005821  0.65049839  1
  Si0+  Si118  1  0.07003435  0.67952376  0.31918900  1
  Si0+  Si119  1  0.07072603  0.17973797  0.31967102  1
  O2-  O120  1  0.24900097  -0.00036940  0.06460988  1
  O2-  O121  1  0.24908741  -0.00268647  0.40013960  1
  O2-  O122  1  0.24152044  -0.00363567  0.72818270  1
  O2-  O123  1  0.24905770  0.50023205  0.05609984  1
  O2-  O124  1  0.25744779  0.50140736  0.39316883  1
  O2-  O125  1  0.25708131  0.50346419  0.72876856  1
  O2-  O126  1  0.75048588  0.00146172  0.05610955  1
  O2-  O127  1  0.74995841  0.01101205  0.39159101  1
  O2-  O128  1  0.75181599  0.00791812  0.72748167  1
  O2-  O129  1  0.74150940  0.50569415  0.06314376  1
  O2-  O130  1  0.74633909  0.50147324  0.39954068  1
  O2-  O131  1  0.75330789  0.50286397  0.72664499  1
  O2-  O132  1  0.00037080  0.25068019  0.27526384  1
  O2-  O133  1  0.00548100  0.24602739  0.60361053  1
  O2-  O134  1  -0.00049832  0.25326482  0.93914910  1
  O2-  O135  1  0.00382326  0.75452464  0.27667324  1
  O2-  O136  1  0.00004090  0.75049340  0.60690631  1
  O2-  O137  1  -0.00375603  0.75395230  0.93916529  1
  O2-  O138  1  0.49644273  0.25636241  0.27219199  1
  O2-  O139  1  0.50348265  0.25458032  0.60074705  1
  O2-  O140  1  0.49895565  0.25850793  0.94249652  1
  O2-  O141  1  0.49531648  0.75239807  0.27489986  1
  O2-  O142  1  0.50165455  0.75025690  0.60842395  1
  O2-  O143  1  0.50337854  0.74963597  0.93363486  1
  O2-  O144  1  0.07005172  0.18076154  0.10122813  1
  O2-  O145  1  0.06820268  0.18044734  0.42478981  1
  O2-  O146  1  0.06931011  0.17748040  0.75540330  1
  O2-  O147  1  0.06914524  0.67684522  0.09981334  1
  O2-  O148  1  0.06823915  0.67895069  0.42449655  1
  O2-  O149  1  0.07136801  0.67986405  0.75400777  1
  O2-  O150  1  0.57065728  0.17938990  0.09995958  1
  O2-  O151  1  0.56858421  0.17825578  0.43150282  1
  O2-  O152  1  0.56894651  0.17846403  0.76481392  1
  O2-  O153  1  0.57276136  0.67971645  0.09808170  1
  O2-  O154  1  0.57068791  0.68193527  0.43466650  1
  O2-  O155  1  0.57214953  0.68159091  0.75714206  1
  O2-  O156  1  0.17916907  0.43200594  0.23189006  1
  O2-  O157  1  0.17915771  0.43488355  0.56903005  1
  O2-  O158  1  0.17851161  0.43024561  0.90843237  1
  O2-  O159  1  0.17524757  0.92734493  0.23591524  1
  O2-  O160  1  0.17710730  0.92555796  0.57798109  1
  O2-  O161  1  0.17981996  0.92922900  0.89936020  1
  O2-  O162  1  0.68007698  0.42656300  0.23597990  1
  O2-  O163  1  0.67990574  0.43028717  0.56682842  1
  O2-  O164  1  0.68013926  0.42377271  0.90115033  1
  O2-  O165  1  0.68320303  0.93073494  0.23037991  1
  O2-  O166  1  0.68207265  0.92705625  0.56887959  1
  O2-  O167  1  0.68136635  0.93062224  0.90902632  1
  O2-  O168  1  0.42037967  0.32296875  0.09020534  1
  O2-  O169  1  0.42266589  0.32046391  0.42185001  1
  O2-  O170  1  0.42830862  0.32056778  0.76535468  1
  O2-  O171  1  0.43157554  0.81805502  0.09931767  1
  O2-  O172  1  0.42760590  0.81997094  0.42413373  1
  O2-  O173  1  0.42775585  0.81799633  0.75526419  1
  O2-  O174  1  0.93253664  0.31971298  0.08967700  1
  O2-  O175  1  0.93111163  0.32340221  0.42083919  1
  O2-  O176  1  0.93299285  0.32031865  0.76481744  1
  O2-  O177  1  0.92598311  0.82702693  0.08669275  1
  O2-  O178  1  0.92919253  0.82115398  0.42363172  1
  O2-  O179  1  0.92706302  0.82123293  0.75391886  1
  O2-  O180  1  0.31993475  0.07050191  0.23781505  1
  O2-  O181  1  0.31966712  0.06748184  0.57108297  1
  O2-  O182  1  0.32158478  0.07206948  0.90439303  1
  O2-  O183  1  0.31928771  0.57467511  0.24298441  1
  O2-  O184  1  0.31845360  0.58146469  0.57902737  1
  O2-  O185  1  0.31855972  0.57216899  0.90911502  1
  O2-  O186  1  0.82978194  0.07004328  0.24273066  1
  O2-  O187  1  0.83110672  0.06732437  0.57779616  1
  O2-  O188  1  0.82358392  0.06991854  0.90825876  1
  O2-  O189  1  0.82208343  0.57037451  0.23618125  1
  O2-  O190  1  0.82058858  0.57452408  0.57853309  1
  O2-  O191  1  0.82340472  0.56553297  0.90063809  1
  O2-  O192  1  0.04165801  0.08780711  0.27283190  1
  O2-  O193  1  0.04729054  0.08231059  0.60464365  1
  O2-  O194  1  0.04029255  0.08334936  0.93133085  1
  O2-  O195  1  0.03872571  0.58876869  0.27151917  1
  O2-  O196  1  0.04317240  0.58819091  0.60126927  1
  O2-  O197  1  0.03719046  0.58269231  0.93013683  1
  O2-  O198  1  0.53757933  0.08205500  0.26662813  1
  O2-  O199  1  0.53627585  0.07896845  0.60206170  1
  O2-  O200  1  0.54012429  0.08479920  0.93256471  1
  O2-  O201  1  0.54324163  0.58203348  0.26666936  1
  O2-  O202  1  0.54497713  0.58847519  0.60480919  1
  O2-  O203  1  0.54232816  0.57773359  0.93391574  1
  O2-  O204  1  0.16267803  0.20851713  0.27361707  1
  O2-  O205  1  0.16682529  0.20265971  0.60680483  1
  O2-  O206  1  0.16835603  0.20974902  0.93383736  1
  O2-  O207  1  0.16395180  0.70171084  0.27291705  1
  O2-  O208  1  0.16288958  0.70677074  0.60043199  1
  O2-  O209  1  0.16503561  0.70644733  0.92825743  1
  O2-  O210  1  0.66893802  0.20547202  0.26558740  1
  O2-  O211  1  0.67246283  0.19662557  0.60042759  1
  O2-  O212  1  0.66989178  0.20607871  0.93326470  1
  O2-  O213  1  0.66805697  0.71371357  0.26800742  1
  O2-  O214  1  0.66523977  0.70956039  0.60697360  1
  O2-  O215  1  0.67263574  0.70378475  0.93139581  1
  O2-  O216  1  0.08656324  0.45728036  0.06021175  1
  O2-  O217  1  0.08593277  0.46585309  0.40152171  1
  O2-  O218  1  0.08444740  0.46531773  0.73613564  1
  O2-  O219  1  0.07796005  0.95329673  0.06330897  1
  O2-  O220  1  0.07805191  0.95552459  0.40218099  1
  O2-  O221  1  0.08010566  0.94542939  0.72669380  1
  O2-  O222  1  0.57395256  0.44565962  0.06499543  1
  O2-  O223  1  0.57638681  0.45168407  0.39938290  1
  O2-  O224  1  0.58139524  0.45814412  0.73257456  1
  O2-  O225  1  0.58842929  0.95802889  0.06097027  1
  O2-  O226  1  0.58339989  0.95691586  0.39925856  1
  O2-  O227  1  0.58320444  0.95638014  0.73702935  1
  O2-  O228  1  0.20645613  0.33831871  0.06159499  1
  O2-  O229  1  0.20502594  0.33422137  0.40212390  1
  O2-  O230  1  0.20688508  0.33383106  0.73611729  1
  O2-  O231  1  0.20571204  0.82767279  0.06336283  1
  O2-  O232  1  0.20084658  0.82719470  0.40199895  1
  O2-  O233  1  0.20428980  0.83167134  0.72689405  1
  O2-  O234  1  0.71262393  0.33063943  0.06881699  1
  O2-  O235  1  0.71139822  0.32941149  0.40028261  1
  O2-  O236  1  0.71225099  0.32985418  0.72987957  1
  O2-  O237  1  0.70857227  0.83793925  0.06004142  1
  O2-  O238  1  0.71647831  0.83852526  0.40036944  1
  O2-  O239  1  0.71561244  0.83534439  0.73787594  1
  O2-  O240  1  0.44452164  0.41740556  0.27165001  1
  O2-  O241  1  0.44654652  0.42516164  0.60180355  1
  O2-  O242  1  0.44276785  0.41802966  0.93858436  1
  O2-  O243  1  0.45252317  0.91529456  0.27356023  1
  O2-  O244  1  0.45845944  0.91162821  0.60457953  1
  O2-  O245  1  0.45967765  0.91760118  0.93161814  1
  O2-  O246  1  0.96252653  0.41491459  0.26994354  1
  O2-  O247  1  0.96381139  0.41750733  0.59724678  1
  O2-  O248  1  0.95549503  0.41357178  0.93702811  1
  O2-  O249  1  0.95312059  0.91578505  0.27152490  1
  O2-  O250  1  0.95400193  0.91208953  0.59992857  1
  O2-  O251  1  0.95297337  0.91592601  0.93137410  1
  O2-  O252  1  0.33094581  0.29386627  0.27086280  1
  O2-  O253  1  0.32932149  0.28977293  0.60109232  1
  O2-  O254  1  0.33392618  0.29276701  0.93642252  1
  O2-  O255  1  0.33247167  0.79588817  0.27324992  1
  O2-  O256  1  0.33821519  0.79181761  0.60139431  1
  O2-  O257  1  0.33362467  0.78953723  0.92983036  1
  O2-  O258  1  0.83948431  0.29713860  0.26618392  1
  O2-  O259  1  0.83663918  0.28928081  0.59355577  1
  O2-  O260  1  0.83763361  0.29221669  0.93792670  1
  O2-  O261  1  0.83964504  0.79242957  0.26894289  1
  O2-  O262  1  0.83646263  0.79041044  0.60144340  1
  O2-  O263  1  0.83487915  0.79790558  0.93256575  1
  O2-  O264  1  0.42069559  0.03991864  0.06966188  1
  O2-  O265  1  0.41775579  0.04023224  0.40599752  1
  O2-  O266  1  0.41368815  0.03457176  0.73874445  1
  O2-  O267  1  0.41088389  0.54530770  0.06358264  1
  O2-  O268  1  0.41725800  0.55141102  0.39414836  1
  O2-  O269  1  0.41719239  0.55580831  0.72936197  1
  O2-  O270  1  0.91322184  0.04150914  0.06196965  1
  O2-  O271  1  0.91396158  0.04413563  0.39935270  1
  O2-  O272  1  0.91650769  0.03907128  0.73166574  1
  O2-  O273  1  0.91709919  0.53792702  0.06880041  1
  O2-  O274  1  0.91682987  0.54207510  0.40404684  1
  O2-  O275  1  0.91680901  0.54685200  0.72690562  1
  O2-  O276  1  0.29306664  0.16995418  0.07107218  1
  O2-  O277  1  0.28980525  0.16733602  0.40513129  1
  O2-  O278  1  0.29029586  0.16549546  0.73906397  1
  O2-  O279  1  0.28978997  0.66245653  0.06181569  1
  O2-  O280  1  0.29453481  0.66438158  0.39778595  1
  O2-  O281  1  0.29042778  0.66730970  0.73213254  1
  O2-  O282  1  0.79831819  0.16300126  0.06162863  1
  O2-  O283  1  0.80477270  0.17024878  0.39016535  1
  O2-  O284  1  0.80633687  0.16715788  0.72655858  1
  O2-  O285  1  0.80207546  0.67341248  0.06374597  1
  O2-  O286  1  0.79477069  0.67084238  0.40213226  1
  O2-  O287  1  0.79856907  0.66568159  0.73083105  1
