# generated using pymatgen
data_Ca2Al2SiO7
_symmetry_space_group_name_H-M   'P 1'
_cell_length_a   15.45715130
_cell_length_b   15.45711737
_cell_length_c   15.28369019
_cell_angle_alpha   90.00297091
_cell_angle_beta   90.00371223
_cell_angle_gamma   90.00656443
_symmetry_Int_Tables_number   1
_chemical_formula_structural   Ca2Al2SiO7
_chemical_formula_sum   'Ca48 Al48 Si24 O168'
_cell_volume   3651.62510596
_cell_formula_units_Z   24
loop_
 _symmetry_equiv_pos_site_id
 _symmetry_equiv_pos_as_xyz
  1  'x, y, z'
loop_
 _atom_type_symbol
 _atom_type_oxidation_number
  Ca2+  2.0
  Al0+  0.0
  Si0+  0.0
  O2-  -2.0
loop_
 _atom_site_type_symbol
 _atom_site_label
 _atom_site_symmetry_multiplicity
 _atom_site_fract_x
 _atom_site_fract_y
 _atom_site_fract_z
 _atom_site_occupancy
  Ca2+  Ca0  1  0.17764348  0.07332772  0.17393704  1
  Ca2+  Ca1  1  0.16907541  0.07169136  0.50888443  1
  Ca2+  Ca2  1  0.17102631  0.07895490  0.83639592  1
  Ca2+  Ca3  1  0.15896687  0.57891144  0.17054830  1
  Ca2+  Ca4  1  0.16188673  0.58570619  0.50353181  1
  Ca2+  Ca5  1  0.16473790  0.57816818  0.83729103  1
  Ca2+  Ca6  1  0.67138322  0.08124002  0.18223942  1
  Ca2+  Ca7  1  0.67515584  0.07645443  0.50034779  1
  Ca2+  Ca8  1  0.66890102  0.07886679  0.83010371  1
  Ca2+  Ca9  1  0.66424761  0.57651722  0.17206074  1
  Ca2+  Ca10  1  0.67165819  0.58039249  0.50779299  1
  Ca2+  Ca11  1  0.67027066  0.58938692  0.83417207  1
  Ca2+  Ca12  1  0.07234067  0.33347665  0.16156796  1
  Ca2+  Ca13  1  0.07652340  0.32097883  0.49634209  1
  Ca2+  Ca14  1  0.08308645  0.32830744  0.82817693  1
  Ca2+  Ca15  1  0.08425235  0.83753936  0.16883865  1
  Ca2+  Ca16  1  0.08699899  0.82708605  0.49134268  1
  Ca2+  Ca17  1  0.08808217  0.83261199  0.82487898  1
  Ca2+  Ca18  1  0.58707151  0.32643169  0.16835271  1
  Ca2+  Ca19  1  0.57989576  0.32785126  0.49295012  1
  Ca2+  Ca20  1  0.57155611  0.32878360  0.82448652  1
  Ca2+  Ca21  1  0.57628180  0.83962057  0.16588188  1
  Ca2+  Ca22  1  0.58548005  0.83572823  0.49370227  1
  Ca2+  Ca23  1  0.58560849  0.82570876  0.82560478  1
  Ca2+  Ca24  1  0.32627473  0.41960795  0.16825670  1
  Ca2+  Ca25  1  0.33479011  0.41721309  0.50530521  1
  Ca2+  Ca26  1  0.32692507  0.41440304  0.83731272  1
  Ca2+  Ca27  1  0.32772451  0.92093942  0.17567555  1
  Ca2+  Ca28  1  0.32899430  0.92349002  0.50211955  1
  Ca2+  Ca29  1  0.32197936  0.92578470  0.83814577  1
  Ca2+  Ca30  1  0.83187170  0.41443364  0.17648319  1
  Ca2+  Ca31  1  0.83062126  0.41867197  0.50027874  1
  Ca2+  Ca32  1  0.83935946  0.42442951  0.83562961  1
  Ca2+  Ca33  1  0.82764097  0.92279648  0.18008753  1
  Ca2+  Ca34  1  0.82795531  0.91900192  0.50401358  1
  Ca2+  Ca35  1  0.83202782  0.92135314  0.82926572  1
  Ca2+  Ca36  1  0.42112677  0.15376055  0.16837127  1
  Ca2+  Ca37  1  0.41736204  0.16336312  0.49579961  1
  Ca2+  Ca38  1  0.40556070  0.16995603  0.82612475  1
  Ca2+  Ca39  1  0.42265933  0.67591625  0.16411771  1
  Ca2+  Ca40  1  0.42276689  0.67773326  0.49463902  1
  Ca2+  Ca41  1  0.43002160  0.66543930  0.82542211  1
  Ca2+  Ca42  1  0.90854295  0.17731496  0.16504184  1
  Ca2+  Ca43  1  0.91601892  0.16253503  0.49414639  1
  Ca2+  Ca44  1  0.92217083  0.17090190  0.82563501  1
  Ca2+  Ca45  1  0.91897791  0.67540670  0.17042794  1
  Ca2+  Ca46  1  0.92428087  0.67267891  0.49556076  1
  Ca2+  Ca47  1  0.92244772  0.66895491  0.82239991  1
  Al0+  Al48  1  -0.00121505  0.00182063  0.00341207  1
  Al0+  Al49  1  0.00235849  -0.00103800  0.33425306  1
  Al0+  Al50  1  -0.00134609  0.00008577  0.67110069  1
  Al0+  Al51  1  -0.00183274  0.50204618  0.00092114  1
  Al0+  Al52  1  -0.00010004  0.49860642  0.32775480  1
  Al0+  Al53  1  -0.00121421  0.50065358  0.66621143  1
  Al0+  Al54  1  0.50116826  -0.00104898  -0.00174331  1
  Al0+  Al55  1  0.50045896  -0.00012840  0.33229850  1
  Al0+  Al56  1  0.49949188  0.00096441  0.67580500  1
  Al0+  Al57  1  0.50125887  0.49907850  -0.00389080  1
  Al0+  Al58  1  0.49872064  0.49830056  0.33614468  1
  Al0+  Al59  1  0.49981056  0.49976471  0.65914786  1
  Al0+  Al60  1  0.24985627  0.25046736  0.01071078  1
  Al0+  Al61  1  0.24985690  0.25267158  0.33481516  1
  Al0+  Al62  1  0.24712668  0.25099688  0.65932484  1
  Al0+  Al63  1  0.25065232  0.75034123  0.00137687  1
  Al0+  Al64  1  0.25334510  0.74741407  0.32661840  1
  Al0+  Al65  1  0.25248561  0.74819910  0.66744956  1
  Al0+  Al66  1  0.74908538  0.25275248  -0.00840452  1
  Al0+  Al67  1  0.74815237  0.25097104  0.33469356  1
  Al0+  Al68  1  0.74738037  0.25134263  0.67123658  1
  Al0+  Al69  1  0.75178249  0.75023895  -0.00261618  1
  Al0+  Al70  1  0.75289833  0.74707444  0.33182863  1
  Al0+  Al71  1  0.75108162  0.74727642  0.67012440  1
  Al0+  Al72  1  0.32230586  0.07147303  0.01723815  1
  Al0+  Al73  1  0.07294662  0.67905094  0.65457412  1
  Al0+  Al74  1  0.17682644  0.92717933  0.01719441  1
  Al0+  Al75  1  0.31892928  0.07348271  0.68140850  1
  Al0+  Al76  1  0.18023580  0.92615956  0.34928278  1
  Al0+  Al77  1  0.92821372  0.32305481  0.98401447  1
  Al0+  Al78  1  0.82058348  0.56825086  0.67985409  1
  Al0+  Al79  1  0.82190034  0.07382055  0.68318383  1
  Al0+  Al80  1  0.43218224  0.82102403  0.32012265  1
  Al0+  Al81  1  0.07225839  0.67923308  0.31674165  1
  Al0+  Al82  1  0.17898098  0.92587517  0.68115859  1
  Al0+  Al83  1  0.67797369  0.42929490  0.34668493  1
  Al0+  Al84  1  0.67883197  0.92787424  0.68247712  1
  Al0+  Al85  1  0.06869751  0.17780169  0.65394429  1
  Al0+  Al86  1  0.17763716  0.43113042  0.01372783  1
  Al0+  Al87  1  0.42742845  0.31945682  0.65272572  1
  Al0+  Al88  1  0.57308331  0.68018197  0.65079558  1
  Al0+  Al89  1  0.32175905  0.07189489  0.35022457  1
  Al0+  Al90  1  0.56814535  0.18103058  0.32181752  1
  Al0+  Al91  1  0.92939935  0.31719700  0.32135325  1
  Al0+  Al92  1  0.57053149  0.67897299  0.98620097  1
  Al0+  Al93  1  0.92861101  0.82312952  0.31893625  1
  Al0+  Al94  1  0.82241760  0.07234936  0.34602012  1
  Al0+  Al95  1  0.67938793  0.92632971  0.34584077  1
  Si0+  Si96  1  0.17664837  0.43068551  0.34991666  1
  Si0+  Si97  1  0.32119281  0.56953041  0.34856801  1
  Si0+  Si98  1  0.92882851  0.82141791  0.65190564  1
  Si0+  Si99  1  0.42618145  0.32462291  0.31380362  1
  Si0+  Si100  1  0.07159686  0.18040483  0.98561747  1
  Si0+  Si101  1  0.92917081  0.82274154  0.98398058  1
  Si0+  Si102  1  0.07054622  0.68009956  0.98457610  1
  Si0+  Si103  1  0.07452931  0.17690640  0.31574042  1
  Si0+  Si104  1  0.67870168  0.42958090  0.01362869  1
  Si0+  Si105  1  0.92658933  0.32253285  0.65050283  1
  Si0+  Si106  1  0.82334225  0.57009623  0.34976918  1
  Si0+  Si107  1  0.82044769  0.57212467  0.01683164  1
  Si0+  Si108  1  0.68193915  0.92802005  0.01459426  1
  Si0+  Si109  1  0.81828336  0.07386993  0.01432722  1
  Si0+  Si110  1  0.32461844  0.57074782  0.01533083  1
  Si0+  Si111  1  0.42854272  0.31992826  0.98669782  1
  Si0+  Si112  1  0.42971946  0.82234664  0.65182957  1
  Si0+  Si113  1  0.57325666  0.67530051  0.31774791  1
  Si0+  Si114  1  0.57229729  0.17667554  0.65020762  1
  Si0+  Si115  1  0.17886983  0.43058516  0.67900938  1
  Si0+  Si116  1  0.32287754  0.57017703  0.68059869  1
  Si0+  Si117  1  0.57153828  0.17806196  0.98360901  1
  Si0+  Si118  1  0.67481125  0.42923533  0.68526837  1
  Si0+  Si119  1  0.42780022  0.82254601  0.98049841  1
  O2-  O120  1  0.25213757  -0.00317422  0.06497652  1
  O2-  O121  1  0.24706290  0.00272598  0.39918406  1
  O2-  O122  1  0.24799119  0.00071035  0.73145076  1
  O2-  O123  1  0.25141543  0.50736593  0.06063979  1
  O2-  O124  1  0.24884108  0.50032578  0.39189768  1
  O2-  O125  1  0.25007037  0.50092177  0.72274704  1
  O2-  O126  1  0.74796888  0.00298546  0.05716517  1
  O2-  O127  1  0.75562173  -0.00548232  0.39420633  1
  O2-  O128  1  0.74974121  0.00134819  0.73324152  1
  O2-  O129  1  0.74968815  0.49992313  0.05709533  1
  O2-  O130  1  0.75009821  0.50596868  0.39311544  1
  O2-  O131  1  0.74612541  0.49468911  0.73031502  1
  O2-  O132  1  0.00120725  0.24128570  0.27154889  1
  O2-  O133  1  -0.01200738  0.24719670  0.60764448  1
  O2-  O134  1  0.00407281  0.24943531  0.93893145  1
  O2-  O135  1  0.00320863  0.75409945  0.26680022  1
  O2-  O136  1  0.00346134  0.75837374  0.60910269  1
  O2-  O137  1  0.00544932  0.75638117  0.94247180  1
  O2-  O138  1  0.49182629  0.25285434  0.27052623  1
  O2-  O139  1  0.50145695  0.24401036  0.60759167  1
  O2-  O140  1  0.49469018  0.24450103  0.94383916  1
  O2-  O141  1  0.51093280  0.74919221  0.27309384  1
  O2-  O142  1  0.50267842  0.75882921  0.60579990  1
  O2-  O143  1  0.49532551  0.75192202  0.93734978  1
  O2-  O144  1  0.06837403  0.18240671  0.09094536  1
  O2-  O145  1  0.07555505  0.18152797  0.42129816  1
  O2-  O146  1  0.07115378  0.18403386  0.76756512  1
  O2-  O147  1  0.06689033  0.67645413  0.08910673  1
  O2-  O148  1  0.06977601  0.67637919  0.43029143  1
  O2-  O149  1  0.07022694  0.67578255  0.76824791  1
  O2-  O150  1  0.57582376  0.18050174  0.08844218  1
  O2-  O151  1  0.56819215  0.18404451  0.43444114  1
  O2-  O152  1  0.57285821  0.18041940  0.75660851  1
  O2-  O153  1  0.56890083  0.67737108  0.09919880  1
  O2-  O154  1  0.56951679  0.67294639  0.42304533  1
  O2-  O155  1  0.56980629  0.67836359  0.76438677  1
  O2-  O156  1  0.17699997  0.43215145  0.24451618  1
  O2-  O157  1  0.17883598  0.43268942  0.57405814  1
  O2-  O158  1  0.18008929  0.43158187  0.90004909  1
  O2-  O159  1  0.18333932  0.92732349  0.23561469  1
  O2-  O160  1  0.18192900  0.92305885  0.56830234  1
  O2-  O161  1  0.17695393  0.92743628  0.90363558  1
  O2-  O162  1  0.67869967  0.43091804  0.23260580  1
  O2-  O163  1  0.67449113  0.43019206  0.57988850  1
  O2-  O164  1  0.67749647  0.43047880  0.90876000  1
  O2-  O165  1  0.67879536  0.93035794  0.23126344  1
  O2-  O166  1  0.68038299  0.92728201  0.56943080  1
  O2-  O167  1  0.68423113  0.92712931  0.90967513  1
  O2-  O168  1  0.43221126  0.32560094  0.09117079  1
  O2-  O169  1  0.42788873  0.32843281  0.41911569  1
  O2-  O170  1  0.42744518  0.32125317  0.76684557  1
  O2-  O171  1  0.43042504  0.82241972  0.08614089  1
  O2-  O172  1  0.43147453  0.81769882  0.43310782  1
  O2-  O173  1  0.42910860  0.81605392  0.75758129  1
  O2-  O174  1  0.92537573  0.32189109  0.09699709  1
  O2-  O175  1  0.93207666  0.31969674  0.43426999  1
  O2-  O176  1  0.93171729  0.32571262  0.75638522  1
  O2-  O177  1  0.92502247  0.81979964  0.08851102  1
  O2-  O178  1  0.92557875  0.81822042  0.43214696  1
  O2-  O179  1  0.92825402  0.81771403  0.75841628  1
  O2-  O180  1  0.32144710  0.06879230  0.23648989  1
  O2-  O181  1  0.31842561  0.07274501  0.56857677  1
  O2-  O182  1  0.31898530  0.07429040  0.90377952  1
  O2-  O183  1  0.32381701  0.56601796  0.24321067  1
  O2-  O184  1  0.32304958  0.56964946  0.57565944  1
  O2-  O185  1  0.32593570  0.56697006  0.90953083  1
  O2-  O186  1  0.81644388  0.07539401  0.23149967  1
  O2-  O187  1  0.82028443  0.07400033  0.57031594  1
  O2-  O188  1  0.81755140  0.07288418  0.90943657  1
  O2-  O189  1  0.82342659  0.56847376  0.24358043  1
  O2-  O190  1  0.82107769  0.56536748  0.56717862  1
  O2-  O191  1  0.82123386  0.57209130  0.91167246  1
  O2-  O192  1  0.05631517  0.08147849  0.27201318  1
  O2-  O193  1  0.04269213  0.07941678  0.60189394  1
  O2-  O194  1  0.04438701  0.08683103  0.93996068  1
  O2-  O195  1  0.03837365  0.58239324  0.26224924  1
  O2-  O196  1  0.03796354  0.58378569  0.60014518  1
  O2-  O197  1  0.03734842  0.59018996  0.93619609  1
  O2-  O198  1  0.54035020  0.08497324  0.26486453  1
  O2-  O199  1  0.54878853  0.08143958  0.60823450  1
  O2-  O200  1  0.55015909  0.08425781  0.93723152  1
  O2-  O201  1  0.53904695  0.58404530  0.27053885  1
  O2-  O202  1  0.53908359  0.58521848  0.59641828  1
  O2-  O203  1  0.54082516  0.58208906  0.93044502  1
  O2-  O204  1  0.16577504  0.21050478  0.26872560  1
  O2-  O205  1  0.16006531  0.21569895  0.59535694  1
  O2-  O206  1  0.16629967  0.20785467  0.94264285  1
  O2-  O207  1  0.17179609  0.69983867  0.26274211  1
  O2-  O208  1  0.17203207  0.70198778  0.60194070  1
  O2-  O209  1  0.16606504  0.69921915  0.93995915  1
  O2-  O210  1  0.66265027  0.21618552  0.26512149  1
  O2-  O211  1  0.66541091  0.20554074  0.60509593  1
  O2-  O212  1  0.65914792  0.21221000  0.93176855  1
  O2-  O213  1  0.66953322  0.69073163  0.27402212  1
  O2-  O214  1  0.67180355  0.70516588  0.59937830  1
  O2-  O215  1  0.66763865  0.71073899  0.93292535  1
  O2-  O216  1  0.08137102  0.46354822  0.06798441  1
  O2-  O217  1  0.08560892  0.46024983  0.39706780  1
  O2-  O218  1  0.08808691  0.45889489  0.72818360  1
  O2-  O219  1  0.07800625  0.95707316  0.06916039  1
  O2-  O220  1  0.07967099  0.94801882  0.39965939  1
  O2-  O221  1  0.07949342  0.95055915  0.73330289  1
  O2-  O222  1  0.58709582  0.45758293  0.06166211  1
  O2-  O223  1  0.58076636  0.45670571  0.40103474  1
  O2-  O224  1  0.58169792  0.45889824  0.73085058  1
  O2-  O225  1  0.58741978  0.95144432  0.05799266  1
  O2-  O226  1  0.58287721  0.95760029  0.39861301  1
  O2-  O227  1  0.58148491  0.95482743  0.73967513  1
  O2-  O228  1  0.20860212  0.33730162  0.07179777  1
  O2-  O229  1  0.20354974  0.33891815  0.39722732  1
  O2-  O230  1  0.20798047  0.33962933  0.72651663  1
  O2-  O231  1  0.20203482  0.82639788  0.06749154  1
  O2-  O232  1  0.21272506  0.82644965  0.39694209  1
  O2-  O233  1  0.21062419  0.82790241  0.73556752  1
  O2-  O234  1  0.70700244  0.33691423  0.05925321  1
  O2-  O235  1  0.71117492  0.33562081  0.40283688  1
  O2-  O236  1  0.69541376  0.33482924  0.73168503  1
  O2-  O237  1  0.71294514  0.83735041  0.06201780  1
  O2-  O238  1  0.70268769  0.82517606  0.39538913  1
  O2-  O239  1  0.70984051  0.83014952  0.73636245  1
  O2-  O240  1  0.45604790  0.41678275  0.26611975  1
  O2-  O241  1  0.45916437  0.41477971  0.59666505  1
  O2-  O242  1  0.46005445  0.40929864  0.93563515  1
  O2-  O243  1  0.46162818  0.91616978  0.26277114  1
  O2-  O244  1  0.45015563  0.91888038  0.61108650  1
  O2-  O245  1  0.45590743  0.91515368  0.93365863  1
  O2-  O246  1  0.96259405  0.41204163  0.26456113  1
  O2-  O247  1  0.95938509  0.41287317  0.60276483  1
  O2-  O248  1  0.95932318  0.42071432  0.93183092  1
  O2-  O249  1  0.95291598  0.92252047  0.26487419  1
  O2-  O250  1  0.94527476  0.91765491  0.61007898  1
  O2-  O251  1  0.95104212  0.91724305  0.93887690  1
  O2-  O252  1  0.33036173  0.30450554  0.26982740  1
  O2-  O253  1  0.33132859  0.29423238  0.59589139  1
  O2-  O254  1  0.33418079  0.29558516  0.94227073  1
  O2-  O255  1  0.34021134  0.78347510  0.26133539  1
  O2-  O256  1  0.33921053  0.78956499  0.60418333  1
  O2-  O257  1  0.33302766  0.79809823  0.93636136  1
  O2-  O258  1  0.83219802  0.28998410  0.26616364  1
  O2-  O259  1  0.82877767  0.30543883  0.61049020  1
  O2-  O260  1  0.83236388  0.29374676  0.92729196  1
  O2-  O261  1  0.83185060  0.78938070  0.26171742  1
  O2-  O262  1  0.83819399  0.78758019  0.60617548  1
  O2-  O263  1  0.84038372  0.78886309  0.93394724  1
  O2-  O264  1  0.42360401  0.04356668  0.06548450  1
  O2-  O265  1  0.41958022  0.04099062  0.40126879  1
  O2-  O266  1  0.41775642  0.05028889  0.73625844  1
  O2-  O267  1  0.41600645  0.53891216  0.06269801  1
  O2-  O268  1  0.41112573  0.53963161  0.39853778  1
  O2-  O269  1  0.41380177  0.53874662  0.72820935  1
  O2-  O270  1  0.91057569  0.04913568  0.06125697  1
  O2-  O271  1  0.92336031  0.05207390  0.39525382  1
  O2-  O272  1  0.91886786  0.04523883  0.73962574  1
  O2-  O273  1  0.91137137  0.54442332  0.06495710  1
  O2-  O274  1  0.91499242  0.53760751  0.39517826  1
  O2-  O275  1  0.91652270  0.53625639  0.73688499  1
  O2-  O276  1  0.29669176  0.16926678  0.07278162  1
  O2-  O277  1  0.29986324  0.17467551  0.39728781  1
  O2-  O278  1  0.28685520  0.17300520  0.73182111  1
  O2-  O279  1  0.30453646  0.66624858  0.05884932  1
  O2-  O280  1  0.29542180  0.66144208  0.39513276  1
  O2-  O281  1  0.29765657  0.66080444  0.73098714  1
  O2-  O282  1  0.78814496  0.16699240  0.05813466  1
  O2-  O283  1  0.78795828  0.16766984  0.40042934  1
  O2-  O284  1  0.79338140  0.17264838  0.73764954  1
  O2-  O285  1  0.79098602  0.66366852  0.06384528  1
  O2-  O286  1  0.80267137  0.66440761  0.39515860  1
  O2-  O287  1  0.79124416  0.66333775  0.73750858  1
