# generated using pymatgen
data_Ca2Al2SiO7
_symmetry_space_group_name_H-M   'P 1'
_cell_length_a   15.46356582
_cell_length_b   15.46222098
_cell_length_c   15.28677876
_cell_angle_alpha   89.99338182
_cell_angle_beta   89.98953754
_cell_angle_gamma   90.02105235
_symmetry_Int_Tables_number   1
_chemical_formula_structural   Ca2Al2SiO7
_chemical_formula_sum   'Ca48 Al48 Si24 O168'
_cell_volume   3655.08485383
_cell_formula_units_Z   24
loop_
 _symmetry_equiv_pos_site_id
 _symmetry_equiv_pos_as_xyz
  1  'x, y, z'
loop_
 _atom_type_symbol
 _atom_type_oxidation_number
  Ca2+  2.0
  Al0+  0.0
  Si0+  0.0
  O2-  -2.0
loop_
 _atom_site_type_symbol
 _atom_site_label
 _atom_site_symmetry_multiplicity
 _atom_site_fract_x
 _atom_site_fract_y
 _atom_site_fract_z
 _atom_site_occupancy
  Ca2+  Ca0  1  0.17903700  0.08782179  0.17235128  1
  Ca2+  Ca1  1  0.16708625  0.08818429  0.49833411  1
  Ca2+  Ca2  1  0.17123592  0.08756041  0.83749780  1
  Ca2+  Ca3  1  0.17546786  0.57854840  0.16830818  1
  Ca2+  Ca4  1  0.18199040  0.58940805  0.50381995  1
  Ca2+  Ca5  1  0.18120794  0.57596502  0.84424764  1
  Ca2+  Ca6  1  0.67326488  0.08175840  0.16928312  1
  Ca2+  Ca7  1  0.67282981  0.07372006  0.50447542  1
  Ca2+  Ca8  1  0.66646617  0.07267759  0.84553955  1
  Ca2+  Ca9  1  0.66949075  0.57438720  0.17109154  1
  Ca2+  Ca10  1  0.66173468  0.58583497  0.49711925  1
  Ca2+  Ca11  1  0.66754007  0.57915708  0.84118357  1
  Ca2+  Ca12  1  0.08658193  0.33012240  0.16227920  1
  Ca2+  Ca13  1  0.08344557  0.32156962  0.49487579  1
  Ca2+  Ca14  1  0.08591538  0.33068665  0.83007469  1
  Ca2+  Ca15  1  0.07029323  0.83161756  0.16250456  1
  Ca2+  Ca16  1  0.07566839  0.83223433  0.48976348  1
  Ca2+  Ca17  1  0.07559472  0.83360299  0.83413059  1
  Ca2+  Ca18  1  0.58237216  0.33123072  0.15665215  1
  Ca2+  Ca19  1  0.57778421  0.33796642  0.49610902  1
  Ca2+  Ca20  1  0.57502214  0.33489255  0.83463475  1
  Ca2+  Ca21  1  0.58389966  0.82900592  0.16463225  1
  Ca2+  Ca22  1  0.58272595  0.82222342  0.49317125  1
  Ca2+  Ca23  1  0.58779122  0.82986320  0.82873531  1
  Ca2+  Ca24  1  0.33565919  0.42369871  0.16570801  1
  Ca2+  Ca25  1  0.33980188  0.42823007  0.50396196  1
  Ca2+  Ca26  1  0.33652840  0.42078355  0.84069927  1
  Ca2+  Ca27  1  0.33937312  0.92812904  0.17359209  1
  Ca2+  Ca28  1  0.34259983  0.92300458  0.49799905  1
  Ca2+  Ca29  1  0.33057924  0.92479300  0.84226521  1
  Ca2+  Ca30  1  0.82066323  0.42213468  0.17441273  1
  Ca2+  Ca31  1  0.82657710  0.42107110  0.49751765  1
  Ca2+  Ca32  1  0.82459462  0.42329148  0.84738622  1
  Ca2+  Ca33  1  0.83370590  0.92064962  0.16637151  1
  Ca2+  Ca34  1  0.83142779  0.91676040  0.50047922  1
  Ca2+  Ca35  1  0.82274522  0.91977014  0.84289421  1
  Ca2+  Ca36  1  0.42157857  0.16934481  0.15451976  1
  Ca2+  Ca37  1  0.41405187  0.17505821  0.49405235  1
  Ca2+  Ca38  1  0.41757354  0.17678940  0.83593661  1
  Ca2+  Ca39  1  0.41694705  0.66531499  0.16647640  1
  Ca2+  Ca40  1  0.42445416  0.66724375  0.49043026  1
  Ca2+  Ca41  1  0.42261493  0.66012649  0.82632089  1
  Ca2+  Ca42  1  0.92047984  0.15761575  0.16268396  1
  Ca2+  Ca43  1  0.92691636  0.16042442  0.49103857  1
  Ca2+  Ca44  1  0.92060230  0.16523416  0.83070238  1
  Ca2+  Ca45  1  0.90248626  0.67425727  0.16153426  1
  Ca2+  Ca46  1  0.91459498  0.67327106  0.48786375  1
  Ca2+  Ca47  1  0.90799622  0.67151101  0.83485225  1
  Al0+  Al48  1  -0.00097281  -0.00272147  -0.00530270  1
  Al0+  Al49  1  0.00162436  -0.00055931  0.32757004  1
  Al0+  Al50  1  0.00102823  0.00025169  0.66339861  1
  Al0+  Al51  1  0.00297740  0.50076461  0.00549784  1
  Al0+  Al52  1  -0.00095793  0.49779603  0.33794727  1
  Al0+  Al53  1  0.00083251  0.50086711  0.66507767  1
  Al0+  Al54  1  0.49989824  -0.00150845  0.00257269  1
  Al0+  Al55  1  0.49999660  0.00128397  0.33740982  1
  Al0+  Al56  1  0.50015282  0.00110219  0.67201613  1
  Al0+  Al57  1  0.50002999  0.50055971  0.00275568  1
  Al0+  Al58  1  0.49850925  0.49961027  0.33575357  1
  Al0+  Al59  1  0.50155902  0.50048007  0.66273221  1
  Al0+  Al60  1  0.25065937  0.25027743  0.00203506  1
  Al0+  Al61  1  0.24975671  0.24919335  0.33333296  1
  Al0+  Al62  1  0.24919715  0.25099614  0.65730257  1
  Al0+  Al63  1  0.24848300  0.75029247  0.00190851  1
  Al0+  Al64  1  0.24843809  0.75108157  0.33250320  1
  Al0+  Al65  1  0.25014203  0.75258654  0.67234184  1
  Al0+  Al66  1  0.75224560  0.24743857  0.00034607  1
  Al0+  Al67  1  0.75069435  0.24944469  0.34476812  1
  Al0+  Al68  1  0.75065232  0.25100120  0.66665192  1
  Al0+  Al69  1  0.74816390  0.75197360  0.00006537  1
  Al0+  Al70  1  0.74863454  0.74894297  0.32748519  1
  Al0+  Al71  1  0.74896057  0.75082870  0.66512326  1
  Al0+  Al72  1  0.82308096  0.07064382  0.01317339  1
  Al0+  Al73  1  0.68000028  0.92940993  0.67986242  1
  Al0+  Al74  1  0.82124710  0.57217527  0.01290202  1
  Al0+  Al75  1  0.56909401  0.67751896  0.31436145  1
  Al0+  Al76  1  0.42959248  0.32145164  0.98618913  1
  Al0+  Al77  1  0.42803119  0.82284451  0.31819509  1
  Al0+  Al78  1  0.92903250  0.81931334  0.31856321  1
  Al0+  Al79  1  0.57439154  0.17636919  0.98608013  1
  Al0+  Al80  1  0.31899041  0.06954278  0.01165152  1
  Al0+  Al81  1  0.67903389  0.42724466  0.01286416  1
  Al0+  Al82  1  0.43139856  0.31933050  0.65161010  1
  Al0+  Al83  1  0.57011404  0.68102542  0.65352295  1
  Al0+  Al84  1  0.67725064  0.92863627  0.01701565  1
  Al0+  Al85  1  0.32301217  0.57283215  0.01571453  1
  Al0+  Al86  1  0.82019154  0.57265426  0.34919926  1
  Al0+  Al87  1  0.32218630  0.07167479  0.34879975  1
  Al0+  Al88  1  0.31807354  0.57139092  0.34803077  1
  Al0+  Al89  1  0.17912548  0.42725120  0.01444629  1
  Al0+  Al90  1  0.92862265  0.81852946  0.98319542  1
  Al0+  Al91  1  0.67720724  0.42834316  0.35094251  1
  Al0+  Al92  1  0.82323420  0.06878274  0.34779365  1
  Al0+  Al93  1  0.06847297  0.18014793  0.65221017  1
  Al0+  Al94  1  0.07018086  0.18051714  0.31597997  1
  Al0+  Al95  1  0.32221867  0.57088946  0.68031818  1
  Si0+  Si96  1  0.07355111  0.67919906  0.65298418  1
  Si0+  Si97  1  0.82382003  0.07153282  0.68254858  1
  Si0+  Si98  1  0.42535085  0.82505316  0.65257714  1
  Si0+  Si99  1  0.17844380  0.42799289  0.68106124  1
  Si0+  Si100  1  0.67764865  0.92814328  0.35044805  1
  Si0+  Si101  1  0.67961625  0.42883900  0.68261499  1
  Si0+  Si102  1  0.57353579  0.17563348  0.64959574  1
  Si0+  Si103  1  0.07401020  0.67638161  0.98180825  1
  Si0+  Si104  1  0.42971014  0.31997134  0.31807308  1
  Si0+  Si105  1  0.17856856  0.92986342  0.34905337  1
  Si0+  Si106  1  0.57276719  0.17933453  0.32194839  1
  Si0+  Si107  1  0.31926698  0.07324670  0.68126435  1
  Si0+  Si108  1  0.92548053  0.32524261  0.64932353  1
  Si0+  Si109  1  0.07093637  0.17952081  0.98506204  1
  Si0+  Si110  1  0.42598724  0.82210759  0.98463122  1
  Si0+  Si111  1  0.82236676  0.57132172  0.68043332  1
  Si0+  Si112  1  0.56829566  0.68081912  0.98475041  1
  Si0+  Si113  1  0.92648070  0.32156457  0.31672096  1
  Si0+  Si114  1  0.17744359  0.42622550  0.35252682  1
  Si0+  Si115  1  0.93046844  0.81842419  0.65122132  1
  Si0+  Si116  1  0.07249707  0.67500586  0.31714007  1
  Si0+  Si117  1  0.92969857  0.32343119  0.98698660  1
  Si0+  Si118  1  0.17658149  0.92966603  0.68229322  1
  Si0+  Si119  1  0.17635359  0.92744656  0.01644818  1
  O2-  O120  1  0.24643827  -0.00594057  0.06025014  1
  O2-  O121  1  0.25004065  -0.00560128  0.39595870  1
  O2-  O122  1  0.24984285  -0.00035194  0.72264453  1
  O2-  O123  1  0.25085791  0.49976413  0.06326256  1
  O2-  O124  1  0.24225155  0.49844312  0.39674896  1
  O2-  O125  1  0.24609858  0.49694573  0.72573978  1
  O2-  O126  1  0.74759835  0.00344848  0.06405389  1
  O2-  O127  1  0.74894449  -0.00574119  0.39509659  1
  O2-  O128  1  0.75085978  0.00809132  0.72636834  1
  O2-  O129  1  0.75392135  0.49620468  0.06199390  1
  O2-  O130  1  0.74743466  0.50279462  0.40130685  1
  O2-  O131  1  0.75502490  0.49680551  0.72244983  1
  O2-  O132  1  -0.00514593  0.25428590  0.26972570  1
  O2-  O133  1  -0.00824471  0.25334506  0.60618120  1
  O2-  O134  1  -0.00009219  0.25110959  0.94365332  1
  O2-  O135  1  -0.00142049  0.73822680  0.27366129  1
  O2-  O136  1  0.00103437  0.74739195  0.60854357  1
  O2-  O137  1  0.00175733  0.74147587  0.93635825  1
  O2-  O138  1  0.50238780  0.24994515  0.27833652  1
  O2-  O139  1  0.50606955  0.24459050  0.60381020  1
  O2-  O140  1  0.50350070  0.25044873  0.93642778  1
  O2-  O141  1  0.49752825  0.75072080  0.26521112  1
  O2-  O142  1  0.49314823  0.75532083  0.60965617  1
  O2-  O143  1  0.49466565  0.74930049  0.94179398  1
  O2-  O144  1  0.07124445  0.17874909  0.08968969  1
  O2-  O145  1  0.06929284  0.18130098  0.42953082  1
  O2-  O146  1  0.06896376  0.18067122  0.76565144  1
  O2-  O147  1  0.07755241  0.68002109  0.08691171  1
  O2-  O148  1  0.07416335  0.67995506  0.42362567  1
  O2-  O149  1  0.07301337  0.68048293  0.75760566  1
  O2-  O150  1  0.57177441  0.17653263  0.10012081  1
  O2-  O151  1  0.56975868  0.17953422  0.42754217  1
  O2-  O152  1  0.57256256  0.17543306  0.75463142  1
  O2-  O153  1  0.56845925  0.68124857  0.08911932  1
  O2-  O154  1  0.56776227  0.68002170  0.42864276  1
  O2-  O155  1  0.57126605  0.68089415  0.76693344  1
  O2-  O156  1  0.17920148  0.42500386  0.24720958  1
  O2-  O157  1  0.17782517  0.42939358  0.57569090  1
  O2-  O158  1  0.17904465  0.42724733  0.90014315  1
  O2-  O159  1  0.17810457  0.93310934  0.24378113  1
  O2-  O160  1  0.17269958  0.92770866  0.57784666  1
  O2-  O161  1  0.17713368  0.92896707  0.90993546  1
  O2-  O162  1  0.67861382  0.42516689  0.23785635  1
  O2-  O163  1  0.67932086  0.42872535  0.57800335  1
  O2-  O164  1  0.67924439  0.43122224  0.89824374  1
  O2-  O165  1  0.67550962  0.93137140  0.24544883  1
  O2-  O166  1  0.68400323  0.92847121  0.56679435  1
  O2-  O167  1  0.67991430  0.92700928  0.90271879  1
  O2-  O168  1  0.42895283  0.31927455  0.09978011  1
  O2-  O169  1  0.42963036  0.31898117  0.42382662  1
  O2-  O170  1  0.43060116  0.31859197  0.76431355  1
  O2-  O171  1  0.42552575  0.82302973  0.08923442  1
  O2-  O172  1  0.43119252  0.82285855  0.43263118  1
  O2-  O173  1  0.42379587  0.82601241  0.75825253  1
  O2-  O174  1  0.93076919  0.32383598  0.09148570  1
  O2-  O175  1  0.92943189  0.32019315  0.42280381  1
  O2-  O176  1  0.92594710  0.32708882  0.75500841  1
  O2-  O177  1  0.93143590  0.81945806  0.09574438  1
  O2-  O178  1  0.93259068  0.81989337  0.43287887  1
  O2-  O179  1  0.93118841  0.81805901  0.75608577  1
  O2-  O180  1  0.32140912  0.07331208  0.23611040  1
  O2-  O181  1  0.31907655  0.07201398  0.57626618  1
  O2-  O182  1  0.31523175  0.06960360  0.89764799  1
  O2-  O183  1  0.31690960  0.56919623  0.23557390  1
  O2-  O184  1  0.32014529  0.57168342  0.56730799  1
  O2-  O185  1  0.32239269  0.57228743  0.90151918  1
  O2-  O186  1  0.82203616  0.06853849  0.23541900  1
  O2-  O187  1  0.82602188  0.06761234  0.57691052  1
  O2-  O188  1  0.82640022  0.06733549  0.89898561  1
  O2-  O189  1  0.81996987  0.56930383  0.23626785  1
  O2-  O190  1  0.82343122  0.57214440  0.57590999  1
  O2-  O191  1  0.81792809  0.57047337  0.89796116  1
  O2-  O192  1  0.04186700  0.08393244  0.26230413  1
  O2-  O193  1  0.04021713  0.08272747  0.59701810  1
  O2-  O194  1  0.04377738  0.08797181  0.93584950  1
  O2-  O195  1  0.05376746  0.57807143  0.27640681  1
  O2-  O196  1  0.05013779  0.58630675  0.60544988  1
  O2-  O197  1  0.05331476  0.58093411  0.93711668  1
  O2-  O198  1  0.54551516  0.08750765  0.27573086  1
  O2-  O199  1  0.54675291  0.08174057  0.60416622  1
  O2-  O200  1  0.54145744  0.07849749  0.93302007  1
  O2-  O201  1  0.53858771  0.57849795  0.26471340  1
  O2-  O202  1  0.54103276  0.58516965  0.59821950  1
  O2-  O203  1  0.54238009  0.58830614  0.93713181  1
  O2-  O204  1  0.16740772  0.21260792  0.26389586  1
  O2-  O205  1  0.16316283  0.21133525  0.59465755  1
  O2-  O206  1  0.16191594  0.20853504  0.93641056  1
  O2-  O207  1  0.16305750  0.70593699  0.26867125  1
  O2-  O208  1  0.16449507  0.71120401  0.60563178  1
  O2-  O209  1  0.16571780  0.70749804  0.93283407  1
  O2-  O210  1  0.66615419  0.20608666  0.27820472  1
  O2-  O211  1  0.66887697  0.19932555  0.60530163  1
  O2-  O212  1  0.67421117  0.19970434  0.93225850  1
  O2-  O213  1  0.66769473  0.70398959  0.26234960  1
  O2-  O214  1  0.66591703  0.71357688  0.59787316  1
  O2-  O215  1  0.65891032  0.71118543  0.93592452  1
  O2-  O216  1  0.08228785  0.45437349  0.07093908  1
  O2-  O217  1  0.08211749  0.44506866  0.39800227  1
  O2-  O218  1  0.08360038  0.45147772  0.72680233  1
  O2-  O219  1  0.08332225  0.95489462  0.06038199  1
  O2-  O220  1  0.08705951  0.96030518  0.39696558  1
  O2-  O221  1  0.08591262  0.96027076  0.73137582  1
  O2-  O222  1  0.58262140  0.45738762  0.06635425  1
  O2-  O223  1  0.57895900  0.45699672  0.40409755  1
  O2-  O224  1  0.58935285  0.46119026  0.72933715  1
  O2-  O225  1  0.57836358  0.95210309  0.06932465  1
  O2-  O226  1  0.58645864  0.95688015  0.40004993  1
  O2-  O227  1  0.58203528  0.95523889  0.73455841  1
  O2-  O228  1  0.20656683  0.32990315  0.06882213  1
  O2-  O229  1  0.20814367  0.33438080  0.39928260  1
  O2-  O230  1  0.20464627  0.33348558  0.72471856  1
  O2-  O231  1  0.19765886  0.83337229  0.06176545  1
  O2-  O232  1  0.19789253  0.83473535  0.39497775  1
  O2-  O233  1  0.20244709  0.83896349  0.73334256  1
  O2-  O234  1  0.70458314  0.32806134  0.06357996  1
  O2-  O235  1  0.70779650  0.33238102  0.40922956  1
  O2-  O236  1  0.70348941  0.33530651  0.72931564  1
  O2-  O237  1  0.70953090  0.83232423  0.06949216  1
  O2-  O238  1  0.70285194  0.83339711  0.39335795  1
  O2-  O239  1  0.71482745  0.83398174  0.73422224  1
  O2-  O240  1  0.45561023  0.41206605  0.27225514  1
  O2-  O241  1  0.46436265  0.41488959  0.59689708  1
  O2-  O242  1  0.45789505  0.42050418  0.93296653  1
  O2-  O243  1  0.45714860  0.92284786  0.26842022  1
  O2-  O244  1  0.45175186  0.91925315  0.60763032  1
  O2-  O245  1  0.45501760  0.91276412  0.93546213  1
  O2-  O246  1  0.95053819  0.41635675  0.27254920  1
  O2-  O247  1  0.95353282  0.41790261  0.60166985  1
  O2-  O248  1  0.95860868  0.41502099  0.93816631  1
  O2-  O249  1  0.96633252  0.91250067  0.26334844  1
  O2-  O250  1  0.95955264  0.91019802  0.60452495  1
  O2-  O251  1  0.96343676  0.91307252  0.92558754  1
  O2-  O252  1  0.33817706  0.29074843  0.27248071  1
  O2-  O253  1  0.33575091  0.28937533  0.59503114  1
  O2-  O254  1  0.33172355  0.28951149  0.93226868  1
  O2-  O255  1  0.32748879  0.79886899  0.26771092  1
  O2-  O256  1  0.33036402  0.80273325  0.60739422  1
  O2-  O257  1  0.33218039  0.79857739  0.93762683  1
  O2-  O258  1  0.83157445  0.29495474  0.27534792  1
  O2-  O259  1  0.83102745  0.30266536  0.60345058  1
  O2-  O260  1  0.83888699  0.29634453  0.93665054  1
  O2-  O261  1  0.83173747  0.79465999  0.26459353  1
  O2-  O262  1  0.83940093  0.79016212  0.60343449  1
  O2-  O263  1  0.83174465  0.78783991  0.92842663  1
  O2-  O264  1  0.41480482  0.03985261  0.06558367  1
  O2-  O265  1  0.41825606  0.04324206  0.40611130  1
  O2-  O266  1  0.41145742  0.04886567  0.72920495  1
  O2-  O267  1  0.41984702  0.54460801  0.06932554  1
  O2-  O268  1  0.41343577  0.53800243  0.40219958  1
  O2-  O269  1  0.41894426  0.53785384  0.73213559  1
  O2-  O270  1  0.92052388  0.03656888  0.06488599  1
  O2-  O271  1  0.92029627  0.03554367  0.40014149  1
  O2-  O272  1  0.91639231  0.04175867  0.72857862  1
  O2-  O273  1  0.92227999  0.55380016  0.06235015  1
  O2-  O274  1  0.91951678  0.54476728  0.40335086  1
  O2-  O275  1  0.91627023  0.54864804  0.72710381  1
  O2-  O276  1  0.28748345  0.16436837  0.06655648  1
  O2-  O277  1  0.28666181  0.16680200  0.40345280  1
  O2-  O278  1  0.28594365  0.16424614  0.72631251  1
  O2-  O279  1  0.29301623  0.67114465  0.06744187  1
  O2-  O280  1  0.28784126  0.66904259  0.40168604  1
  O2-  O281  1  0.29325401  0.66851780  0.73395469  1
  O2-  O282  1  0.80374885  0.17051412  0.06535872  1
  O2-  O283  1  0.79484698  0.16397043  0.40589081  1
  O2-  O284  1  0.80533435  0.16863164  0.72450733  1
  O2-  O285  1  0.78790999  0.66837495  0.06405775  1
  O2-  O286  1  0.79300691  0.67266438  0.40036356  1
  O2-  O287  1  0.79091836  0.66220114  0.72733797  1
