# generated using pymatgen
data_Ca2Al2SiO7
_symmetry_space_group_name_H-M   'P 1'
_cell_length_a   15.45685962
_cell_length_b   15.45669826
_cell_length_c   15.28223381
_cell_angle_alpha   90.01403119
_cell_angle_beta   90.00690409
_cell_angle_gamma   89.99546402
_symmetry_Int_Tables_number   1
_chemical_formula_structural   Ca2Al2SiO7
_chemical_formula_sum   'Ca48 Al48 Si24 O168'
_cell_volume   3651.10912755
_cell_formula_units_Z   24
loop_
 _symmetry_equiv_pos_site_id
 _symmetry_equiv_pos_as_xyz
  1  'x, y, z'
loop_
 _atom_type_symbol
 _atom_type_oxidation_number
  Ca2+  2.0
  Al0+  0.0
  Si0+  0.0
  O2-  -2.0
loop_
 _atom_site_type_symbol
 _atom_site_label
 _atom_site_symmetry_multiplicity
 _atom_site_fract_x
 _atom_site_fract_y
 _atom_site_fract_z
 _atom_site_occupancy
  Ca2+  Ca0  1  0.16866020  0.08040543  0.16880085  1
  Ca2+  Ca1  1  0.16496626  0.06935227  0.50356873  1
  Ca2+  Ca2  1  0.16899309  0.08151456  0.84099211  1
  Ca2+  Ca3  1  0.16112193  0.57092368  0.17019075  1
  Ca2+  Ca4  1  0.16145742  0.57557534  0.50639738  1
  Ca2+  Ca5  1  0.15556421  0.57472132  0.83339456  1
  Ca2+  Ca6  1  0.67324768  0.08515846  0.17018717  1
  Ca2+  Ca7  1  0.67392201  0.07770294  0.50423158  1
  Ca2+  Ca8  1  0.66642424  0.07800627  0.83743807  1
  Ca2+  Ca9  1  0.66842815  0.58424486  0.16943117  1
  Ca2+  Ca10  1  0.67776945  0.58436341  0.50677633  1
  Ca2+  Ca11  1  0.67122727  0.57488537  0.83928151  1
  Ca2+  Ca12  1  0.07436852  0.33431074  0.15896125  1
  Ca2+  Ca13  1  0.07289409  0.34257486  0.49690046  1
  Ca2+  Ca14  1  0.07717163  0.33659703  0.82857889  1
  Ca2+  Ca15  1  0.07890550  0.83455542  0.16089601  1
  Ca2+  Ca16  1  0.08520093  0.83051800  0.49955893  1
  Ca2+  Ca17  1  0.07266846  0.83075786  0.82260060  1
  Ca2+  Ca18  1  0.58525414  0.32722627  0.15544632  1
  Ca2+  Ca19  1  0.58532717  0.33707344  0.49845088  1
  Ca2+  Ca20  1  0.59331287  0.33017484  0.83105425  1
  Ca2+  Ca21  1  0.57620213  0.82262897  0.15914447  1
  Ca2+  Ca22  1  0.58061386  0.82979987  0.49175003  1
  Ca2+  Ca23  1  0.57994075  0.83110361  0.83120626  1
  Ca2+  Ca24  1  0.31874122  0.41246185  0.16957844  1
  Ca2+  Ca25  1  0.32006674  0.41675460  0.50576900  1
  Ca2+  Ca26  1  0.31909160  0.41566038  0.84031686  1
  Ca2+  Ca27  1  0.33530718  0.91702371  0.16905992  1
  Ca2+  Ca28  1  0.32293582  0.90737900  0.50100560  1
  Ca2+  Ca29  1  0.32782837  0.91860376  0.84023265  1
  Ca2+  Ca30  1  0.83267328  0.41799789  0.17198450  1
  Ca2+  Ca31  1  0.83624595  0.42701878  0.50709099  1
  Ca2+  Ca32  1  0.83272482  0.41791608  0.83589412  1
  Ca2+  Ca33  1  0.83741952  0.92488302  0.17288336  1
  Ca2+  Ca34  1  0.83198594  0.92254821  0.50844052  1
  Ca2+  Ca35  1  0.83073884  0.90717695  0.83592753  1
  Ca2+  Ca36  1  0.42222567  0.16377395  0.15722059  1
  Ca2+  Ca37  1  0.41880958  0.16793549  0.49884293  1
  Ca2+  Ca38  1  0.42029419  0.16172022  0.83646784  1
  Ca2+  Ca39  1  0.42463696  0.67505250  0.16122677  1
  Ca2+  Ca40  1  0.42658547  0.67141963  0.48815514  1
  Ca2+  Ca41  1  0.42167758  0.66542755  0.83388336  1
  Ca2+  Ca42  1  0.92122131  0.17548736  0.15961659  1
  Ca2+  Ca43  1  0.91223977  0.17942135  0.49434178  1
  Ca2+  Ca44  1  0.92103059  0.17953299  0.83299499  1
  Ca2+  Ca45  1  0.91358254  0.67197818  0.16363564  1
  Ca2+  Ca46  1  0.91574715  0.66482666  0.50216067  1
  Ca2+  Ca47  1  0.91846738  0.67342993  0.82540769  1
  Al0+  Al48  1  -0.00096401  0.00113980  -0.00785955  1
  Al0+  Al49  1  0.00120271  0.00198355  0.34271725  1
  Al0+  Al50  1  0.00069385  0.00179614  0.66777464  1
  Al0+  Al51  1  -0.00256805  0.50183054  0.00259512  1
  Al0+  Al52  1  -0.00269916  0.50052823  0.33567646  1
  Al0+  Al53  1  -0.00009126  0.50128491  0.66759019  1
  Al0+  Al54  1  0.49912736  -0.00060206  -0.00293825  1
  Al0+  Al55  1  0.49935764  0.00103972  0.33043303  1
  Al0+  Al56  1  0.50186575  0.00065484  0.66750980  1
  Al0+  Al57  1  0.49954521  0.49950985  0.00148457  1
  Al0+  Al58  1  0.49852768  0.49852708  0.32717915  1
  Al0+  Al59  1  0.49998017  0.49884127  0.66745630  1
  Al0+  Al60  1  0.25057891  0.24742450  0.00699894  1
  Al0+  Al61  1  0.24932189  0.24771377  0.33953350  1
  Al0+  Al62  1  0.25192829  0.24968922  0.66893677  1
  Al0+  Al63  1  0.25006553  0.74885963  -0.00294553  1
  Al0+  Al64  1  0.24999056  0.74920588  0.33075957  1
  Al0+  Al65  1  0.25030727  0.75040326  0.66809677  1
  Al0+  Al66  1  0.75016112  0.24962005  -0.00428084  1
  Al0+  Al67  1  0.75037837  0.25077951  0.33380307  1
  Al0+  Al68  1  0.75068889  0.24844326  0.66341315  1
  Al0+  Al69  1  0.74848449  0.74871450  -0.00531738  1
  Al0+  Al70  1  0.75071249  0.74939527  0.33288707  1
  Al0+  Al71  1  0.74990636  0.75145609  0.67039489  1
  Al0+  Al72  1  0.32108613  0.06852692  0.01448921  1
  Al0+  Al73  1  0.57421286  0.67778564  0.31796578  1
  Al0+  Al74  1  0.81907411  0.57210260  0.34709077  1
  Al0+  Al75  1  0.92957534  0.32286197  0.98483492  1
  Al0+  Al76  1  0.93002609  0.31961454  0.65127391  1
  Al0+  Al77  1  0.93008765  0.32179716  0.31912994  1
  Al0+  Al78  1  0.92705287  0.82272527  0.64889229  1
  Al0+  Al79  1  0.57136444  0.17964009  0.98589632  1
  Al0+  Al80  1  0.67810849  0.42810628  0.68093457  1
  Al0+  Al81  1  0.17999735  0.92776653  0.34587456  1
  Al0+  Al82  1  0.17865211  0.42886786  0.34829521  1
  Al0+  Al83  1  0.17891366  0.92840710  0.68220846  1
  Al0+  Al84  1  0.17770203  0.43008020  0.01469688  1
  Al0+  Al85  1  0.42821569  0.82103388  0.98203044  1
  Al0+  Al86  1  0.57072008  0.67651100  0.98162488  1
  Al0+  Al87  1  0.92970892  0.82193549  0.98857769  1
  Al0+  Al88  1  0.82146962  0.57132387  0.68411343  1
  Al0+  Al89  1  0.67987668  0.42760232  0.01457951  1
  Al0+  Al90  1  0.07130339  0.68022317  0.65045378  1
  Al0+  Al91  1  0.17971188  0.43003325  0.68083414  1
  Al0+  Al92  1  0.42729138  0.82146756  0.31752032  1
  Al0+  Al93  1  0.67963697  0.93012458  0.68047427  1
  Al0+  Al94  1  0.07353332  0.17948001  0.98607238  1
  Al0+  Al95  1  0.82113675  0.07266518  0.34648888  1
  Si0+  Si96  1  0.82090146  0.07017906  0.01329822  1
  Si0+  Si97  1  0.67828900  0.92936892  0.34664999  1
  Si0+  Si98  1  0.07189892  0.67767711  0.98547419  1
  Si0+  Si99  1  0.67593635  0.42739935  0.34800768  1
  Si0+  Si100  1  0.42570634  0.31958781  0.31857693  1
  Si0+  Si101  1  0.07010221  0.67892330  0.31828117  1
  Si0+  Si102  1  0.81995015  0.57338044  0.01847678  1
  Si0+  Si103  1  0.57063517  0.17830573  0.64982030  1
  Si0+  Si104  1  0.32279429  0.07151672  0.68384593  1
  Si0+  Si105  1  0.32276131  0.57312119  0.01842878  1
  Si0+  Si106  1  0.07611806  0.17880465  0.64828914  1
  Si0+  Si107  1  0.32219246  0.57062367  0.34825002  1
  Si0+  Si108  1  0.67907882  0.92795727  0.01540107  1
  Si0+  Si109  1  0.43039973  0.82256294  0.65113549  1
  Si0+  Si110  1  0.82239994  0.07314464  0.68523121  1
  Si0+  Si111  1  0.32379754  0.57252552  0.68263488  1
  Si0+  Si112  1  0.32482764  0.07138769  0.35189909  1
  Si0+  Si113  1  0.57059284  0.18063725  0.31901306  1
  Si0+  Si114  1  0.42701145  0.32131266  0.98469413  1
  Si0+  Si115  1  0.17596908  0.92735895  0.01496224  1
  Si0+  Si116  1  0.42808224  0.32125719  0.65180513  1
  Si0+  Si117  1  0.07211400  0.17628976  0.31857480  1
  Si0+  Si118  1  0.56997408  0.67795470  0.65183578  1
  Si0+  Si119  1  0.93021059  0.82397737  0.32088262  1
  O2-  O120  1  0.24627691  -0.00645312  0.06078251  1
  O2-  O121  1  0.25776158  0.00014772  0.39333482  1
  O2-  O122  1  0.25256215  0.00472073  0.72723844  1
  O2-  O123  1  0.25244430  0.50526680  0.06198863  1
  O2-  O124  1  0.25470726  0.50255590  0.39498482  1
  O2-  O125  1  0.25330429  0.50597565  0.72716593  1
  O2-  O126  1  0.75163403  -0.00233836  0.05751087  1
  O2-  O127  1  0.74751592  -0.00361996  0.39249082  1
  O2-  O128  1  0.75832320  -0.00023667  0.72898287  1
  O2-  O129  1  0.75286818  0.50283686  0.06255566  1
  O2-  O130  1  0.74102768  0.49908576  0.39141756  1
  O2-  O131  1  0.74979183  0.49827186  0.73282390  1
  O2-  O132  1  0.00617430  0.24731148  0.27430485  1
  O2-  O133  1  0.00685562  0.24662965  0.60360330  1
  O2-  O134  1  0.00660215  0.25563278  0.93562524  1
  O2-  O135  1  0.00083360  0.75286751  0.27762463  1
  O2-  O136  1  0.00032068  0.75243610  0.59795766  1
  O2-  O137  1  0.00731966  0.75040097  0.94303023  1
  O2-  O138  1  0.49919700  0.25109920  0.27668029  1
  O2-  O139  1  0.50177075  0.25249548  0.60897736  1
  O2-  O140  1  0.49874005  0.25651961  0.93887284  1
  O2-  O141  1  0.50127149  0.75031509  0.26995667  1
  O2-  O142  1  0.49999552  0.75013690  0.60890450  1
  O2-  O143  1  0.49853417  0.74815457  0.93104849  1
  O2-  O144  1  0.06966673  0.17676707  0.10013231  1
  O2-  O145  1  0.07139401  0.17509978  0.42408334  1
  O2-  O146  1  0.07800624  0.18124104  0.75368650  1
  O2-  O147  1  0.07065819  0.67710751  0.09178354  1
  O2-  O148  1  0.07141373  0.67851346  0.42287956  1
  O2-  O149  1  0.07093253  0.68157684  0.76419993  1
  O2-  O150  1  0.57128503  0.17986644  0.09963565  1
  O2-  O151  1  0.56921955  0.18024241  0.42438374  1
  O2-  O152  1  0.56903409  0.17578500  0.75450857  1
  O2-  O153  1  0.57138975  0.67977739  0.09524640  1
  O2-  O154  1  0.57289156  0.67977329  0.43235655  1
  O2-  O155  1  0.56626224  0.67673723  0.75641311  1
  O2-  O156  1  0.17958620  0.42900780  0.23513267  1
  O2-  O157  1  0.18238487  0.42976860  0.56753265  1
  O2-  O158  1  0.17862124  0.43164213  0.90161786  1
  O2-  O159  1  0.17692041  0.93061302  0.23288464  1
  O2-  O160  1  0.18277215  0.92806549  0.56867144  1
  O2-  O161  1  0.17691894  0.92948624  0.90962586  1
  O2-  O162  1  0.67754428  0.42371904  0.24263606  1
  O2-  O163  1  0.67493511  0.43151126  0.56695701  1
  O2-  O164  1  0.68248003  0.42715829  0.90191475  1
  O2-  O165  1  0.67915467  0.93200884  0.24096790  1
  O2-  O166  1  0.67556335  0.93464892  0.56694923  1
  O2-  O167  1  0.67958273  0.92961865  0.91023686  1
  O2-  O168  1  0.42762021  0.31783929  0.09081479  1
  O2-  O169  1  0.42609400  0.31888279  0.42404553  1
  O2-  O170  1  0.42483454  0.31967794  0.75630384  1
  O2-  O171  1  0.43047293  0.82091850  0.09562909  1
  O2-  O172  1  0.42877492  0.81978703  0.43190039  1
  O2-  O173  1  0.43208693  0.82398646  0.75576571  1
  O2-  O174  1  0.92911113  0.32046803  0.09883199  1
  O2-  O175  1  0.93003069  0.32139751  0.43224022  1
  O2-  O176  1  0.93008142  0.31776540  0.76402607  1
  O2-  O177  1  0.93078115  0.82318280  0.10277152  1
  O2-  O178  1  0.92984162  0.82436082  0.42531159  1
  O2-  O179  1  0.92848064  0.82007782  0.76249610  1
  O2-  O180  1  0.32630522  0.07418668  0.24679039  1
  O2-  O181  1  0.32477459  0.07170888  0.57800888  1
  O2-  O182  1  0.32146564  0.06730029  0.90136071  1
  O2-  O183  1  0.32036210  0.56851212  0.24290644  1
  O2-  O184  1  0.32663257  0.56922481  0.57682941  1
  O2-  O185  1  0.32330124  0.57137443  0.91271970  1
  O2-  O186  1  0.82033918  0.07123886  0.23288640  1
  O2-  O187  1  0.81740012  0.07452442  0.57916882  1
  O2-  O188  1  0.81863730  0.06966330  0.90848415  1
  O2-  O189  1  0.82072957  0.57242784  0.23405766  1
  O2-  O190  1  0.81896026  0.57058369  0.57005905  1
  O2-  O191  1  0.82037336  0.57442500  0.91343217  1
  O2-  O192  1  0.04379810  0.08340253  0.27237431  1
  O2-  O193  1  0.05048739  0.08443787  0.60403533  1
  O2-  O194  1  0.04148017  0.08419537  0.92920520  1
  O2-  O195  1  0.03788882  0.58901423  0.27004338  1
  O2-  O196  1  0.04236414  0.58175492  0.59787996  1
  O2-  O197  1  0.04122488  0.58643787  0.93842459  1
  O2-  O198  1  0.54434846  0.08886839  0.27060578  1
  O2-  O199  1  0.53801378  0.08865922  0.59977895  1
  O2-  O200  1  0.53813072  0.08456258  0.93106869  1
  O2-  O201  1  0.54593349  0.57897338  0.26504601  1
  O2-  O202  1  0.54146741  0.58641135  0.60334786  1
  O2-  O203  1  0.54157574  0.57734168  0.93050559  1
  O2-  O204  1  0.16823746  0.19838860  0.27561783  1
  O2-  O205  1  0.17066234  0.20285419  0.60249759  1
  O2-  O206  1  0.17470712  0.20139527  0.93672488  1
  O2-  O207  1  0.16202924  0.70368508  0.26959913  1
  O2-  O208  1  0.17177097  0.70686051  0.59854178  1
  O2-  O209  1  0.16687779  0.69545330  0.93978360  1
  O2-  O210  1  0.66192506  0.20835362  0.27116019  1
  O2-  O211  1  0.66218025  0.20321058  0.60076215  1
  O2-  O212  1  0.66686327  0.20764681  0.92941549  1
  O2-  O213  1  0.67185074  0.70734892  0.26371120  1
  O2-  O214  1  0.66206954  0.70663669  0.60677590  1
  O2-  O215  1  0.66790461  0.70624223  0.92833583  1
  O2-  O216  1  0.08156053  0.46290975  0.06946308  1
  O2-  O217  1  0.08340577  0.46363059  0.40092496  1
  O2-  O218  1  0.08401429  0.46065329  0.73460224  1
  O2-  O219  1  0.08224335  0.95579940  0.05994126  1
  O2-  O220  1  0.08655721  0.96061376  0.40480332  1
  O2-  O221  1  0.08153034  0.95813209  0.73462578  1
  O2-  O222  1  0.58079294  0.45375025  0.06702773  1
  O2-  O223  1  0.57920046  0.44747685  0.39101567  1
  O2-  O224  1  0.57833973  0.45297753  0.73329511  1
  O2-  O225  1  0.58809606  0.95848638  0.06195164  1
  O2-  O226  1  0.58487148  0.95697899  0.39298308  1
  O2-  O227  1  0.58500250  0.96639654  0.73579436  1
  O2-  O228  1  0.20991505  0.33428425  0.06964412  1
  O2-  O229  1  0.20915848  0.33219732  0.40276489  1
  O2-  O230  1  0.21386637  0.33384403  0.73382716  1
  O2-  O231  1  0.19804985  0.83164934  0.05883248  1
  O2-  O232  1  0.20973121  0.83030066  0.39974732  1
  O2-  O233  1  0.21096684  0.83254387  0.73628256  1
  O2-  O234  1  0.71036865  0.32966763  0.06737827  1
  O2-  O235  1  0.70260305  0.33486276  0.39589863  1
  O2-  O236  1  0.70417169  0.32710546  0.72893303  1
  O2-  O237  1  0.70592197  0.83528962  0.06118240  1
  O2-  O238  1  0.70190444  0.83555425  0.39212137  1
  O2-  O239  1  0.70424946  0.83332459  0.73579379  1
  O2-  O240  1  0.44765943  0.41184191  0.26984665  1
  O2-  O241  1  0.45383926  0.41309514  0.60265682  1
  O2-  O242  1  0.44615865  0.41655965  0.94089550  1
  O2-  O243  1  0.45366737  0.92146049  0.26641704  1
  O2-  O244  1  0.45989251  0.91404200  0.60335281  1
  O2-  O245  1  0.45896408  0.91814818  0.92882538  1
  O2-  O246  1  0.96062746  0.41848268  0.26542917  1
  O2-  O247  1  0.96087913  0.41699261  0.59954688  1
  O2-  O248  1  0.95344831  0.42332686  0.93498422  1
  O2-  O249  1  0.95944842  0.91628921  0.27472269  1
  O2-  O250  1  0.95336942  0.92407172  0.60014117  1
  O2-  O251  1  0.95537755  0.91732297  0.93060571  1
  O2-  O252  1  0.33459246  0.28797808  0.27182724  1
  O2-  O253  1  0.33860860  0.28919646  0.60094947  1
  O2-  O254  1  0.33496112  0.29071956  0.93905319  1
  O2-  O255  1  0.32960192  0.79247801  0.26320127  1
  O2-  O256  1  0.33809957  0.79514855  0.60511964  1
  O2-  O257  1  0.32842349  0.79460426  0.93032776  1
  O2-  O258  1  0.83275207  0.28989059  0.26690627  1
  O2-  O259  1  0.83384405  0.28661622  0.59613958  1
  O2-  O260  1  0.83439945  0.28780507  0.93074917  1
  O2-  O261  1  0.83835732  0.79746590  0.27290698  1
  O2-  O262  1  0.82678118  0.79577571  0.59819808  1
  O2-  O263  1  0.83420239  0.79027061  0.93421430  1
  O2-  O264  1  0.41827903  0.03750723  0.06876818  1
  O2-  O265  1  0.41939354  0.04869367  0.39857996  1
  O2-  O266  1  0.41594290  0.04406301  0.72946381  1
  O2-  O267  1  0.41552561  0.54708674  0.06561483  1
  O2-  O268  1  0.41668978  0.54509012  0.39377107  1
  O2-  O269  1  0.41555171  0.54371135  0.73054693  1
  O2-  O270  1  0.91329313  0.04264015  0.06024097  1
  O2-  O271  1  0.91594232  0.04449304  0.40407685  1
  O2-  O272  1  0.91839034  0.05548689  0.72817210  1
  O2-  O273  1  0.91393638  0.55074475  0.06550455  1
  O2-  O274  1  0.91392108  0.53902473  0.40252719  1
  O2-  O275  1  0.91978413  0.54396627  0.73620801  1
  O2-  O276  1  0.29408046  0.16428795  0.07266623  1
  O2-  O277  1  0.29753622  0.16327588  0.40142721  1
  O2-  O278  1  0.30021339  0.16559454  0.73013151  1
  O2-  O279  1  0.29780221  0.66764245  0.06360354  1
  O2-  O280  1  0.29783968  0.66466921  0.39352329  1
  O2-  O281  1  0.30191068  0.66677623  0.72808940  1
  O2-  O282  1  0.79041702  0.16080618  0.06127751  1
  O2-  O283  1  0.78573183  0.16712191  0.40227732  1
  O2-  O284  1  0.78933857  0.16382395  0.73173336  1
  O2-  O285  1  0.79108793  0.66677540  0.06472849  1
  O2-  O286  1  0.79165107  0.66960770  0.40210604  1
  O2-  O287  1  0.79290835  0.66972081  0.73563384  1
