# generated using pymatgen
data_Ca2Al2SiO7
_symmetry_space_group_name_H-M   'P 1'
_cell_length_a   15.46390779
_cell_length_b   15.46316639
_cell_length_c   15.28782652
_cell_angle_alpha   89.99408537
_cell_angle_beta   90.00248248
_cell_angle_gamma   89.99965849
_symmetry_Int_Tables_number   1
_chemical_formula_structural   Ca2Al2SiO7
_chemical_formula_sum   'Ca48 Al48 Si24 O168'
_cell_volume   3655.64002339
_cell_formula_units_Z   24
loop_
 _symmetry_equiv_pos_site_id
 _symmetry_equiv_pos_as_xyz
  1  'x, y, z'
loop_
 _atom_type_symbol
 _atom_type_oxidation_number
  Ca2+  2.0
  Al0+  0.0
  Si0+  0.0
  O2-  -2.0
loop_
 _atom_site_type_symbol
 _atom_site_label
 _atom_site_symmetry_multiplicity
 _atom_site_fract_x
 _atom_site_fract_y
 _atom_site_fract_z
 _atom_site_occupancy
  Ca2+  Ca0  1  0.17054773  0.08193655  0.16071019  1
  Ca2+  Ca1  1  0.16962090  0.07333159  0.50794453  1
  Ca2+  Ca2  1  0.16993413  0.07113870  0.84455249  1
  Ca2+  Ca3  1  0.17876829  0.59429717  0.16479015  1
  Ca2+  Ca4  1  0.17688929  0.58028495  0.51203169  1
  Ca2+  Ca5  1  0.17192175  0.58258592  0.83972445  1
  Ca2+  Ca6  1  0.66625018  0.08028641  0.17181507  1
  Ca2+  Ca7  1  0.66930996  0.08833289  0.50816427  1
  Ca2+  Ca8  1  0.67006895  0.08541921  0.83384306  1
  Ca2+  Ca9  1  0.65359760  0.57477123  0.17107297  1
  Ca2+  Ca10  1  0.66787284  0.58154515  0.50068080  1
  Ca2+  Ca11  1  0.67152331  0.58534673  0.84097472  1
  Ca2+  Ca12  1  0.08793487  0.32852035  0.15567437  1
  Ca2+  Ca13  1  0.08430642  0.33634276  0.49992608  1
  Ca2+  Ca14  1  0.09642773  0.33011741  0.83112055  1
  Ca2+  Ca15  1  0.07414338  0.83244462  0.15606400  1
  Ca2+  Ca16  1  0.08194938  0.82680587  0.50100753  1
  Ca2+  Ca17  1  0.09263278  0.82324478  0.83217468  1
  Ca2+  Ca18  1  0.58077616  0.33628476  0.16639353  1
  Ca2+  Ca19  1  0.58228740  0.32615999  0.48981501  1
  Ca2+  Ca20  1  0.58426855  0.33001474  0.83009387  1
  Ca2+  Ca21  1  0.57843191  0.81661459  0.15726578  1
  Ca2+  Ca22  1  0.57511696  0.82616871  0.49648127  1
  Ca2+  Ca23  1  0.56901284  0.82864614  0.83257524  1
  Ca2+  Ca24  1  0.33204440  0.42689959  0.16993508  1
  Ca2+  Ca25  1  0.33560247  0.42683347  0.50270056  1
  Ca2+  Ca26  1  0.32523588  0.42842820  0.83948749  1
  Ca2+  Ca27  1  0.33208274  0.91414891  0.16186448  1
  Ca2+  Ca28  1  0.32840906  0.91360826  0.51030772  1
  Ca2+  Ca29  1  0.32799450  0.91504417  0.84135649  1
  Ca2+  Ca30  1  0.82062058  0.41888496  0.16864150  1
  Ca2+  Ca31  1  0.82555244  0.42231477  0.50648990  1
  Ca2+  Ca32  1  0.82732840  0.42425893  0.83620752  1
  Ca2+  Ca33  1  0.83781073  0.91250097  0.17067777  1
  Ca2+  Ca34  1  0.83217402  0.92004936  0.50554527  1
  Ca2+  Ca35  1  0.83777647  0.92154442  0.83775866  1
  Ca2+  Ca36  1  0.41488303  0.17359723  0.16196083  1
  Ca2+  Ca37  1  0.42839556  0.17499800  0.49215376  1
  Ca2+  Ca38  1  0.41915161  0.16567999  0.82740307  1
  Ca2+  Ca39  1  0.42195879  0.66162432  0.16016348  1
  Ca2+  Ca40  1  0.41275815  0.66707445  0.49713274  1
  Ca2+  Ca41  1  0.40623105  0.67291300  0.83238598  1
  Ca2+  Ca42  1  0.92534317  0.17107462  0.15885025  1
  Ca2+  Ca43  1  0.91577190  0.16583632  0.49887452  1
  Ca2+  Ca44  1  0.92218498  0.16669545  0.83157837  1
  Ca2+  Ca45  1  0.92149688  0.67870922  0.15638679  1
  Ca2+  Ca46  1  0.92278445  0.66507242  0.49753231  1
  Ca2+  Ca47  1  0.92893839  0.66541074  0.82912301  1
  Al0+  Al48  1  0.00062762  0.00436876  -0.00250044  1
  Al0+  Al49  1  -0.00010205  0.00022989  0.33169896  1
  Al0+  Al50  1  -0.00060746  0.00041328  0.67366527  1
  Al0+  Al51  1  -0.00407367  0.49997350  0.00163548  1
  Al0+  Al52  1  0.00062655  0.49965256  0.33058193  1
  Al0+  Al53  1  -0.00192357  0.49793950  0.66793706  1
  Al0+  Al54  1  0.50271087  0.00005066  0.00144818  1
  Al0+  Al55  1  0.50041566  -0.00006807  0.33189329  1
  Al0+  Al56  1  0.50141366  -0.00108195  0.65670493  1
  Al0+  Al57  1  0.50080805  0.49705592  0.00105107  1
  Al0+  Al58  1  0.49867818  0.49838045  0.33722763  1
  Al0+  Al59  1  0.49963447  0.49996350  0.67080194  1
  Al0+  Al60  1  0.25146180  0.24957686  0.00070168  1
  Al0+  Al61  1  0.25046657  0.24865965  0.33166071  1
  Al0+  Al62  1  0.25171283  0.24908157  0.66391905  1
  Al0+  Al63  1  0.24833891  0.75164817  0.00387827  1
  Al0+  Al64  1  0.24854311  0.75085186  0.33884620  1
  Al0+  Al65  1  0.24837908  0.75005875  0.66324331  1
  Al0+  Al66  1  0.75082212  0.25059363  0.00432639  1
  Al0+  Al67  1  0.75167472  0.24943017  0.33305694  1
  Al0+  Al68  1  0.75184437  0.24885806  0.66742893  1
  Al0+  Al69  1  0.74967923  0.75251880  -0.00772276  1
  Al0+  Al70  1  0.74972580  0.75074747  0.32773243  1
  Al0+  Al71  1  0.74875534  0.75098291  0.67116437  1
  Al0+  Al72  1  0.68061991  0.42922137  0.34837389  1
  Al0+  Al73  1  0.07005132  0.67838121  0.98546232  1
  Al0+  Al74  1  0.32508299  0.07110661  0.01444275  1
  Al0+  Al75  1  0.81970127  0.07097203  0.68129560  1
  Al0+  Al76  1  0.17813131  0.92950568  0.01675679  1
  Al0+  Al77  1  0.57175796  0.18115430  0.65382163  1
  Al0+  Al78  1  0.56964520  0.67452040  0.98353178  1
  Al0+  Al79  1  0.17652368  0.42877592  0.01527988  1
  Al0+  Al80  1  0.17942431  0.92996343  0.68005629  1
  Al0+  Al81  1  0.56869648  0.67984131  0.32221203  1
  Al0+  Al82  1  0.82037769  0.57269855  0.67959818  1
  Al0+  Al83  1  0.32140422  0.57163032  0.68263938  1
  Al0+  Al84  1  0.17826565  0.42656444  0.68001575  1
  Al0+  Al85  1  0.42945938  0.82116832  0.98664160  1
  Al0+  Al86  1  0.57368912  0.17810628  0.31579655  1
  Al0+  Al87  1  0.42903398  0.32035845  0.31670116  1
  Al0+  Al88  1  0.31927063  0.57061058  0.34872443  1
  Al0+  Al89  1  0.06894560  0.67730612  0.65198532  1
  Al0+  Al90  1  0.07253168  0.18330690  0.98494066  1
  Al0+  Al91  1  0.67984589  0.42912344  0.01371131  1
  Al0+  Al92  1  0.31965906  0.57170906  0.01597670  1
  Al0+  Al93  1  0.42854560  0.81815587  0.65234393  1
  Al0+  Al94  1  0.93064260  0.82055600  0.32227053  1
  Al0+  Al95  1  0.92844306  0.82433214  0.98226910  1
  Si0+  Si96  1  0.42741252  0.32313610  0.64965097  1
  Si0+  Si97  1  0.07272865  0.67714248  0.31741149  1
  Si0+  Si98  1  0.92906453  0.32234699  0.31861734  1
  Si0+  Si99  1  0.92878781  0.31926530  0.65096206  1
  Si0+  Si100  1  0.81996132  0.57533271  0.01759128  1
  Si0+  Si101  1  0.57456031  0.67633487  0.65015192  1
  Si0+  Si102  1  0.42465080  0.82298313  0.31700431  1
  Si0+  Si103  1  0.57339253  0.17883816  0.98525660  1
  Si0+  Si104  1  0.82066642  0.07135987  0.01698448  1
  Si0+  Si105  1  0.67902698  0.42769897  0.68225049  1
  Si0+  Si106  1  0.32223384  0.07236052  0.34990964  1
  Si0+  Si107  1  0.67570034  0.92822216  0.68381827  1
  Si0+  Si108  1  0.17821663  0.93220358  0.34939394  1
  Si0+  Si109  1  0.82120901  0.06893118  0.34771673  1
  Si0+  Si110  1  0.07160339  0.17736501  0.65133096  1
  Si0+  Si111  1  0.67844169  0.92713486  0.34776333  1
  Si0+  Si112  1  0.68014300  0.92932219  0.01545155  1
  Si0+  Si113  1  0.82343983  0.57363114  0.34823518  1
  Si0+  Si114  1  0.92696867  0.82346968  0.65095553  1
  Si0+  Si115  1  0.17628621  0.42489570  0.34957349  1
  Si0+  Si116  1  0.32421429  0.07055174  0.67913518  1
  Si0+  Si117  1  0.06991166  0.17902239  0.31954958  1
  Si0+  Si118  1  0.42961800  0.31960504  0.98349090  1
  Si0+  Si119  1  0.92543868  0.32107712  0.98295529  1
  O2-  O120  1  0.25367786  -0.00107748  0.06602478  1
  O2-  O121  1  0.25390666  -0.00155185  0.39203987  1
  O2-  O122  1  0.25529882  0.00411026  0.72463100  1
  O2-  O123  1  0.24458173  0.50285580  0.06715504  1
  O2-  O124  1  0.24240306  0.49593156  0.39286701  1
  O2-  O125  1  0.24836115  0.49941165  0.73003344  1
  O2-  O126  1  0.75421654  -0.00319840  0.05944449  1
  O2-  O127  1  0.74679898  0.00155840  0.39015169  1
  O2-  O128  1  0.74628663  -0.00461778  0.72797482  1
  O2-  O129  1  0.74866110  0.50911253  0.06150321  1
  O2-  O130  1  0.75570463  0.50441418  0.39367141  1
  O2-  O131  1  0.74116563  0.50217913  0.72585964  1
  O2-  O132  1  0.00449931  0.25541639  0.27794231  1
  O2-  O133  1  0.00284881  0.25052679  0.60823952  1
  O2-  O134  1  0.00135207  0.26138189  0.93766380  1
  O2-  O135  1  0.00160588  0.74368664  0.27484593  1
  O2-  O136  1  -0.00793134  0.75182295  0.60611239  1
  O2-  O137  1  -0.00007371  0.75178537  0.93356664  1
  O2-  O138  1  0.50093963  0.24828317  0.26503909  1
  O2-  O139  1  0.49868886  0.25631852  0.60621772  1
  O2-  O140  1  0.50086647  0.24736425  0.94248979  1
  O2-  O141  1  0.49310639  0.75353916  0.27516545  1
  O2-  O142  1  0.50227646  0.74155737  0.60634428  1
  O2-  O143  1  0.49461735  0.74378402  0.93469917  1
  O2-  O144  1  0.06812482  0.18239653  0.09889000  1
  O2-  O145  1  0.06715469  0.17609106  0.42504210  1
  O2-  O146  1  0.07084660  0.17763067  0.75564323  1
  O2-  O147  1  0.06703720  0.68064305  0.09968932  1
  O2-  O148  1  0.07174671  0.67728005  0.42322940  1
  O2-  O149  1  0.06945014  0.67721617  0.76422137  1
  O2-  O150  1  0.57564775  0.17982084  0.08989348  1
  O2-  O151  1  0.57414476  0.17945289  0.42966200  1
  O2-  O152  1  0.57168220  0.18234357  0.76732037  1
  O2-  O153  1  0.56957090  0.67647487  0.09753569  1
  O2-  O154  1  0.57115037  0.68335434  0.43547325  1
  O2-  O155  1  0.57773414  0.67874848  0.75508056  1
  O2-  O156  1  0.17534322  0.42218844  0.24473622  1
  O2-  O157  1  0.17942472  0.42678365  0.56583021  1
  O2-  O158  1  0.18210570  0.42709523  0.90205807  1
  O2-  O159  1  0.17545616  0.93445157  0.24503642  1
  O2-  O160  1  0.17838135  0.93299556  0.56575124  1
  O2-  O161  1  0.17857343  0.93159725  0.90333967  1
  O2-  O162  1  0.68312611  0.42894725  0.23554018  1
  O2-  O163  1  0.68251856  0.42526359  0.57651463  1
  O2-  O164  1  0.68483217  0.42335545  0.90067700  1
  O2-  O165  1  0.68091517  0.92746228  0.24288634  1
  O2-  O166  1  0.67728579  0.92854537  0.57760620  1
  O2-  O167  1  0.67824205  0.93417344  0.91058089  1
  O2-  O168  1  0.43030349  0.31944710  0.08835987  1
  O2-  O169  1  0.43029795  0.31741775  0.43065403  1
  O2-  O170  1  0.42668336  0.32039880  0.75520807  1
  O2-  O171  1  0.43554838  0.82350469  0.10036449  1
  O2-  O172  1  0.42530379  0.82364169  0.42293676  1
  O2-  O173  1  0.42996206  0.82215473  0.76466559  1
  O2-  O174  1  0.92208521  0.31458088  0.08888498  1
  O2-  O175  1  0.92786325  0.32106736  0.42386601  1
  O2-  O176  1  0.92380699  0.31645438  0.75537215  1
  O2-  O177  1  0.92878460  0.82277814  0.09663057  1
  O2-  O178  1  0.93255907  0.82345585  0.43537161  1
  O2-  O179  1  0.92845747  0.82471682  0.75567094  1
  O2-  O180  1  0.32020831  0.07432907  0.24542346  1
  O2-  O181  1  0.32101105  0.06977723  0.57298622  1
  O2-  O182  1  0.32522660  0.07089008  0.90048518  1
  O2-  O183  1  0.31833954  0.57248758  0.23620259  1
  O2-  O184  1  0.32117560  0.56937495  0.56861728  1
  O2-  O185  1  0.31992971  0.56953880  0.90277552  1
  O2-  O186  1  0.82418230  0.06757538  0.24285418  1
  O2-  O187  1  0.82019787  0.07053459  0.56743520  1
  O2-  O188  1  0.81734144  0.07463330  0.91203013  1
  O2-  O189  1  0.82502267  0.57194286  0.24315358  1
  O2-  O190  1  0.82013956  0.56965984  0.56581036  1
  O2-  O191  1  0.81995598  0.57200192  0.91180172  1
  O2-  O192  1  0.03502086  0.09082967  0.27009966  1
  O2-  O193  1  0.03880874  0.08679494  0.60340129  1
  O2-  O194  1  0.03661204  0.08935565  0.93021598  1
  O2-  O195  1  0.05214793  0.58236977  0.27183937  1
  O2-  O196  1  0.03710791  0.58037774  0.59782831  1
  O2-  O197  1  0.03963602  0.57931272  0.93397678  1
  O2-  O198  1  0.54818318  0.07748229  0.26612393  1
  O2-  O199  1  0.54429556  0.08520614  0.59653431  1
  O2-  O200  1  0.54898158  0.08656608  0.93782762  1
  O2-  O201  1  0.53877778  0.58260781  0.27087199  1
  O2-  O202  1  0.55322019  0.58004518  0.60732885  1
  O2-  O203  1  0.54945311  0.57365226  0.93284776  1
  O2-  O204  1  0.16305202  0.20073145  0.27317427  1
  O2-  O205  1  0.16406696  0.20171296  0.60212461  1
  O2-  O206  1  0.17018576  0.20873741  0.93081083  1
  O2-  O207  1  0.16516250  0.70835354  0.27314647  1
  O2-  O208  1  0.16304115  0.71191369  0.59526396  1
  O2-  O209  1  0.16924052  0.70632377  0.93502129  1
  O2-  O210  1  0.67357520  0.20489663  0.26485746  1
  O2-  O211  1  0.66905842  0.21126351  0.59985895  1
  O2-  O212  1  0.66475664  0.21012837  0.93834542  1
  O2-  O213  1  0.66434248  0.71017101  0.26596075  1
  O2-  O214  1  0.66705467  0.70594102  0.60248899  1
  O2-  O215  1  0.66647057  0.70805198  0.93095195  1
  O2-  O216  1  0.07366104  0.44696294  0.06422833  1
  O2-  O217  1  0.08053532  0.44788512  0.39412785  1
  O2-  O218  1  0.07728930  0.44647578  0.72958462  1
  O2-  O219  1  0.08083389  0.96598558  0.06882303  1
  O2-  O220  1  0.08850371  0.96663776  0.39792629  1
  O2-  O221  1  0.08476722  0.96165632  0.73517543  1
  O2-  O222  1  0.58247963  0.45358958  0.06834294  1
  O2-  O223  1  0.58470567  0.45828991  0.40336174  1
  O2-  O224  1  0.58336897  0.44457190  0.72657630  1
  O2-  O225  1  0.59148038  0.96075643  0.06615595  1
  O2-  O226  1  0.58507615  0.95100066  0.39479111  1
  O2-  O227  1  0.58316006  0.95882118  0.72828660  1
  O2-  O228  1  0.20877456  0.33094625  0.06734892  1
  O2-  O229  1  0.20152015  0.33065567  0.39597679  1
  O2-  O230  1  0.20787176  0.32702715  0.73072331  1
  O2-  O231  1  0.20218687  0.83179989  0.07230687  1
  O2-  O232  1  0.20144350  0.83934759  0.39719014  1
  O2-  O233  1  0.20970352  0.83332811  0.73085527  1
  O2-  O234  1  0.71633933  0.33498657  0.07062191  1
  O2-  O235  1  0.71475457  0.33241237  0.40152093  1
  O2-  O236  1  0.71243822  0.33713835  0.72947250  1
  O2-  O237  1  0.70595956  0.83620660  0.06148196  1
  O2-  O238  1  0.70997913  0.83709755  0.39674788  1
  O2-  O239  1  0.69757957  0.83472165  0.73058339  1
  O2-  O240  1  0.45829270  0.41857011  0.26573888  1
  O2-  O241  1  0.45190470  0.41790053  0.60543343  1
  O2-  O242  1  0.46015616  0.40942446  0.93474747  1
  O2-  O243  1  0.44927071  0.91703784  0.27251431  1
  O2-  O244  1  0.46097884  0.91321042  0.59399742  1
  O2-  O245  1  0.46482997  0.91811706  0.93340569  1
  O2-  O246  1  0.95077282  0.41513663  0.27019101  1
  O2-  O247  1  0.95331133  0.41063720  0.60127453  1
  O2-  O248  1  0.93898041  0.41824998  0.94184953  1
  O2-  O249  1  0.96321342  0.91642183  0.26665985  1
  O2-  O250  1  0.95593562  0.91713586  0.60530584  1
  O2-  O251  1  0.95320219  0.92486050  0.93331620  1
  O2-  O252  1  0.33010563  0.29069240  0.26453629  1
  O2-  O253  1  0.33572646  0.29500563  0.60018402  1
  O2-  O254  1  0.33909046  0.29079240  0.93526497  1
  O2-  O255  1  0.32964006  0.79889996  0.27386975  1
  O2-  O256  1  0.33269551  0.78972520  0.59539018  1
  O2-  O257  1  0.32815941  0.80008420  0.93826030  1
  O2-  O258  1  0.84033795  0.28883258  0.26925996  1
  O2-  O259  1  0.83963318  0.28639056  0.60041250  1
  O2-  O260  1  0.83606002  0.28453376  0.93476596  1
  O2-  O261  1  0.83397758  0.79463739  0.26627772  1
  O2-  O262  1  0.83067734  0.80235754  0.60738448  1
  O2-  O263  1  0.82928870  0.80085955  0.92925466  1
  O2-  O264  1  0.42391830  0.04556724  0.06879201  1
  O2-  O265  1  0.41590673  0.04762239  0.39583473  1
  O2-  O266  1  0.41885138  0.04556652  0.72206038  1
  O2-  O267  1  0.41769113  0.53786700  0.06669068  1
  O2-  O268  1  0.41449042  0.53822987  0.40425152  1
  O2-  O269  1  0.42073208  0.54637030  0.73548868  1
  O2-  O270  1  0.91365993  0.04841817  0.06377004  1
  O2-  O271  1  0.91186100  0.03836646  0.39712174  1
  O2-  O272  1  0.91549245  0.04282949  0.73712775  1
  O2-  O273  1  0.91157266  0.54735068  0.06608588  1
  O2-  O274  1  0.91773939  0.54728370  0.39407606  1
  O2-  O275  1  0.91348218  0.53543811  0.73485289  1
  O2-  O276  1  0.29267280  0.16782302  0.06842628  1
  O2-  O277  1  0.29100325  0.16263678  0.39894970  1
  O2-  O278  1  0.30130123  0.16514597  0.72331035  1
  O2-  O279  1  0.29499454  0.67059849  0.06996945  1
  O2-  O280  1  0.28941576  0.66795521  0.40364395  1
  O2-  O281  1  0.29085656  0.67010980  0.73145063  1
  O2-  O282  1  0.78905540  0.16082831  0.06703508  1
  O2-  O283  1  0.79762059  0.16198244  0.39495906  1
  O2-  O284  1  0.78811772  0.16647718  0.73673897  1
  O2-  O285  1  0.79734358  0.67128462  0.05965780  1
  O2-  O286  1  0.79634374  0.66728606  0.39361381  1
  O2-  O287  1  0.79507135  0.67002362  0.73440318  1
