# generated using pymatgen
data_Ca2Al2SiO7
_symmetry_space_group_name_H-M   'P 1'
_cell_length_a   15.46279408
_cell_length_b   15.46424264
_cell_length_c   15.28846772
_cell_angle_alpha   89.97777146
_cell_angle_beta   89.99913073
_cell_angle_gamma   89.99899856
_symmetry_Int_Tables_number   1
_chemical_formula_structural   Ca2Al2SiO7
_chemical_formula_sum   'Ca48 Al48 Si24 O168'
_cell_volume   3655.78423302
_cell_formula_units_Z   24
loop_
 _symmetry_equiv_pos_site_id
 _symmetry_equiv_pos_as_xyz
  1  'x, y, z'
loop_
 _atom_type_symbol
 _atom_type_oxidation_number
  Ca2+  2.0
  Al0+  0.0
  Si0+  0.0
  O2-  -2.0
loop_
 _atom_site_type_symbol
 _atom_site_label
 _atom_site_symmetry_multiplicity
 _atom_site_fract_x
 _atom_site_fract_y
 _atom_site_fract_z
 _atom_site_occupancy
  Ca2+  Ca0  1  0.16942063  0.07991902  0.16880148  1
  Ca2+  Ca1  1  0.17714296  0.08565813  0.50939379  1
  Ca2+  Ca2  1  0.17390703  0.08311808  0.84113697  1
  Ca2+  Ca3  1  0.17686322  0.58640904  0.17070532  1
  Ca2+  Ca4  1  0.17017035  0.58507098  0.50939448  1
  Ca2+  Ca5  1  0.17214828  0.58221192  0.83403836  1
  Ca2+  Ca6  1  0.67309703  0.07614416  0.16790463  1
  Ca2+  Ca7  1  0.67089400  0.07862530  0.50213039  1
  Ca2+  Ca8  1  0.66775980  0.08308774  0.84309421  1
  Ca2+  Ca9  1  0.66781660  0.57961970  0.17079425  1
  Ca2+  Ca10  1  0.66782190  0.58477147  0.50747572  1
  Ca2+  Ca11  1  0.66388771  0.58352903  0.83452194  1
  Ca2+  Ca12  1  0.07640422  0.32218175  0.15632839  1
  Ca2+  Ca13  1  0.08678234  0.33244313  0.50415223  1
  Ca2+  Ca14  1  0.07821679  0.32543910  0.82704742  1
  Ca2+  Ca15  1  0.08611058  0.83303156  0.16506981  1
  Ca2+  Ca16  1  0.08414240  0.82130186  0.49353493  1
  Ca2+  Ca17  1  0.08936464  0.83010197  0.82906671  1
  Ca2+  Ca18  1  0.57916442  0.32350227  0.15782118  1
  Ca2+  Ca19  1  0.58121764  0.32549314  0.50078765  1
  Ca2+  Ca20  1  0.58062483  0.31895882  0.82974150  1
  Ca2+  Ca21  1  0.57912017  0.84170470  0.16012562  1
  Ca2+  Ca22  1  0.57898266  0.83191119  0.50065512  1
  Ca2+  Ca23  1  0.57033795  0.83574574  0.82820899  1
  Ca2+  Ca24  1  0.33631753  0.42928263  0.17180748  1
  Ca2+  Ca25  1  0.32506362  0.43021302  0.51072892  1
  Ca2+  Ca26  1  0.33123454  0.42817083  0.83379260  1
  Ca2+  Ca27  1  0.33180711  0.92491094  0.16167777  1
  Ca2+  Ca28  1  0.33691432  0.92451323  0.50458231  1
  Ca2+  Ca29  1  0.33235910  0.92057030  0.83935594  1
  Ca2+  Ca30  1  0.83442642  0.41253761  0.16622451  1
  Ca2+  Ca31  1  0.83451209  0.41514525  0.50755782  1
  Ca2+  Ca32  1  0.83958829  0.41173191  0.83510226  1
  Ca2+  Ca33  1  0.82627552  0.92523374  0.17511808  1
  Ca2+  Ca34  1  0.83217210  0.91374134  0.49820070  1
  Ca2+  Ca35  1  0.82304620  0.92460749  0.84599377  1
  Ca2+  Ca36  1  0.42026901  0.15670109  0.15908867  1
  Ca2+  Ca37  1  0.41914180  0.15761157  0.49820082  1
  Ca2+  Ca38  1  0.42595052  0.15155003  0.82826657  1
  Ca2+  Ca39  1  0.41211379  0.67269789  0.15776318  1
  Ca2+  Ca40  1  0.41078327  0.67072080  0.49883809  1
  Ca2+  Ca41  1  0.41164988  0.67776891  0.82681051  1
  Ca2+  Ca42  1  0.91543545  0.16621884  0.15552213  1
  Ca2+  Ca43  1  0.92163304  0.16746929  0.49961099  1
  Ca2+  Ca44  1  0.92803093  0.16829518  0.83008788  1
  Ca2+  Ca45  1  0.92146374  0.67517931  0.16685754  1
  Ca2+  Ca46  1  0.93101795  0.67036833  0.49298658  1
  Ca2+  Ca47  1  0.92491692  0.67091044  0.82461826  1
  Al0+  Al48  1  -0.00011635  -0.00079740  0.00264457  1
  Al0+  Al49  1  -0.00046266  -0.00004777  0.33497917  1
  Al0+  Al50  1  -0.00115678  0.00237437  0.66305837  1
  Al0+  Al51  1  0.00031452  0.50088758  -0.00130711  1
  Al0+  Al52  1  0.00035399  0.49823569  0.32698754  1
  Al0+  Al53  1  -0.00096697  0.50099164  0.66361694  1
  Al0+  Al54  1  0.49898587  -0.00213773  -0.00194154  1
  Al0+  Al55  1  0.50203551  -0.00188361  0.33928969  1
  Al0+  Al56  1  0.50138807  -0.00174162  0.66010527  1
  Al0+  Al57  1  0.50158139  0.49960259  0.00411383  1
  Al0+  Al58  1  0.49945279  0.49920446  0.33779457  1
  Al0+  Al59  1  0.50236220  0.49914881  0.66884487  1
  Al0+  Al60  1  0.25041870  0.25361903  -0.00006330  1
  Al0+  Al61  1  0.25085803  0.25261633  0.33531529  1
  Al0+  Al62  1  0.25096415  0.25181134  0.67281511  1
  Al0+  Al63  1  0.25098601  0.75050118  0.00337027  1
  Al0+  Al64  1  0.25245570  0.75087540  0.33128617  1
  Al0+  Al65  1  0.24991592  0.75280061  0.66044986  1
  Al0+  Al66  1  0.74755504  0.25198118  -0.00349536  1
  Al0+  Al67  1  0.74894467  0.24787221  0.33646097  1
  Al0+  Al68  1  0.74884511  0.24984603  0.65916933  1
  Al0+  Al69  1  0.75043515  0.74749554  0.00403571  1
  Al0+  Al70  1  0.75015684  0.74802511  0.33357390  1
  Al0+  Al71  1  0.74763558  0.74989068  0.66607779  1
  Al0+  Al72  1  0.42870779  0.82020922  0.64891984  1
  Al0+  Al73  1  0.17612340  0.43001681  0.68381139  1
  Al0+  Al74  1  0.32217014  0.06988823  0.68022233  1
  Al0+  Al75  1  0.17785999  0.92829438  0.01423384  1
  Al0+  Al76  1  0.07351841  0.67837063  0.31497939  1
  Al0+  Al77  1  0.92879306  0.32159240  0.98516100  1
  Al0+  Al78  1  0.07336615  0.17570215  0.98593267  1
  Al0+  Al79  1  0.32055812  0.57194416  0.34828318  1
  Al0+  Al80  1  0.07440009  0.17830265  0.65051811  1
  Al0+  Al81  1  0.92840549  0.82160137  0.31705946  1
  Al0+  Al82  1  0.67802803  0.92723198  0.01334808  1
  Al0+  Al83  1  0.56935156  0.17838719  0.65066826  1
  Al0+  Al84  1  0.42996320  0.81868787  0.98722090  1
  Al0+  Al85  1  0.82270785  0.07220088  0.35119698  1
  Al0+  Al86  1  0.32190410  0.57414995  0.68256675  1
  Al0+  Al87  1  0.32099054  0.07344026  0.01256069  1
  Al0+  Al88  1  0.67974624  0.92650613  0.35151630  1
  Al0+  Al89  1  0.56616406  0.17941571  0.98815854  1
  Al0+  Al90  1  0.93008980  0.32010062  0.65011360  1
  Al0+  Al91  1  0.31967077  0.07134923  0.34704061  1
  Al0+  Al92  1  0.32056312  0.56946351  0.01353280  1
  Al0+  Al93  1  0.06996054  0.68146174  0.65487553  1
  Al0+  Al94  1  0.81992328  0.07285499  0.01217021  1
  Al0+  Al95  1  0.57145758  0.67726481  0.65226922  1
  Si0+  Si96  1  0.82156834  0.56826060  0.34783900  1
  Si0+  Si97  1  0.92632415  0.82050377  0.98574083  1
  Si0+  Si98  1  0.67889282  0.42820120  0.34928436  1
  Si0+  Si99  1  0.57060083  0.67579440  0.31776778  1
  Si0+  Si100  1  0.67983216  0.42991408  0.01518069  1
  Si0+  Si101  1  0.56958257  0.17869602  0.31755928  1
  Si0+  Si102  1  0.42818136  0.32371044  0.65073304  1
  Si0+  Si103  1  0.42756540  0.32687387  0.98393712  1
  Si0+  Si104  1  0.17556008  0.92960753  0.68009426  1
  Si0+  Si105  1  0.68082796  0.92878182  0.68240924  1
  Si0+  Si106  1  0.92662661  0.31892029  0.31765753  1
  Si0+  Si107  1  0.67987410  0.42644357  0.68281225  1
  Si0+  Si108  1  0.57414000  0.67511015  0.98531906  1
  Si0+  Si109  1  0.82376265  0.57136991  0.01598912  1
  Si0+  Si110  1  0.43183225  0.82162883  0.31566314  1
  Si0+  Si111  1  0.17700161  0.42884833  0.34917127  1
  Si0+  Si112  1  0.82022457  0.07273834  0.68188660  1
  Si0+  Si113  1  0.42982389  0.32186693  0.31929327  1
  Si0+  Si114  1  0.07332384  0.18009321  0.31972964  1
  Si0+  Si115  1  0.17557597  0.42957467  0.01830173  1
  Si0+  Si116  1  0.07053153  0.68111798  0.98493669  1
  Si0+  Si117  1  0.92521327  0.82361766  0.65235992  1
  Si0+  Si118  1  0.81961627  0.57113356  0.68095382  1
  Si0+  Si119  1  0.17783642  0.92850956  0.35081179  1
  O2-  O120  1  0.24434473  0.00657214  0.06320730  1
  O2-  O121  1  0.24330216  -0.00027694  0.39541461  1
  O2-  O122  1  0.24222668  -0.00017077  0.72434907  1
  O2-  O123  1  0.24824574  0.49382419  0.06300125  1
  O2-  O124  1  0.24115023  0.50186542  0.39285224  1
  O2-  O125  1  0.24920939  0.50241881  0.73208416  1
  O2-  O126  1  0.75146029  -0.00214310  0.06288421  1
  O2-  O127  1  0.75372859  -0.00302997  0.40116973  1
  O2-  O128  1  0.75235728  -0.00097963  0.72417119  1
  O2-  O129  1  0.75208545  0.50006336  0.05721841  1
  O2-  O130  1  0.75095808  0.49775947  0.39175275  1
  O2-  O131  1  0.74965693  0.49939381  0.72420783  1
  O2-  O132  1  -0.00333699  0.24617959  0.27777507  1
  O2-  O133  1  0.00314983  0.25063045  0.59863536  1
  O2-  O134  1  0.00017247  0.24826615  0.93768951  1
  O2-  O135  1  0.00314177  0.75272409  0.26555531  1
  O2-  O136  1  -0.00292841  0.75820020  0.60884989  1
  O2-  O137  1  0.00023653  0.75296751  0.94250083  1
  O2-  O138  1  0.49621234  0.24734093  0.27525918  1
  O2-  O139  1  0.49111801  0.25019676  0.60458394  1
  O2-  O140  1  0.48684820  0.24956557  0.94079786  1
  O2-  O141  1  0.50155590  0.74776967  0.27466731  1
  O2-  O142  1  0.49673510  0.74353748  0.59915444  1
  O2-  O143  1  0.50687036  0.74472520  0.94253073  1
  O2-  O144  1  0.07212623  0.17880611  0.10050197  1
  O2-  O145  1  0.07610740  0.18440152  0.42434497  1
  O2-  O146  1  0.07063987  0.17491639  0.76342743  1
  O2-  O147  1  0.06859128  0.67986985  0.08983793  1
  O2-  O148  1  0.07082566  0.67714804  0.42857999  1
  O2-  O149  1  0.06758493  0.68236572  0.76850801  1
  O2-  O150  1  0.56774024  0.18274146  0.10175790  1
  O2-  O151  1  0.56987948  0.18163601  0.42263556  1
  O2-  O152  1  0.57168935  0.17947621  0.76375537  1
  O2-  O153  1  0.57365766  0.67160877  0.09128189  1
  O2-  O154  1  0.56970344  0.67313042  0.42239472  1
  O2-  O155  1  0.57667971  0.68167583  0.76557940  1
  O2-  O156  1  0.17983502  0.42647417  0.24360948  1
  O2-  O157  1  0.17719311  0.43324981  0.56950769  1
  O2-  O158  1  0.17256232  0.43408695  0.91340224  1
  O2-  O159  1  0.17928829  0.92931995  0.24534026  1
  O2-  O160  1  0.17529347  0.92963217  0.57437099  1
  O2-  O161  1  0.18077643  0.92303957  0.90084421  1
  O2-  O162  1  0.67868150  0.42859139  0.24397895  1
  O2-  O163  1  0.68124028  0.42601709  0.57727283  1
  O2-  O164  1  0.67752334  0.43130455  0.91045033  1
  O2-  O165  1  0.67722007  0.93039697  0.23815282  1
  O2-  O166  1  0.68317528  0.92762263  0.57742083  1
  O2-  O167  1  0.67987406  0.92705675  0.89938899  1
  O2-  O168  1  0.43472063  0.33272928  0.08980449  1
  O2-  O169  1  0.43309380  0.32346534  0.42397224  1
  O2-  O170  1  0.43426058  0.32718542  0.75602929  1
  O2-  O171  1  0.43070814  0.81765605  0.10080523  1
  O2-  O172  1  0.43208132  0.82136239  0.42046025  1
  O2-  O173  1  0.43052001  0.82176384  0.76249465  1
  O2-  O174  1  0.92963328  0.32252146  0.09952113  1
  O2-  O175  1  0.92558205  0.32206198  0.42212233  1
  O2-  O176  1  0.92802387  0.31724807  0.76316400  1
  O2-  O177  1  0.92363825  0.81578827  0.09024937  1
  O2-  O178  1  0.92884162  0.81538693  0.43092328  1
  O2-  O179  1  0.92291711  0.82061311  0.75827807  1
  O2-  O180  1  0.31976503  0.07087449  0.23433023  1
  O2-  O181  1  0.32203209  0.06691342  0.56658701  1
  O2-  O182  1  0.32326547  0.06714480  0.89943821  1
  O2-  O183  1  0.32390385  0.56854771  0.23496804  1
  O2-  O184  1  0.31994609  0.57172904  0.56876914  1
  O2-  O185  1  0.31952505  0.57007812  0.90110077  1
  O2-  O186  1  0.81790593  0.07749574  0.23790560  1
  O2-  O187  1  0.81913711  0.07199086  0.57687443  1
  O2-  O188  1  0.81745240  0.07149057  0.89815245  1
  O2-  O189  1  0.81931385  0.56608323  0.24249373  1
  O2-  O190  1  0.81798628  0.57069707  0.57565641  1
  O2-  O191  1  0.82417392  0.57403898  0.91102755  1
  O2-  O192  1  0.05165710  0.08558940  0.27609487  1
  O2-  O193  1  0.04414893  0.08065673  0.59548237  1
  O2-  O194  1  0.04665897  0.07648973  0.93365416  1
  O2-  O195  1  0.04235646  0.58018253  0.26178936  1
  O2-  O196  1  0.03563758  0.58741535  0.59904965  1
  O2-  O197  1  0.04024464  0.59022028  0.93772390  1
  O2-  O198  1  0.54298952  0.08552117  0.27334194  1
  O2-  O199  1  0.54172469  0.08274050  0.59444927  1
  O2-  O200  1  0.54017643  0.08272281  0.93286379  1
  O2-  O201  1  0.54283016  0.58310001  0.27061975  1
  O2-  O202  1  0.55332908  0.57520746  0.60245898  1
  O2-  O203  1  0.54841876  0.58155084  0.93932090  1
  O2-  O204  1  0.16290222  0.21344510  0.27062361  1
  O2-  O205  1  0.17401502  0.20783818  0.60015046  1
  O2-  O206  1  0.17241475  0.20512191  0.93444966  1
  O2-  O207  1  0.17260762  0.70731605  0.26324833  1
  O2-  O208  1  0.16466409  0.71071034  0.59763816  1
  O2-  O209  1  0.16233158  0.70893665  0.93888503  1
  O2-  O210  1  0.66063248  0.21086471  0.27123325  1
  O2-  O211  1  0.66257590  0.21478604  0.59369209  1
  O2-  O212  1  0.66008669  0.21627852  0.93271329  1
  O2-  O213  1  0.66414849  0.69901819  0.27161399  1
  O2-  O214  1  0.66882409  0.70894813  0.59693488  1
  O2-  O215  1  0.66957775  0.69635133  0.94095341  1
  O2-  O216  1  0.08375334  0.46003788  0.06645540  1
  O2-  O217  1  0.08080839  0.44933313  0.39207355  1
  O2-  O218  1  0.07722664  0.46025291  0.73485893  1
  O2-  O219  1  0.07807542  0.94915019  0.06805544  1
  O2-  O220  1  0.08278946  0.94779251  0.39563095  1
  O2-  O221  1  0.08010680  0.95036073  0.72558235  1
  O2-  O222  1  0.59039602  0.45898369  0.06740245  1
  O2-  O223  1  0.58846013  0.45702388  0.39829110  1
  O2-  O224  1  0.58886912  0.45198278  0.73218338  1
  O2-  O225  1  0.58116584  0.95821983  0.06630090  1
  O2-  O226  1  0.58354998  0.95842587  0.40654096  1
  O2-  O227  1  0.58883178  0.95885837  0.72650746  1
  O2-  O228  1  0.19671011  0.33462965  0.06324577  1
  O2-  O229  1  0.20749848  0.33814452  0.39817570  1
  O2-  O230  1  0.20390672  0.33230951  0.73777237  1
  O2-  O231  1  0.21225593  0.83313778  0.07096483  1
  O2-  O232  1  0.20794944  0.83554627  0.39538452  1
  O2-  O233  1  0.20299232  0.83637693  0.72532782  1
  O2-  O234  1  0.70704690  0.33924021  0.06508853  1
  O2-  O235  1  0.70570934  0.33665446  0.39709644  1
  O2-  O236  1  0.71043564  0.33520390  0.72961146  1
  O2-  O237  1  0.70327220  0.82754409  0.06629627  1
  O2-  O238  1  0.70577433  0.82603122  0.40240822  1
  O2-  O239  1  0.70701177  0.83674209  0.73032202  1
  O2-  O240  1  0.46348571  0.41187785  0.27050414  1
  O2-  O241  1  0.46081795  0.41427060  0.60190266  1
  O2-  O242  1  0.46458461  0.41572838  0.93510122  1
  O2-  O243  1  0.46358642  0.91296055  0.26966935  1
  O2-  O244  1  0.46499140  0.91454252  0.59285070  1
  O2-  O245  1  0.46036562  0.91373531  0.93107752  1
  O2-  O246  1  0.95356794  0.41019052  0.26812784  1
  O2-  O247  1  0.95390998  0.42012811  0.59764337  1
  O2-  O248  1  0.95695322  0.42099241  0.93301383  1
  O2-  O249  1  0.95199857  0.92254942  0.26694884  1
  O2-  O250  1  0.94539678  0.91800673  0.60662115  1
  O2-  O251  1  0.94907427  0.91359063  0.93982845  1
  O2-  O252  1  0.33633102  0.30020142  0.27259036  1
  O2-  O253  1  0.33228984  0.30522448  0.60813744  1
  O2-  O254  1  0.33011150  0.31527900  0.94328626  1
  O2-  O255  1  0.33957039  0.79572095  0.26893091  1
  O2-  O256  1  0.33018060  0.79764787  0.59375616  1
  O2-  O257  1  0.33416532  0.78505224  0.93359218  1
  O2-  O258  1  0.83332959  0.29288880  0.27115312  1
  O2-  O259  1  0.83221532  0.29145084  0.59541223  1
  O2-  O260  1  0.82847963  0.29991206  0.93402686  1
  O2-  O261  1  0.83081585  0.78735023  0.26441424  1
  O2-  O262  1  0.83394754  0.79317485  0.60497210  1
  O2-  O263  1  0.83604867  0.78776316  0.93704205  1
  O2-  O264  1  0.41662925  0.03711467  0.06687512  1
  O2-  O265  1  0.41567410  0.03837025  0.40045266  1
  O2-  O266  1  0.41921812  0.03397583  0.73026852  1
  O2-  O267  1  0.41805715  0.54015010  0.06840590  1
  O2-  O268  1  0.41584963  0.53705390  0.40252300  1
  O2-  O269  1  0.42150561  0.54480683  0.73339055  1
  O2-  O270  1  0.91849175  0.04744959  0.06497005  1
  O2-  O271  1  0.92270761  0.04794632  0.40308659  1
  O2-  O272  1  0.91377001  0.04828266  0.72726679  1
  O2-  O273  1  0.91432403  0.54254022  0.06528442  1
  O2-  O274  1  0.91402933  0.53945651  0.39325976  1
  O2-  O275  1  0.91094678  0.54450708  0.72898172  1
  O2-  O276  1  0.30489474  0.17640852  0.06244581  1
  O2-  O277  1  0.29345722  0.17015244  0.39954154  1
  O2-  O278  1  0.30149882  0.16906311  0.73239024  1
  O2-  O279  1  0.28713943  0.66402923  0.06909892  1
  O2-  O280  1  0.29464859  0.67067811  0.39914715  1
  O2-  O281  1  0.29201180  0.67397592  0.73115646  1
  O2-  O282  1  0.78847370  0.17113581  0.06437283  1
  O2-  O283  1  0.78919895  0.16921136  0.40550706  1
  O2-  O284  1  0.78759887  0.16395327  0.72627580  1
  O2-  O285  1  0.79507933  0.66097717  0.06725612  1
  O2-  O286  1  0.79398339  0.65921741  0.39568597  1
  O2-  O287  1  0.79102232  0.66242045  0.72970991  1
