# generated using pymatgen
data_Ca2Al2SiO7
_symmetry_space_group_name_H-M   'P 1'
_cell_length_a   15.46096236
_cell_length_b   15.45939567
_cell_length_c   15.28542202
_cell_angle_alpha   89.99132000
_cell_angle_beta   90.00623109
_cell_angle_gamma   89.98397993
_symmetry_Int_Tables_number   1
_chemical_formula_structural   Ca2Al2SiO7
_chemical_formula_sum   'Ca48 Al48 Si24 O168'
_cell_volume   3653.47756551
_cell_formula_units_Z   24
loop_
 _symmetry_equiv_pos_site_id
 _symmetry_equiv_pos_as_xyz
  1  'x, y, z'
loop_
 _atom_type_symbol
 _atom_type_oxidation_number
  Ca2+  2.0
  Al0+  0.0
  Si0+  0.0
  O2-  -2.0
loop_
 _atom_site_type_symbol
 _atom_site_label
 _atom_site_symmetry_multiplicity
 _atom_site_fract_x
 _atom_site_fract_y
 _atom_site_fract_z
 _atom_site_occupancy
  Ca2+  Ca0  1  0.16796018  0.08280417  0.17309093  1
  Ca2+  Ca1  1  0.16849139  0.08396481  0.50733610  1
  Ca2+  Ca2  1  0.17265541  0.09157558  0.83201882  1
  Ca2+  Ca3  1  0.17359677  0.57575639  0.17280631  1
  Ca2+  Ca4  1  0.17699585  0.58157756  0.50696374  1
  Ca2+  Ca5  1  0.17584633  0.58269491  0.84121675  1
  Ca2+  Ca6  1  0.66263194  0.07059697  0.17458543  1
  Ca2+  Ca7  1  0.66259758  0.08268542  0.50799833  1
  Ca2+  Ca8  1  0.66870291  0.08102012  0.83483578  1
  Ca2+  Ca9  1  0.66133936  0.58258183  0.17502887  1
  Ca2+  Ca10  1  0.65868708  0.57675572  0.49828297  1
  Ca2+  Ca11  1  0.66595020  0.58462798  0.83982653  1
  Ca2+  Ca12  1  0.09542352  0.33290419  0.16593930  1
  Ca2+  Ca13  1  0.08447154  0.32430149  0.49618376  1
  Ca2+  Ca14  1  0.07933451  0.33265272  0.82499382  1
  Ca2+  Ca15  1  0.07508992  0.82515673  0.15653769  1
  Ca2+  Ca16  1  0.08746741  0.82529099  0.49924375  1
  Ca2+  Ca17  1  0.08746895  0.82068749  0.83102119  1
  Ca2+  Ca18  1  0.57967111  0.33298472  0.16369898  1
  Ca2+  Ca19  1  0.58102931  0.32314729  0.49664938  1
  Ca2+  Ca20  1  0.56899681  0.33096915  0.82538883  1
  Ca2+  Ca21  1  0.58299664  0.82621677  0.16456367  1
  Ca2+  Ca22  1  0.57140532  0.83180861  0.49055348  1
  Ca2+  Ca23  1  0.58105005  0.82940815  0.83228173  1
  Ca2+  Ca24  1  0.32985905  0.42623019  0.16974404  1
  Ca2+  Ca25  1  0.33630174  0.42778095  0.50527750  1
  Ca2+  Ca26  1  0.33319357  0.42297308  0.84163881  1
  Ca2+  Ca27  1  0.33511239  0.91638169  0.17221066  1
  Ca2+  Ca28  1  0.34009604  0.92007810  0.50836204  1
  Ca2+  Ca29  1  0.33958754  0.92254990  0.82923155  1
  Ca2+  Ca30  1  0.82509158  0.42168988  0.17469892  1
  Ca2+  Ca31  1  0.82645474  0.40776369  0.50262075  1
  Ca2+  Ca32  1  0.83350390  0.41392783  0.83371350  1
  Ca2+  Ca33  1  0.82144679  0.90860049  0.16943352  1
  Ca2+  Ca34  1  0.82315183  0.92357739  0.50563218  1
  Ca2+  Ca35  1  0.83081451  0.92099574  0.84036044  1
  Ca2+  Ca36  1  0.42325483  0.17439055  0.16359462  1
  Ca2+  Ca37  1  0.42211815  0.16803540  0.49848357  1
  Ca2+  Ca38  1  0.41705114  0.17894639  0.82301961  1
  Ca2+  Ca39  1  0.42333770  0.65953348  0.16591746  1
  Ca2+  Ca40  1  0.41212134  0.67533336  0.49382739  1
  Ca2+  Ca41  1  0.41698354  0.66584893  0.82812561  1
  Ca2+  Ca42  1  0.92325496  0.16765583  0.16723323  1
  Ca2+  Ca43  1  0.92323397  0.16528785  0.50057592  1
  Ca2+  Ca44  1  0.92154535  0.17119961  0.82047190  1
  Ca2+  Ca45  1  0.92247374  0.67110337  0.15529676  1
  Ca2+  Ca46  1  0.92439560  0.66349803  0.49974294  1
  Ca2+  Ca47  1  0.92917059  0.67003604  0.83134182  1
  Al0+  Al48  1  0.00034146  0.00231799  -0.00258003  1
  Al0+  Al49  1  0.00023019  0.00119580  0.32890773  1
  Al0+  Al50  1  -0.00266240  -0.00218809  0.66904265  1
  Al0+  Al51  1  0.00036174  0.49811044  0.00067651  1
  Al0+  Al52  1  -0.00025713  0.49853336  0.33637140  1
  Al0+  Al53  1  -0.00198035  0.50061141  0.65841972  1
  Al0+  Al54  1  0.50252171  -0.00060245  0.00500869  1
  Al0+  Al55  1  0.49958076  0.00034634  0.32891605  1
  Al0+  Al56  1  0.49820704  -0.00186018  0.66786857  1
  Al0+  Al57  1  0.49993290  0.49996442  -0.00451176  1
  Al0+  Al58  1  0.50036318  0.50087298  0.33999487  1
  Al0+  Al59  1  0.50031766  0.49967604  0.66841853  1
  Al0+  Al60  1  0.25185975  0.25083121  0.00030470  1
  Al0+  Al61  1  0.24948870  0.24911647  0.33182422  1
  Al0+  Al62  1  0.24919073  0.25094594  0.66290982  1
  Al0+  Al63  1  0.25234254  0.75262490  0.00127375  1
  Al0+  Al64  1  0.24798815  0.75119143  0.33124247  1
  Al0+  Al65  1  0.25057489  0.74898608  0.66397220  1
  Al0+  Al66  1  0.75224450  0.24814901  0.00219860  1
  Al0+  Al67  1  0.75222573  0.24997148  0.33117853  1
  Al0+  Al68  1  0.74936250  0.24851941  0.66670861  1
  Al0+  Al69  1  0.74945736  0.75131922  -0.00504076  1
  Al0+  Al70  1  0.74912212  0.75157612  0.33834726  1
  Al0+  Al71  1  0.75056481  0.74779744  0.66764599  1
  Al0+  Al72  1  0.32011494  0.07209119  0.67928094  1
  Al0+  Al73  1  0.07303152  0.67757827  0.98634304  1
  Al0+  Al74  1  0.56915811  0.67945560  0.98624208  1
  Al0+  Al75  1  0.07124991  0.17704207  0.65247322  1
  Al0+  Al76  1  0.43105690  0.81845628  0.65505029  1
  Al0+  Al77  1  0.67937938  0.42792563  0.34702200  1
  Al0+  Al78  1  0.17829129  0.42846264  0.01410827  1
  Al0+  Al79  1  0.43069891  0.31956257  0.98752068  1
  Al0+  Al80  1  0.92758768  0.32142404  0.65080227  1
  Al0+  Al81  1  0.42702676  0.32398616  0.65007884  1
  Al0+  Al82  1  0.57054258  0.67924010  0.31993395  1
  Al0+  Al83  1  0.32076826  0.57108567  0.68248271  1
  Al0+  Al84  1  0.57304325  0.17932885  0.31854182  1
  Al0+  Al85  1  0.32333109  0.57361862  0.01565174  1
  Al0+  Al86  1  0.56903903  0.17894289  0.65438915  1
  Al0+  Al87  1  0.31988606  0.57201278  0.35045956  1
  Al0+  Al88  1  0.42661309  0.82183273  0.31641963  1
  Al0+  Al89  1  0.17819642  0.42671142  0.35165955  1
  Al0+  Al90  1  0.07125672  0.17985864  0.31778207  1
  Al0+  Al91  1  0.82012031  0.07038893  0.68080040  1
  Al0+  Al92  1  0.92824225  0.82223549  0.98428928  1
  Al0+  Al93  1  0.07085011  0.68029467  0.65187376  1
  Al0+  Al94  1  0.67784482  0.92975796  0.34899349  1
  Al0+  Al95  1  0.68077170  0.92923285  0.01472350  1
  Si0+  Si96  1  0.82244116  0.57163417  0.68324960  1
  Si0+  Si97  1  0.67932904  0.42835179  0.01279455  1
  Si0+  Si98  1  0.42795658  0.82602989  0.98231190  1
  Si0+  Si99  1  0.82045466  0.57002812  0.01243903  1
  Si0+  Si100  1  0.82254805  0.57343835  0.35043818  1
  Si0+  Si101  1  0.17615522  0.42932156  0.68178871  1
  Si0+  Si102  1  0.82317390  0.07084492  0.34935739  1
  Si0+  Si103  1  0.57487822  0.67691423  0.64992236  1
  Si0+  Si104  1  0.92550148  0.82140796  0.64865709  1
  Si0+  Si105  1  0.06978664  0.67769244  0.31778797  1
  Si0+  Si106  1  0.17714358  0.92698701  0.68314712  1
  Si0+  Si107  1  0.92865548  0.32314783  0.31388530  1
  Si0+  Si108  1  0.07196022  0.18018829  0.98491793  1
  Si0+  Si109  1  0.57354329  0.17655593  0.98431740  1
  Si0+  Si110  1  0.32046428  0.06958005  0.34668181  1
  Si0+  Si111  1  0.68021538  0.42904133  0.68340663  1
  Si0+  Si112  1  0.17635336  0.93004836  0.34653372  1
  Si0+  Si113  1  0.92962996  0.82108215  0.32021633  1
  Si0+  Si114  1  0.67710852  0.92644416  0.68453964  1
  Si0+  Si115  1  0.42892618  0.32225842  0.31710697  1
  Si0+  Si116  1  0.92701272  0.32035882  0.98622139  1
  Si0+  Si117  1  0.17799224  0.93050396  0.01457899  1
  Si0+  Si118  1  0.32094249  0.07138747  0.01551483  1
  Si0+  Si119  1  0.82448309  0.07320499  0.01945091  1
  O2-  O120  1  0.25050395  -0.00035455  0.05785242  1
  O2-  O121  1  0.25040888  -0.00266326  0.38844600  1
  O2-  O122  1  0.24154844  0.00046598  0.72686502  1
  O2-  O123  1  0.24730482  0.50397938  0.06313477  1
  O2-  O124  1  0.24898600  0.49923594  0.40155980  1
  O2-  O125  1  0.24677975  0.49472532  0.72774443  1
  O2-  O126  1  0.75643579  0.00357199  0.06230100  1
  O2-  O127  1  0.74972421  0.00795048  0.39426640  1
  O2-  O128  1  0.74655013  -0.00517661  0.72827070  1
  O2-  O129  1  0.74891109  0.50040324  0.05587178  1
  O2-  O130  1  0.75359642  0.50414678  0.39346141  1
  O2-  O131  1  0.75066050  0.50129614  0.72562441  1
  O2-  O132  1  0.00057521  0.25783460  0.26932670  1
  O2-  O133  1  0.00043921  0.24989319  0.60194175  1
  O2-  O134  1  0.00003846  0.25107857  0.94506490  1
  O2-  O135  1  -0.00349857  0.74686758  0.27660970  1
  O2-  O136  1  -0.00391475  0.75521243  0.60384806  1
  O2-  O137  1  0.00273718  0.75187159  0.93599122  1
  O2-  O138  1  0.50052143  0.25636776  0.27196507  1
  O2-  O139  1  0.49680900  0.24898909  0.60193518  1
  O2-  O140  1  0.50603520  0.24543410  0.94048663  1
  O2-  O141  1  0.49763348  0.74854409  0.26717603  1
  O2-  O142  1  0.50598675  0.74515339  0.60737877  1
  O2-  O143  1  0.49235838  0.75242964  0.94018239  1
  O2-  O144  1  0.07148350  0.17830824  0.09007593  1
  O2-  O145  1  0.06789849  0.17461124  0.42989078  1
  O2-  O146  1  0.06986711  0.17959568  0.76682319  1
  O2-  O147  1  0.06828311  0.67892009  0.10037485  1
  O2-  O148  1  0.06960557  0.68035046  0.42299798  1
  O2-  O149  1  0.06996088  0.68063145  0.76479630  1
  O2-  O150  1  0.57288542  0.17775328  0.09006925  1
  O2-  O151  1  0.57048990  0.17862845  0.43124445  1
  O2-  O152  1  0.56887413  0.18179881  0.76844253  1
  O2-  O153  1  0.57217104  0.67839545  0.09878669  1
  O2-  O154  1  0.57160370  0.68150136  0.43333852  1
  O2-  O155  1  0.57700526  0.67834365  0.75578706  1
  O2-  O156  1  0.17994412  0.42948810  0.23784094  1
  O2-  O157  1  0.17579168  0.43252566  0.57649089  1
  O2-  O158  1  0.17737208  0.42561658  0.90064450  1
  O2-  O159  1  0.17371232  0.93260847  0.24115377  1
  O2-  O160  1  0.17812539  0.92602571  0.57718854  1
  O2-  O161  1  0.17665548  0.93205747  0.90973900  1
  O2-  O162  1  0.68178997  0.42870187  0.23310878  1
  O2-  O163  1  0.68092551  0.42967234  0.57837828  1
  O2-  O164  1  0.68234982  0.42723885  0.90771263  1
  O2-  O165  1  0.68174602  0.92774509  0.23574681  1
  O2-  O166  1  0.67843220  0.92621307  0.57898469  1
  O2-  O167  1  0.68036897  0.93207230  0.90160320  1
  O2-  O168  1  0.43305705  0.31755126  0.10082379  1
  O2-  O169  1  0.42891366  0.31887568  0.42238732  1
  O2-  O170  1  0.42966001  0.32408009  0.76413634  1
  O2-  O171  1  0.42992871  0.83089064  0.08734089  1
  O2-  O172  1  0.42734281  0.82302441  0.43001187  1
  O2-  O173  1  0.43277715  0.81900753  0.76835405  1
  O2-  O174  1  0.92193366  0.31899701  0.09087703  1
  O2-  O175  1  0.92634015  0.32084380  0.41887802  1
  O2-  O176  1  0.92881239  0.32143803  0.76533990  1
  O2-  O177  1  0.92891059  0.81864311  0.09875208  1
  O2-  O178  1  0.93311085  0.82232506  0.42524338  1
  O2-  O179  1  0.92408885  0.81876056  0.75394617  1
  O2-  O180  1  0.31800934  0.06964042  0.24088409  1
  O2-  O181  1  0.32146815  0.06794773  0.56620528  1
  O2-  O182  1  0.31979101  0.07207022  0.91052461  1
  O2-  O183  1  0.31910941  0.57125912  0.23682032  1
  O2-  O184  1  0.31900397  0.57352757  0.56977981  1
  O2-  O185  1  0.32294226  0.57083405  0.90190477  1
  O2-  O186  1  0.82549016  0.06705575  0.24358786  1
  O2-  O187  1  0.81972178  0.06792311  0.56766183  1
  O2-  O188  1  0.82383149  0.07614147  0.91411726  1
  O2-  O189  1  0.82405767  0.57304174  0.24434852  1
  O2-  O190  1  0.82140587  0.57435272  0.57841591  1
  O2-  O191  1  0.82067210  0.56675880  0.90728115  1
  O2-  O192  1  0.03683234  0.08462109  0.26079662  1
  O2-  O193  1  0.04275815  0.07702268  0.60243391  1
  O2-  O194  1  0.04560274  0.08882329  0.93652913  1
  O2-  O195  1  0.04283404  0.58489391  0.27243910  1
  O2-  O196  1  0.03735254  0.58646969  0.59512791  1
  O2-  O197  1  0.04129297  0.57982091  0.93400278  1
  O2-  O198  1  0.53804797  0.08524202  0.26249697  1
  O2-  O199  1  0.54265595  0.07967624  0.60344420  1
  O2-  O200  1  0.54754361  0.08274723  0.94005545  1
  O2-  O201  1  0.54524766  0.57842313  0.26927280  1
  O2-  O202  1  0.55023378  0.58257746  0.60675887  1
  O2-  O203  1  0.54309936  0.58274124  0.92992518  1
  O2-  O204  1  0.16876416  0.20658232  0.26233848  1
  O2-  O205  1  0.16928556  0.20234844  0.59862262  1
  O2-  O206  1  0.16382023  0.20758918  0.93833309  1
  O2-  O207  1  0.15943380  0.70851411  0.26930727  1
  O2-  O208  1  0.16501837  0.71422220  0.59601842  1
  O2-  O209  1  0.17156918  0.70847134  0.93492609  1
  O2-  O210  1  0.67093264  0.20631593  0.26473974  1
  O2-  O211  1  0.66648813  0.20812813  0.60127027  1
  O2-  O212  1  0.66889547  0.20069070  0.94096703  1
  O2-  O213  1  0.67098991  0.70756761  0.26927616  1
  O2-  O214  1  0.66920462  0.70007031  0.60409147  1
  O2-  O215  1  0.66482030  0.71089620  0.93024755  1
  O2-  O216  1  0.07788871  0.45110857  0.06769543  1
  O2-  O217  1  0.07749702  0.45139376  0.40145106  1
  O2-  O218  1  0.08136418  0.45691426  0.72540087  1
  O2-  O219  1  0.08663274  0.96057100  0.06289584  1
  O2-  O220  1  0.08613249  0.96111718  0.39530733  1
  O2-  O221  1  0.08160744  0.94502835  0.72825612  1
  O2-  O222  1  0.58779160  0.45548722  0.05926481  1
  O2-  O223  1  0.58449469  0.45670881  0.40436081  1
  O2-  O224  1  0.58907948  0.45729864  0.73195654  1
  O2-  O225  1  0.58510124  0.96003956  0.07137926  1
  O2-  O226  1  0.57993281  0.96021192  0.39957542  1
  O2-  O227  1  0.58444148  0.95233711  0.73151931  1
  O2-  O228  1  0.21079317  0.33075257  0.06807313  1
  O2-  O229  1  0.20428476  0.32598022  0.40041944  1
  O2-  O230  1  0.19679989  0.33356328  0.72514352  1
  O2-  O231  1  0.20306552  0.83881673  0.06356296  1
  O2-  O232  1  0.19907917  0.83690417  0.39299495  1
  O2-  O233  1  0.20971765  0.83613557  0.73046894  1
  O2-  O234  1  0.70837834  0.33671177  0.06098095  1
  O2-  O235  1  0.71365212  0.33179826  0.40066592  1
  O2-  O236  1  0.70938555  0.33832182  0.73183996  1
  O2-  O237  1  0.71311905  0.83200505  0.06740799  1
  O2-  O238  1  0.71133570  0.83528236  0.40557732  1
  O2-  O239  1  0.70408864  0.83208959  0.72945770  1
  O2-  O240  1  0.45402241  0.41677806  0.27400862  1
  O2-  O241  1  0.46092830  0.42092770  0.59805244  1
  O2-  O242  1  0.46186344  0.41431623  0.93132303  1
  O2-  O243  1  0.45556024  0.91960559  0.26276229  1
  O2-  O244  1  0.46034230  0.91484386  0.60044986  1
  O2-  O245  1  0.45975020  0.91823964  0.93564778  1
  O2-  O246  1  0.94971171  0.41889002  0.26938777  1
  O2-  O247  1  0.94941112  0.42012102  0.59628591  1
  O2-  O248  1  0.95192164  0.41250459  0.93859582  1
  O2-  O249  1  0.96029607  0.91041515  0.26983385  1
  O2-  O250  1  0.94796013  0.91572256  0.60386496  1
  O2-  O251  1  0.95440057  0.92231710  0.93389307  1
  O2-  O252  1  0.33695341  0.29237437  0.27019792  1
  O2-  O253  1  0.32832584  0.29952061  0.59837321  1
  O2-  O254  1  0.33505815  0.28665892  0.93292406  1
  O2-  O255  1  0.32578487  0.79873711  0.26485118  1
  O2-  O256  1  0.33457305  0.79059667  0.60001500  1
  O2-  O257  1  0.33208357  0.80798380  0.93846580  1
  O2-  O258  1  0.83699978  0.29444522  0.26488707  1
  O2-  O259  1  0.82999188  0.29052725  0.59884536  1
  O2-  O260  1  0.83623166  0.29097792  0.93639485  1
  O2-  O261  1  0.83660874  0.79514331  0.27492393  1
  O2-  O262  1  0.83301446  0.79218366  0.60160422  1
  O2-  O263  1  0.83217443  0.79247487  0.92908695  1
  O2-  O264  1  0.41308552  0.04495531  0.06308602  1
  O2-  O265  1  0.41227126  0.04280824  0.39326940  1
  O2-  O266  1  0.41441294  0.03698465  0.73665237  1
  O2-  O267  1  0.42102788  0.53879338  0.06715248  1
  O2-  O268  1  0.41864238  0.54651709  0.40368335  1
  O2-  O269  1  0.41932425  0.54307195  0.73475219  1
  O2-  O270  1  0.91934864  0.04944422  0.06444565  1
  O2-  O271  1  0.91488354  0.03846590  0.39589903  1
  O2-  O272  1  0.91644630  0.04018379  0.73718669  1
  O2-  O273  1  0.91084619  0.54127592  0.06233586  1
  O2-  O274  1  0.91551411  0.54712893  0.39746450  1
  O2-  O275  1  0.91416460  0.54226782  0.73004667  1
  O2-  O276  1  0.29111798  0.16156674  0.06462058  1
  O2-  O277  1  0.29200986  0.16084322  0.39334080  1
  O2-  O278  1  0.29068173  0.16955638  0.73388272  1
  O2-  O279  1  0.30196846  0.67495247  0.06601341  1
  O2-  O280  1  0.28773155  0.67154585  0.40030348  1
  O2-  O281  1  0.28756932  0.66780323  0.73516501  1
  O2-  O282  1  0.79886513  0.16647330  0.06749483  1
  O2-  O283  1  0.80485058  0.16708562  0.39129762  1
  O2-  O284  1  0.78937054  0.16670965  0.73640898  1
  O2-  O285  1  0.79445332  0.66285534  0.05775959  1
  O2-  O286  1  0.79917962  0.66647065  0.39838150  1
  O2-  O287  1  0.79547771  0.66327908  0.73257213  1
