# generated using pymatgen
data_Ca2Al2SiO7
_symmetry_space_group_name_H-M   'P 1'
_cell_length_a   15.45654125
_cell_length_b   15.45790503
_cell_length_c   15.28277864
_cell_angle_alpha   89.99840495
_cell_angle_beta   90.00034822
_cell_angle_gamma   89.99921505
_symmetry_Int_Tables_number   1
_chemical_formula_structural   Ca2Al2SiO7
_chemical_formula_sum   'Ca48 Al48 Si24 O168'
_cell_volume   3651.44929583
_cell_formula_units_Z   24
loop_
 _symmetry_equiv_pos_site_id
 _symmetry_equiv_pos_as_xyz
  1  'x, y, z'
loop_
 _atom_type_symbol
 _atom_type_oxidation_number
  Ca2+  2.0
  Al0+  0.0
  Si0+  0.0
  O2-  -2.0
loop_
 _atom_site_type_symbol
 _atom_site_label
 _atom_site_symmetry_multiplicity
 _atom_site_fract_x
 _atom_site_fract_y
 _atom_site_fract_z
 _atom_site_occupancy
  Ca2+  Ca0  1  0.17523556  0.08346988  0.17806960  1
  Ca2+  Ca1  1  0.16168848  0.08196960  0.49496398  1
  Ca2+  Ca2  1  0.17297718  0.08289452  0.84216794  1
  Ca2+  Ca3  1  0.17367244  0.58570561  0.16916086  1
  Ca2+  Ca4  1  0.17810536  0.59286686  0.50494585  1
  Ca2+  Ca5  1  0.17088188  0.58492738  0.84014059  1
  Ca2+  Ca6  1  0.66641512  0.07617860  0.17594122  1
  Ca2+  Ca7  1  0.65951795  0.07440790  0.50492441  1
  Ca2+  Ca8  1  0.66477697  0.07976823  0.83148682  1
  Ca2+  Ca9  1  0.66987681  0.57857090  0.17487719  1
  Ca2+  Ca10  1  0.67389924  0.58097381  0.50148804  1
  Ca2+  Ca11  1  0.66860606  0.56861067  0.83752973  1
  Ca2+  Ca12  1  0.08414012  0.33496331  0.16591856  1
  Ca2+  Ca13  1  0.07174393  0.33091695  0.49214464  1
  Ca2+  Ca14  1  0.08075617  0.33710791  0.82970067  1
  Ca2+  Ca15  1  0.07628280  0.83122472  0.16092082  1
  Ca2+  Ca16  1  0.07399181  0.83209204  0.49442642  1
  Ca2+  Ca17  1  0.07672720  0.82328812  0.82743292  1
  Ca2+  Ca18  1  0.57661722  0.32986781  0.16108059  1
  Ca2+  Ca19  1  0.58969990  0.32142906  0.49601640  1
  Ca2+  Ca20  1  0.58008327  0.33426609  0.82738957  1
  Ca2+  Ca21  1  0.58704055  0.82641211  0.16943518  1
  Ca2+  Ca22  1  0.58561999  0.83070471  0.49086416  1
  Ca2+  Ca23  1  0.58141531  0.83183217  0.82774654  1
  Ca2+  Ca24  1  0.33032327  0.42172759  0.16653191  1
  Ca2+  Ca25  1  0.33373051  0.42764969  0.50305564  1
  Ca2+  Ca26  1  0.32903722  0.42697989  0.84524585  1
  Ca2+  Ca27  1  0.32528027  0.92690489  0.17646328  1
  Ca2+  Ca28  1  0.32665039  0.92072311  0.49724200  1
  Ca2+  Ca29  1  0.33160229  0.92477158  0.83984796  1
  Ca2+  Ca30  1  0.83081398  0.42284402  0.17352983  1
  Ca2+  Ca31  1  0.83471538  0.41760995  0.50458665  1
  Ca2+  Ca32  1  0.82256691  0.40692275  0.83555793  1
  Ca2+  Ca33  1  0.83185793  0.91151289  0.17611953  1
  Ca2+  Ca34  1  0.82495183  0.90938719  0.50307078  1
  Ca2+  Ca35  1  0.83286214  0.90810813  0.83219532  1
  Ca2+  Ca36  1  0.41700169  0.16547384  0.16178987  1
  Ca2+  Ca37  1  0.42681812  0.16322577  0.49247592  1
  Ca2+  Ca38  1  0.41842257  0.17435792  0.83114493  1
  Ca2+  Ca39  1  0.41937754  0.65744900  0.16571853  1
  Ca2+  Ca40  1  0.42231717  0.66162126  0.49289499  1
  Ca2+  Ca41  1  0.41235882  0.66293450  0.82986002  1
  Ca2+  Ca42  1  0.92323212  0.16961509  0.16976143  1
  Ca2+  Ca43  1  0.91652510  0.18021920  0.49184942  1
  Ca2+  Ca44  1  0.91893924  0.17317658  0.82628030  1
  Ca2+  Ca45  1  0.91578149  0.67673095  0.16161647  1
  Ca2+  Ca46  1  0.91595852  0.67368470  0.49275575  1
  Ca2+  Ca47  1  0.92936866  0.67120192  0.82793021  1
  Al0+  Al48  1  -0.00215003  0.00134389  -0.00583668  1
  Al0+  Al49  1  -0.00128395  0.00208508  0.33014808  1
  Al0+  Al50  1  -0.00046693  -0.00096088  0.66503004  1
  Al0+  Al51  1  -0.00135896  0.50056157  -0.00131454  1
  Al0+  Al52  1  -0.00046754  0.50213633  0.33334758  1
  Al0+  Al53  1  0.00313297  0.50094409  0.65832265  1
  Al0+  Al54  1  0.50210078  -0.00143579  0.00312602  1
  Al0+  Al55  1  0.49916678  -0.00123654  0.33523633  1
  Al0+  Al56  1  0.50041123  -0.00028008  0.66911308  1
  Al0+  Al57  1  0.50064070  0.49736542  0.00250167  1
  Al0+  Al58  1  0.50073070  0.49858964  0.33373252  1
  Al0+  Al59  1  0.49983747  0.50050210  0.67392989  1
  Al0+  Al60  1  0.25194541  0.25198663  0.00212666  1
  Al0+  Al61  1  0.25077474  0.25170292  0.33745466  1
  Al0+  Al62  1  0.25135990  0.25132361  0.66540277  1
  Al0+  Al63  1  0.25120693  0.75134050  0.00047370  1
  Al0+  Al64  1  0.25009123  0.75220329  0.34129014  1
  Al0+  Al65  1  0.25091559  0.75315753  0.66832914  1
  Al0+  Al66  1  0.74966926  0.24601141  0.00567804  1
  Al0+  Al67  1  0.74845034  0.24905786  0.32235932  1
  Al0+  Al68  1  0.75009188  0.24785727  0.66329695  1
  Al0+  Al69  1  0.74824726  0.74955385  -0.00624789  1
  Al0+  Al70  1  0.74911140  0.74744875  0.33275342  1
  Al0+  Al71  1  0.74889414  0.74872134  0.67111195  1
  Al0+  Al72  1  0.32088161  0.57351862  0.01647536  1
  Al0+  Al73  1  0.68223860  0.42712816  0.67868056  1
  Al0+  Al74  1  0.67927012  0.42623580  0.01531160  1
  Al0+  Al75  1  0.92872893  0.81942656  0.32020078  1
  Al0+  Al76  1  0.17580968  0.42961710  0.01494868  1
  Al0+  Al77  1  0.92706825  0.82282575  0.98253947  1
  Al0+  Al78  1  0.92739916  0.81977196  0.64877675  1
  Al0+  Al79  1  0.07155339  0.18088056  0.31816643  1
  Al0+  Al80  1  0.17532292  0.92999242  0.34865447  1
  Al0+  Al81  1  0.68101656  0.92904491  0.34583388  1
  Al0+  Al82  1  0.32015568  0.57160495  0.68177307  1
  Al0+  Al83  1  0.67883194  0.92769482  0.68192413  1
  Al0+  Al84  1  0.56901663  0.17614638  0.31781341  1
  Al0+  Al85  1  0.32128404  0.07358953  0.35041015  1
  Al0+  Al86  1  0.07279092  0.67871455  0.98582165  1
  Al0+  Al87  1  0.92806809  0.32481381  0.31494690  1
  Al0+  Al88  1  0.32121726  0.07092587  0.01277037  1
  Al0+  Al89  1  0.56848498  0.17950663  0.65401727  1
  Al0+  Al90  1  0.43013227  0.32009889  0.98586036  1
  Al0+  Al91  1  0.92950416  0.32001641  0.65447247  1
  Al0+  Al92  1  0.32142831  0.57000198  0.34796355  1
  Al0+  Al93  1  0.07397295  0.67990250  0.64873627  1
  Al0+  Al94  1  0.56977855  0.67820311  0.32097547  1
  Al0+  Al95  1  0.82097019  0.57022727  0.34579530  1
  Si0+  Si96  1  0.82220072  0.07104953  0.68251175  1
  Si0+  Si97  1  0.42821524  0.32435079  0.64986091  1
  Si0+  Si98  1  0.32187960  0.07157701  0.68252293  1
  Si0+  Si99  1  0.43085531  0.82244973  0.98623072  1
  Si0+  Si100  1  0.17803553  0.93145907  0.68356418  1
  Si0+  Si101  1  0.42683288  0.82104250  0.31708267  1
  Si0+  Si102  1  0.92706323  0.32011163  0.98571230  1
  Si0+  Si103  1  0.42859564  0.32265931  0.31735105  1
  Si0+  Si104  1  0.17786920  0.42710972  0.68185090  1
  Si0+  Si105  1  0.68041090  0.92765420  0.01543682  1
  Si0+  Si106  1  0.07179181  0.18069033  0.98516272  1
  Si0+  Si107  1  0.57004118  0.67760961  0.98346687  1
  Si0+  Si108  1  0.07510862  0.17683972  0.65148708  1
  Si0+  Si109  1  0.82446117  0.57167917  0.68377290  1
  Si0+  Si110  1  0.57289821  0.17554897  0.98226334  1
  Si0+  Si111  1  0.82257247  0.07062527  0.01585920  1
  Si0+  Si112  1  0.82104504  0.07393835  0.34937173  1
  Si0+  Si113  1  0.43015451  0.82266490  0.65218907  1
  Si0+  Si114  1  0.17694156  0.42870777  0.35215376  1
  Si0+  Si115  1  0.56906338  0.67757540  0.65391094  1
  Si0+  Si116  1  0.07540302  0.67969270  0.31680756  1
  Si0+  Si117  1  0.17661499  0.92996971  0.01449611  1
  Si0+  Si118  1  0.81946595  0.57207236  0.01461789  1
  Si0+  Si119  1  0.67875733  0.42617725  0.34915435  1
  O2-  O120  1  0.24416852  -0.00089861  0.05910631  1
  O2-  O121  1  0.24640183  0.00366494  0.39930379  1
  O2-  O122  1  0.24586780  0.00622433  0.72546915  1
  O2-  O123  1  0.24589812  0.50379480  0.06485024  1
  O2-  O124  1  0.24418986  0.49907953  0.39637954  1
  O2-  O125  1  0.24493750  0.49685182  0.72659726  1
  O2-  O126  1  0.75490963  -0.00474346  0.05602744  1
  O2-  O127  1  0.75304354  0.00523533  0.39439675  1
  O2-  O128  1  0.75654305  -0.00033247  0.72843307  1
  O2-  O129  1  0.75336797  0.50175888  0.06032291  1
  O2-  O130  1  0.75096456  0.49098619  0.39310458  1
  O2-  O131  1  0.75930227  0.49893566  0.72769346  1
  O2-  O132  1  0.00252828  0.25455769  0.26571319  1
  O2-  O133  1  0.00681238  0.24687928  0.60981607  1
  O2-  O134  1  0.00121630  0.25230728  0.94263907  1
  O2-  O135  1  0.00588135  0.74767046  0.27293334  1
  O2-  O136  1  -0.00203306  0.74727651  0.59821484  1
  O2-  O137  1  0.00113227  0.75157547  0.93568574  1
  O2-  O138  1  0.49277828  0.24967857  0.27276027  1
  O2-  O139  1  0.49557699  0.25486485  0.60542672  1
  O2-  O140  1  0.50598582  0.24593663  0.93854820  1
  O2-  O141  1  0.49277812  0.74988869  0.27230024  1
  O2-  O142  1  0.49952583  0.74967382  0.61110811  1
  O2-  O143  1  0.49662094  0.74709841  0.94219392  1
  O2-  O144  1  0.07009546  0.17808152  0.08952742  1
  O2-  O145  1  0.06795588  0.18305445  0.43219181  1
  O2-  O146  1  0.07622306  0.17675973  0.75773349  1
  O2-  O147  1  0.07226415  0.68162579  0.09937085  1
  O2-  O148  1  0.07570630  0.68166593  0.42225460  1
  O2-  O149  1  0.07474614  0.68196095  0.76248622  1
  O2-  O150  1  0.57158187  0.17334117  0.08759494  1
  O2-  O151  1  0.56985893  0.17708455  0.43125414  1
  O2-  O152  1  0.56593410  0.17907357  0.76733916  1
  O2-  O153  1  0.57331173  0.68006358  0.08839432  1
  O2-  O154  1  0.56944530  0.67903434  0.43451580  1
  O2-  O155  1  0.56691325  0.67822629  0.75942227  1
  O2-  O156  1  0.17852821  0.42849259  0.24670831  1
  O2-  O157  1  0.18122270  0.42382248  0.57657515  1
  O2-  O158  1  0.17742555  0.42793528  0.90099188  1
  O2-  O159  1  0.17821871  0.92936298  0.23463360  1
  O2-  O160  1  0.17888941  0.93173998  0.57900028  1
  O2-  O161  1  0.17922309  0.93257867  0.90825849  1
  O2-  O162  1  0.67754120  0.42929281  0.24339599  1
  O2-  O163  1  0.68240810  0.42832616  0.56590326  1
  O2-  O164  1  0.68106912  0.42601187  0.90164305  1
  O2-  O165  1  0.68272376  0.92877725  0.23212385  1
  O2-  O166  1  0.67572492  0.92858913  0.56937244  1
  O2-  O167  1  0.67701967  0.92921849  0.91036533  1
  O2-  O168  1  0.43134215  0.31845734  0.09875867  1
  O2-  O169  1  0.43270261  0.32494480  0.42323807  1
  O2-  O170  1  0.42785315  0.32246438  0.75552366  1
  O2-  O171  1  0.43458015  0.82625997  0.09062545  1
  O2-  O172  1  0.42891217  0.82116873  0.42314018  1
  O2-  O173  1  0.43127585  0.82438458  0.75792629  1
  O2-  O174  1  0.92617836  0.31771267  0.09006001  1
  O2-  O175  1  0.92740670  0.32220909  0.42886930  1
  O2-  O176  1  0.92904441  0.31648285  0.76835444  1
  O2-  O177  1  0.92520665  0.82221369  0.09608407  1
  O2-  O178  1  0.92643277  0.81651157  0.43287735  1
  O2-  O179  1  0.93073770  0.81882176  0.76238952  1
  O2-  O180  1  0.32160478  0.07027403  0.23653654  1
  O2-  O181  1  0.32421280  0.06911612  0.57818614  1
  O2-  O182  1  0.32004010  0.06883385  0.89878160  1
  O2-  O183  1  0.32167602  0.56801766  0.23536757  1
  O2-  O184  1  0.32302088  0.57014927  0.56868405  1
  O2-  O185  1  0.32093470  0.57197669  0.90271564  1
  O2-  O186  1  0.81964295  0.07204463  0.24318297  1
  O2-  O187  1  0.82052171  0.07282691  0.57750480  1
  O2-  O188  1  0.82149029  0.07562737  0.91088695  1
  O2-  O189  1  0.81677656  0.57183350  0.23244892  1
  O2-  O190  1  0.81980009  0.57349596  0.57823642  1
  O2-  O191  1  0.81691406  0.57122712  0.90887610  1
  O2-  O192  1  0.04167251  0.08389503  0.26299565  1
  O2-  O193  1  0.04917479  0.08367173  0.60602131  1
  O2-  O194  1  0.04290207  0.09013177  0.93458323  1
  O2-  O195  1  0.05199969  0.58508569  0.27311585  1
  O2-  O196  1  0.05488983  0.57957681  0.59658335  1
  O2-  O197  1  0.04292700  0.58049586  0.93152145  1
  O2-  O198  1  0.53898092  0.07900349  0.26417571  1
  O2-  O199  1  0.53546120  0.08295234  0.60111001  1
  O2-  O200  1  0.54553835  0.08187299  0.93629468  1
  O2-  O201  1  0.54076489  0.58131007  0.26630322  1
  O2-  O202  1  0.53984868  0.58633124  0.60658721  1
  O2-  O203  1  0.54422349  0.58500237  0.93719931  1
  O2-  O204  1  0.17239401  0.20676096  0.26879079  1
  O2-  O205  1  0.16911351  0.20034103  0.60509513  1
  O2-  O206  1  0.16358267  0.20750716  0.93731495  1
  O2-  O207  1  0.16930423  0.70700636  0.27219870  1
  O2-  O208  1  0.17160992  0.71524115  0.59793369  1
  O2-  O209  1  0.17197159  0.70755092  0.93290972  1
  O2-  O210  1  0.66411629  0.20513261  0.26040758  1
  O2-  O211  1  0.66524297  0.20699401  0.59961905  1
  O2-  O212  1  0.66821455  0.19922853  0.93863872  1
  O2-  O213  1  0.66337573  0.71252990  0.26387304  1
  O2-  O214  1  0.66201189  0.70348118  0.60898000  1
  O2-  O215  1  0.65932754  0.70816816  0.93244788  1
  O2-  O216  1  0.07534189  0.45258888  0.06647118  1
  O2-  O217  1  0.08226131  0.45212024  0.39639516  1
  O2-  O218  1  0.08268589  0.45044602  0.72589052  1
  O2-  O219  1  0.08145261  0.95477347  0.05688427  1
  O2-  O220  1  0.07719473  0.96011059  0.40176963  1
  O2-  O221  1  0.08539272  0.95635487  0.73139129  1
  O2-  O222  1  0.58388428  0.45782651  0.06933115  1
  O2-  O223  1  0.58688248  0.45428689  0.39652131  1
  O2-  O224  1  0.58708420  0.46070723  0.73487284  1
  O2-  O225  1  0.59040458  0.95764532  0.06483817  1
  O2-  O226  1  0.58341571  0.95630620  0.39907321  1
  O2-  O227  1  0.58349935  0.96243457  0.73806852  1
  O2-  O228  1  0.20763041  0.33251086  0.06836563  1
  O2-  O229  1  0.20351706  0.33643425  0.40031054  1
  O2-  O230  1  0.20277792  0.33290425  0.72906376  1
  O2-  O231  1  0.20336486  0.83731953  0.06019010  1
  O2-  O232  1  0.20680563  0.83445774  0.40592457  1
  O2-  O233  1  0.21170440  0.84239140  0.73269476  1
  O2-  O234  1  0.70817122  0.32926586  0.06894579  1
  O2-  O235  1  0.70191585  0.33006090  0.39060751  1
  O2-  O236  1  0.71146947  0.32992642  0.73348584  1
  O2-  O237  1  0.70480386  0.83371428  0.06030571  1
  O2-  O238  1  0.71208654  0.83291355  0.39975844  1
  O2-  O239  1  0.70538520  0.83047305  0.73817893  1
  O2-  O240  1  0.45957900  0.41330211  0.26853583  1
  O2-  O241  1  0.45558542  0.41823372  0.60603596  1
  O2-  O242  1  0.46181558  0.41661391  0.93132176  1
  O2-  O243  1  0.45546204  0.91301626  0.27009645  1
  O2-  O244  1  0.46047297  0.91284923  0.60413267  1
  O2-  O245  1  0.46433979  0.91181029  0.93540544  1
  O2-  O246  1  0.95490044  0.42439870  0.26347137  1
  O2-  O247  1  0.95630998  0.41645413  0.59892873  1
  O2-  O248  1  0.94866144  0.41309739  0.93827040  1
  O2-  O249  1  0.95361328  0.91798372  0.26761228  1
  O2-  O250  1  0.95446126  0.92006317  0.59913422  1
  O2-  O251  1  0.95230193  0.92226786  0.92859644  1
  O2-  O252  1  0.33278358  0.30287551  0.27471771  1
  O2-  O253  1  0.33421434  0.30033885  0.60378747  1
  O2-  O254  1  0.33379861  0.28892284  0.93037528  1
  O2-  O255  1  0.33185182  0.79848529  0.27318454  1
  O2-  O256  1  0.33765039  0.79835095  0.60588623  1
  O2-  O257  1  0.33753202  0.80094328  0.93845820  1
  O2-  O258  1  0.83117649  0.29440048  0.26025310  1
  O2-  O259  1  0.83530215  0.28615439  0.59842775  1
  O2-  O260  1  0.83642670  0.28518495  0.93897973  1
  O2-  O261  1  0.83401544  0.78407160  0.26499548  1
  O2-  O262  1  0.82604388  0.79246695  0.60145546  1
  O2-  O263  1  0.82871202  0.79301716  0.92906788  1
  O2-  O264  1  0.41753264  0.03787953  0.06578158  1
  O2-  O265  1  0.41763321  0.03879332  0.40375700  1
  O2-  O266  1  0.41043594  0.03782792  0.73271680  1
  O2-  O267  1  0.41905947  0.54163674  0.06721117  1
  O2-  O268  1  0.41770064  0.53621589  0.40210474  1
  O2-  O269  1  0.41583202  0.54112865  0.73812266  1
  O2-  O270  1  0.91602535  0.04646806  0.06188436  1
  O2-  O271  1  0.91516590  0.05195757  0.39418417  1
  O2-  O272  1  0.91734017  0.04934064  0.72896677  1
  O2-  O273  1  0.91361963  0.54949164  0.05957757  1
  O2-  O274  1  0.91897053  0.54625271  0.40045202  1
  O2-  O275  1  0.92090529  0.54949482  0.72466967  1
  O2-  O276  1  0.29292762  0.16726187  0.06603148  1
  O2-  O277  1  0.29809526  0.17285907  0.40414729  1
  O2-  O278  1  0.29855736  0.16608440  0.72783497  1
  O2-  O279  1  0.29882772  0.67429657  0.06823893  1
  O2-  O280  1  0.29588330  0.66782120  0.40229316  1
  O2-  O281  1  0.29283845  0.67048613  0.73392359  1
  O2-  O282  1  0.79201597  0.15897949  0.06802316  1
  O2-  O283  1  0.79374422  0.16858565  0.39217274  1
  O2-  O284  1  0.79227400  0.16248825  0.73133771  1
  O2-  O285  1  0.78960626  0.66544224  0.05933268  1
  O2-  O286  1  0.78285668  0.66277068  0.40241648  1
  O2-  O287  1  0.79410650  0.66234658  0.73294549  1
