# generated using pymatgen
data_Ca2Al2SiO7
_symmetry_space_group_name_H-M   'P 1'
_cell_length_a   15.45555930
_cell_length_b   15.45507578
_cell_length_c   15.28159908
_cell_angle_alpha   89.99977824
_cell_angle_beta   89.99195934
_cell_angle_gamma   89.98134115
_symmetry_Int_Tables_number   1
_chemical_formula_structural   Ca2Al2SiO7
_chemical_formula_sum   'Ca48 Al48 Si24 O168'
_cell_volume   3650.26705527
_cell_formula_units_Z   24
loop_
 _symmetry_equiv_pos_site_id
 _symmetry_equiv_pos_as_xyz
  1  'x, y, z'
loop_
 _atom_type_symbol
 _atom_type_oxidation_number
  Ca2+  2.0
  Al0+  0.0
  Si0+  0.0
  O2-  -2.0
loop_
 _atom_site_type_symbol
 _atom_site_label
 _atom_site_symmetry_multiplicity
 _atom_site_fract_x
 _atom_site_fract_y
 _atom_site_fract_z
 _atom_site_occupancy
  Ca2+  Ca0  1  0.16756175  0.08171119  0.16831282  1
  Ca2+  Ca1  1  0.16874123  0.07601328  0.50682881  1
  Ca2+  Ca2  1  0.17553205  0.09411321  0.83761960  1
  Ca2+  Ca3  1  0.17486207  0.58090656  0.17434602  1
  Ca2+  Ca4  1  0.17126797  0.58464624  0.50235584  1
  Ca2+  Ca5  1  0.16760739  0.58395976  0.83508740  1
  Ca2+  Ca6  1  0.67087058  0.08628283  0.17129211  1
  Ca2+  Ca7  1  0.67456687  0.08533814  0.49994923  1
  Ca2+  Ca8  1  0.66329749  0.08050585  0.84035971  1
  Ca2+  Ca9  1  0.67252719  0.57442461  0.16903796  1
  Ca2+  Ca10  1  0.66797816  0.58194075  0.49881952  1
  Ca2+  Ca11  1  0.66609324  0.58095999  0.84516571  1
  Ca2+  Ca12  1  0.06911003  0.33134889  0.15977611  1
  Ca2+  Ca13  1  0.07880927  0.32430718  0.49493117  1
  Ca2+  Ca14  1  0.08189410  0.32442141  0.83339072  1
  Ca2+  Ca15  1  0.07494806  0.83645971  0.16704403  1
  Ca2+  Ca16  1  0.08499288  0.82863921  0.49237358  1
  Ca2+  Ca17  1  0.07735231  0.82773398  0.83157550  1
  Ca2+  Ca18  1  0.57870576  0.33681317  0.16068766  1
  Ca2+  Ca19  1  0.57503123  0.33711494  0.49379885  1
  Ca2+  Ca20  1  0.57540913  0.33363889  0.83573972  1
  Ca2+  Ca21  1  0.57948391  0.82659928  0.16195967  1
  Ca2+  Ca22  1  0.57153477  0.83046923  0.49797430  1
  Ca2+  Ca23  1  0.58216914  0.82032990  0.82756850  1
  Ca2+  Ca24  1  0.33843004  0.41891314  0.17265170  1
  Ca2+  Ca25  1  0.34219077  0.42075776  0.50135692  1
  Ca2+  Ca26  1  0.33564508  0.41103443  0.83775424  1
  Ca2+  Ca27  1  0.32817487  0.92223294  0.17508760  1
  Ca2+  Ca28  1  0.33297400  0.91725347  0.50624486  1
  Ca2+  Ca29  1  0.33905491  0.92856092  0.83753077  1
  Ca2+  Ca30  1  0.82502823  0.41711032  0.17554035  1
  Ca2+  Ca31  1  0.82912113  0.41574555  0.49873601  1
  Ca2+  Ca32  1  0.82637176  0.42476945  0.84804315  1
  Ca2+  Ca33  1  0.83776113  0.92057096  0.17419773  1
  Ca2+  Ca34  1  0.83802440  0.91955382  0.49732605  1
  Ca2+  Ca35  1  0.83369251  0.91488196  0.84000386  1
  Ca2+  Ca36  1  0.42086886  0.17668011  0.15651473  1
  Ca2+  Ca37  1  0.41134914  0.17639698  0.49757312  1
  Ca2+  Ca38  1  0.41439593  0.17221659  0.83146777  1
  Ca2+  Ca39  1  0.41947177  0.66873642  0.16464612  1
  Ca2+  Ca40  1  0.41815450  0.67345152  0.49322634  1
  Ca2+  Ca41  1  0.43127774  0.66908480  0.82557802  1
  Ca2+  Ca42  1  0.91573573  0.17655372  0.16126980  1
  Ca2+  Ca43  1  0.92117918  0.16684020  0.49081007  1
  Ca2+  Ca44  1  0.92744375  0.17170153  0.83226502  1
  Ca2+  Ca45  1  0.90192172  0.67517345  0.16372230  1
  Ca2+  Ca46  1  0.92220813  0.66866084  0.49245116  1
  Ca2+  Ca47  1  0.91576248  0.66955967  0.83158737  1
  Al0+  Al48  1  0.00062764  -0.00180719  -0.00886867  1
  Al0+  Al49  1  0.00193628  -0.00310534  0.33869468  1
  Al0+  Al50  1  0.00063671  0.00087466  0.66625614  1
  Al0+  Al51  1  0.00085690  0.50327585  0.00161883  1
  Al0+  Al52  1  0.00127537  0.49824049  0.33365527  1
  Al0+  Al53  1  -0.00038022  0.50079061  0.66467146  1
  Al0+  Al54  1  0.49896568  0.00207792  0.00470033  1
  Al0+  Al55  1  0.49990629  -0.00054699  0.33052127  1
  Al0+  Al56  1  0.50199261  0.00055462  0.66805579  1
  Al0+  Al57  1  0.50058296  0.50122029  -0.00352279  1
  Al0+  Al58  1  0.50028191  0.49999122  0.33743625  1
  Al0+  Al59  1  0.50142022  0.49963637  0.66080134  1
  Al0+  Al60  1  0.24948308  0.25103943  0.00130534  1
  Al0+  Al61  1  0.25093509  0.24945450  0.32857647  1
  Al0+  Al62  1  0.24849552  0.24974986  0.66093360  1
  Al0+  Al63  1  0.24779325  0.75215846  0.00101013  1
  Al0+  Al64  1  0.25049099  0.74988718  0.33588237  1
  Al0+  Al65  1  0.24816724  0.74986026  0.66423618  1
  Al0+  Al66  1  0.74819164  0.24987271  -0.00506690  1
  Al0+  Al67  1  0.75082565  0.24892252  0.34065250  1
  Al0+  Al68  1  0.74916474  0.25126663  0.67109507  1
  Al0+  Al69  1  0.74863417  0.75107270  -0.00463684  1
  Al0+  Al70  1  0.74990148  0.74951893  0.33531187  1
  Al0+  Al71  1  0.75018823  0.75005445  0.66198518  1
  Al0+  Al72  1  0.42957002  0.82256143  0.65368497  1
  Al0+  Al73  1  0.07001752  0.67804304  0.65254546  1
  Al0+  Al74  1  0.92921061  0.81929003  0.98681799  1
  Al0+  Al75  1  0.56839998  0.68148215  0.98842735  1
  Al0+  Al76  1  0.57161835  0.17653088  0.98537523  1
  Al0+  Al77  1  0.43020786  0.32118869  0.31884447  1
  Al0+  Al78  1  0.32022349  0.07233568  0.01575272  1
  Al0+  Al79  1  0.92980749  0.81910525  0.32083156  1
  Al0+  Al80  1  0.67857685  0.42790109  0.01478798  1
  Al0+  Al81  1  0.42725692  0.82147336  0.31808431  1
  Al0+  Al82  1  0.42985687  0.31837280  0.65170963  1
  Al0+  Al83  1  0.82210075  0.57336511  0.01453833  1
  Al0+  Al84  1  0.67934001  0.42834642  0.35073259  1
  Al0+  Al85  1  0.82268314  0.57239937  0.35024588  1
  Al0+  Al86  1  0.92879272  0.32000081  0.32104855  1
  Al0+  Al87  1  0.82058301  0.06923643  0.34527773  1
  Al0+  Al88  1  0.32019403  0.56924836  0.34706327  1
  Al0+  Al89  1  0.06999610  0.17983686  0.65091216  1
  Al0+  Al90  1  0.57261331  0.67760053  0.64836473  1
  Al0+  Al91  1  0.31987670  0.07085774  0.68003551  1
  Al0+  Al92  1  0.18086476  0.93042244  0.34756480  1
  Al0+  Al93  1  0.06991541  0.17946767  0.98622354  1
  Al0+  Al94  1  0.42933958  0.32186567  0.98519370  1
  Al0+  Al95  1  0.92639857  0.32469144  0.98558973  1
  Si0+  Si96  1  0.17886306  0.42938405  0.01497317  1
  Si0+  Si97  1  0.67560064  0.92660458  0.35030450  1
  Si0+  Si98  1  0.57139875  0.67860013  0.31564043  1
  Si0+  Si99  1  0.57302805  0.17764608  0.31871568  1
  Si0+  Si100  1  0.17779043  0.42536608  0.35021814  1
  Si0+  Si101  1  0.67897913  0.92893986  0.01452359  1
  Si0+  Si102  1  0.32349763  0.07293070  0.35003564  1
  Si0+  Si103  1  0.92830061  0.82225964  0.64859606  1
  Si0+  Si104  1  0.82261045  0.07185965  0.68420501  1
  Si0+  Si105  1  0.17670083  0.92734511  0.01689446  1
  Si0+  Si106  1  0.57482056  0.17695873  0.64911531  1
  Si0+  Si107  1  0.67774535  0.42970681  0.68431894  1
  Si0+  Si108  1  0.17650547  0.92620269  0.68629697  1
  Si0+  Si109  1  0.07259070  0.67680354  0.31605196  1
  Si0+  Si110  1  0.82138846  0.57104036  0.68179830  1
  Si0+  Si111  1  0.32171552  0.57107753  0.68182055  1
  Si0+  Si112  1  0.42499626  0.82332574  0.98531029  1
  Si0+  Si113  1  0.68121173  0.92913805  0.68194173  1
  Si0+  Si114  1  0.17874556  0.42976874  0.68091357  1
  Si0+  Si115  1  0.07160828  0.17582124  0.31695623  1
  Si0+  Si116  1  0.07589211  0.67763013  0.98452747  1
  Si0+  Si117  1  0.82229227  0.06935358  0.01166110  1
  Si0+  Si118  1  0.32093081  0.57240723  0.01199692  1
  Si0+  Si119  1  0.92661908  0.32159802  0.65039289  1
  O2-  O120  1  0.24603847  -0.00424245  0.06020878  1
  O2-  O121  1  0.25649002  0.00350477  0.39518173  1
  O2-  O122  1  0.24698584  -0.00599305  0.72894374  1
  O2-  O123  1  0.24992400  0.50171505  0.05480215  1
  O2-  O124  1  0.24739983  0.49279361  0.39512080  1
  O2-  O125  1  0.25073231  0.49991446  0.72470658  1
  O2-  O126  1  0.74863235  0.00181914  0.05541768  1
  O2-  O127  1  0.74538954  -0.00488963  0.39363819  1
  O2-  O128  1  0.75213175  -0.00003253  0.72583345  1
  O2-  O129  1  0.75647925  0.49486961  0.06328035  1
  O2-  O130  1  0.75232071  0.49964248  0.40170278  1
  O2-  O131  1  0.74906057  0.50173404  0.72462442  1
  O2-  O132  1  0.00408533  0.24599790  0.27397376  1
  O2-  O133  1  -0.00855840  0.25024222  0.60472232  1
  O2-  O134  1  -0.00155169  0.25235987  0.93580384  1
  O2-  O135  1  -0.00093100  0.74029141  0.27200497  1
  O2-  O136  1  -0.00158762  0.75502305  0.60560643  1
  O2-  O137  1  0.00249747  0.74239075  0.94206878  1
  O2-  O138  1  0.50406962  0.24533864  0.27406876  1
  O2-  O139  1  0.50502965  0.24390360  0.60499805  1
  O2-  O140  1  0.49947327  0.24807998  0.93517134  1
  O2-  O141  1  0.50343279  0.74846223  0.27144791  1
  O2-  O142  1  0.49725550  0.74772305  0.60142517  1
  O2-  O143  1  0.49235035  0.75439173  0.94051838  1
  O2-  O144  1  0.06690753  0.17907075  0.09982890  1
  O2-  O145  1  0.07078367  0.17691684  0.42294130  1
  O2-  O146  1  0.07021620  0.18327242  0.76372711  1
  O2-  O147  1  0.08488556  0.67979840  0.08914417  1
  O2-  O148  1  0.07347047  0.67945188  0.42194818  1
  O2-  O149  1  0.06751244  0.67707734  0.76590537  1
  O2-  O150  1  0.57087161  0.17386634  0.09885178  1
  O2-  O151  1  0.57181908  0.17668724  0.42465411  1
  O2-  O152  1  0.57661958  0.17736598  0.75440802  1
  O2-  O153  1  0.56683487  0.68305695  0.10127311  1
  O2-  O154  1  0.56979472  0.68067772  0.42134109  1
  O2-  O155  1  0.57353978  0.67851574  0.76235440  1
  O2-  O156  1  0.17746183  0.42722684  0.24447336  1
  O2-  O157  1  0.17789004  0.43159646  0.57607859  1
  O2-  O158  1  0.17881054  0.42960223  0.90929798  1
  O2-  O159  1  0.17931173  0.93306221  0.23428053  1
  O2-  O160  1  0.17493698  0.92727940  0.58073651  1
  O2-  O161  1  0.17757272  0.92282448  0.91157411  1
  O2-  O162  1  0.67855236  0.42816810  0.23745455  1
  O2-  O163  1  0.67933914  0.42711221  0.57958088  1
  O2-  O164  1  0.67645164  0.43296686  0.90054827  1
  O2-  O165  1  0.67509463  0.92674478  0.24454059  1
  O2-  O166  1  0.68218054  0.93038765  0.57703571  1
  O2-  O167  1  0.68046035  0.92780582  0.90898007  1
  O2-  O168  1  0.43028270  0.32275194  0.09863103  1
  O2-  O169  1  0.42987590  0.31911123  0.43218444  1
  O2-  O170  1  0.42979660  0.31896724  0.76444458  1
  O2-  O171  1  0.42493752  0.82056418  0.09097248  1
  O2-  O172  1  0.42879676  0.82130189  0.43110724  1
  O2-  O173  1  0.43393522  0.82153577  0.76766616  1
  O2-  O174  1  0.92745703  0.32179984  0.09929828  1
  O2-  O175  1  0.93100989  0.31671626  0.43460194  1
  O2-  O176  1  0.92831155  0.32169023  0.75581917  1
  O2-  O177  1  0.92993612  0.82243810  0.09959560  1
  O2-  O178  1  0.93405840  0.82026691  0.43391110  1
  O2-  O179  1  0.92679320  0.82074570  0.75451670  1
  O2-  O180  1  0.32174982  0.07248516  0.24451387  1
  O2-  O181  1  0.31691078  0.07039290  0.56691950  1
  O2-  O182  1  0.31953467  0.07124736  0.90222402  1
  O2-  O183  1  0.31898948  0.56901782  0.23322617  1
  O2-  O184  1  0.32030316  0.57024702  0.57693455  1
  O2-  O185  1  0.31886805  0.57366052  0.90658732  1
  O2-  O186  1  0.81996923  0.06871211  0.23186759  1
  O2-  O187  1  0.82246399  0.07179948  0.57912245  1
  O2-  O188  1  0.82221542  0.06508820  0.90618043  1
  O2-  O189  1  0.81834633  0.57378425  0.23717052  1
  O2-  O190  1  0.82290001  0.56936301  0.57715414  1
  O2-  O191  1  0.81881359  0.57465635  0.89999509  1
  O2-  O192  1  0.04455621  0.08236964  0.27313461  1
  O2-  O193  1  0.04161273  0.08154005  0.59888979  1
  O2-  O194  1  0.04322307  0.08245136  0.92956315  1
  O2-  O195  1  0.05511346  0.58062855  0.27293486  1
  O2-  O196  1  0.03875124  0.58241486  0.59686576  1
  O2-  O197  1  0.05547981  0.58320100  0.93845579  1
  O2-  O198  1  0.55094291  0.08339536  0.27222343  1
  O2-  O199  1  0.55300080  0.08245336  0.60412812  1
  O2-  O200  1  0.54283484  0.07730623  0.93248199  1
  O2-  O201  1  0.54300410  0.58550066  0.27167107  1
  O2-  O202  1  0.54550657  0.57985438  0.59531170  1
  O2-  O203  1  0.53745545  0.58700503  0.93102166  1
  O2-  O204  1  0.16557570  0.19944878  0.27113907  1
  O2-  O205  1  0.16330044  0.21367027  0.59377982  1
  O2-  O206  1  0.16703176  0.21207142  0.93347124  1
  O2-  O207  1  0.16415659  0.70808237  0.26963013  1
  O2-  O208  1  0.16714376  0.70533452  0.59826202  1
  O2-  O209  1  0.16640773  0.70846976  0.93305977  1
  O2-  O210  1  0.66745348  0.20256644  0.27511757  1
  O2-  O211  1  0.66882851  0.20475928  0.60398060  1
  O2-  O212  1  0.66951035  0.20062852  0.92949648  1
  O2-  O213  1  0.66518140  0.70454155  0.27112406  1
  O2-  O214  1  0.66987777  0.70905934  0.59531624  1
  O2-  O215  1  0.66212112  0.71535887  0.93069801  1
  O2-  O216  1  0.08789059  0.45750831  0.06412550  1
  O2-  O217  1  0.08527426  0.45090359  0.39852699  1
  O2-  O218  1  0.08723219  0.45900885  0.72933305  1
  O2-  O219  1  0.08258035  0.95538602  0.06088670  1
  O2-  O220  1  0.08630576  0.96032664  0.40614785  1
  O2-  O221  1  0.08232611  0.95310069  0.73157600  1
  O2-  O222  1  0.58111425  0.46273511  0.06661697  1
  O2-  O223  1  0.58230066  0.45967770  0.40496256  1
  O2-  O224  1  0.58532260  0.45845939  0.72987026  1
  O2-  O225  1  0.58721658  0.95384047  0.06346080  1
  O2-  O226  1  0.58274541  0.95447173  0.39757312  1
  O2-  O227  1  0.59030895  0.95636387  0.73145821  1
  O2-  O228  1  0.20621991  0.33915807  0.06461836  1
  O2-  O229  1  0.20237673  0.33042418  0.39451952  1
  O2-  O230  1  0.20741558  0.33796563  0.72737159  1
  O2-  O231  1  0.20109392  0.83421873  0.06573208  1
  O2-  O232  1  0.21015878  0.83363794  0.40175875  1
  O2-  O233  1  0.19888441  0.83096548  0.73127012  1
  O2-  O234  1  0.70046719  0.32628071  0.06417209  1
  O2-  O235  1  0.70717789  0.33067876  0.40650316  1
  O2-  O236  1  0.70448111  0.33747409  0.73247523  1
  O2-  O237  1  0.70945069  0.83870562  0.06246740  1
  O2-  O238  1  0.70124857  0.83416016  0.39784091  1
  O2-  O239  1  0.71043036  0.83674834  0.72894938  1
  O2-  O240  1  0.46031862  0.41897765  0.26749098  1
  O2-  O241  1  0.46096124  0.41473532  0.59802428  1
  O2-  O242  1  0.45720507  0.41955594  0.93035641  1
  O2-  O243  1  0.45647593  0.91871735  0.26409432  1
  O2-  O244  1  0.46194497  0.91969059  0.59989193  1
  O2-  O245  1  0.45241624  0.91708692  0.94224824  1
  O2-  O246  1  0.95907436  0.41663482  0.26706078  1
  O2-  O247  1  0.95512960  0.41406557  0.60445142  1
  O2-  O248  1  0.95646210  0.42374181  0.93432940  1
  O2-  O249  1  0.96485413  0.91506121  0.26762796  1
  O2-  O250  1  0.95182800  0.91724162  0.60523382  1
  O2-  O251  1  0.96132898  0.91263103  0.92691005  1
  O2-  O252  1  0.33256898  0.29364425  0.26458445  1
  O2-  O253  1  0.33367697  0.28932426  0.59656280  1
  O2-  O254  1  0.33000263  0.29459208  0.93409028  1
  O2-  O255  1  0.33143116  0.78830354  0.26451719  1
  O2-  O256  1  0.32924518  0.79851037  0.60371222  1
  O2-  O257  1  0.33075468  0.80047391  0.93952795  1
  O2-  O258  1  0.83198151  0.28673023  0.26989261  1
  O2-  O259  1  0.83132993  0.29785777  0.60711014  1
  O2-  O260  1  0.82945240  0.29675321  0.93073452  1
  O2-  O261  1  0.83027256  0.79537785  0.26860830  1
  O2-  O262  1  0.83559756  0.79677561  0.60160780  1
  O2-  O263  1  0.83353104  0.79072653  0.92958901  1
  O2-  O264  1  0.41648519  0.04264214  0.07142545  1
  O2-  O265  1  0.41827678  0.04923043  0.39453710  1
  O2-  O266  1  0.41877511  0.04356465  0.73292351  1
  O2-  O267  1  0.41204474  0.54485863  0.05955055  1
  O2-  O268  1  0.41581138  0.54044586  0.40324083  1
  O2-  O269  1  0.41452694  0.54234807  0.72707892  1
  O2-  O270  1  0.91336466  0.03761714  0.05771716  1
  O2-  O271  1  0.91528375  0.03628179  0.40227398  1
  O2-  O272  1  0.91463058  0.04388097  0.73146803  1
  O2-  O273  1  0.92481609  0.55824524  0.06389845  1
  O2-  O274  1  0.92314482  0.54547222  0.40061379  1
  O2-  O275  1  0.91311007  0.54247052  0.72984265  1
  O2-  O276  1  0.28779603  0.16833117  0.07019597  1
  O2-  O277  1  0.29624762  0.16694265  0.39476504  1
  O2-  O278  1  0.28485508  0.16770357  0.73208604  1
  O2-  O279  1  0.29301075  0.66435640  0.06017343  1
  O2-  O280  1  0.28734552  0.66443313  0.40232607  1
  O2-  O281  1  0.29310265  0.66288210  0.72927273  1
  O2-  O282  1  0.79750351  0.16268450  0.05670853  1
  O2-  O283  1  0.79038268  0.16277867  0.40563620  1
  O2-  O284  1  0.79467758  0.16384862  0.73160020  1
  O2-  O285  1  0.78553017  0.67042036  0.06559830  1
  O2-  O286  1  0.79421903  0.67109634  0.40416726  1
  O2-  O287  1  0.79616589  0.66545513  0.72605041  1
