# generated using pymatgen
data_Ca2Al2SiO7
_symmetry_space_group_name_H-M   'P 1'
_cell_length_a   15.45679974
_cell_length_b   15.45713926
_cell_length_c   15.28296147
_cell_angle_alpha   90.00815868
_cell_angle_beta   89.98645975
_cell_angle_gamma   89.99569090
_symmetry_Int_Tables_number   1
_chemical_formula_structural   Ca2Al2SiO7
_chemical_formula_sum   'Ca48 Al48 Si24 O168'
_cell_volume   3651.37300414
_cell_formula_units_Z   24
loop_
 _symmetry_equiv_pos_site_id
 _symmetry_equiv_pos_as_xyz
  1  'x, y, z'
loop_
 _atom_type_symbol
 _atom_type_oxidation_number
  Ca2+  2.0
  Al0+  0.0
  Si0+  0.0
  O2-  -2.0
loop_
 _atom_site_type_symbol
 _atom_site_label
 _atom_site_symmetry_multiplicity
 _atom_site_fract_x
 _atom_site_fract_y
 _atom_site_fract_z
 _atom_site_occupancy
  Ca2+  Ca0  1  0.18092868  0.08656570  0.17217523  1
  Ca2+  Ca1  1  0.17414013  0.07986755  0.50309510  1
  Ca2+  Ca2  1  0.17016819  0.08117880  0.83787345  1
  Ca2+  Ca3  1  0.17102881  0.57853726  0.17953469  1
  Ca2+  Ca4  1  0.16872682  0.58291384  0.49298379  1
  Ca2+  Ca5  1  0.16976064  0.58099844  0.83467057  1
  Ca2+  Ca6  1  0.66260127  0.08526832  0.16602094  1
  Ca2+  Ca7  1  0.66312430  0.08486858  0.49789430  1
  Ca2+  Ca8  1  0.67090976  0.07815854  0.84698817  1
  Ca2+  Ca9  1  0.67155929  0.57663154  0.17310674  1
  Ca2+  Ca10  1  0.67509167  0.58088504  0.50523201  1
  Ca2+  Ca11  1  0.67115337  0.56966731  0.83434196  1
  Ca2+  Ca12  1  0.07240805  0.34260966  0.16611323  1
  Ca2+  Ca13  1  0.07256050  0.34507852  0.49504479  1
  Ca2+  Ca14  1  0.06964302  0.33026998  0.82999699  1
  Ca2+  Ca15  1  0.08071040  0.82446985  0.16315826  1
  Ca2+  Ca16  1  0.08119702  0.82916338  0.49684584  1
  Ca2+  Ca17  1  0.07225770  0.83834262  0.82729052  1
  Ca2+  Ca18  1  0.57470088  0.32561537  0.15900300  1
  Ca2+  Ca19  1  0.57536031  0.33363461  0.49342586  1
  Ca2+  Ca20  1  0.58035906  0.33372930  0.83122433  1
  Ca2+  Ca21  1  0.58427477  0.82861678  0.16805161  1
  Ca2+  Ca22  1  0.57804949  0.82412942  0.48745506  1
  Ca2+  Ca23  1  0.58826181  0.83377274  0.83271764  1
  Ca2+  Ca24  1  0.32769251  0.41378148  0.17817837  1
  Ca2+  Ca25  1  0.33533266  0.41573970  0.49936421  1
  Ca2+  Ca26  1  0.33724354  0.41144162  0.83796525  1
  Ca2+  Ca27  1  0.34331599  0.92875587  0.17326204  1
  Ca2+  Ca28  1  0.33193493  0.91934774  0.50122966  1
  Ca2+  Ca29  1  0.32473936  0.92343858  0.84073638  1
  Ca2+  Ca30  1  0.82920476  0.41345139  0.17390955  1
  Ca2+  Ca31  1  0.83308076  0.42643972  0.50683227  1
  Ca2+  Ca32  1  0.82452360  0.41139278  0.83819765  1
  Ca2+  Ca33  1  0.83135491  0.91896853  0.16429644  1
  Ca2+  Ca34  1  0.83415885  0.91736216  0.50652498  1
  Ca2+  Ca35  1  0.83308008  0.92139660  0.84575825  1
  Ca2+  Ca36  1  0.42074743  0.17051717  0.16150042  1
  Ca2+  Ca37  1  0.42134855  0.17498532  0.48966712  1
  Ca2+  Ca38  1  0.41871291  0.17392259  0.83366705  1
  Ca2+  Ca39  1  0.41756249  0.66660622  0.16896037  1
  Ca2+  Ca40  1  0.42211550  0.67061787  0.48596248  1
  Ca2+  Ca41  1  0.42142917  0.66717326  0.82936623  1
  Ca2+  Ca42  1  0.91453175  0.17691715  0.16123646  1
  Ca2+  Ca43  1  0.91650815  0.18203919  0.49525407  1
  Ca2+  Ca44  1  0.90391791  0.17691375  0.83442905  1
  Ca2+  Ca45  1  0.92056853  0.66479886  0.16534382  1
  Ca2+  Ca46  1  0.91596595  0.66658923  0.49266646  1
  Ca2+  Ca47  1  0.90847962  0.67849976  0.82894816  1
  Al0+  Al48  1  0.00054435  -0.00161748  0.00278906  1
  Al0+  Al49  1  -0.00115506  0.00206353  0.33447482  1
  Al0+  Al50  1  0.00085232  -0.00065350  0.66576069  1
  Al0+  Al51  1  0.00192314  0.50025996  -0.00743371  1
  Al0+  Al52  1  -0.00095508  0.50276104  0.33246747  1
  Al0+  Al53  1  0.00287774  0.50324434  0.66964909  1
  Al0+  Al54  1  0.49946346  -0.00151849  0.00223517  1
  Al0+  Al55  1  0.50080184  -0.00034633  0.33384945  1
  Al0+  Al56  1  0.49947113  0.00113704  0.66808747  1
  Al0+  Al57  1  0.50119936  0.50143225  0.00030423  1
  Al0+  Al58  1  0.49990726  0.49989187  0.32921214  1
  Al0+  Al59  1  0.50120623  0.50008525  0.66636665  1
  Al0+  Al60  1  0.24861980  0.25056847  0.00028711  1
  Al0+  Al61  1  0.24720496  0.24813755  0.34278898  1
  Al0+  Al62  1  0.25152736  0.25083897  0.66375200  1
  Al0+  Al63  1  0.25075829  0.74857883  -0.00177853  1
  Al0+  Al64  1  0.24821356  0.75026372  0.32825492  1
  Al0+  Al65  1  0.24911280  0.75097937  0.67291260  1
  Al0+  Al66  1  0.74811540  0.24909787  0.00120059  1
  Al0+  Al67  1  0.74986418  0.24884134  0.32839682  1
  Al0+  Al68  1  0.74935302  0.24913352  0.66420640  1
  Al0+  Al69  1  0.75078156  0.74912655  0.00010713  1
  Al0+  Al70  1  0.74913117  0.75103921  0.33326082  1
  Al0+  Al71  1  0.75055416  0.75004140  0.66547137  1
  Al0+  Al72  1  0.92807214  0.32058475  0.98623875  1
  Al0+  Al73  1  0.92908392  0.82066306  0.65201416  1
  Al0+  Al74  1  0.93064561  0.81929660  0.98764978  1
  Al0+  Al75  1  0.17941934  0.92920618  0.68093817  1
  Al0+  Al76  1  0.42792663  0.82042008  0.31873730  1
  Al0+  Al77  1  0.67886359  0.42865167  0.01532367  1
  Al0+  Al78  1  0.42986241  0.32143868  0.65100743  1
  Al0+  Al79  1  0.82388363  0.57264586  0.68330011  1
  Al0+  Al80  1  0.42584215  0.32081597  0.31897579  1
  Al0+  Al81  1  0.32271862  0.57153619  0.34720343  1
  Al0+  Al82  1  0.67932769  0.42823783  0.68086461  1
  Al0+  Al83  1  0.17808116  0.42871509  0.34910327  1
  Al0+  Al84  1  0.06856688  0.68093535  0.32023108  1
  Al0+  Al85  1  0.57324692  0.67708091  0.31768996  1
  Al0+  Al86  1  0.67842206  0.92617793  0.01689233  1
  Al0+  Al87  1  0.93123446  0.32195983  0.32086207  1
  Al0+  Al88  1  0.82196198  0.07161104  0.01676922  1
  Al0+  Al89  1  0.31857004  0.07075974  0.01331332  1
  Al0+  Al90  1  0.92872496  0.32173995  0.65298315  1
  Al0+  Al91  1  0.57097378  0.17875268  0.31724396  1
  Al0+  Al92  1  0.32245607  0.06997983  0.34929454  1
  Al0+  Al93  1  0.42776682  0.32222304  0.98498037  1
  Al0+  Al94  1  0.81950658  0.57111935  0.34555163  1
  Al0+  Al95  1  0.56969981  0.17726216  0.98320569  1
  Si0+  Si96  1  0.68079331  0.92978355  0.34991939  1
  Si0+  Si97  1  0.92646109  0.82554459  0.31637077  1
  Si0+  Si98  1  0.57194342  0.17547224  0.64966422  1
  Si0+  Si99  1  0.67810335  0.92900332  0.67947459  1
  Si0+  Si100  1  0.57159836  0.67920263  0.98287697  1
  Si0+  Si101  1  0.32165237  0.57080115  0.68179815  1
  Si0+  Si102  1  0.42780949  0.82153714  0.65457340  1
  Si0+  Si103  1  0.17899558  0.43053577  0.01286926  1
  Si0+  Si104  1  0.07101764  0.17541012  0.31794399  1
  Si0+  Si105  1  0.07302069  0.17850803  0.64974369  1
  Si0+  Si106  1  0.82231469  0.07244574  0.35045465  1
  Si0+  Si107  1  0.32178115  0.57218192  0.01425541  1
  Si0+  Si108  1  0.07438886  0.67778099  0.97975804  1
  Si0+  Si109  1  0.07550662  0.67906335  0.64924919  1
  Si0+  Si110  1  0.07243709  0.17774076  0.98518238  1
  Si0+  Si111  1  0.17557153  0.92793596  0.34908193  1
  Si0+  Si112  1  0.82311411  0.57044604  0.01570718  1
  Si0+  Si113  1  0.42823369  0.82048429  0.98312026  1
  Si0+  Si114  1  0.56983660  0.68064483  0.65266573  1
  Si0+  Si115  1  0.67838233  0.42584502  0.34869438  1
  Si0+  Si116  1  0.17942553  0.42791791  0.68361694  1
  Si0+  Si117  1  0.17789460  0.92555052  0.01849642  1
  Si0+  Si118  1  0.82077828  0.07001856  0.67968063  1
  Si0+  Si119  1  0.32236821  0.07285434  0.68485434  1
  O2-  O120  1  0.24584989  -0.00549033  0.06209383  1
  O2-  O121  1  0.24642372  -0.00554772  0.39360927  1
  O2-  O122  1  0.25309614  0.00441789  0.72859155  1
  O2-  O123  1  0.25211897  0.49949249  0.05406853  1
  O2-  O124  1  0.25494609  0.49642074  0.39931295  1
  O2-  O125  1  0.25270849  0.49782247  0.72487090  1
  O2-  O126  1  0.74834562  0.00059454  0.06649687  1
  O2-  O127  1  0.75216498  0.00032845  0.39284025  1
  O2-  O128  1  0.74936017  -0.00084636  0.72152205  1
  O2-  O129  1  0.75880656  0.49872579  0.06075214  1
  O2-  O130  1  0.74450863  0.49714916  0.39305638  1
  O2-  O131  1  0.75636272  0.49545312  0.73171413  1
  O2-  O132  1  0.00629248  0.24758265  0.27398633  1
  O2-  O133  1  0.00582092  0.24902349  0.60610839  1
  O2-  O134  1  -0.00086307  0.24125087  0.94014881  1
  O2-  O135  1  -0.00487907  0.75668256  0.27338021  1
  O2-  O136  1  0.00199040  0.74376493  0.60677916  1
  O2-  O137  1  0.00577760  0.74692482  0.93706989  1
  O2-  O138  1  0.49789712  0.24984572  0.26839252  1
  O2-  O139  1  0.50449837  0.24580110  0.60698212  1
  O2-  O140  1  0.50000564  0.25146398  0.93291367  1
  O2-  O141  1  0.49719849  0.74574154  0.26838439  1
  O2-  O142  1  0.49965876  0.75283505  0.61127805  1
  O2-  O143  1  0.50067975  0.75108854  0.94003762  1
  O2-  O144  1  0.07518842  0.18164697  0.09044351  1
  O2-  O145  1  0.06576945  0.16993494  0.42350613  1
  O2-  O146  1  0.07422401  0.17943617  0.75555576  1
  O2-  O147  1  0.07607544  0.67676038  0.08508417  1
  O2-  O148  1  0.06781064  0.68278252  0.43344604  1
  O2-  O149  1  0.08029847  0.68180071  0.75485014  1
  O2-  O150  1  0.56614287  0.17790292  0.09615812  1
  O2-  O151  1  0.57135386  0.17943727  0.43165139  1
  O2-  O152  1  0.57099862  0.17017042  0.75465079  1
  O2-  O153  1  0.57026122  0.67894661  0.08736572  1
  O2-  O154  1  0.57523125  0.68228744  0.43206344  1
  O2-  O155  1  0.56793500  0.68163442  0.75824450  1
  O2-  O156  1  0.17595562  0.43199105  0.23499472  1
  O2-  O157  1  0.17762199  0.42904188  0.57920110  1
  O2-  O158  1  0.17847169  0.43222721  0.90725341  1
  O2-  O159  1  0.17210264  0.93096239  0.24373627  1
  O2-  O160  1  0.18270337  0.92826617  0.56797757  1
  O2-  O161  1  0.17945719  0.92544165  0.91243280  1
  O2-  O162  1  0.68215753  0.42559881  0.24309246  1
  O2-  O163  1  0.67693752  0.43218440  0.56744269  1
  O2-  O164  1  0.67771353  0.43179141  0.90195879  1
  O2-  O165  1  0.68230714  0.92785669  0.24547494  1
  O2-  O166  1  0.67691569  0.92948763  0.57436802  1
  O2-  O167  1  0.68127367  0.92530013  0.90217100  1
  O2-  O168  1  0.42437113  0.32208772  0.09765419  1
  O2-  O169  1  0.42962500  0.31940893  0.43305718  1
  O2-  O170  1  0.42860901  0.32026857  0.76393847  1
  O2-  O171  1  0.42465934  0.81764341  0.08743255  1
  O2-  O172  1  0.43118977  0.82052457  0.43352188  1
  O2-  O173  1  0.42919912  0.82000017  0.75998876  1
  O2-  O174  1  0.93256059  0.32453973  0.09896148  1
  O2-  O175  1  0.93073253  0.32116983  0.43433805  1
  O2-  O176  1  0.92861735  0.31750260  0.76615298  1
  O2-  O177  1  0.93240541  0.81618822  0.10058859  1
  O2-  O178  1  0.92734856  0.82668894  0.42229649  1
  O2-  O179  1  0.92904735  0.82229785  0.76505014  1
  O2-  O180  1  0.32110285  0.06924971  0.23612053  1
  O2-  O181  1  0.32363553  0.06999000  0.57954782  1
  O2-  O182  1  0.31493016  0.06868478  0.89966482  1
  O2-  O183  1  0.31788457  0.57264067  0.23341541  1
  O2-  O184  1  0.32154377  0.57433265  0.57758609  1
  O2-  O185  1  0.32040652  0.57504808  0.90839227  1
  O2-  O186  1  0.82532994  0.07166699  0.24612905  1
  O2-  O187  1  0.82010920  0.06930558  0.57427822  1
  O2-  O188  1  0.82168975  0.06868308  0.90213398  1
  O2-  O189  1  0.82007109  0.56976483  0.23234135  1
  O2-  O190  1  0.82026733  0.57410504  0.56965826  1
  O2-  O191  1  0.81992197  0.57202307  0.91009215  1
  O2-  O192  1  0.04270066  0.08405317  0.26832653  1
  O2-  O193  1  0.04608299  0.08540705  0.60380913  1
  O2-  O194  1  0.05345347  0.08132581  0.94196210  1
  O2-  O195  1  0.03587348  0.58682385  0.26310906  1
  O2-  O196  1  0.05609976  0.58342098  0.60591409  1
  O2-  O197  1  0.04978365  0.58507886  0.93128931  1
  O2-  O198  1  0.54501084  0.07917637  0.26741935  1
  O2-  O199  1  0.54393630  0.08232209  0.60160266  1
  O2-  O200  1  0.54094535  0.07749905  0.93146318  1
  O2-  O201  1  0.54987088  0.57864117  0.26410213  1
  O2-  O202  1  0.54066551  0.59007622  0.60523550  1
  O2-  O203  1  0.54044019  0.58946004  0.93310231  1
  O2-  O204  1  0.16663306  0.19734413  0.27642847  1
  O2-  O205  1  0.16712407  0.20175405  0.60379053  1
  O2-  O206  1  0.16237607  0.20894608  0.93441279  1
  O2-  O207  1  0.16371970  0.70991384  0.26255812  1
  O2-  O208  1  0.16756870  0.71073233  0.60281803  1
  O2-  O209  1  0.16829408  0.70339819  0.93292639  1
  O2-  O210  1  0.66957884  0.20419645  0.26409023  1
  O2-  O211  1  0.66605983  0.19788743  0.60343060  1
  O2-  O212  1  0.66952576  0.20281047  0.93221792  1
  O2-  O213  1  0.66911378  0.71230815  0.26329362  1
  O2-  O214  1  0.66111768  0.70859320  0.60507363  1
  O2-  O215  1  0.66284266  0.70752645  0.93483092  1
  O2-  O216  1  0.08774001  0.46171799  0.05973152  1
  O2-  O217  1  0.08270546  0.46721133  0.40247776  1
  O2-  O218  1  0.08967946  0.45803390  0.73431491  1
  O2-  O219  1  0.08421554  0.94767256  0.06436763  1
  O2-  O220  1  0.08272485  0.95572749  0.39740017  1
  O2-  O221  1  0.08271411  0.96095066  0.73515077  1
  O2-  O222  1  0.58378791  0.46509169  0.06869039  1
  O2-  O223  1  0.58329061  0.44915224  0.39182196  1
  O2-  O224  1  0.58283039  0.46335380  0.73554587  1
  O2-  O225  1  0.57835390  0.94934211  0.06749673  1
  O2-  O226  1  0.58979308  0.95775896  0.39906921  1
  O2-  O227  1  0.58596204  0.95520935  0.72829913  1
  O2-  O228  1  0.20253364  0.33837970  0.06031893  1
  O2-  O229  1  0.19605092  0.32914624  0.40414079  1
  O2-  O230  1  0.20630499  0.33516139  0.72993120  1
  O2-  O231  1  0.20501137  0.83101382  0.06190830  1
  O2-  O232  1  0.19975622  0.83377975  0.39384504  1
  O2-  O233  1  0.21074755  0.83440245  0.73919213  1
  O2-  O234  1  0.70514129  0.33132362  0.06786941  1
  O2-  O235  1  0.70615092  0.33267844  0.39468728  1
  O2-  O236  1  0.70358335  0.32739740  0.73161347  1
  O2-  O237  1  0.71019242  0.82849748  0.06970675  1
  O2-  O238  1  0.70854314  0.83864175  0.39942683  1
  O2-  O239  1  0.70401926  0.83684875  0.72658050  1
  O2-  O240  1  0.44920688  0.42027050  0.26719150  1
  O2-  O241  1  0.45972553  0.41931107  0.59898633  1
  O2-  O242  1  0.45529544  0.42241642  0.93333290  1
  O2-  O243  1  0.46285448  0.91638914  0.26645867  1
  O2-  O244  1  0.45306143  0.91461830  0.60854058  1
  O2-  O245  1  0.45390877  0.91212488  0.93510643  1
  O2-  O246  1  0.96203375  0.41724746  0.26565392  1
  O2-  O247  1  0.96064268  0.42049232  0.60386493  1
  O2-  O248  1  0.96303283  0.41499130  0.92929667  1
  O2-  O249  1  0.95223311  0.91928135  0.27101861  1
  O2-  O250  1  0.96127605  0.91696265  0.59751861  1
  O2-  O251  1  0.96020394  0.91698611  0.93378151  1
  O2-  O252  1  0.32449257  0.29260771  0.27274684  1
  O2-  O253  1  0.33236727  0.29261562  0.59771066  1
  O2-  O254  1  0.32864256  0.29279543  0.93187391  1
  O2-  O255  1  0.32893911  0.79889161  0.26494454  1
  O2-  O256  1  0.33601911  0.79241544  0.60909622  1
  O2-  O257  1  0.33724525  0.78970569  0.93363664  1
  O2-  O258  1  0.83617985  0.28857353  0.26678110  1
  O2-  O259  1  0.83324110  0.28892950  0.59804048  1
  O2-  O260  1  0.83141743  0.29063526  0.93267647  1
  O2-  O261  1  0.83314727  0.79994498  0.27164817  1
  O2-  O262  1  0.83130711  0.79297839  0.59787526  1
  O2-  O263  1  0.83405581  0.78811053  0.93271699  1
  O2-  O264  1  0.41438787  0.03854375  0.06622473  1
  O2-  O265  1  0.41820470  0.03696447  0.40439629  1
  O2-  O266  1  0.41547128  0.04569056  0.73164620  1
  O2-  O267  1  0.41465931  0.54951681  0.06001347  1
  O2-  O268  1  0.42354378  0.54928531  0.39876302  1
  O2-  O269  1  0.41356389  0.54473667  0.73030185  1
  O2-  O270  1  0.92072933  0.04240625  0.06947760  1
  O2-  O271  1  0.91357402  0.04510633  0.40016693  1
  O2-  O272  1  0.91258660  0.04303666  0.72659688  1
  O2-  O273  1  0.92027243  0.54920990  0.05630850  1
  O2-  O274  1  0.91511092  0.54066252  0.40059340  1
  O2-  O275  1  0.92551586  0.55456624  0.73396835  1
  O2-  O276  1  0.28558278  0.16668638  0.06730710  1
  O2-  O277  1  0.28960259  0.16356379  0.40778037  1
  O2-  O278  1  0.29556872  0.16678929  0.72945014  1
  O2-  O279  1  0.29195680  0.66331565  0.06185735  1
  O2-  O280  1  0.28998638  0.67032526  0.39902565  1
  O2-  O281  1  0.29196435  0.66105580  0.73292986  1
  O2-  O282  1  0.79569932  0.17024213  0.06865627  1
  O2-  O283  1  0.79171494  0.16358062  0.39824741  1
  O2-  O284  1  0.79277911  0.16154264  0.72710037  1
  O2-  O285  1  0.79438813  0.66248769  0.06226025  1
  O2-  O286  1  0.79103001  0.66915793  0.39942219  1
  O2-  O287  1  0.78780920  0.66983467  0.73581111  1
