# generated using pymatgen
data_Ca2Al2SiO7
_symmetry_space_group_name_H-M   'P 1'
_cell_length_a   15.46167239
_cell_length_b   15.46354071
_cell_length_c   15.28614485
_cell_angle_alpha   90.01492497
_cell_angle_beta   89.99183807
_cell_angle_gamma   90.00065529
_symmetry_Int_Tables_number   1
_chemical_formula_structural   Ca2Al2SiO7
_chemical_formula_sum   'Ca48 Al48 Si24 O168'
_cell_volume   3654.79784769
_cell_formula_units_Z   24
loop_
 _symmetry_equiv_pos_site_id
 _symmetry_equiv_pos_as_xyz
  1  'x, y, z'
loop_
 _atom_type_symbol
 _atom_type_oxidation_number
  Ca2+  2.0
  Al0+  0.0
  Si0+  0.0
  O2-  -2.0
loop_
 _atom_site_type_symbol
 _atom_site_label
 _atom_site_symmetry_multiplicity
 _atom_site_fract_x
 _atom_site_fract_y
 _atom_site_fract_z
 _atom_site_occupancy
  Ca2+  Ca0  1  0.16339017  0.07738628  0.16988669  1
  Ca2+  Ca1  1  0.16401341  0.08260591  0.49896828  1
  Ca2+  Ca2  1  0.16807370  0.07335632  0.84017107  1
  Ca2+  Ca3  1  0.17816690  0.57651101  0.17368821  1
  Ca2+  Ca4  1  0.16406391  0.58022287  0.50185631  1
  Ca2+  Ca5  1  0.16606569  0.57539993  0.83913382  1
  Ca2+  Ca6  1  0.66426228  0.06825369  0.17123065  1
  Ca2+  Ca7  1  0.67192945  0.07507321  0.50445928  1
  Ca2+  Ca8  1  0.67350394  0.07864184  0.83840650  1
  Ca2+  Ca9  1  0.67069020  0.59063025  0.16853366  1
  Ca2+  Ca10  1  0.67181026  0.58714377  0.50058429  1
  Ca2+  Ca11  1  0.68062110  0.58254109  0.84114578  1
  Ca2+  Ca12  1  0.09684113  0.32962683  0.16594797  1
  Ca2+  Ca13  1  0.08211640  0.33511888  0.49504522  1
  Ca2+  Ca14  1  0.07987630  0.34077779  0.82668219  1
  Ca2+  Ca15  1  0.07516699  0.82999564  0.15960575  1
  Ca2+  Ca16  1  0.07754597  0.81608740  0.49109101  1
  Ca2+  Ca17  1  0.08106285  0.82542638  0.83078997  1
  Ca2+  Ca18  1  0.57252569  0.33970594  0.15976038  1
  Ca2+  Ca19  1  0.57639195  0.33172316  0.49115492  1
  Ca2+  Ca20  1  0.57868802  0.34472437  0.83598882  1
  Ca2+  Ca21  1  0.57756182  0.83203794  0.16375779  1
  Ca2+  Ca22  1  0.57708509  0.82815117  0.49005241  1
  Ca2+  Ca23  1  0.57422350  0.83731178  0.83309155  1
  Ca2+  Ca24  1  0.33400720  0.42503476  0.17420329  1
  Ca2+  Ca25  1  0.32410513  0.42096882  0.49919613  1
  Ca2+  Ca26  1  0.32229531  0.42316830  0.84598514  1
  Ca2+  Ca27  1  0.33132704  0.90963204  0.16917609  1
  Ca2+  Ca28  1  0.33749173  0.91183626  0.50223105  1
  Ca2+  Ca29  1  0.32959661  0.91118397  0.84191372  1
  Ca2+  Ca30  1  0.82809188  0.42340513  0.16481393  1
  Ca2+  Ca31  1  0.83581735  0.42219313  0.51031164  1
  Ca2+  Ca32  1  0.83476389  0.42782104  0.83888971  1
  Ca2+  Ca33  1  0.82440427  0.90305717  0.17149295  1
  Ca2+  Ca34  1  0.83169107  0.91595935  0.50043241  1
  Ca2+  Ca35  1  0.83228099  0.92116001  0.84344257  1
  Ca2+  Ca36  1  0.41262952  0.18178154  0.16281758  1
  Ca2+  Ca37  1  0.41642592  0.17451247  0.49239867  1
  Ca2+  Ca38  1  0.41800027  0.17402328  0.83434756  1
  Ca2+  Ca39  1  0.41729365  0.66702621  0.16284299  1
  Ca2+  Ca40  1  0.42050273  0.67494813  0.48898439  1
  Ca2+  Ca41  1  0.40775403  0.67604545  0.83343121  1
  Ca2+  Ca42  1  0.92404138  0.16683912  0.16564425  1
  Ca2+  Ca43  1  0.91907727  0.17120135  0.49742009  1
  Ca2+  Ca44  1  0.91520345  0.17413327  0.82592354  1
  Ca2+  Ca45  1  0.92019807  0.67297392  0.16391242  1
  Ca2+  Ca46  1  0.92640108  0.66275628  0.49493003  1
  Ca2+  Ca47  1  0.91783510  0.66473366  0.82925155  1
  Al0+  Al48  1  0.00139100  0.00000391  -0.00108382  1
  Al0+  Al49  1  -0.00096866  0.00289070  0.32810589  1
  Al0+  Al50  1  -0.00009067  0.00048176  0.67126093  1
  Al0+  Al51  1  0.00045081  0.49832051  0.00993948  1
  Al0+  Al52  1  -0.00130255  0.49882267  0.33073511  1
  Al0+  Al53  1  -0.00090600  0.49919473  0.66624876  1
  Al0+  Al54  1  0.50148771  0.00190971  -0.00108399  1
  Al0+  Al55  1  0.50085046  -0.00017764  0.33658070  1
  Al0+  Al56  1  0.49890397  0.00228166  0.66352747  1
  Al0+  Al57  1  0.50073656  0.50083067  -0.00310638  1
  Al0+  Al58  1  0.50018798  0.50144596  0.33205809  1
  Al0+  Al59  1  0.49830836  0.50202931  0.66509995  1
  Al0+  Al60  1  0.25169172  0.24747830  -0.00535993  1
  Al0+  Al61  1  0.24915084  0.24916072  0.33056141  1
  Al0+  Al62  1  0.24966934  0.24836838  0.67118259  1
  Al0+  Al63  1  0.24839246  0.74915178  0.00355965  1
  Al0+  Al64  1  0.24928161  0.74941914  0.33229366  1
  Al0+  Al65  1  0.24887887  0.75002490  0.65774112  1
  Al0+  Al66  1  0.75262369  0.24991260  0.00381433  1
  Al0+  Al67  1  0.75055475  0.24871462  0.33270185  1
  Al0+  Al68  1  0.74879726  0.24837785  0.66626020  1
  Al0+  Al69  1  0.75095043  0.75252808  0.00125004  1
  Al0+  Al70  1  0.74857818  0.74969201  0.33490059  1
  Al0+  Al71  1  0.74738784  0.75055520  0.67190589  1
  Al0+  Al72  1  0.92931716  0.31967187  0.65503791  1
  Al0+  Al73  1  0.32243959  0.57313115  0.35115189  1
  Al0+  Al74  1  0.06801411  0.67886126  0.65430170  1
  Al0+  Al75  1  0.42991287  0.82098914  0.65285871  1
  Al0+  Al76  1  0.06979135  0.18123404  0.31984206  1
  Al0+  Al77  1  0.67955253  0.42845803  0.01427548  1
  Al0+  Al78  1  0.92997463  0.82067299  0.32032590  1
  Al0+  Al79  1  0.07204397  0.67523087  0.31536521  1
  Al0+  Al80  1  0.18037764  0.42915634  0.68007359  1
  Al0+  Al81  1  0.67943093  0.92849946  0.34927320  1
  Al0+  Al82  1  0.42865444  0.82046435  0.98652379  1
  Al0+  Al83  1  0.17927901  0.92933008  0.01331959  1
  Al0+  Al84  1  0.82163378  0.57312314  0.01753894  1
  Al0+  Al85  1  0.42999738  0.32287627  0.98411294  1
  Al0+  Al86  1  0.92864696  0.82071406  0.98447155  1
  Al0+  Al87  1  0.57099661  0.67901688  0.31762118  1
  Al0+  Al88  1  0.43057250  0.31961646  0.32140410  1
  Al0+  Al89  1  0.82014664  0.57028560  0.67864355  1
  Al0+  Al90  1  0.17932234  0.42754082  0.34991991  1
  Al0+  Al91  1  0.32108549  0.57185585  0.01380561  1
  Al0+  Al92  1  0.82131307  0.07057763  0.68064162  1
  Al0+  Al93  1  0.17926204  0.42586945  0.01571368  1
  Al0+  Al94  1  0.67911626  0.93132385  0.01355231  1
  Al0+  Al95  1  0.42862763  0.82332576  0.31726095  1
  Si0+  Si96  1  0.57392399  0.17757397  0.31710337  1
  Si0+  Si97  1  0.57008050  0.17975273  0.65074655  1
  Si0+  Si98  1  0.82314878  0.07332473  0.35095762  1
  Si0+  Si99  1  0.57358787  0.67870192  0.98080821  1
  Si0+  Si100  1  0.18048590  0.92797386  0.67935761  1
  Si0+  Si101  1  0.92480448  0.32279419  0.31465151  1
  Si0+  Si102  1  0.32281786  0.07116957  0.01634439  1
  Si0+  Si103  1  0.67865516  0.42680877  0.34826292  1
  Si0+  Si104  1  0.57391581  0.67755829  0.65048879  1
  Si0+  Si105  1  0.07189393  0.17828777  0.98235982  1
  Si0+  Si106  1  0.42737698  0.32146677  0.65199731  1
  Si0+  Si107  1  0.32219694  0.07136223  0.68232764  1
  Si0+  Si108  1  0.82408217  0.07259841  0.01849361  1
  Si0+  Si109  1  0.67511489  0.42667788  0.68084949  1
  Si0+  Si110  1  0.07304801  0.17586564  0.65121013  1
  Si0+  Si111  1  0.92952259  0.32033019  0.98527692  1
  Si0+  Si112  1  0.32202692  0.57364278  0.68254188  1
  Si0+  Si113  1  0.57405009  0.17914624  0.98313847  1
  Si0+  Si114  1  0.31987907  0.07025241  0.34778578  1
  Si0+  Si115  1  0.67627353  0.92989707  0.68437399  1
  Si0+  Si116  1  0.92577645  0.82451630  0.65246392  1
  Si0+  Si117  1  0.81960585  0.56960362  0.34924332  1
  Si0+  Si118  1  0.17641148  0.92956778  0.34827604  1
  Si0+  Si119  1  0.07004053  0.67682890  0.98392529  1
  O2-  O120  1  0.25666229  0.00081458  0.06085684  1
  O2-  O121  1  0.25228500  -0.00389254  0.39124576  1
  O2-  O122  1  0.25259516  -0.00184923  0.72242073  1
  O2-  O123  1  0.25394894  0.49535521  0.06364839  1
  O2-  O124  1  0.24694489  0.50348829  0.40044170  1
  O2-  O125  1  0.25619931  0.50245787  0.72674817  1
  O2-  O126  1  0.75627678  0.00314564  0.06158336  1
  O2-  O127  1  0.75524128  0.00344553  0.39451953  1
  O2-  O128  1  0.75021284  -0.00696768  0.72836634  1
  O2-  O129  1  0.74588167  0.50390019  0.06670072  1
  O2-  O130  1  0.75114633  0.49546150  0.39157482  1
  O2-  O131  1  0.74366557  0.49599446  0.72338401  1
  O2-  O132  1  -0.00268885  0.25731643  0.27185586  1
  O2-  O133  1  0.00466445  0.24516968  0.60831651  1
  O2-  O134  1  0.00297129  0.25185459  0.94185715  1
  O2-  O135  1  0.00317217  0.75156984  0.26810360  1
  O2-  O136  1  -0.00874301  0.75300380  0.60894501  1
  O2-  O137  1  0.00028023  0.74362735  0.93722523  1
  O2-  O138  1  0.50758556  0.24780803  0.27316876  1
  O2-  O139  1  0.50163094  0.25379268  0.60930454  1
  O2-  O140  1  0.50876669  0.25099079  0.93763725  1
  O2-  O141  1  0.49723348  0.74874858  0.26739412  1
  O2-  O142  1  0.50446826  0.74618220  0.60775007  1
  O2-  O143  1  0.50198170  0.74550179  0.93716632  1
  O2-  O144  1  0.07107229  0.17675743  0.08737424  1
  O2-  O145  1  0.06797194  0.17922376  0.43325061  1
  O2-  O146  1  0.07343085  0.17395820  0.75671017  1
  O2-  O147  1  0.06925258  0.68007512  0.08893673  1
  O2-  O148  1  0.06761720  0.67558750  0.42977073  1
  O2-  O149  1  0.06976353  0.68081698  0.76743083  1
  O2-  O150  1  0.57135608  0.17755398  0.08842964  1
  O2-  O151  1  0.57328441  0.17940929  0.42339102  1
  O2-  O152  1  0.56851158  0.17639470  0.75551652  1
  O2-  O153  1  0.57475717  0.68051851  0.08600109  1
  O2-  O154  1  0.57298314  0.68093812  0.43195380  1
  O2-  O155  1  0.57604853  0.67665631  0.75565795  1
  O2-  O156  1  0.18574553  0.42451634  0.23704592  1
  O2-  O157  1  0.18204738  0.42614447  0.56751687  1
  O2-  O158  1  0.17762638  0.42855222  0.90146101  1
  O2-  O159  1  0.17493804  0.93372703  0.24348531  1
  O2-  O160  1  0.17995388  0.93057565  0.57431793  1
  O2-  O161  1  0.18010611  0.93102857  0.89926037  1
  O2-  O162  1  0.68041305  0.42471814  0.24379333  1
  O2-  O163  1  0.67432683  0.42549365  0.57496843  1
  O2-  O164  1  0.68433779  0.42867904  0.90003630  1
  O2-  O165  1  0.67908812  0.93103043  0.23641885  1
  O2-  O166  1  0.67553559  0.93258582  0.57887117  1
  O2-  O167  1  0.67840024  0.93571621  0.89999138  1
  O2-  O168  1  0.42844817  0.31849570  0.09690735  1
  O2-  O169  1  0.43173023  0.31573045  0.43542800  1
  O2-  O170  1  0.42840996  0.31953969  0.75679557  1
  O2-  O171  1  0.43064737  0.82217263  0.09848439  1
  O2-  O172  1  0.43353516  0.82444856  0.43140424  1
  O2-  O173  1  0.42911428  0.82200694  0.76611907  1
  O2-  O174  1  0.92638863  0.31673517  0.09007332  1
  O2-  O175  1  0.92127977  0.32053822  0.42054863  1
  O2-  O176  1  0.93036117  0.31901433  0.76830365  1
  O2-  O177  1  0.93067009  0.82178592  0.09704432  1
  O2-  O178  1  0.93126580  0.81980657  0.43478180  1
  O2-  O179  1  0.92898084  0.82632096  0.75801563  1
  O2-  O180  1  0.31860678  0.07211310  0.24309414  1
  O2-  O181  1  0.32242433  0.07459725  0.57722286  1
  O2-  O182  1  0.32073910  0.07169037  0.91007252  1
  O2-  O183  1  0.32535229  0.56922209  0.23798456  1
  O2-  O184  1  0.32342178  0.57202306  0.57742860  1
  O2-  O185  1  0.31656624  0.57254905  0.89925158  1
  O2-  O186  1  0.82194583  0.07709361  0.24574447  1
  O2-  O187  1  0.81959026  0.07080818  0.56769000  1
  O2-  O188  1  0.82270728  0.07365543  0.91239467  1
  O2-  O189  1  0.81804494  0.56956049  0.24462561  1
  O2-  O190  1  0.81909784  0.56836416  0.56531776  1
  O2-  O191  1  0.82295560  0.57015414  0.90340292  1
  O2-  O192  1  0.03758789  0.08700114  0.26176046  1
  O2-  O193  1  0.04625251  0.08251657  0.60459967  1
  O2-  O194  1  0.04139406  0.08792193  0.93328410  1
  O2-  O195  1  0.04100357  0.57801827  0.26289132  1
  O2-  O196  1  0.03644673  0.58359458  0.59909178  1
  O2-  O197  1  0.04432822  0.58130825  0.94128657  1
  O2-  O198  1  0.54530195  0.08491456  0.27265549  1
  O2-  O199  1  0.53870350  0.09032755  0.60018732  1
  O2-  O200  1  0.54397827  0.08836103  0.93307934  1
  O2-  O201  1  0.54831431  0.57940804  0.26551927  1
  O2-  O202  1  0.54987609  0.58340406  0.60354781  1
  O2-  O203  1  0.55272262  0.58418176  0.93458163  1
  O2-  O204  1  0.16618524  0.20804438  0.26378225  1
  O2-  O205  1  0.16787993  0.19984951  0.60631367  1
  O2-  O206  1  0.16457956  0.20016046  0.93363467  1
  O2-  O207  1  0.17164431  0.70072331  0.26636841  1
  O2-  O208  1  0.16216572  0.71146868  0.59650069  1
  O2-  O209  1  0.16271354  0.70521657  0.93745980  1
  O2-  O210  1  0.66823808  0.19918213  0.27140043  1
  O2-  O211  1  0.66185165  0.20460905  0.60197847  1
  O2-  O212  1  0.66981572  0.20138188  0.93913068  1
  O2-  O213  1  0.66840579  0.71001939  0.26544443  1
  O2-  O214  1  0.66714770  0.70455194  0.60337936  1
  O2-  O215  1  0.66593435  0.70880582  0.93438484  1
  O2-  O216  1  0.08187954  0.45036962  0.07062093  1
  O2-  O217  1  0.07667709  0.45081715  0.39765210  1
  O2-  O218  1  0.08383537  0.46092675  0.73291965  1
  O2-  O219  1  0.08473246  0.96542546  0.06770271  1
  O2-  O220  1  0.08683031  0.96481449  0.39603738  1
  O2-  O221  1  0.08962805  0.95595945  0.72891950  1
  O2-  O222  1  0.57812401  0.44969488  0.06181503  1
  O2-  O223  1  0.58797548  0.45528844  0.39705909  1
  O2-  O224  1  0.58101367  0.45256575  0.72667031  1
  O2-  O225  1  0.58388737  0.96583576  0.06795821  1
  O2-  O226  1  0.58415078  0.96272407  0.40529163  1
  O2-  O227  1  0.58443534  0.96377257  0.72976343  1
  O2-  O228  1  0.20600827  0.32437053  0.06191075  1
  O2-  O229  1  0.21072589  0.32878402  0.40240852  1
  O2-  O230  1  0.20804744  0.33124279  0.73454822  1
  O2-  O231  1  0.20590698  0.83323534  0.06772503  1
  O2-  O232  1  0.19923333  0.83653359  0.39505470  1
  O2-  O233  1  0.20876766  0.83600617  0.72590607  1
  O2-  O234  1  0.71023788  0.33113958  0.06877714  1
  O2-  O235  1  0.70411475  0.33345008  0.39577819  1
  O2-  O236  1  0.69855777  0.33276751  0.72634462  1
  O2-  O237  1  0.70749275  0.83484454  0.06675687  1
  O2-  O238  1  0.71090657  0.83289740  0.40507286  1
  O2-  O239  1  0.69353675  0.83446637  0.72918720  1
  O2-  O240  1  0.46102552  0.41543504  0.26833541  1
  O2-  O241  1  0.45122502  0.41471834  0.60547372  1
  O2-  O242  1  0.45794836  0.41910841  0.92704144  1
  O2-  O243  1  0.45794048  0.92265158  0.26686271  1
  O2-  O244  1  0.45812133  0.91924210  0.59980253  1
  O2-  O245  1  0.45934826  0.91863790  0.93310893  1
  O2-  O246  1  0.94521890  0.41695255  0.26962290  1
  O2-  O247  1  0.95986839  0.41463577  0.59883720  1
  O2-  O248  1  0.95652314  0.41379681  0.94081203  1
  O2-  O249  1  0.95268093  0.92032895  0.26807529  1
  O2-  O250  1  0.95386787  0.91763640  0.60657960  1
  O2-  O251  1  0.96207732  0.91772630  0.93118464  1
  O2-  O252  1  0.33687189  0.28342643  0.26705422  1
  O2-  O253  1  0.33715122  0.28695287  0.60570063  1
  O2-  O254  1  0.33601606  0.28508112  0.92744063  1
  O2-  O255  1  0.32714584  0.80223333  0.26994415  1
  O2-  O256  1  0.33393153  0.79290299  0.59675781  1
  O2-  O257  1  0.33062364  0.78976776  0.93314144  1
  O2-  O258  1  0.83306583  0.29222974  0.26692426  1
  O2-  O259  1  0.83220637  0.28934339  0.60055989  1
  O2-  O260  1  0.83870128  0.29012157  0.93643120  1
  O2-  O261  1  0.83232753  0.78875708  0.26968017  1
  O2-  O262  1  0.82934993  0.80314278  0.61079052  1
  O2-  O263  1  0.83070618  0.79494633  0.93047693  1
  O2-  O264  1  0.41755138  0.05113941  0.06069256  1
  O2-  O265  1  0.41251668  0.04721772  0.39705097  1
  O2-  O266  1  0.41469297  0.04600627  0.72964627  1
  O2-  O267  1  0.42209663  0.54858488  0.06172137  1
  O2-  O268  1  0.42099824  0.54136858  0.40395400  1
  O2-  O269  1  0.41715219  0.55198328  0.72801630  1
  O2-  O270  1  0.91841970  0.04822038  0.06215643  1
  O2-  O271  1  0.91708205  0.04835122  0.39676069  1
  O2-  O272  1  0.91894638  0.04550090  0.73641645  1
  O2-  O273  1  0.91674527  0.54028205  0.07301568  1
  O2-  O274  1  0.91195120  0.54232355  0.39580801  1
  O2-  O275  1  0.91462344  0.53674450  0.73412427  1
  O2-  O276  1  0.29300401  0.16337314  0.06201156  1
  O2-  O277  1  0.28757294  0.15967525  0.39779204  1
  O2-  O278  1  0.29301757  0.16097757  0.73357106  1
  O2-  O279  1  0.29091859  0.66784537  0.06882104  1
  O2-  O280  1  0.29625051  0.67335729  0.40285847  1
  O2-  O281  1  0.29249531  0.66756726  0.72582564  1
  O2-  O282  1  0.79946732  0.16543205  0.06570898  1
  O2-  O283  1  0.79554259  0.16642259  0.39870799  1
  O2-  O284  1  0.78638093  0.16601335  0.73562902  1
  O2-  O285  1  0.79491796  0.67216005  0.06833181  1
  O2-  O286  1  0.78914544  0.65959442  0.39831529  1
  O2-  O287  1  0.79200981  0.66738407  0.73420358  1
