# generated using pymatgen
data_Ca2Al2SiO7
_symmetry_space_group_name_H-M   'P 1'
_cell_length_a   15.45697978
_cell_length_b   15.45549808
_cell_length_c   15.28249920
_cell_angle_alpha   89.99980511
_cell_angle_beta   89.98115308
_cell_angle_gamma   90.00246080
_symmetry_Int_Tables_number   1
_chemical_formula_structural   Ca2Al2SiO7
_chemical_formula_sum   'Ca48 Al48 Si24 O168'
_cell_volume   3650.91735471
_cell_formula_units_Z   24
loop_
 _symmetry_equiv_pos_site_id
 _symmetry_equiv_pos_as_xyz
  1  'x, y, z'
loop_
 _atom_type_symbol
 _atom_type_oxidation_number
  Ca2+  2.0
  Al0+  0.0
  Si0+  0.0
  O2-  -2.0
loop_
 _atom_site_type_symbol
 _atom_site_label
 _atom_site_symmetry_multiplicity
 _atom_site_fract_x
 _atom_site_fract_y
 _atom_site_fract_z
 _atom_site_occupancy
  Ca2+  Ca0  1  0.17049763  0.08217977  0.17465571  1
  Ca2+  Ca1  1  0.17577685  0.08776447  0.50335955  1
  Ca2+  Ca2  1  0.17195876  0.07550403  0.83660101  1
  Ca2+  Ca3  1  0.16287094  0.57607460  0.17521161  1
  Ca2+  Ca4  1  0.16069986  0.58115713  0.50291073  1
  Ca2+  Ca5  1  0.17232783  0.59004667  0.83123161  1
  Ca2+  Ca6  1  0.66968659  0.08698095  0.17173658  1
  Ca2+  Ca7  1  0.68147739  0.07754787  0.50633800  1
  Ca2+  Ca8  1  0.66585639  0.08034757  0.83044029  1
  Ca2+  Ca9  1  0.67733807  0.57405835  0.16938979  1
  Ca2+  Ca10  1  0.67967626  0.58631361  0.50436400  1
  Ca2+  Ca11  1  0.67924602  0.58034256  0.84014584  1
  Ca2+  Ca12  1  0.07569210  0.33239120  0.17098276  1
  Ca2+  Ca13  1  0.07922970  0.32833104  0.48909012  1
  Ca2+  Ca14  1  0.07705518  0.33319551  0.83244907  1
  Ca2+  Ca15  1  0.07846578  0.83286764  0.16692542  1
  Ca2+  Ca16  1  0.07384839  0.82166404  0.49473003  1
  Ca2+  Ca17  1  0.07893394  0.82891120  0.82360795  1
  Ca2+  Ca18  1  0.58021606  0.32743506  0.15289580  1
  Ca2+  Ca19  1  0.57523176  0.33589582  0.49974599  1
  Ca2+  Ca20  1  0.57861037  0.33389111  0.83288010  1
  Ca2+  Ca21  1  0.57698034  0.83473687  0.16721338  1
  Ca2+  Ca22  1  0.57504042  0.84367393  0.50012367  1
  Ca2+  Ca23  1  0.57934161  0.83427277  0.82353025  1
  Ca2+  Ca24  1  0.32730400  0.41276704  0.17398839  1
  Ca2+  Ca25  1  0.32372900  0.42007887  0.50877279  1
  Ca2+  Ca26  1  0.33964252  0.41880373  0.83406030  1
  Ca2+  Ca27  1  0.32743497  0.92148674  0.17464016  1
  Ca2+  Ca28  1  0.33871229  0.92513748  0.50585747  1
  Ca2+  Ca29  1  0.32984417  0.91845162  0.83598714  1
  Ca2+  Ca30  1  0.84107168  0.42168309  0.17109859  1
  Ca2+  Ca31  1  0.84237296  0.42744269  0.50136368  1
  Ca2+  Ca32  1  0.83281626  0.42777658  0.84333910  1
  Ca2+  Ca33  1  0.83237186  0.92304885  0.17723291  1
  Ca2+  Ca34  1  0.83764804  0.92098587  0.50790623  1
  Ca2+  Ca35  1  0.83297301  0.91785206  0.83133094  1
  Ca2+  Ca36  1  0.42148589  0.17026059  0.15928596  1
  Ca2+  Ca37  1  0.41301733  0.16602037  0.49649743  1
  Ca2+  Ca38  1  0.42022547  0.17522044  0.82751257  1
  Ca2+  Ca39  1  0.41496085  0.67304218  0.16568933  1
  Ca2+  Ca40  1  0.41152642  0.67894147  0.49778651  1
  Ca2+  Ca41  1  0.41854975  0.67097932  0.82074449  1
  Ca2+  Ca42  1  0.91372305  0.17686154  0.16482368  1
  Ca2+  Ca43  1  0.92092865  0.16651918  0.48848592  1
  Ca2+  Ca44  1  0.91156003  0.17253336  0.82937994  1
  Ca2+  Ca45  1  0.91697618  0.66341290  0.16863790  1
  Ca2+  Ca46  1  0.91796483  0.67199083  0.49361129  1
  Ca2+  Ca47  1  0.92027417  0.66732641  0.82215319  1
  Al0+  Al48  1  0.00044886  -0.00165602  0.00393295  1
  Al0+  Al49  1  0.00208031  -0.00171413  0.33026443  1
  Al0+  Al50  1  0.00103008  0.00117453  0.66818639  1
  Al0+  Al51  1  0.00382639  0.50121805  -0.00184725  1
  Al0+  Al52  1  0.00018447  0.49926901  0.33545890  1
  Al0+  Al53  1  0.00079514  0.49748311  0.66945841  1
  Al0+  Al54  1  0.50005912  0.00090778  -0.00335594  1
  Al0+  Al55  1  0.49883181  0.00056620  0.33124727  1
  Al0+  Al56  1  0.50158884  0.00203314  0.67097586  1
  Al0+  Al57  1  0.50210829  0.50263961  0.00106428  1
  Al0+  Al58  1  0.49993456  0.50134143  0.33300503  1
  Al0+  Al59  1  0.49834445  0.49941170  0.66401613  1
  Al0+  Al60  1  0.25009365  0.25028138  -0.00429018  1
  Al0+  Al61  1  0.24911712  0.25043847  0.33766167  1
  Al0+  Al62  1  0.24964713  0.25038140  0.66977228  1
  Al0+  Al63  1  0.24813388  0.75081701  0.00524464  1
  Al0+  Al64  1  0.25013282  0.75031205  0.32399482  1
  Al0+  Al65  1  0.24998456  0.74828303  0.66170269  1
  Al0+  Al66  1  0.74918557  0.24966546  -0.00775143  1
  Al0+  Al67  1  0.74779310  0.24971454  0.33544160  1
  Al0+  Al68  1  0.74830679  0.24972202  0.66811375  1
  Al0+  Al69  1  0.75022961  0.75152272  0.00554454  1
  Al0+  Al70  1  0.74696119  0.74844727  0.33252193  1
  Al0+  Al71  1  0.74986609  0.75008680  0.67178671  1
  Al0+  Al72  1  0.31982817  0.57123994  0.67825719  1
  Al0+  Al73  1  0.92743355  0.31942118  0.32043933  1
  Al0+  Al74  1  0.42848278  0.32088680  0.65050489  1
  Al0+  Al75  1  0.06970762  0.67809532  0.31613282  1
  Al0+  Al76  1  0.82177985  0.56918383  0.68050110  1
  Al0+  Al77  1  0.32011111  0.06944529  0.34626480  1
  Al0+  Al78  1  0.92596277  0.82124841  0.31726574  1
  Al0+  Al79  1  0.32159412  0.07239789  0.68232943  1
  Al0+  Al80  1  0.07386404  0.17762939  0.31905835  1
  Al0+  Al81  1  0.82467372  0.07245478  0.68279138  1
  Al0+  Al82  1  0.68019618  0.92908611  0.68169083  1
  Al0+  Al83  1  0.42761739  0.32331654  0.98503205  1
  Al0+  Al84  1  0.57227898  0.17723151  0.98203771  1
  Al0+  Al85  1  0.07088370  0.67687465  0.65161062  1
  Al0+  Al86  1  0.43003392  0.82217585  0.65449819  1
  Al0+  Al87  1  0.81955383  0.56926428  0.34846495  1
  Al0+  Al88  1  0.92750010  0.82159597  0.65340361  1
  Al0+  Al89  1  0.43031232  0.82207517  0.31815683  1
  Al0+  Al90  1  0.82194346  0.07060472  0.34449486  1
  Al0+  Al91  1  0.18024197  0.43060425  0.34715760  1
  Al0+  Al92  1  0.93125963  0.32134160  0.98537095  1
  Al0+  Al93  1  0.17863245  0.92845487  0.01511986  1
  Al0+  Al94  1  0.67950556  0.42802898  0.01426535  1
  Al0+  Al95  1  0.82410110  0.57137371  0.01705725  1
  Si0+  Si96  1  0.32199126  0.57229046  0.01507726  1
  Si0+  Si97  1  0.92762661  0.31980580  0.65275915  1
  Si0+  Si98  1  0.82066563  0.07055276  0.01469968  1
  Si0+  Si99  1  0.42804416  0.81918321  0.98486082  1
  Si0+  Si100  1  0.17828511  0.42723016  0.68671827  1
  Si0+  Si101  1  0.17971676  0.92763856  0.68076658  1
  Si0+  Si102  1  0.67597981  0.42805786  0.68293352  1
  Si0+  Si103  1  0.32369514  0.57373608  0.34904861  1
  Si0+  Si104  1  0.42855412  0.32209631  0.32041182  1
  Si0+  Si105  1  0.17820058  0.92515368  0.35129893  1
  Si0+  Si106  1  0.07131869  0.68016985  0.98398042  1
  Si0+  Si107  1  0.57199662  0.67547037  0.31423321  1
  Si0+  Si108  1  0.57251159  0.67714111  0.65070202  1
  Si0+  Si109  1  0.92788703  0.82209855  0.98531962  1
  Si0+  Si110  1  0.56933041  0.18032826  0.31990300  1
  Si0+  Si111  1  0.57174785  0.17833941  0.64626131  1
  Si0+  Si112  1  0.07087997  0.17939829  0.65368087  1
  Si0+  Si113  1  0.18085822  0.42827944  0.01444746  1
  Si0+  Si114  1  0.67694882  0.92918524  0.01689587  1
  Si0+  Si115  1  0.57211100  0.68148895  0.98538390  1
  Si0+  Si116  1  0.67464638  0.42640149  0.35130048  1
  Si0+  Si117  1  0.32133229  0.07160192  0.01602635  1
  Si0+  Si118  1  0.67725223  0.92838858  0.34802710  1
  Si0+  Si119  1  0.07154292  0.17525607  0.98245921  1
  O2-  O120  1  0.25214122  0.00465236  0.06128106  1
  O2-  O121  1  0.24565437  -0.00457605  0.39497703  1
  O2-  O122  1  0.24960464  -0.00566759  0.72733659  1
  O2-  O123  1  0.25670557  0.49530332  0.05543487  1
  O2-  O124  1  0.25417426  0.50658983  0.39304501  1
  O2-  O125  1  0.24670156  0.49729556  0.72930612  1
  O2-  O126  1  0.74756884  0.00126917  0.05730326  1
  O2-  O127  1  0.75272267  -0.00994758  0.39048857  1
  O2-  O128  1  0.75429594  -0.00133246  0.73287308  1
  O2-  O129  1  0.75562390  0.49474611  0.06566405  1
  O2-  O130  1  0.74468340  0.49375740  0.39479379  1
  O2-  O131  1  0.74661622  0.49471459  0.72683892  1
  O2-  O132  1  -0.00342454  0.24447639  0.26970071  1
  O2-  O133  1  -0.00461399  0.24557029  0.61184698  1
  O2-  O134  1  0.00324071  0.24392732  0.93745308  1
  O2-  O135  1  -0.00241582  0.74969432  0.26500353  1
  O2-  O136  1  -0.00399163  0.74655186  0.60341801  1
  O2-  O137  1  -0.00285801  0.74888220  0.94365213  1
  O2-  O138  1  0.50088019  0.25359554  0.27720421  1
  O2-  O139  1  0.50204812  0.24613897  0.60176671  1
  O2-  O140  1  0.50010993  0.25138833  0.93543770  1
  O2-  O141  1  0.50280767  0.74500442  0.27101882  1
  O2-  O142  1  0.50506428  0.74769305  0.60709609  1
  O2-  O143  1  0.49981735  0.75030595  0.94135442  1
  O2-  O144  1  0.07198515  0.17560982  0.08767200  1
  O2-  O145  1  0.07535851  0.18162068  0.43307550  1
  O2-  O146  1  0.07189181  0.18124573  0.75909570  1
  O2-  O147  1  0.07333162  0.67943029  0.08857959  1
  O2-  O148  1  0.06905017  0.67870736  0.42928429  1
  O2-  O149  1  0.07182462  0.67988573  0.76611995  1
  O2-  O150  1  0.56915089  0.17513139  0.09654031  1
  O2-  O151  1  0.56808728  0.17951629  0.42469605  1
  O2-  O152  1  0.57140713  0.17961342  0.75168234  1
  O2-  O153  1  0.56998284  0.68375731  0.09044409  1
  O2-  O154  1  0.57190476  0.67297436  0.41949539  1
  O2-  O155  1  0.56970052  0.67690607  0.75689251  1
  O2-  O156  1  0.18335972  0.42983445  0.23330513  1
  O2-  O157  1  0.17829879  0.42493068  0.58126322  1
  O2-  O158  1  0.17882817  0.43017981  0.90944796  1
  O2-  O159  1  0.18168607  0.92618746  0.24520704  1
  O2-  O160  1  0.17975419  0.93010166  0.57562217  1
  O2-  O161  1  0.18145949  0.92698401  0.90167071  1
  O2-  O162  1  0.67046781  0.42684102  0.24605742  1
  O2-  O163  1  0.67602907  0.42888563  0.57715869  1
  O2-  O164  1  0.67897490  0.43426871  0.90069668  1
  O2-  O165  1  0.67437223  0.93268441  0.24178240  1
  O2-  O166  1  0.67795975  0.93317175  0.56811848  1
  O2-  O167  1  0.67648142  0.92589189  0.91238120  1
  O2-  O168  1  0.42587965  0.32020210  0.09936325  1
  O2-  O169  1  0.42985445  0.32185808  0.42537184  1
  O2-  O170  1  0.43113164  0.32121422  0.76333920  1
  O2-  O171  1  0.42973214  0.81826415  0.09002387  1
  O2-  O172  1  0.43271237  0.82388673  0.43107899  1
  O2-  O173  1  0.42963067  0.81892547  0.76830271  1
  O2-  O174  1  0.93336275  0.32078117  0.09807878  1
  O2-  O175  1  0.92941382  0.31864569  0.43438500  1
  O2-  O176  1  0.93043189  0.32079789  0.75820102  1
  O2-  O177  1  0.92827873  0.82388277  0.09006714  1
  O2-  O178  1  0.92632187  0.82056538  0.43054150  1
  O2-  O179  1  0.93102083  0.82105730  0.76791728  1
  O2-  O180  1  0.32208630  0.06882887  0.23288108  1
  O2-  O181  1  0.31932313  0.07253611  0.56911253  1
  O2-  O182  1  0.32048922  0.06930473  0.91050183  1
  O2-  O183  1  0.32593753  0.56984281  0.24284542  1
  O2-  O184  1  0.31904079  0.57004267  0.56557182  1
  O2-  O185  1  0.32003213  0.57705562  0.91006087  1
  O2-  O186  1  0.81530457  0.07347098  0.23090677  1
  O2-  O187  1  0.82437568  0.07399322  0.56921557  1
  O2-  O188  1  0.82312073  0.06686557  0.90991711  1
  O2-  O189  1  0.81832192  0.56739642  0.23549836  1
  O2-  O190  1  0.82171467  0.56789181  0.56746568  1
  O2-  O191  1  0.82244752  0.57315516  0.90325419  1
  O2-  O192  1  0.05452967  0.07716532  0.26796392  1
  O2-  O193  1  0.04917694  0.08650652  0.60637558  1
  O2-  O194  1  0.04539810  0.08113881  0.93716879  1
  O2-  O195  1  0.04051910  0.57948833  0.26417231  1
  O2-  O196  1  0.04564013  0.57594097  0.60287558  1
  O2-  O197  1  0.04863570  0.58802866  0.93511534  1
  O2-  O198  1  0.53979116  0.09012639  0.27012824  1
  O2-  O199  1  0.54605644  0.08468879  0.60171796  1
  O2-  O200  1  0.54192992  0.07912981  0.92815119  1
  O2-  O201  1  0.54431243  0.58283952  0.26570370  1
  O2-  O202  1  0.54666953  0.58469310  0.60320635  1
  O2-  O203  1  0.54646477  0.58963986  0.93783175  1
  O2-  O204  1  0.17018886  0.21292077  0.26469321  1
  O2-  O205  1  0.16109169  0.21159993  0.60616891  1
  O2-  O206  1  0.16496435  0.20129966  0.93571593  1
  O2-  O207  1  0.16867586  0.70339921  0.26148223  1
  O2-  O208  1  0.16800734  0.70512843  0.59701555  1
  O2-  O209  1  0.16298134  0.71228343  0.93744736  1
  O2-  O210  1  0.66086157  0.20644799  0.27127321  1
  O2-  O211  1  0.66551903  0.20565530  0.60039273  1
  O2-  O212  1  0.66993176  0.20181268  0.92651231  1
  O2-  O213  1  0.66389781  0.70182267  0.26575839  1
  O2-  O214  1  0.66652403  0.70220473  0.60635158  1
  O2-  O215  1  0.66388738  0.71173184  0.93900085  1
  O2-  O216  1  0.09182551  0.46165491  0.06305274  1
  O2-  O217  1  0.08441627  0.45938762  0.40273822  1
  O2-  O218  1  0.08531406  0.45241232  0.73426560  1
  O2-  O219  1  0.08204721  0.95725891  0.07014813  1
  O2-  O220  1  0.08354529  0.94695403  0.39537231  1
  O2-  O221  1  0.08792050  0.95586419  0.72971947  1
  O2-  O222  1  0.58221392  0.46060441  0.06911305  1
  O2-  O223  1  0.58142679  0.45510023  0.39835838  1
  O2-  O224  1  0.58278802  0.45507015  0.72858400  1
  O2-  O225  1  0.58419399  0.95685194  0.06365198  1
  O2-  O226  1  0.58674979  0.96232532  0.39503097  1
  O2-  O227  1  0.58373441  0.96094312  0.73793596  1
  O2-  O228  1  0.20434518  0.33455841  0.06064451  1
  O2-  O229  1  0.21272038  0.33600677  0.40373161  1
  O2-  O230  1  0.20548137  0.33518451  0.73488116  1
  O2-  O231  1  0.21170122  0.83381371  0.07195917  1
  O2-  O232  1  0.20674321  0.83109360  0.39399296  1
  O2-  O233  1  0.20454984  0.83360853  0.72626809  1
  O2-  O234  1  0.70075211  0.32562148  0.06168940  1
  O2-  O235  1  0.69669499  0.33248350  0.39794698  1
  O2-  O236  1  0.69835096  0.33342390  0.72779515  1
  O2-  O237  1  0.70475069  0.83876969  0.06717511  1
  O2-  O238  1  0.69145622  0.83156846  0.39047818  1
  O2-  O239  1  0.70265184  0.83026451  0.73727412  1
  O2-  O240  1  0.45247008  0.41534516  0.27334203  1
  O2-  O241  1  0.45882124  0.41723998  0.59515996  1
  O2-  O242  1  0.45549152  0.42364645  0.93482047  1
  O2-  O243  1  0.46453580  0.91684772  0.26133419  1
  O2-  O244  1  0.46184429  0.91943955  0.60213922  1
  O2-  O245  1  0.45378653  0.91200184  0.93919127  1
  O2-  O246  1  0.96142752  0.41567793  0.26757578  1
  O2-  O247  1  0.96019140  0.40985431  0.60555428  1
  O2-  O248  1  0.96685362  0.41684696  0.93081787  1
  O2-  O249  1  0.95534223  0.91911016  0.26295291  1
  O2-  O250  1  0.95811201  0.92041807  0.60228818  1
  O2-  O251  1  0.95827222  0.91327479  0.93781476  1
  O2-  O252  1  0.33773015  0.29219066  0.27362102  1
  O2-  O253  1  0.33020390  0.29039928  0.59988645  1
  O2-  O254  1  0.32927639  0.29615650  0.93034784  1
  O2-  O255  1  0.33521120  0.79265785  0.26059091  1
  O2-  O256  1  0.33500252  0.79109173  0.59875674  1
  O2-  O257  1  0.33581833  0.78927069  0.93998636  1
  O2-  O258  1  0.82725840  0.29437020  0.26829460  1
  O2-  O259  1  0.83376429  0.29803614  0.60744699  1
  O2-  O260  1  0.83478180  0.29336656  0.93038314  1
  O2-  O261  1  0.82559469  0.79556541  0.26588595  1
  O2-  O262  1  0.82696716  0.79767687  0.60378824  1
  O2-  O263  1  0.83393758  0.79744580  0.94058792  1
  O2-  O264  1  0.41521079  0.04443987  0.06106941  1
  O2-  O265  1  0.41678901  0.03772789  0.40022459  1
  O2-  O266  1  0.41827587  0.04478281  0.73613114  1
  O2-  O267  1  0.41566665  0.55210557  0.06174327  1
  O2-  O268  1  0.41743181  0.54931720  0.39534159  1
  O2-  O269  1  0.41696745  0.54103200  0.73258295  1
  O2-  O270  1  0.91158621  0.04174964  0.06310328  1
  O2-  O271  1  0.92123191  0.04550793  0.39540772  1
  O2-  O272  1  0.92357597  0.04766802  0.73724641  1
  O2-  O273  1  0.92470303  0.54470038  0.06612953  1
  O2-  O274  1  0.91537824  0.53788918  0.40237465  1
  O2-  O275  1  0.91750038  0.53653103  0.73576195  1
  O2-  O276  1  0.29685764  0.16665424  0.05988595  1
  O2-  O277  1  0.29080784  0.16572508  0.40142047  1
  O2-  O278  1  0.28674626  0.16701147  0.73768697  1
  O2-  O279  1  0.28834573  0.66094811  0.06556816  1
  O2-  O280  1  0.29980849  0.66957174  0.39009855  1
  O2-  O281  1  0.28943916  0.66770820  0.73424802  1
  O2-  O282  1  0.79373896  0.16370944  0.05863502  1
  O2-  O283  1  0.78666865  0.16504909  0.40054109  1
  O2-  O284  1  0.79190166  0.17037863  0.73553525  1
  O2-  O285  1  0.79142177  0.66899395  0.06974888  1
  O2-  O286  1  0.78586548  0.66618908  0.40090924  1
  O2-  O287  1  0.79241188  0.66542686  0.73552747  1
