# generated using pymatgen
data_Ca2Al2SiO7
_symmetry_space_group_name_H-M   'P 1'
_cell_length_a   15.47229800
_cell_length_b   15.46994475
_cell_length_c   15.29371055
_cell_angle_alpha   89.99884331
_cell_angle_beta   90.00138214
_cell_angle_gamma   89.99225289
_symmetry_Int_Tables_number   1
_chemical_formula_structural   Ca2Al2SiO7
_chemical_formula_sum   'Ca48 Al48 Si24 O168'
_cell_volume   3660.63515827
_cell_formula_units_Z   24
loop_
 _symmetry_equiv_pos_site_id
 _symmetry_equiv_pos_as_xyz
  1  'x, y, z'
loop_
 _atom_type_symbol
 _atom_type_oxidation_number
  Ca2+  2.0
  Al0+  0.0
  Si0+  0.0
  O2-  -2.0
loop_
 _atom_site_type_symbol
 _atom_site_label
 _atom_site_symmetry_multiplicity
 _atom_site_fract_x
 _atom_site_fract_y
 _atom_site_fract_z
 _atom_site_occupancy
  Ca2+  Ca0  1  0.17585453  0.08283945  0.16981965  1
  Ca2+  Ca1  1  0.17070151  0.07315699  0.50939384  1
  Ca2+  Ca2  1  0.16841922  0.07317771  0.84039371  1
  Ca2+  Ca3  1  0.16992716  0.59719118  0.16730631  1
  Ca2+  Ca4  1  0.16619286  0.59477492  0.50285217  1
  Ca2+  Ca5  1  0.16839176  0.59180866  0.84083327  1
  Ca2+  Ca6  1  0.66484800  0.07907123  0.16959068  1
  Ca2+  Ca7  1  0.66615652  0.07614827  0.50083741  1
  Ca2+  Ca8  1  0.67551587  0.08066790  0.84007413  1
  Ca2+  Ca9  1  0.66031043  0.57803807  0.17107384  1
  Ca2+  Ca10  1  0.66731804  0.57501290  0.50534722  1
  Ca2+  Ca11  1  0.67701163  0.57546526  0.84157916  1
  Ca2+  Ca12  1  0.08103019  0.33075869  0.16377173  1
  Ca2+  Ca13  1  0.07310343  0.33433887  0.49943290  1
  Ca2+  Ca14  1  0.07371790  0.32983766  0.82725861  1
  Ca2+  Ca15  1  0.07167032  0.82506270  0.16298001  1
  Ca2+  Ca16  1  0.07444741  0.82767010  0.49845769  1
  Ca2+  Ca17  1  0.07392376  0.82574318  0.82897486  1
  Ca2+  Ca18  1  0.59294787  0.32586965  0.16281314  1
  Ca2+  Ca19  1  0.58484148  0.33178247  0.48992759  1
  Ca2+  Ca20  1  0.59666250  0.33021196  0.83308066  1
  Ca2+  Ca21  1  0.58847046  0.82348167  0.16545083  1
  Ca2+  Ca22  1  0.58041734  0.82931629  0.48560030  1
  Ca2+  Ca23  1  0.58475613  0.82423071  0.83523492  1
  Ca2+  Ca24  1  0.33532888  0.42129983  0.16939065  1
  Ca2+  Ca25  1  0.33351532  0.41634760  0.50069054  1
  Ca2+  Ca26  1  0.32573586  0.42251981  0.84197475  1
  Ca2+  Ca27  1  0.33985106  0.91948770  0.17185400  1
  Ca2+  Ca28  1  0.32734601  0.90961303  0.50643621  1
  Ca2+  Ca29  1  0.32388335  0.91762611  0.84063381  1
  Ca2+  Ca30  1  0.82235291  0.42690174  0.16623070  1
  Ca2+  Ca31  1  0.82387042  0.42344812  0.50900444  1
  Ca2+  Ca32  1  0.83024999  0.42664881  0.83514958  1
  Ca2+  Ca33  1  0.83571513  0.91979462  0.17096745  1
  Ca2+  Ca34  1  0.83574375  0.91781835  0.50261295  1
  Ca2+  Ca35  1  0.84609614  0.92502879  0.83611864  1
  Ca2+  Ca36  1  0.42852213  0.17042880  0.16162489  1
  Ca2+  Ca37  1  0.42635057  0.17617449  0.48766922  1
  Ca2+  Ca38  1  0.42190546  0.16322155  0.83523623  1
  Ca2+  Ca39  1  0.42699975  0.66796010  0.16440435  1
  Ca2+  Ca40  1  0.42517973  0.67348555  0.49040348  1
  Ca2+  Ca41  1  0.42403545  0.65441717  0.83632998  1
  Ca2+  Ca42  1  0.91167912  0.16788129  0.15881416  1
  Ca2+  Ca43  1  0.90738357  0.17175311  0.50278583  1
  Ca2+  Ca44  1  0.90498549  0.17119089  0.82633627  1
  Ca2+  Ca45  1  0.91817612  0.67608891  0.15531775  1
  Ca2+  Ca46  1  0.91897042  0.67489903  0.49423381  1
  Ca2+  Ca47  1  0.91877902  0.67024568  0.82461098  1
  Al0+  Al48  1  0.00157765  -0.00022410  0.00321969  1
  Al0+  Al49  1  0.00356150  0.00082346  0.33286262  1
  Al0+  Al50  1  0.00243212  -0.00176925  0.67116028  1
  Al0+  Al51  1  -0.00093059  0.49769303  0.00112214  1
  Al0+  Al52  1  0.00275063  0.49855532  0.33037778  1
  Al0+  Al53  1  0.00122301  0.49744053  0.66123446  1
  Al0+  Al54  1  0.49978115  0.00206083  -0.00209795  1
  Al0+  Al55  1  0.50181331  0.00391911  0.33292144  1
  Al0+  Al56  1  0.50053319  0.00061731  0.66672196  1
  Al0+  Al57  1  0.49583448  0.49804509  0.00337149  1
  Al0+  Al58  1  0.49646254  0.50082116  0.33340432  1
  Al0+  Al59  1  0.49797672  0.49693802  0.66964482  1
  Al0+  Al60  1  0.25077300  0.24866378  0.00352859  1
  Al0+  Al61  1  0.24998714  0.25171553  0.33257659  1
  Al0+  Al62  1  0.25208929  0.25081380  0.66706254  1
  Al0+  Al63  1  0.24781601  0.75049257  0.00320431  1
  Al0+  Al64  1  0.24994977  0.75211573  0.32876520  1
  Al0+  Al65  1  0.25093540  0.75068636  0.67068990  1
  Al0+  Al66  1  0.74960812  0.24804683  0.00240732  1
  Al0+  Al67  1  0.75158263  0.25243270  0.33294136  1
  Al0+  Al68  1  0.74923402  0.24751590  0.66596824  1
  Al0+  Al69  1  0.74860449  0.75220525  -0.00877652  1
  Al0+  Al70  1  0.75099425  0.75246715  0.33040976  1
  Al0+  Al71  1  0.74899271  0.74923463  0.66457247  1
  Al0+  Al72  1  0.82179180  0.57416212  0.01362809  1
  Al0+  Al73  1  0.31866388  0.57154573  0.01582434  1
  Al0+  Al74  1  0.32175299  0.07028864  0.01524946  1
  Al0+  Al75  1  0.92697339  0.82301769  0.98289369  1
  Al0+  Al76  1  0.07284067  0.67825639  0.65194440  1
  Al0+  Al77  1  0.57219343  0.67894037  0.32045783  1
  Al0+  Al78  1  0.82118344  0.06882717  0.01345893  1
  Al0+  Al79  1  0.82287711  0.57246703  0.67882633  1
  Al0+  Al80  1  0.57395452  0.18173541  0.31734810  1
  Al0+  Al81  1  0.81894394  0.06701755  0.67821967  1
  Al0+  Al82  1  0.56950231  0.67583243  0.98483698  1
  Al0+  Al83  1  0.57116639  0.17991732  0.98318738  1
  Al0+  Al84  1  0.42695301  0.32204558  0.31716161  1
  Al0+  Al85  1  0.92874065  0.82339571  0.31747653  1
  Al0+  Al86  1  0.67836862  0.43125529  0.34722366  1
  Al0+  Al87  1  0.18092881  0.92839117  0.68237511  1
  Al0+  Al88  1  0.06936754  0.67769852  0.98408399  1
  Al0+  Al89  1  0.92796756  0.31907362  0.65269331  1
  Al0+  Al90  1  0.07026693  0.67823909  0.31732206  1
  Al0+  Al91  1  0.42871650  0.82335128  0.32026078  1
  Al0+  Al92  1  0.67988698  0.92962254  0.34511787  1
  Al0+  Al93  1  0.67908272  0.42991026  0.01516571  1
  Al0+  Al94  1  0.67751425  0.42861424  0.68133342  1
  Al0+  Al95  1  0.92756312  0.82245943  0.64984819  1
  Si0+  Si96  1  0.57033508  0.17898447  0.65085381  1
  Si0+  Si97  1  0.42754752  0.32102426  0.65171164  1
  Si0+  Si98  1  0.82435425  0.57233624  0.34777960  1
  Si0+  Si99  1  0.17828524  0.42681511  0.35085210  1
  Si0+  Si100  1  0.43101665  0.82078473  0.65485521  1
  Si0+  Si101  1  0.07481856  0.17798592  0.65152188  1
  Si0+  Si102  1  0.07317101  0.17918116  0.98626244  1
  Si0+  Si103  1  0.42820210  0.82222552  0.98367878  1
  Si0+  Si104  1  0.67579662  0.92836823  0.01481898  1
  Si0+  Si105  1  0.92964379  0.32086625  0.31679753  1
  Si0+  Si106  1  0.32162254  0.07362883  0.34991028  1
  Si0+  Si107  1  0.42577172  0.32026982  0.98110824  1
  Si0+  Si108  1  0.31865444  0.56962434  0.68105158  1
  Si0+  Si109  1  0.31773452  0.57243704  0.34984943  1
  Si0+  Si110  1  0.18178848  0.93056288  0.35001384  1
  Si0+  Si111  1  0.32329775  0.07346579  0.68332110  1
  Si0+  Si112  1  0.56899108  0.67591596  0.65304261  1
  Si0+  Si113  1  0.17886144  0.92873628  0.02144142  1
  Si0+  Si114  1  0.67370878  0.92622467  0.68340603  1
  Si0+  Si115  1  0.82528837  0.07229156  0.35005465  1
  Si0+  Si116  1  0.17848493  0.42576461  0.68106440  1
  Si0+  Si117  1  0.92885062  0.31802888  0.98530450  1
  Si0+  Si118  1  0.07158034  0.17972959  0.31964282  1
  Si0+  Si119  1  0.17702409  0.42607817  0.01742645  1
  O2-  O120  1  0.25066852  -0.00549898  0.06551337  1
  O2-  O121  1  0.25509595  -0.00069638  0.39374332  1
  O2-  O122  1  0.25441914  0.00572584  0.72770175  1
  O2-  O123  1  0.24093938  0.49896535  0.06155618  1
  O2-  O124  1  0.24656243  0.50100122  0.39245882  1
  O2-  O125  1  0.24402203  0.50180099  0.72256864  1
  O2-  O126  1  0.74963363  -0.00826884  0.05865266  1
  O2-  O127  1  0.75635587  0.00311016  0.39254756  1
  O2-  O128  1  0.74839755  -0.01100721  0.72611281  1
  O2-  O129  1  0.74423461  0.50843170  0.06482128  1
  O2-  O130  1  0.75165196  0.50783726  0.39295041  1
  O2-  O131  1  0.74921838  0.50172487  0.72854231  1
  O2-  O132  1  -0.00186989  0.24663186  0.27555639  1
  O2-  O133  1  0.00411415  0.24402561  0.60629811  1
  O2-  O134  1  0.00095030  0.24750523  0.94322419  1
  O2-  O135  1  -0.00650497  0.74469048  0.26839322  1
  O2-  O136  1  -0.00342229  0.74574511  0.60215500  1
  O2-  O137  1  -0.00638025  0.74502573  0.93402775  1
  O2-  O138  1  0.50333552  0.25541114  0.26751564  1
  O2-  O139  1  0.49902399  0.25057959  0.61038056  1
  O2-  O140  1  0.49783642  0.25607919  0.93543264  1
  O2-  O141  1  0.50370592  0.75499632  0.27107360  1
  O2-  O142  1  0.50411179  0.75310252  0.61137875  1
  O2-  O143  1  0.49304689  0.75052472  0.93796920  1
  O2-  O144  1  0.07391300  0.18189321  0.09174728  1
  O2-  O145  1  0.07347404  0.18152820  0.42472845  1
  O2-  O146  1  0.07912587  0.18213663  0.75692246  1
  O2-  O147  1  0.06961778  0.68148279  0.09732893  1
  O2-  O148  1  0.07151051  0.68106211  0.43095398  1
  O2-  O149  1  0.07613909  0.68088680  0.76483033  1
  O2-  O150  1  0.57076881  0.18026782  0.09563969  1
  O2-  O151  1  0.57146084  0.18140159  0.43184434  1
  O2-  O152  1  0.56884026  0.17744073  0.75569318  1
  O2-  O153  1  0.56783417  0.67713428  0.09741452  1
  O2-  O154  1  0.56783745  0.67836685  0.43494562  1
  O2-  O155  1  0.56409295  0.67403846  0.75789661  1
  O2-  O156  1  0.17864988  0.42110607  0.24640067  1
  O2-  O157  1  0.18319717  0.41951125  0.57627483  1
  O2-  O158  1  0.17990520  0.42054954  0.91169471  1
  O2-  O159  1  0.18183328  0.93452485  0.24542615  1
  O2-  O160  1  0.18475894  0.92960875  0.56880317  1
  O2-  O161  1  0.18004056  0.93146771  0.91562338  1
  O2-  O162  1  0.68146466  0.42952998  0.23475646  1
  O2-  O163  1  0.67525762  0.43041165  0.56745783  1
  O2-  O164  1  0.68439733  0.42826453  0.90162357  1
  O2-  O165  1  0.67887867  0.93183322  0.23246915  1
  O2-  O166  1  0.66634409  0.93075054  0.57817295  1
  O2-  O167  1  0.67088487  0.93251525  0.90910263  1
  O2-  O168  1  0.42129229  0.31686588  0.08604324  1
  O2-  O169  1  0.42442440  0.31833087  0.43161616  1
  O2-  O170  1  0.42234595  0.32122990  0.75607637  1
  O2-  O171  1  0.43152203  0.82366283  0.08889749  1
  O2-  O172  1  0.42634188  0.81870249  0.43479634  1
  O2-  O173  1  0.43104771  0.82130280  0.75962810  1
  O2-  O174  1  0.93110447  0.31617949  0.09076109  1
  O2-  O175  1  0.93078463  0.32042875  0.42202065  1
  O2-  O176  1  0.93028634  0.31666462  0.76582029  1
  O2-  O177  1  0.93134732  0.82666240  0.09634036  1
  O2-  O178  1  0.93292753  0.82704980  0.43096433  1
  O2-  O179  1  0.93170422  0.82495428  0.76264952  1
  O2-  O180  1  0.31717237  0.07489027  0.24519429  1
  O2-  O181  1  0.32277845  0.07345692  0.57757714  1
  O2-  O182  1  0.31775598  0.06913130  0.90168404  1
  O2-  O183  1  0.31619856  0.57240350  0.24532333  1
  O2-  O184  1  0.32067260  0.56865534  0.57586533  1
  O2-  O185  1  0.31801309  0.56788252  0.90182291  1
  O2-  O186  1  0.82791207  0.07223365  0.24469358  1
  O2-  O187  1  0.81528240  0.06976887  0.56505218  1
  O2-  O188  1  0.81967114  0.07085958  0.90033506  1
  O2-  O189  1  0.82606200  0.56803501  0.24257020  1
  O2-  O190  1  0.82026578  0.57083381  0.56482160  1
  O2-  O191  1  0.82409477  0.56872959  0.90022678  1
  O2-  O192  1  0.04920508  0.08757949  0.27146206  1
  O2-  O193  1  0.05206142  0.08343929  0.60763244  1
  O2-  O194  1  0.04872223  0.08632434  0.94088767  1
  O2-  O195  1  0.05430169  0.57563477  0.26809288  1
  O2-  O196  1  0.05625005  0.57616816  0.60156668  1
  O2-  O197  1  0.05107678  0.57430523  0.93649094  1
  O2-  O198  1  0.54306206  0.08450734  0.26511067  1
  O2-  O199  1  0.54103439  0.08728965  0.60281239  1
  O2-  O200  1  0.53704767  0.08462013  0.92786020  1
  O2-  O201  1  0.53664922  0.58339752  0.26774902  1
  O2-  O202  1  0.53377950  0.58618662  0.60555762  1
  O2-  O203  1  0.53425672  0.57960902  0.93181107  1
  O2-  O204  1  0.16123521  0.21158916  0.27054269  1
  O2-  O205  1  0.16768980  0.20613645  0.60362591  1
  O2-  O206  1  0.16391496  0.20862079  0.93773363  1
  O2-  O207  1  0.16641297  0.71322741  0.26487359  1
  O2-  O208  1  0.17151351  0.71238760  0.60015323  1
  O2-  O209  1  0.16863121  0.70986252  0.93358115  1
  O2-  O210  1  0.67317594  0.20800538  0.26535553  1
  O2-  O211  1  0.66096932  0.20577624  0.60223354  1
  O2-  O212  1  0.66847320  0.21073814  0.93000863  1
  O2-  O213  1  0.67090788  0.70245987  0.26757335  1
  O2-  O214  1  0.66238023  0.69635011  0.60702746  1
  O2-  O215  1  0.66379256  0.70756311  0.92702189  1
  O2-  O216  1  0.08193966  0.44445336  0.06254239  1
  O2-  O217  1  0.08535225  0.45125304  0.39823185  1
  O2-  O218  1  0.08466424  0.44578170  0.72625788  1
  O2-  O219  1  0.08815096  0.96061299  0.06869793  1
  O2-  O220  1  0.09160913  0.96277170  0.39853501  1
  O2-  O221  1  0.08648352  0.95993827  0.73863535  1
  O2-  O222  1  0.57724996  0.44860605  0.06401302  1
  O2-  O223  1  0.57921730  0.45791874  0.39965225  1
  O2-  O224  1  0.57814731  0.45372866  0.73457941  1
  O2-  O225  1  0.58504370  0.96023854  0.06239840  1
  O2-  O226  1  0.58357970  0.96257624  0.40170742  1
  O2-  O227  1  0.58314496  0.95833294  0.73300007  1
  O2-  O228  1  0.20723579  0.33458736  0.06613325  1
  O2-  O229  1  0.20937714  0.33667254  0.40088786  1
  O2-  O230  1  0.21160278  0.33673195  0.73204608  1
  O2-  O231  1  0.20137575  0.83483809  0.06649035  1
  O2-  O232  1  0.20974604  0.83843180  0.39663412  1
  O2-  O233  1  0.21699066  0.83488168  0.73896174  1
  O2-  O234  1  0.71517049  0.33372542  0.06778262  1
  O2-  O235  1  0.71222663  0.33460186  0.40082674  1
  O2-  O236  1  0.70765869  0.32985143  0.73100024  1
  O2-  O237  1  0.69495394  0.83209339  0.05609376  1
  O2-  O238  1  0.70572948  0.83178257  0.40056058  1
  O2-  O239  1  0.69121023  0.82953259  0.72477420  1
  O2-  O240  1  0.44562178  0.42328056  0.26912222  1
  O2-  O241  1  0.45416578  0.41293572  0.60335211  1
  O2-  O242  1  0.44503082  0.41581764  0.93756946  1
  O2-  O243  1  0.45048871  0.92427879  0.27168824  1
  O2-  O244  1  0.45339346  0.91434761  0.60728630  1
  O2-  O245  1  0.45532328  0.91456871  0.93550858  1
  O2-  O246  1  0.96262769  0.40973783  0.26796728  1
  O2-  O247  1  0.96046654  0.41287667  0.59470122  1
  O2-  O248  1  0.95698321  0.40913219  0.93755504  1
  O2-  O249  1  0.96496212  0.92038047  0.26542834  1
  O2-  O250  1  0.96206763  0.92058382  0.59843641  1
  O2-  O251  1  0.96504639  0.92060893  0.93211643  1
  O2-  O252  1  0.32959144  0.29015912  0.26410773  1
  O2-  O253  1  0.33647143  0.29308674  0.60160232  1
  O2-  O254  1  0.33333137  0.28907961  0.93377110  1
  O2-  O255  1  0.33270314  0.79358103  0.26487099  1
  O2-  O256  1  0.34040710  0.78976069  0.60736122  1
  O2-  O257  1  0.33238686  0.79972442  0.94124711  1
  O2-  O258  1  0.83861047  0.29478393  0.26860521  1
  O2-  O259  1  0.83298022  0.28485792  0.59688970  1
  O2-  O260  1  0.83906142  0.28647937  0.93790617  1
  O2-  O261  1  0.82852922  0.80404846  0.26627964  1
  O2-  O262  1  0.82610093  0.80008137  0.59882281  1
  O2-  O263  1  0.82617715  0.80780292  0.93027562  1
  O2-  O264  1  0.41904636  0.04185992  0.06787771  1
  O2-  O265  1  0.41501945  0.05227699  0.39626829  1
  O2-  O266  1  0.41667870  0.04689509  0.72903895  1
  O2-  O267  1  0.41299104  0.53822465  0.07146681  1
  O2-  O268  1  0.40853277  0.54474854  0.39967592  1
  O2-  O269  1  0.40789610  0.53642339  0.73023977  1
  O2-  O270  1  0.91967325  0.04469870  0.06780580  1
  O2-  O271  1  0.91964516  0.04819756  0.39655991  1
  O2-  O272  1  0.91820349  0.04536579  0.73155892  1
  O2-  O273  1  0.91764399  0.53817884  0.06824497  1
  O2-  O274  1  0.91687937  0.54054218  0.39359626  1
  O2-  O275  1  0.92179926  0.54065762  0.72893511  1
  O2-  O276  1  0.28746300  0.16523067  0.07026274  1
  O2-  O277  1  0.28796525  0.16374086  0.39813503  1
  O2-  O278  1  0.29919670  0.16756410  0.72905326  1
  O2-  O279  1  0.29102390  0.66898819  0.06971378  1
  O2-  O280  1  0.28904520  0.66464522  0.39724730  1
  O2-  O281  1  0.29571775  0.66154788  0.72972262  1
  O2-  O282  1  0.78909430  0.16402158  0.06883566  1
  O2-  O283  1  0.79921162  0.16665427  0.39428129  1
  O2-  O284  1  0.78474566  0.16229950  0.73261789  1
  O2-  O285  1  0.79958991  0.67676864  0.05902922  1
  O2-  O286  1  0.80443632  0.66842794  0.39014760  1
  O2-  O287  1  0.79628239  0.67161175  0.73098712  1
