# generated using pymatgen
data_Ca2Al2SiO7
_symmetry_space_group_name_H-M   'P 1'
_cell_length_a   15.45801974
_cell_length_b   15.45758293
_cell_length_c   15.28375424
_cell_angle_alpha   90.00485470
_cell_angle_beta   90.00936728
_cell_angle_gamma   90.00959540
_symmetry_Int_Tables_number   1
_chemical_formula_structural   Ca2Al2SiO7
_chemical_formula_sum   'Ca48 Al48 Si24 O168'
_cell_volume   3651.95548420
_cell_formula_units_Z   24
loop_
 _symmetry_equiv_pos_site_id
 _symmetry_equiv_pos_as_xyz
  1  'x, y, z'
loop_
 _atom_type_symbol
 _atom_type_oxidation_number
  Ca2+  2.0
  Al0+  0.0
  Si0+  0.0
  O2-  -2.0
loop_
 _atom_site_type_symbol
 _atom_site_label
 _atom_site_symmetry_multiplicity
 _atom_site_fract_x
 _atom_site_fract_y
 _atom_site_fract_z
 _atom_site_occupancy
  Ca2+  Ca0  1  0.16705059  0.08422541  0.16679250  1
  Ca2+  Ca1  1  0.17119740  0.07688541  0.50988507  1
  Ca2+  Ca2  1  0.17765566  0.07804975  0.84270263  1
  Ca2+  Ca3  1  0.15367339  0.57380502  0.16956362  1
  Ca2+  Ca4  1  0.16106497  0.57457155  0.50296388  1
  Ca2+  Ca5  1  0.16578508  0.57225643  0.83806471  1
  Ca2+  Ca6  1  0.66560892  0.07582321  0.16666019  1
  Ca2+  Ca7  1  0.66429012  0.08509299  0.50573853  1
  Ca2+  Ca8  1  0.66297178  0.08040632  0.83741656  1
  Ca2+  Ca9  1  0.67290175  0.57994280  0.17104986  1
  Ca2+  Ca10  1  0.67718732  0.57426879  0.50708792  1
  Ca2+  Ca11  1  0.67445278  0.57702225  0.84358042  1
  Ca2+  Ca12  1  0.09196617  0.32664638  0.16038896  1
  Ca2+  Ca13  1  0.08102991  0.33657674  0.49591633  1
  Ca2+  Ca14  1  0.08270701  0.33372052  0.82856899  1
  Ca2+  Ca15  1  0.08366388  0.81978453  0.15707903  1
  Ca2+  Ca16  1  0.08511830  0.82660018  0.49337609  1
  Ca2+  Ca17  1  0.09435919  0.82869236  0.83249553  1
  Ca2+  Ca18  1  0.58378714  0.34095864  0.16113155  1
  Ca2+  Ca19  1  0.58477699  0.33530064  0.50152709  1
  Ca2+  Ca20  1  0.58011597  0.33108024  0.82092358  1
  Ca2+  Ca21  1  0.57996310  0.82861636  0.15803051  1
  Ca2+  Ca22  1  0.56834440  0.83380232  0.49577048  1
  Ca2+  Ca23  1  0.58218922  0.82923643  0.82921231  1
  Ca2+  Ca24  1  0.32242483  0.41982656  0.16857953  1
  Ca2+  Ca25  1  0.32210906  0.41188932  0.50575707  1
  Ca2+  Ca26  1  0.32424605  0.40634510  0.83551064  1
  Ca2+  Ca27  1  0.33148482  0.91979095  0.16602247  1
  Ca2+  Ca28  1  0.33069475  0.91840102  0.51098055  1
  Ca2+  Ca29  1  0.33017705  0.92493240  0.83499789  1
  Ca2+  Ca30  1  0.82478893  0.42694912  0.17120666  1
  Ca2+  Ca31  1  0.83071519  0.42488406  0.50897581  1
  Ca2+  Ca32  1  0.82599415  0.42084014  0.83591706  1
  Ca2+  Ca33  1  0.82779507  0.91269131  0.16432468  1
  Ca2+  Ca34  1  0.83263447  0.92068501  0.50398429  1
  Ca2+  Ca35  1  0.82632809  0.91952294  0.84032164  1
  Ca2+  Ca36  1  0.41465238  0.16912587  0.16107676  1
  Ca2+  Ca37  1  0.41672394  0.17007942  0.50587118  1
  Ca2+  Ca38  1  0.41896703  0.16639474  0.82479253  1
  Ca2+  Ca39  1  0.42202866  0.67176693  0.15989389  1
  Ca2+  Ca40  1  0.40969533  0.68023454  0.49551873  1
  Ca2+  Ca41  1  0.42440379  0.67034887  0.82828984  1
  Ca2+  Ca42  1  0.93046526  0.16999650  0.16023443  1
  Ca2+  Ca43  1  0.92378281  0.17687523  0.49533159  1
  Ca2+  Ca44  1  0.92364395  0.17441357  0.82724668  1
  Ca2+  Ca45  1  0.92097830  0.65725636  0.16287123  1
  Ca2+  Ca46  1  0.91799259  0.66083979  0.49739587  1
  Ca2+  Ca47  1  0.91874156  0.65708799  0.83408790  1
  Al0+  Al48  1  0.00169166  -0.00033198  -0.00146260  1
  Al0+  Al49  1  -0.00042682  0.00021583  0.32925864  1
  Al0+  Al50  1  -0.00092950  -0.00344203  0.67003111  1
  Al0+  Al51  1  -0.00114792  0.49935317  0.00242490  1
  Al0+  Al52  1  -0.00242700  0.49933394  0.33686726  1
  Al0+  Al53  1  0.00065037  0.49955598  0.67020403  1
  Al0+  Al54  1  0.49955414  0.00210687  0.00796746  1
  Al0+  Al55  1  0.49835563  0.00157595  0.32871149  1
  Al0+  Al56  1  0.49983476  -0.00100192  0.66169548  1
  Al0+  Al57  1  0.49829265  0.50099087  -0.00271146  1
  Al0+  Al58  1  0.49887708  0.50125615  0.33743448  1
  Al0+  Al59  1  0.50015366  0.49956264  0.66185650  1
  Al0+  Al60  1  0.25105324  0.24934713  0.00320382  1
  Al0+  Al61  1  0.25209787  0.24945198  0.33409887  1
  Al0+  Al62  1  0.25221453  0.24747745  0.66979887  1
  Al0+  Al63  1  0.25020457  0.75163449  -0.00312261  1
  Al0+  Al64  1  0.24838348  0.75136253  0.32210007  1
  Al0+  Al65  1  0.25011606  0.74763342  0.66586619  1
  Al0+  Al66  1  0.75040894  0.24998787  0.00391098  1
  Al0+  Al67  1  0.74963331  0.24815703  0.33363111  1
  Al0+  Al68  1  0.75267317  0.25036822  0.66118249  1
  Al0+  Al69  1  0.75000684  0.75058052  0.00350953  1
  Al0+  Al70  1  0.74833500  0.75142258  0.33937480  1
  Al0+  Al71  1  0.75312720  0.75009529  0.66780447  1
  Al0+  Al72  1  0.43014502  0.81798010  0.65444303  1
  Al0+  Al73  1  0.18103957  0.42897518  0.67995393  1
  Al0+  Al74  1  0.82016356  0.57071682  0.01695923  1
  Al0+  Al75  1  0.57151607  0.67944705  0.98668268  1
  Al0+  Al76  1  0.67556722  0.42763974  0.01421086  1
  Al0+  Al77  1  0.82036255  0.57162872  0.35117718  1
  Al0+  Al78  1  0.18000162  0.43076153  0.01315578  1
  Al0+  Al79  1  0.06723317  0.67856293  0.32000996  1
  Al0+  Al80  1  0.67827959  0.42727782  0.68210066  1
  Al0+  Al81  1  0.93231449  0.32137870  0.65317248  1
  Al0+  Al82  1  0.82106223  0.57174401  0.68531220  1
  Al0+  Al83  1  0.17792622  0.92732352  0.01765854  1
  Al0+  Al84  1  0.07052274  0.67763130  0.98396773  1
  Al0+  Al85  1  0.42813586  0.82284008  0.31599780  1
  Al0+  Al86  1  0.67949518  0.93017557  0.01259083  1
  Al0+  Al87  1  0.18073174  0.42893472  0.34703456  1
  Al0+  Al88  1  0.32036584  0.07097798  0.01791762  1
  Al0+  Al89  1  0.42680169  0.32276985  0.65096824  1
  Al0+  Al90  1  0.17721243  0.92539944  0.68055888  1
  Al0+  Al91  1  0.32174143  0.06892573  0.68101882  1
  Al0+  Al92  1  0.67635741  0.42688195  0.35112694  1
  Al0+  Al93  1  0.07291780  0.17914423  0.98415956  1
  Al0+  Al94  1  0.57191726  0.17900987  0.65201944  1
  Al0+  Al95  1  0.07235019  0.17986661  0.32042465  1
  Si0+  Si96  1  0.42941765  0.32153918  0.31770193  1
  Si0+  Si97  1  0.82366753  0.07319373  0.01666449  1
  Si0+  Si98  1  0.32252937  0.57378506  0.01458534  1
  Si0+  Si99  1  0.32162354  0.07043049  0.35053567  1
  Si0+  Si100  1  0.67968098  0.93034196  0.67883553  1
  Si0+  Si101  1  0.92744815  0.32076118  0.98379126  1
  Si0+  Si102  1  0.57185272  0.17942162  0.31562872  1
  Si0+  Si103  1  0.32116197  0.57492540  0.34809255  1
  Si0+  Si104  1  0.32282566  0.57345339  0.68144489  1
  Si0+  Si105  1  0.42993888  0.32077178  0.98680328  1
  Si0+  Si106  1  0.92695033  0.82298909  0.65116977  1
  Si0+  Si107  1  0.57579655  0.67804844  0.64894231  1
  Si0+  Si108  1  0.92539712  0.82401704  0.31663873  1
  Si0+  Si109  1  0.57200659  0.17894119  0.98799851  1
  Si0+  Si110  1  0.67693648  0.93124541  0.34968132  1
  Si0+  Si111  1  0.57133071  0.67970722  0.31817956  1
  Si0+  Si112  1  0.42979159  0.82471272  0.98175045  1
  Si0+  Si113  1  0.92779858  0.82213522  0.98247624  1
  Si0+  Si114  1  0.82214086  0.06959967  0.34803683  1
  Si0+  Si115  1  0.17881766  0.92879420  0.34624446  1
  Si0+  Si116  1  0.06958263  0.67982676  0.65249506  1
  Si0+  Si117  1  0.92731039  0.32118325  0.31554552  1
  Si0+  Si118  1  0.07222943  0.17544906  0.65206161  1
  Si0+  Si119  1  0.82240686  0.07175366  0.68029638  1
  O2-  O120  1  0.24792850  0.00018175  0.06931652  1
  O2-  O121  1  0.24947857  -0.00078392  0.39028270  1
  O2-  O122  1  0.24613503  0.00029928  0.72972334  1
  O2-  O123  1  0.24983199  0.51017452  0.06000347  1
  O2-  O124  1  0.25308651  0.50637323  0.39330594  1
  O2-  O125  1  0.26123629  0.49857838  0.72564622  1
  O2-  O126  1  0.75518614  0.00374016  0.06064900  1
  O2-  O127  1  0.74981558  0.00029321  0.39202784  1
  O2-  O128  1  0.74926544  0.00238721  0.72176281  1
  O2-  O129  1  0.74542238  0.50064890  0.06501273  1
  O2-  O130  1  0.74948709  0.49799716  0.39990911  1
  O2-  O131  1  0.74541803  0.50275354  0.73314219  1
  O2-  O132  1  -0.00014838  0.25614663  0.27174471  1
  O2-  O133  1  0.00805093  0.24709494  0.60588445  1
  O2-  O134  1  -0.00327504  0.25258335  0.93895711  1
  O2-  O135  1  -0.00943882  0.75218501  0.27370011  1
  O2-  O136  1  -0.00020501  0.75303515  0.61112396  1
  O2-  O137  1  -0.00261493  0.75485716  0.93734851  1
  O2-  O138  1  0.50538584  0.25529161  0.27493402  1
  O2-  O139  1  0.50245522  0.25344137  0.60123564  1
  O2-  O140  1  0.50609731  0.25403608  0.94674197  1
  O2-  O141  1  0.50251001  0.74697295  0.27161343  1
  O2-  O142  1  0.50309147  0.74276144  0.60447985  1
  O2-  O143  1  0.49755435  0.75468180  0.93855742  1
  O2-  O144  1  0.07165144  0.18196054  0.09780208  1
  O2-  O145  1  0.06941367  0.17702359  0.43357100  1
  O2-  O146  1  0.06806089  0.17493510  0.75741260  1
  O2-  O147  1  0.06733889  0.67690484  0.09711761  1
  O2-  O148  1  0.06949950  0.68209344  0.43359028  1
  O2-  O149  1  0.06990332  0.67988996  0.75738374  1
  O2-  O150  1  0.57054061  0.17776601  0.09345595  1
  O2-  O151  1  0.57050377  0.17449015  0.42018398  1
  O2-  O152  1  0.57125565  0.17562280  0.76590347  1
  O2-  O153  1  0.56854902  0.68124828  0.10017896  1
  O2-  O154  1  0.57035283  0.68380513  0.42370574  1
  O2-  O155  1  0.57656158  0.68218809  0.75461444  1
  O2-  O156  1  0.18350710  0.42804486  0.23396920  1
  O2-  O157  1  0.17873425  0.43223200  0.56657975  1
  O2-  O158  1  0.18211915  0.42939073  0.90014477  1
  O2-  O159  1  0.17911664  0.93012876  0.24176142  1
  O2-  O160  1  0.17716355  0.92578922  0.56585172  1
  O2-  O161  1  0.18165107  0.92802789  0.90432214  1
  O2-  O162  1  0.67658834  0.42860510  0.23747375  1
  O2-  O163  1  0.68287089  0.42823691  0.56866285  1
  O2-  O164  1  0.67577471  0.42507430  0.90124523  1
  O2-  O165  1  0.67771246  0.93216045  0.24462088  1
  O2-  O166  1  0.68191708  0.93118511  0.57332007  1
  O2-  O167  1  0.67914177  0.93338308  0.89909902  1
  O2-  O168  1  0.42943470  0.32009732  0.09253340  1
  O2-  O169  1  0.42593817  0.31761470  0.42214336  1
  O2-  O170  1  0.42609658  0.31918674  0.76471103  1
  O2-  O171  1  0.43192477  0.82369509  0.08771891  1
  O2-  O172  1  0.42852541  0.82369666  0.42942984  1
  O2-  O173  1  0.43419481  0.81777032  0.76718616  1
  O2-  O174  1  0.92633154  0.31782896  0.08949947  1
  O2-  O175  1  0.92774211  0.31805141  0.42130847  1
  O2-  O176  1  0.93245450  0.31864248  0.76625905  1
  O2-  O177  1  0.92760067  0.82211147  0.08827396  1
  O2-  O178  1  0.92825094  0.82944226  0.42228410  1
  O2-  O179  1  0.92137388  0.82665393  0.75527899  1
  O2-  O180  1  0.32289657  0.07113901  0.24571656  1
  O2-  O181  1  0.32090002  0.06637455  0.56662964  1
  O2-  O182  1  0.32391418  0.07008888  0.90491069  1
  O2-  O183  1  0.32388762  0.57218620  0.24256285  1
  O2-  O184  1  0.31597100  0.57924419  0.57587119  1
  O2-  O185  1  0.32441116  0.57077748  0.90909969  1
  O2-  O186  1  0.82104061  0.06809136  0.24311095  1
  O2-  O187  1  0.82486415  0.06767573  0.57486471  1
  O2-  O188  1  0.82125683  0.07398840  0.91086495  1
  O2-  O189  1  0.81851741  0.57214650  0.23800057  1
  O2-  O190  1  0.82139353  0.57245903  0.57183852  1
  O2-  O191  1  0.81953806  0.56877286  0.90368929  1
  O2-  O192  1  0.03855122  0.08425024  0.26504596  1
  O2-  O193  1  0.04210728  0.08215135  0.60632452  1
  O2-  O194  1  0.04343851  0.08156826  0.93172723  1
  O2-  O195  1  0.03696716  0.58092486  0.26744840  1
  O2-  O196  1  0.03919570  0.58914793  0.60481713  1
  O2-  O197  1  0.03843543  0.58062308  0.93100359  1
  O2-  O198  1  0.53880729  0.08991334  0.26610330  1
  O2-  O199  1  0.54151860  0.08185235  0.59568836  1
  O2-  O200  1  0.54077176  0.08792356  0.94101961  1
  O2-  O201  1  0.54657415  0.58507264  0.27386777  1
  O2-  O202  1  0.55540298  0.58328904  0.60416376  1
  O2-  O203  1  0.53893630  0.58407375  0.93076779  1
  O2-  O204  1  0.16993558  0.20894577  0.26719547  1
  O2-  O205  1  0.16778267  0.19566280  0.60908813  1
  O2-  O206  1  0.16974229  0.21171249  0.93244234  1
  O2-  O207  1  0.16204453  0.70918168  0.26267126  1
  O2-  O208  1  0.16116691  0.70581112  0.60352281  1
  O2-  O209  1  0.16867938  0.70648451  0.93080943  1
  O2-  O210  1  0.66607828  0.19943098  0.26895443  1
  O2-  O211  1  0.67118122  0.20241594  0.59754938  1
  O2-  O212  1  0.66643836  0.19923463  0.94226744  1
  O2-  O213  1  0.66486213  0.70837451  0.27333111  1
  O2-  O214  1  0.66763555  0.70975101  0.60233112  1
  O2-  O215  1  0.66781614  0.71225525  0.93375769  1
  O2-  O216  1  0.08276383  0.45677845  0.06733888  1
  O2-  O217  1  0.08299070  0.45683018  0.39941073  1
  O2-  O218  1  0.08739658  0.46452067  0.73536955  1
  O2-  O219  1  0.07761208  0.95263905  0.06800559  1
  O2-  O220  1  0.08563521  0.95529058  0.39251042  1
  O2-  O221  1  0.07688847  0.94679044  0.73264408  1
  O2-  O222  1  0.57610146  0.45568466  0.06555781  1
  O2-  O223  1  0.57700039  0.45450575  0.40311361  1
  O2-  O224  1  0.57556859  0.44890234  0.72875896  1
  O2-  O225  1  0.58622752  0.96340883  0.07110832  1
  O2-  O226  1  0.58568182  0.96374447  0.39558597  1
  O2-  O227  1  0.58823323  0.95688674  0.72572470  1
  O2-  O228  1  0.21653127  0.33677090  0.06809568  1
  O2-  O229  1  0.21475657  0.33314839  0.40110264  1
  O2-  O230  1  0.20691971  0.33082151  0.73267110  1
  O2-  O231  1  0.20759756  0.82817338  0.06900811  1
  O2-  O232  1  0.20703483  0.83603384  0.39145602  1
  O2-  O233  1  0.20922128  0.82817243  0.73286186  1
  O2-  O234  1  0.70365406  0.32901227  0.06841201  1
  O2-  O235  1  0.70187715  0.32524638  0.39900323  1
  O2-  O236  1  0.70976822  0.32807386  0.73182824  1
  O2-  O237  1  0.71032090  0.83569632  0.07003900  1
  O2-  O238  1  0.70117073  0.83979375  0.39889971  1
  O2-  O239  1  0.70964060  0.83972412  0.72660815  1
  O2-  O240  1  0.45173984  0.41604569  0.27246825  1
  O2-  O241  1  0.44747807  0.42287733  0.59654101  1
  O2-  O242  1  0.45034328  0.41342822  0.93852070  1
  O2-  O243  1  0.46222250  0.91842909  0.26183547  1
  O2-  O244  1  0.46283076  0.91238083  0.59689523  1
  O2-  O245  1  0.45971920  0.91846522  0.93908650  1
  O2-  O246  1  0.94877011  0.41621171  0.27252474  1
  O2-  O247  1  0.96457522  0.41759285  0.59884593  1
  O2-  O248  1  0.95335469  0.41398758  0.93877424  1
  O2-  O249  1  0.95194611  0.91593316  0.26735575  1
  O2-  O250  1  0.95345166  0.91466131  0.60097026  1
  O2-  O251  1  0.94947586  0.91705611  0.93680299  1
  O2-  O252  1  0.34044513  0.28803581  0.26787183  1
  O2-  O253  1  0.32970530  0.28833206  0.59629902  1
  O2-  O254  1  0.34053658  0.28709757  0.93929569  1
  O2-  O255  1  0.33297876  0.79365033  0.25935717  1
  O2-  O256  1  0.33345114  0.78701317  0.59861510  1
  O2-  O257  1  0.33579779  0.80121176  0.93670841  1
  O2-  O258  1  0.83511544  0.28994045  0.26916270  1
  O2-  O259  1  0.83835559  0.28820963  0.59581795  1
  O2-  O260  1  0.83391202  0.29253357  0.93767509  1
  O2-  O261  1  0.82881765  0.80239458  0.27455681  1
  O2-  O262  1  0.83652478  0.79471000  0.59984118  1
  O2-  O263  1  0.83356380  0.79732923  0.93721820  1
  O2-  O264  1  0.41775262  0.04295040  0.07413157  1
  O2-  O265  1  0.41389774  0.04124095  0.39618737  1
  O2-  O266  1  0.41985589  0.03655335  0.73242975  1
  O2-  O267  1  0.41345367  0.54367036  0.06375853  1
  O2-  O268  1  0.41448218  0.55277165  0.39620536  1
  O2-  O269  1  0.42016699  0.55678477  0.72230265  1
  O2-  O270  1  0.91674515  0.04678201  0.06257572  1
  O2-  O271  1  0.91300673  0.03977655  0.39676325  1
  O2-  O272  1  0.91158172  0.04094678  0.73088096  1
  O2-  O273  1  0.91697393  0.53858488  0.07031551  1
  O2-  O274  1  0.91832090  0.54306884  0.40483046  1
  O2-  O275  1  0.91855518  0.54007481  0.73675046  1
  O2-  O276  1  0.29151941  0.16862831  0.07242043  1
  O2-  O277  1  0.29448149  0.16207216  0.39767563  1
  O2-  O278  1  0.29837775  0.16736773  0.73472388  1
  O2-  O279  1  0.30354018  0.66968599  0.05782947  1
  O2-  O280  1  0.29322644  0.66971966  0.39092792  1
  O2-  O281  1  0.29158526  0.66304586  0.73212863  1
  O2-  O282  1  0.79714163  0.16475582  0.06604191  1
  O2-  O283  1  0.79502801  0.16117677  0.39573937  1
  O2-  O284  1  0.79678765  0.16335826  0.72707541  1
  O2-  O285  1  0.79544741  0.67026726  0.06872553  1
  O2-  O286  1  0.79393197  0.67178848  0.40394934  1
  O2-  O287  1  0.79735955  0.67279061  0.73574510  1
