# generated using pymatgen
data_Ca2Al2SiO7
_symmetry_space_group_name_H-M   'P 1'
_cell_length_a   15.45276220
_cell_length_b   15.45407543
_cell_length_c   15.27984183
_cell_angle_alpha   89.99979019
_cell_angle_beta   89.99596836
_cell_angle_gamma   90.00655321
_symmetry_Int_Tables_number   1
_chemical_formula_structural   Ca2Al2SiO7
_chemical_formula_sum   'Ca48 Al48 Si24 O168'
_cell_volume   3648.95076814
_cell_formula_units_Z   24
loop_
 _symmetry_equiv_pos_site_id
 _symmetry_equiv_pos_as_xyz
  1  'x, y, z'
loop_
 _atom_type_symbol
 _atom_type_oxidation_number
  Ca2+  2.0
  Al0+  0.0
  Si0+  0.0
  O2-  -2.0
loop_
 _atom_site_type_symbol
 _atom_site_label
 _atom_site_symmetry_multiplicity
 _atom_site_fract_x
 _atom_site_fract_y
 _atom_site_fract_z
 _atom_site_occupancy
  Ca2+  Ca0  1  0.17349880  0.08660241  0.16525134  1
  Ca2+  Ca1  1  0.17399956  0.08074088  0.50371480  1
  Ca2+  Ca2  1  0.17050461  0.07405968  0.84248445  1
  Ca2+  Ca3  1  0.17640870  0.57823711  0.17128906  1
  Ca2+  Ca4  1  0.16497327  0.56955299  0.50428698  1
  Ca2+  Ca5  1  0.17444045  0.57679918  0.83884867  1
  Ca2+  Ca6  1  0.67130188  0.08520081  0.16876563  1
  Ca2+  Ca7  1  0.67593251  0.08945812  0.50045366  1
  Ca2+  Ca8  1  0.67076685  0.07610926  0.84675656  1
  Ca2+  Ca9  1  0.67377051  0.58467934  0.17347506  1
  Ca2+  Ca10  1  0.66296793  0.58371231  0.49642925  1
  Ca2+  Ca11  1  0.66770842  0.58665157  0.84049969  1
  Ca2+  Ca12  1  0.07892683  0.33040520  0.16404565  1
  Ca2+  Ca13  1  0.07493433  0.34264113  0.49361404  1
  Ca2+  Ca14  1  0.08036305  0.32719223  0.82799093  1
  Ca2+  Ca15  1  0.08212351  0.83612924  0.16098222  1
  Ca2+  Ca16  1  0.08092852  0.83683406  0.50137332  1
  Ca2+  Ca17  1  0.08060687  0.83852512  0.82617283  1
  Ca2+  Ca18  1  0.58135672  0.33085548  0.16465723  1
  Ca2+  Ca19  1  0.57026040  0.33933066  0.49214721  1
  Ca2+  Ca20  1  0.57787852  0.32518090  0.82999439  1
  Ca2+  Ca21  1  0.58921812  0.82447724  0.15993349  1
  Ca2+  Ca22  1  0.58147914  0.82228145  0.49794018  1
  Ca2+  Ca23  1  0.58230658  0.82456204  0.82753192  1
  Ca2+  Ca24  1  0.33050696  0.41650945  0.17265915  1
  Ca2+  Ca25  1  0.32433582  0.40732937  0.50490573  1
  Ca2+  Ca26  1  0.33314668  0.41800361  0.83404417  1
  Ca2+  Ca27  1  0.33298407  0.92954957  0.16809367  1
  Ca2+  Ca28  1  0.33317688  0.92094369  0.50720956  1
  Ca2+  Ca29  1  0.32469633  0.91397971  0.84103536  1
  Ca2+  Ca30  1  0.82675733  0.42454114  0.17799585  1
  Ca2+  Ca31  1  0.83081867  0.41657325  0.50104934  1
  Ca2+  Ca32  1  0.83397969  0.42283471  0.83773939  1
  Ca2+  Ca33  1  0.82813026  0.92902938  0.16591446  1
  Ca2+  Ca34  1  0.83673697  0.92193211  0.50312034  1
  Ca2+  Ca35  1  0.82873465  0.91952441  0.84294707  1
  Ca2+  Ca36  1  0.41378018  0.17016624  0.16120199  1
  Ca2+  Ca37  1  0.41232223  0.17512073  0.49384665  1
  Ca2+  Ca38  1  0.41992522  0.16439494  0.83295747  1
  Ca2+  Ca39  1  0.42913796  0.66178310  0.15889198  1
  Ca2+  Ca40  1  0.42521056  0.66971068  0.49613249  1
  Ca2+  Ca41  1  0.42467636  0.66949523  0.82762280  1
  Ca2+  Ca42  1  0.91547801  0.16902408  0.16055955  1
  Ca2+  Ca43  1  0.91820240  0.17792433  0.49208835  1
  Ca2+  Ca44  1  0.92215018  0.16590587  0.83042663  1
  Ca2+  Ca45  1  0.91365403  0.66229242  0.16234217  1
  Ca2+  Ca46  1  0.91417325  0.67140034  0.49560843  1
  Ca2+  Ca47  1  0.91537999  0.67384488  0.82875260  1
  Al0+  Al48  1  -0.00077506  0.00093400  0.00284854  1
  Al0+  Al49  1  -0.00048471  -0.00014896  0.33644045  1
  Al0+  Al50  1  0.00219348  0.00081575  0.66508928  1
  Al0+  Al51  1  -0.00053625  0.50125093  0.00164285  1
  Al0+  Al52  1  0.00000990  0.50200297  0.33466757  1
  Al0+  Al53  1  0.00000078  0.49942456  0.66986365  1
  Al0+  Al54  1  0.49839729  -0.00103118  0.00317131  1
  Al0+  Al55  1  0.49926325  -0.00033639  0.33936559  1
  Al0+  Al56  1  0.50364473  -0.00087358  0.66267910  1
  Al0+  Al57  1  0.49940285  0.49997197  -0.00249255  1
  Al0+  Al58  1  0.50011241  0.50128202  0.32686803  1
  Al0+  Al59  1  0.50145900  0.49726331  0.66037797  1
  Al0+  Al60  1  0.24611803  0.24953189  -0.00373958  1
  Al0+  Al61  1  0.24907581  0.24881687  0.33690295  1
  Al0+  Al62  1  0.25037337  0.24824877  0.67033207  1
  Al0+  Al63  1  0.24955403  0.74706875  0.00880452  1
  Al0+  Al64  1  0.24953194  0.75101642  0.33261583  1
  Al0+  Al65  1  0.25067880  0.74930211  0.66574034  1
  Al0+  Al66  1  0.74790636  0.25184872  -0.00300536  1
  Al0+  Al67  1  0.74931982  0.25133219  0.33783269  1
  Al0+  Al68  1  0.75209706  0.25178940  0.66622795  1
  Al0+  Al69  1  0.75069078  0.74952799  0.00317369  1
  Al0+  Al70  1  0.75059126  0.75135801  0.33249837  1
  Al0+  Al71  1  0.75192354  0.75084664  0.65784690  1
  Al0+  Al72  1  0.67756701  0.92782132  0.01352927  1
  Al0+  Al73  1  0.18098488  0.43026869  0.34558966  1
  Al0+  Al74  1  0.93033223  0.32191072  0.65288663  1
  Al0+  Al75  1  0.57084304  0.17740404  0.98787692  1
  Al0+  Al76  1  0.82030424  0.57027124  0.01177034  1
  Al0+  Al77  1  0.57221841  0.67802914  0.65006069  1
  Al0+  Al78  1  0.82122184  0.57241622  0.35092496  1
  Al0+  Al79  1  0.32106100  0.07252507  0.01370693  1
  Al0+  Al80  1  0.42949041  0.31739414  0.65355298  1
  Al0+  Al81  1  0.57207565  0.67978392  0.98580773  1
  Al0+  Al82  1  0.06929455  0.17887725  0.98563623  1
  Al0+  Al83  1  0.18059303  0.92876822  0.67995075  1
  Al0+  Al84  1  0.82112210  0.07150354  0.34847983  1
  Al0+  Al85  1  0.92821928  0.32225542  0.31879968  1
  Al0+  Al86  1  0.82036417  0.07371151  0.01312420  1
  Al0+  Al87  1  0.42695422  0.82202223  0.65236176  1
  Al0+  Al88  1  0.32082862  0.07052162  0.34877514  1
  Al0+  Al89  1  0.42700326  0.31935214  0.31867705  1
  Al0+  Al90  1  0.17744603  0.92754130  0.01584027  1
  Al0+  Al91  1  0.56956793  0.68164879  0.31585713  1
  Al0+  Al92  1  0.32235858  0.56922747  0.01276917  1
  Al0+  Al93  1  0.67729905  0.42947760  0.34885591  1
  Al0+  Al94  1  0.93097065  0.82202395  0.65347872  1
  Al0+  Al95  1  0.17772619  0.42787976  0.68286965  1
  Si0+  Si96  1  0.67856043  0.92788380  0.35240461  1
  Si0+  Si97  1  0.82104405  0.07209964  0.68183634  1
  Si0+  Si98  1  0.07140080  0.67939103  0.31755685  1
  Si0+  Si99  1  0.17746087  0.42792759  0.01640989  1
  Si0+  Si100  1  0.32485215  0.07106174  0.68418486  1
  Si0+  Si101  1  0.07243974  0.67695948  0.65132095  1
  Si0+  Si102  1  0.57451076  0.17698308  0.64946593  1
  Si0+  Si103  1  0.42603820  0.82076268  0.98592492  1
  Si0+  Si104  1  0.81979490  0.57219688  0.68148566  1
  Si0+  Si105  1  0.07011263  0.17700431  0.31698426  1
  Si0+  Si106  1  0.57164796  0.17676500  0.31822637  1
  Si0+  Si107  1  0.17778618  0.92651759  0.35176647  1
  Si0+  Si108  1  0.67669760  0.42767679  0.01457670  1
  Si0+  Si109  1  0.42586732  0.82418730  0.31452355  1
  Si0+  Si110  1  0.93118404  0.81952713  0.98699892  1
  Si0+  Si111  1  0.42636836  0.32143531  0.98275720  1
  Si0+  Si112  1  0.07301892  0.67729812  0.98556005  1
  Si0+  Si113  1  0.32304128  0.57333447  0.35025234  1
  Si0+  Si114  1  0.93024830  0.82255960  0.31609597  1
  Si0+  Si115  1  0.92733839  0.32427472  0.98348758  1
  Si0+  Si116  1  0.68139031  0.92816776  0.68028982  1
  Si0+  Si117  1  0.67776054  0.42881698  0.68285169  1
  Si0+  Si118  1  0.07167510  0.17821273  0.64892098  1
  Si0+  Si119  1  0.32379590  0.57025446  0.68129780  1
  O2-  O120  1  0.24959180  -0.00011716  0.06423759  1
  O2-  O121  1  0.24857127  -0.00688748  0.39509417  1
  O2-  O122  1  0.25960286  -0.00157793  0.72690967  1
  O2-  O123  1  0.24891242  0.49362192  0.06000456  1
  O2-  O124  1  0.25652182  0.50309953  0.39515773  1
  O2-  O125  1  0.25432374  0.50232457  0.72667476  1
  O2-  O126  1  0.74413473  0.00573080  0.06257169  1
  O2-  O127  1  0.74545122  -0.00149899  0.39703575  1
  O2-  O128  1  0.75007191  0.00104378  0.72355974  1
  O2-  O129  1  0.74592708  0.49594954  0.05790729  1
  O2-  O130  1  0.75027385  0.49983223  0.40132322  1
  O2-  O131  1  0.74778839  0.50197366  0.72392517  1
  O2-  O132  1  0.00043282  0.24489269  0.27264339  1
  O2-  O133  1  0.00662365  0.24996494  0.60444699  1
  O2-  O134  1  -0.00682273  0.25278483  0.93921472  1
  O2-  O135  1  0.00082004  0.75081943  0.27456047  1
  O2-  O136  1  0.00617161  0.74782625  0.60636266  1
  O2-  O137  1  0.00418930  0.75062626  0.94357401  1
  O2-  O138  1  0.50233913  0.24452321  0.27341137  1
  O2-  O139  1  0.50278450  0.24216163  0.60545546  1
  O2-  O140  1  0.49403051  0.25027126  0.94050499  1
  O2-  O141  1  0.49403364  0.75589914  0.26936686  1
  O2-  O142  1  0.49775533  0.74896411  0.60207647  1
  O2-  O143  1  0.49694769  0.75471968  0.94033470  1
  O2-  O144  1  0.07050648  0.18240883  0.09874040  1
  O2-  O145  1  0.06875728  0.17608253  0.42286481  1
  O2-  O146  1  0.06805280  0.17658577  0.75457408  1
  O2-  O147  1  0.07101331  0.67528045  0.09072827  1
  O2-  O148  1  0.07214773  0.68070859  0.42276441  1
  O2-  O149  1  0.07024049  0.67633802  0.75716019  1
  O2-  O150  1  0.57274852  0.18187275  0.10067575  1
  O2-  O151  1  0.57030881  0.17723872  0.42419625  1
  O2-  O152  1  0.57552464  0.17735049  0.75519489  1
  O2-  O153  1  0.57266446  0.68044481  0.09854730  1
  O2-  O154  1  0.56800139  0.68363064  0.42894607  1
  O2-  O155  1  0.57385081  0.68014106  0.76399240  1
  O2-  O156  1  0.18174024  0.43219210  0.23236999  1
  O2-  O157  1  0.17685452  0.43016479  0.56975124  1
  O2-  O158  1  0.17633300  0.43039032  0.91060196  1
  O2-  O159  1  0.17626775  0.92607534  0.24653475  1
  O2-  O160  1  0.17870525  0.93333130  0.56684161  1
  O2-  O161  1  0.17768882  0.92699871  0.90195324  1
  O2-  O162  1  0.67868789  0.42997277  0.23499408  1
  O2-  O163  1  0.67764320  0.42689680  0.57829036  1
  O2-  O164  1  0.67744935  0.42800998  0.90834988  1
  O2-  O165  1  0.68031048  0.92780291  0.24696768  1
  O2-  O166  1  0.68366078  0.92931563  0.57517995  1
  O2-  O167  1  0.68224945  0.92593745  0.89917048  1
  O2-  O168  1  0.42612227  0.32233137  0.08829802  1
  O2-  O169  1  0.42611599  0.31724044  0.43199405  1
  O2-  O170  1  0.43260656  0.31805922  0.76680247  1
  O2-  O171  1  0.42591397  0.81819040  0.09144896  1
  O2-  O172  1  0.42534863  0.82219909  0.42030624  1
  O2-  O173  1  0.42789982  0.82109463  0.76614646  1
  O2-  O174  1  0.92959309  0.32627187  0.08892511  1
  O2-  O175  1  0.93134389  0.32158456  0.43218902  1
  O2-  O176  1  0.92906080  0.32006551  0.76610509  1
  O2-  O177  1  0.93174634  0.81795834  0.09223462  1
  O2-  O178  1  0.93239226  0.82345314  0.42151734  1
  O2-  O179  1  0.92909470  0.82051678  0.76685069  1
  O2-  O180  1  0.31925579  0.07106413  0.23601798  1
  O2-  O181  1  0.32168204  0.07249554  0.57839663  1
  O2-  O182  1  0.32000492  0.07091692  0.90000387  1
  O2-  O183  1  0.31969884  0.57324908  0.24448115  1
  O2-  O184  1  0.32222461  0.56942799  0.57569802  1
  O2-  O185  1  0.32059250  0.56900750  0.89927854  1
  O2-  O186  1  0.82166623  0.06969721  0.23573473  1
  O2-  O187  1  0.81976226  0.07200827  0.57657575  1
  O2-  O188  1  0.82138636  0.06954154  0.89884560  1
  O2-  O189  1  0.82057786  0.57156720  0.23717010  1
  O2-  O190  1  0.82118322  0.57172966  0.57688187  1
  O2-  O191  1  0.82101822  0.57086574  0.89800471  1
  O2-  O192  1  0.04531369  0.08268168  0.27180979  1
  O2-  O193  1  0.04295569  0.08684355  0.60030665  1
  O2-  O194  1  0.03834286  0.08174373  0.93158486  1
  O2-  O195  1  0.04327396  0.58879401  0.26849356  1
  O2-  O196  1  0.04244273  0.58491104  0.60473406  1
  O2-  O197  1  0.04292855  0.58672126  0.93618157  1
  O2-  O198  1  0.54810978  0.08139540  0.27499180  1
  O2-  O199  1  0.55558347  0.08239056  0.60294641  1
  O2-  O200  1  0.54255809  0.07954532  0.93355838  1
  O2-  O201  1  0.54043733  0.58530114  0.26090352  1
  O2-  O202  1  0.54585562  0.57943682  0.59733867  1
  O2-  O203  1  0.54173390  0.58263030  0.93173371  1
  O2-  O204  1  0.16321410  0.20509062  0.27225991  1
  O2-  O205  1  0.16734970  0.19989132  0.60662814  1
  O2-  O206  1  0.16418303  0.21005638  0.92754986  1
  O2-  O207  1  0.16361284  0.70667551  0.26944107  1
  O2-  O208  1  0.16629532  0.69860582  0.60456120  1
  O2-  O209  1  0.16614567  0.70206068  0.93952362  1
  O2-  O210  1  0.66545374  0.20306360  0.27354090  1
  O2-  O211  1  0.66715796  0.20679190  0.60393683  1
  O2-  O212  1  0.66592168  0.20975532  0.92950175  1
  O2-  O213  1  0.66759019  0.71401104  0.26472275  1
  O2-  O214  1  0.66832083  0.71002789  0.59471800  1
  O2-  O215  1  0.66928054  0.71125803  0.93244013  1
  O2-  O216  1  0.08529181  0.45704438  0.06299849  1
  O2-  O217  1  0.08606452  0.46549687  0.40023571  1
  O2-  O218  1  0.08224550  0.46049500  0.73853439  1
  O2-  O219  1  0.07981483  0.95656543  0.06913930  1
  O2-  O220  1  0.08482466  0.95406109  0.39833365  1
  O2-  O221  1  0.08415401  0.96273480  0.73378905  1
  O2-  O222  1  0.58283988  0.45182285  0.05950817  1
  O2-  O223  1  0.57841260  0.46156529  0.39973221  1
  O2-  O224  1  0.58556264  0.45488892  0.73044649  1
  O2-  O225  1  0.57787055  0.94775090  0.06589825  1
  O2-  O226  1  0.58415735  0.94942533  0.39857676  1
  O2-  O227  1  0.58844704  0.95294066  0.72696143  1
  O2-  O228  1  0.20012456  0.33363129  0.06069752  1
  O2-  O229  1  0.20771174  0.33363583  0.40100281  1
  O2-  O230  1  0.20814665  0.33087742  0.73643485  1
  O2-  O231  1  0.20248436  0.82910465  0.07016428  1
  O2-  O232  1  0.20066389  0.83182015  0.39751034  1
  O2-  O233  1  0.20384501  0.82903685  0.73222646  1
  O2-  O234  1  0.70117571  0.33464295  0.06126807  1
  O2-  O235  1  0.70190996  0.33104509  0.40348546  1
  O2-  O236  1  0.70856275  0.33769539  0.73121552  1
  O2-  O237  1  0.71460610  0.83393281  0.06951462  1
  O2-  O238  1  0.70928839  0.83626648  0.39914767  1
  O2-  O239  1  0.71220731  0.83637640  0.72603694  1
  O2-  O240  1  0.45543674  0.41634801  0.26453067  1
  O2-  O241  1  0.45959139  0.41276886  0.59758824  1
  O2-  O242  1  0.45499625  0.41345706  0.93470140  1
  O2-  O243  1  0.45223423  0.91902323  0.27169416  1
  O2-  O244  1  0.45748048  0.91971104  0.59780885  1
  O2-  O245  1  0.44610738  0.91574351  0.94099341  1
  O2-  O246  1  0.96120760  0.41898072  0.26616178  1
  O2-  O247  1  0.95950343  0.41955481  0.60046990  1
  O2-  O248  1  0.95731780  0.41683263  0.93594892  1
  O2-  O249  1  0.95998236  0.91394717  0.26873714  1
  O2-  O250  1  0.96244845  0.91795622  0.59777823  1
  O2-  O251  1  0.95596859  0.91198680  0.93968821  1
  O2-  O252  1  0.33040677  0.28681473  0.26540682  1
  O2-  O253  1  0.33157834  0.28746514  0.60125415  1
  O2-  O254  1  0.33224354  0.29838067  0.93654498  1
  O2-  O255  1  0.33096503  0.80080215  0.26979311  1
  O2-  O256  1  0.32832315  0.79570829  0.59775595  1
  O2-  O257  1  0.33257305  0.79031383  0.94111131  1
  O2-  O258  1  0.82996698  0.29304721  0.26784977  1
  O2-  O259  1  0.83386730  0.29046859  0.59895398  1
  O2-  O260  1  0.83251461  0.30390192  0.93778880  1
  O2-  O261  1  0.83812282  0.79613611  0.26971762  1
  O2-  O262  1  0.83720859  0.79146474  0.59468481  1
  O2-  O263  1  0.84073421  0.78845350  0.93877911  1
  O2-  O264  1  0.41875330  0.04679682  0.06878899  1
  O2-  O265  1  0.41761245  0.04309762  0.40497667  1
  O2-  O266  1  0.42178964  0.05015762  0.72544441  1
  O2-  O267  1  0.41865187  0.53888277  0.06708464  1
  O2-  O268  1  0.41768475  0.55035052  0.39296998  1
  O2-  O269  1  0.41738382  0.54197013  0.72643211  1
  O2-  O270  1  0.91586886  0.04135499  0.06830123  1
  O2-  O271  1  0.91674215  0.03809956  0.40384384  1
  O2-  O272  1  0.91350892  0.04351373  0.72668998  1
  O2-  O273  1  0.91749685  0.54230817  0.06664115  1
  O2-  O274  1  0.92081672  0.54743343  0.40243625  1
  O2-  O275  1  0.91104372  0.54410493  0.73030116  1
  O2-  O276  1  0.28930845  0.17103622  0.06521324  1
  O2-  O277  1  0.28583843  0.16447877  0.40517526  1
  O2-  O278  1  0.29622851  0.16257139  0.73231972  1
  O2-  O279  1  0.29047573  0.66235474  0.07199878  1
  O2-  O280  1  0.29536755  0.66709020  0.39544770  1
  O2-  O281  1  0.29893315  0.66398781  0.72732621  1
  O2-  O282  1  0.79572040  0.17402823  0.06328338  1
  O2-  O283  1  0.79094941  0.16720848  0.40445446  1
  O2-  O284  1  0.79415715  0.16409474  0.72920961  1
  O2-  O285  1  0.79133233  0.66557592  0.06794851  1
  O2-  O286  1  0.79302838  0.67220881  0.40156690  1
  O2-  O287  1  0.79269968  0.66562474  0.72659124  1
