# generated using pymatgen
data_Ca2Al2SiO7
_symmetry_space_group_name_H-M   'P 1'
_cell_length_a   15.47081878
_cell_length_b   15.47237626
_cell_length_c   15.29344006
_cell_angle_alpha   90.00070157
_cell_angle_beta   90.00432422
_cell_angle_gamma   89.98817738
_symmetry_Int_Tables_number   1
_chemical_formula_structural   Ca2Al2SiO7
_chemical_formula_sum   'Ca48 Al48 Si24 O168'
_cell_volume   3660.79569232
_cell_formula_units_Z   24
loop_
 _symmetry_equiv_pos_site_id
 _symmetry_equiv_pos_as_xyz
  1  'x, y, z'
loop_
 _atom_type_symbol
 _atom_type_oxidation_number
  Ca2+  2.0
  Al0+  0.0
  Si0+  0.0
  O2-  -2.0
loop_
 _atom_site_type_symbol
 _atom_site_label
 _atom_site_symmetry_multiplicity
 _atom_site_fract_x
 _atom_site_fract_y
 _atom_site_fract_z
 _atom_site_occupancy
  Ca2+  Ca0  1  0.16038919  0.08398840  0.17896364  1
  Ca2+  Ca1  1  0.15912970  0.07951394  0.49604140  1
  Ca2+  Ca2  1  0.16221162  0.08221617  0.83952651  1
  Ca2+  Ca3  1  0.16970409  0.56983061  0.17144499  1
  Ca2+  Ca4  1  0.15897343  0.57388696  0.50358161  1
  Ca2+  Ca5  1  0.16789278  0.56995707  0.83823162  1
  Ca2+  Ca6  1  0.67887479  0.08399020  0.17943856  1
  Ca2+  Ca7  1  0.66275981  0.08524253  0.49919091  1
  Ca2+  Ca8  1  0.66951274  0.08720303  0.83788845  1
  Ca2+  Ca9  1  0.67113398  0.57828026  0.17390456  1
  Ca2+  Ca10  1  0.67045877  0.57905628  0.49889821  1
  Ca2+  Ca11  1  0.68183787  0.58208823  0.83873711  1
  Ca2+  Ca12  1  0.08439692  0.32522719  0.16001369  1
  Ca2+  Ca13  1  0.07800160  0.33662412  0.49445990  1
  Ca2+  Ca14  1  0.07582922  0.34189100  0.83217789  1
  Ca2+  Ca15  1  0.08137050  0.83168530  0.17060614  1
  Ca2+  Ca16  1  0.08056391  0.82041252  0.48745128  1
  Ca2+  Ca17  1  0.07961727  0.82140537  0.82617952  1
  Ca2+  Ca18  1  0.57436584  0.34033571  0.16563887  1
  Ca2+  Ca19  1  0.57468817  0.33031052  0.48769226  1
  Ca2+  Ca20  1  0.57007290  0.33170843  0.82517082  1
  Ca2+  Ca21  1  0.59499288  0.82771774  0.17047283  1
  Ca2+  Ca22  1  0.58645936  0.82819796  0.49005491  1
  Ca2+  Ca23  1  0.58211448  0.83113510  0.83025985  1
  Ca2+  Ca24  1  0.32643958  0.41002581  0.17091316  1
  Ca2+  Ca25  1  0.32231112  0.40381459  0.50053160  1
  Ca2+  Ca26  1  0.32467708  0.41243338  0.83958157  1
  Ca2+  Ca27  1  0.32461878  0.92272693  0.17537583  1
  Ca2+  Ca28  1  0.32729150  0.91633114  0.49988492  1
  Ca2+  Ca29  1  0.33121874  0.92112530  0.83837522  1
  Ca2+  Ca30  1  0.83411959  0.42013303  0.17050549  1
  Ca2+  Ca31  1  0.82794714  0.41608337  0.50648405  1
  Ca2+  Ca32  1  0.84137032  0.42203114  0.83760126  1
  Ca2+  Ca33  1  0.83547187  0.92884317  0.17847227  1
  Ca2+  Ca34  1  0.83683223  0.92224945  0.49356534  1
  Ca2+  Ca35  1  0.83194251  0.92725419  0.84168761  1
  Ca2+  Ca36  1  0.42033705  0.17979843  0.16668013  1
  Ca2+  Ca37  1  0.42648215  0.17657695  0.49538174  1
  Ca2+  Ca38  1  0.41902788  0.18016717  0.82708920  1
  Ca2+  Ca39  1  0.42093941  0.66147945  0.16463616  1
  Ca2+  Ca40  1  0.42409735  0.66661238  0.48961729  1
  Ca2+  Ca41  1  0.41276536  0.66410090  0.83335052  1
  Ca2+  Ca42  1  0.92232321  0.16628553  0.16112719  1
  Ca2+  Ca43  1  0.91980217  0.17159093  0.49391829  1
  Ca2+  Ca44  1  0.91798994  0.17802501  0.83585269  1
  Ca2+  Ca45  1  0.91799149  0.66971845  0.16616340  1
  Ca2+  Ca46  1  0.92481671  0.66719500  0.49371042  1
  Ca2+  Ca47  1  0.92090318  0.65816566  0.82461863  1
  Al0+  Al48  1  -0.00199051  -0.00226222  -0.00143839  1
  Al0+  Al49  1  0.00029910  -0.00057964  0.33754210  1
  Al0+  Al50  1  -0.00233900  -0.00083156  0.67026710  1
  Al0+  Al51  1  0.00174716  0.50029130  0.00674299  1
  Al0+  Al52  1  0.00238306  0.50206964  0.33220827  1
  Al0+  Al53  1  0.00019776  0.49954395  0.66523682  1
  Al0+  Al54  1  0.49822493  -0.00380135  0.00098936  1
  Al0+  Al55  1  0.50053622  0.00175257  0.33358742  1
  Al0+  Al56  1  0.49883952  -0.00112093  0.66580521  1
  Al0+  Al57  1  0.50128392  0.50216654  -0.00576279  1
  Al0+  Al58  1  0.50084220  0.50260192  0.32883161  1
  Al0+  Al59  1  0.49839065  0.50120527  0.66236462  1
  Al0+  Al60  1  0.25244775  0.24611317  -0.00452721  1
  Al0+  Al61  1  0.24944977  0.25061437  0.33203357  1
  Al0+  Al62  1  0.24963893  0.24650261  0.66885265  1
  Al0+  Al63  1  0.25098168  0.75017675  0.00189552  1
  Al0+  Al64  1  0.25074450  0.74984468  0.33254566  1
  Al0+  Al65  1  0.24872855  0.74948446  0.66373755  1
  Al0+  Al66  1  0.75109691  0.24938755  0.00057842  1
  Al0+  Al67  1  0.75016198  0.25192551  0.33962134  1
  Al0+  Al68  1  0.75041628  0.24799028  0.66287515  1
  Al0+  Al69  1  0.75038173  0.74936370  0.00117916  1
  Al0+  Al70  1  0.75060090  0.75296627  0.32931754  1
  Al0+  Al71  1  0.74903765  0.75228233  0.67174445  1
  Al0+  Al72  1  0.67866920  0.43080690  0.34601282  1
  Al0+  Al73  1  0.82233146  0.07332636  0.35141252  1
  Al0+  Al74  1  0.57048384  0.17820696  0.65258563  1
  Al0+  Al75  1  0.93040394  0.82036504  0.31824397  1
  Al0+  Al76  1  0.42953330  0.32158868  0.31698480  1
  Al0+  Al77  1  0.57385390  0.17865026  0.31701219  1
  Al0+  Al78  1  0.07376329  0.67666803  0.31470257  1
  Al0+  Al79  1  0.32246675  0.57206694  0.01460680  1
  Al0+  Al80  1  0.06948044  0.67933174  0.65367662  1
  Al0+  Al81  1  0.57106610  0.68100206  0.31907789  1
  Al0+  Al82  1  0.81949092  0.07099297  0.01374298  1
  Al0+  Al83  1  0.07145194  0.17580184  0.98520771  1
  Al0+  Al84  1  0.92959031  0.32298848  0.98654785  1
  Al0+  Al85  1  0.17962250  0.92839076  0.34762934  1
  Al0+  Al86  1  0.18050473  0.42810153  0.67982796  1
  Al0+  Al87  1  0.81823186  0.56944725  0.67779891  1
  Al0+  Al88  1  0.67873340  0.92987339  0.34919879  1
  Al0+  Al89  1  0.17954027  0.42864613  0.34776025  1
  Al0+  Al90  1  0.82265692  0.57121771  0.01510613  1
  Al0+  Al91  1  0.06793507  0.18164173  0.32329497  1
  Al0+  Al92  1  0.18149598  0.42604020  0.01608921  1
  Al0+  Al93  1  0.43038678  0.32179283  0.98457853  1
  Al0+  Al94  1  0.42673005  0.32297510  0.64992186  1
  Al0+  Al95  1  0.93108216  0.32085467  0.65301138  1
  Si0+  Si96  1  0.57150702  0.17550186  0.98550932  1
  Si0+  Si97  1  0.57259839  0.68093470  0.65303200  1
  Si0+  Si98  1  0.32261385  0.06910326  0.01509755  1
  Si0+  Si99  1  0.67579876  0.42633967  0.68223075  1
  Si0+  Si100  1  0.42781250  0.82017470  0.98393098  1
  Si0+  Si101  1  0.57306388  0.68034286  0.98209902  1
  Si0+  Si102  1  0.32236200  0.57172125  0.34961047  1
  Si0+  Si103  1  0.17896148  0.92938644  0.01379143  1
  Si0+  Si104  1  0.07189637  0.68067975  0.98504165  1
  Si0+  Si105  1  0.32341908  0.57523876  0.68138921  1
  Si0+  Si106  1  0.42865397  0.82036095  0.65245656  1
  Si0+  Si107  1  0.42716199  0.82372602  0.31615555  1
  Si0+  Si108  1  0.67633078  0.92781886  0.01657644  1
  Si0+  Si109  1  0.82226454  0.07210920  0.68497200  1
  Si0+  Si110  1  0.67746716  0.93047934  0.68367861  1
  Si0+  Si111  1  0.92791104  0.81935789  0.98330172  1
  Si0+  Si112  1  0.17783302  0.92685722  0.68271478  1
  Si0+  Si113  1  0.67793781  0.42880022  0.01334156  1
  Si0+  Si114  1  0.92608750  0.82366277  0.65120050  1
  Si0+  Si115  1  0.07127894  0.17408362  0.65058141  1
  Si0+  Si116  1  0.82236490  0.57308430  0.34892355  1
  Si0+  Si117  1  0.32173556  0.07307862  0.35124929  1
  Si0+  Si118  1  0.32084458  0.06652398  0.68287770  1
  Si0+  Si119  1  0.92645177  0.32475712  0.31860639  1
  O2-  O120  1  0.24436856  0.00537141  0.05581899  1
  O2-  O121  1  0.25460281  0.00229003  0.39570411  1
  O2-  O122  1  0.24646495  -0.00106163  0.72657944  1
  O2-  O123  1  0.25633455  0.49603762  0.06530833  1
  O2-  O124  1  0.25329622  0.50470256  0.39476469  1
  O2-  O125  1  0.25898498  0.50173257  0.72357387  1
  O2-  O126  1  0.74132027  -0.00048756  0.05896375  1
  O2-  O127  1  0.74655084  0.00415352  0.40152938  1
  O2-  O128  1  0.74784906  0.00225934  0.72505503  1
  O2-  O129  1  0.75031848  0.49329271  0.05832101  1
  O2-  O130  1  0.75685317  0.50178413  0.39341342  1
  O2-  O131  1  0.74469808  0.49448913  0.72743692  1
  O2-  O132  1  -0.00641896  0.25469992  0.27505856  1
  O2-  O133  1  0.00588328  0.24570204  0.60763481  1
  O2-  O134  1  0.00414875  0.25274170  0.93595560  1
  O2-  O135  1  0.00060181  0.74807266  0.26564089  1
  O2-  O136  1  -0.00525040  0.75484563  0.60879868  1
  O2-  O137  1  -0.00356917  0.74645324  0.94048942  1
  O2-  O138  1  0.50458629  0.25259254  0.26675514  1
  O2-  O139  1  0.50559002  0.25666500  0.60297156  1
  O2-  O140  1  0.50580148  0.24609112  0.93982915  1
  O2-  O141  1  0.49788909  0.75749617  0.27178695  1
  O2-  O142  1  0.49599908  0.74618691  0.61149860  1
  O2-  O143  1  0.49926350  0.74982219  0.94097658  1
  O2-  O144  1  0.06842652  0.17205017  0.09838502  1
  O2-  O145  1  0.06787748  0.18268486  0.43669164  1
  O2-  O146  1  0.06830836  0.16894233  0.75586801  1
  O2-  O147  1  0.07346343  0.68547413  0.08927453  1
  O2-  O148  1  0.07168334  0.67732215  0.42867893  1
  O2-  O149  1  0.06936349  0.68153574  0.76754057  1
  O2-  O150  1  0.56849484  0.17339612  0.09027534  1
  O2-  O151  1  0.56873488  0.17931506  0.43053500  1
  O2-  O152  1  0.56632344  0.17613042  0.76689920  1
  O2-  O153  1  0.57521421  0.68243709  0.08659267  1
  O2-  O154  1  0.56920384  0.68183392  0.43293982  1
  O2-  O155  1  0.57427010  0.68460600  0.75832057  1
  O2-  O156  1  0.18088378  0.42621054  0.23516643  1
  O2-  O157  1  0.17975692  0.42950491  0.56697782  1
  O2-  O158  1  0.18012882  0.43026966  0.90197668  1
  O2-  O159  1  0.18163561  0.93077875  0.23406805  1
  O2-  O160  1  0.17934118  0.92604920  0.57824660  1
  O2-  O161  1  0.18253352  0.92731876  0.90801303  1
  O2-  O162  1  0.67806065  0.43448245  0.23272972  1
  O2-  O163  1  0.67622651  0.42997460  0.57693343  1
  O2-  O164  1  0.67646382  0.43297050  0.90748435  1
  O2-  O165  1  0.68174633  0.92934537  0.23550208  1
  O2-  O166  1  0.67534641  0.92708484  0.57953843  1
  O2-  O167  1  0.67603082  0.92690069  0.91016672  1
  O2-  O168  1  0.43103352  0.32109265  0.09703016  1
  O2-  O169  1  0.42861434  0.31919813  0.43037910  1
  O2-  O170  1  0.42688948  0.32001980  0.76394153  1
  O2-  O171  1  0.42602895  0.82266059  0.08802805  1
  O2-  O172  1  0.42574563  0.82045080  0.42233536  1
  O2-  O173  1  0.42958838  0.82207399  0.75797409  1
  O2-  O174  1  0.92806461  0.32200707  0.09969499  1
  O2-  O175  1  0.92889564  0.32543585  0.42455733  1
  O2-  O176  1  0.93156059  0.32119731  0.76601611  1
  O2-  O177  1  0.92865268  0.82075678  0.08760482  1
  O2-  O178  1  0.93162877  0.81791143  0.43233668  1
  O2-  O179  1  0.92786969  0.82512548  0.75739237  1
  O2-  O180  1  0.31994712  0.07157391  0.24526091  1
  O2-  O181  1  0.32261592  0.06210187  0.57841855  1
  O2-  O182  1  0.32684278  0.06342160  0.90975950  1
  O2-  O183  1  0.32191089  0.57153033  0.24414874  1
  O2-  O184  1  0.32333978  0.58353411  0.57671528  1
  O2-  O185  1  0.31777296  0.57534300  0.90066115  1
  O2-  O186  1  0.82395896  0.07013060  0.23769497  1
  O2-  O187  1  0.82765364  0.06940375  0.58086065  1
  O2-  O188  1  0.81780576  0.06808301  0.89991478  1
  O2-  O189  1  0.82029872  0.57211864  0.24307944  1
  O2-  O190  1  0.81506463  0.57232274  0.56532186  1
  O2-  O191  1  0.82043642  0.57456858  0.90155140  1
  O2-  O192  1  0.04075694  0.08342273  0.27184462  1
  O2-  O193  1  0.04210002  0.08081146  0.60457839  1
  O2-  O194  1  0.03909373  0.07802615  0.93041743  1
  O2-  O195  1  0.04539964  0.57897994  0.26126990  1
  O2-  O196  1  0.03725854  0.58483583  0.59886415  1
  O2-  O197  1  0.04691245  0.58708846  0.94096172  1
  O2-  O198  1  0.54509817  0.07968898  0.26523755  1
  O2-  O199  1  0.53544721  0.08118035  0.60020666  1
  O2-  O200  1  0.54356849  0.08122995  0.93978060  1
  O2-  O201  1  0.53878330  0.58741653  0.26138462  1
  O2-  O202  1  0.55090048  0.58787175  0.60619991  1
  O2-  O203  1  0.54811310  0.58976542  0.93147160  1
  O2-  O204  1  0.16476643  0.20907805  0.26853714  1
  O2-  O205  1  0.16725023  0.19321762  0.60848376  1
  O2-  O206  1  0.17293451  0.19373022  0.93406924  1
  O2-  O207  1  0.17182228  0.70800804  0.26366286  1
  O2-  O208  1  0.16551228  0.71096197  0.59934273  1
  O2-  O209  1  0.16178920  0.71468613  0.93668605  1
  O2-  O210  1  0.67470656  0.20434945  0.26937227  1
  O2-  O211  1  0.67199018  0.19449530  0.60331395  1
  O2-  O212  1  0.66616152  0.19778283  0.94042952  1
  O2-  O213  1  0.66637961  0.71173205  0.26321060  1
  O2-  O214  1  0.66167472  0.71592221  0.60556780  1
  O2-  O215  1  0.66317319  0.71296308  0.93274703  1
  O2-  O216  1  0.08467234  0.45658304  0.06966777  1
  O2-  O217  1  0.08251361  0.46041614  0.40127178  1
  O2-  O218  1  0.08552161  0.46443059  0.73381001  1
  O2-  O219  1  0.08494043  0.95019118  0.05822764  1
  O2-  O220  1  0.08540171  0.95929976  0.40472915  1
  O2-  O221  1  0.08521164  0.95243264  0.73057015  1
  O2-  O222  1  0.58654401  0.46104150  0.05942559  1
  O2-  O223  1  0.58348511  0.46734728  0.39988375  1
  O2-  O224  1  0.58132321  0.45330985  0.72683510  1
  O2-  O225  1  0.58057324  0.94588654  0.06094857  1
  O2-  O226  1  0.57750342  0.95196952  0.40068186  1
  O2-  O227  1  0.58506749  0.95701383  0.73226307  1
  O2-  O228  1  0.20820772  0.32481575  0.06369579  1
  O2-  O229  1  0.21132190  0.33245456  0.40232201  1
  O2-  O230  1  0.20645214  0.32955775  0.73341334  1
  O2-  O231  1  0.21322634  0.84072425  0.06205795  1
  O2-  O232  1  0.21251482  0.83221304  0.40211359  1
  O2-  O233  1  0.20855400  0.83603955  0.73140027  1
  O2-  O234  1  0.69660861  0.33338073  0.05717066  1
  O2-  O235  1  0.70446908  0.33506256  0.40318814  1
  O2-  O236  1  0.69959954  0.33147226  0.72614438  1
  O2-  O237  1  0.70531347  0.83505669  0.06117572  1
  O2-  O238  1  0.70949467  0.83126500  0.40174084  1
  O2-  O239  1  0.70611693  0.84021036  0.73492537  1
  O2-  O240  1  0.45628839  0.42041136  0.26497052  1
  O2-  O241  1  0.44571820  0.42456891  0.59966366  1
  O2-  O242  1  0.46023822  0.41846108  0.92924623  1
  O2-  O243  1  0.44832146  0.91858442  0.27195374  1
  O2-  O244  1  0.45954940  0.90977811  0.60376553  1
  O2-  O245  1  0.45668879  0.91104098  0.93318117  1
  O2-  O246  1  0.95221448  0.41800368  0.27305335  1
  O2-  O247  1  0.96127236  0.41614497  0.59749476  1
  O2-  O248  1  0.95806133  0.42315293  0.93480478  1
  O2-  O249  1  0.96302949  0.91785472  0.26660479  1
  O2-  O250  1  0.95255411  0.91694965  0.60594389  1
  O2-  O251  1  0.95819698  0.90927073  0.93321961  1
  O2-  O252  1  0.33307491  0.28713637  0.26426925  1
  O2-  O253  1  0.33021749  0.28503123  0.59952716  1
  O2-  O254  1  0.33575902  0.28724712  0.92909456  1
  O2-  O255  1  0.33519313  0.79640187  0.26835932  1
  O2-  O256  1  0.33579369  0.79745871  0.60529938  1
  O2-  O257  1  0.33673896  0.79218827  0.93364310  1
  O2-  O258  1  0.83161693  0.30304422  0.27515222  1
  O2-  O259  1  0.83381666  0.29170755  0.60007970  1
  O2-  O260  1  0.83077135  0.29359174  0.93248951  1
  O2-  O261  1  0.83246592  0.79542934  0.26350697  1
  O2-  O262  1  0.83135789  0.79935721  0.60829034  1
  O2-  O263  1  0.83473061  0.79465049  0.93621543  1
  O2-  O264  1  0.41035956  0.03263570  0.06497258  1
  O2-  O265  1  0.41508807  0.04752454  0.39723821  1
  O2-  O266  1  0.41004244  0.03261990  0.73277674  1
  O2-  O267  1  0.42544379  0.55235189  0.06078699  1
  O2-  O268  1  0.41654805  0.54760234  0.39476313  1
  O2-  O269  1  0.41942495  0.55550013  0.72642499  1
  O2-  O270  1  0.91490838  0.03405295  0.06581825  1
  O2-  O271  1  0.91767941  0.03784084  0.40672417  1
  O2-  O272  1  0.91177252  0.03975219  0.73558232  1
  O2-  O273  1  0.91909317  0.54626149  0.07037620  1
  O2-  O274  1  0.91743889  0.55137307  0.39280310  1
  O2-  O275  1  0.91482955  0.53870953  0.73170451  1
  O2-  O276  1  0.30321657  0.16281339  0.06001508  1
  O2-  O277  1  0.29248659  0.16448156  0.39817285  1
  O2-  O278  1  0.29559723  0.15833691  0.73120309  1
  O2-  O279  1  0.29343929  0.67041217  0.06779314  1
  O2-  O280  1  0.30034383  0.66675674  0.39466900  1
  O2-  O281  1  0.29458103  0.66789322  0.73008032  1
  O2-  O282  1  0.79424698  0.16850031  0.06761696  1
  O2-  O283  1  0.79903868  0.17240097  0.40451560  1
  O2-  O284  1  0.79552548  0.16429099  0.73200960  1
  O2-  O285  1  0.78750218  0.66698767  0.06800467  1
  O2-  O286  1  0.79293063  0.66576998  0.39336501  1
  O2-  O287  1  0.78762648  0.66637382  0.73432681  1
