# generated using pymatgen
data_Ca2Al2SiO7
_symmetry_space_group_name_H-M   'P 1'
_cell_length_a   15.45924527
_cell_length_b   15.46147308
_cell_length_c   15.28538078
_cell_angle_alpha   89.97653795
_cell_angle_beta   89.99631321
_cell_angle_gamma   90.00985079
_symmetry_Int_Tables_number   1
_chemical_formula_structural   Ca2Al2SiO7
_chemical_formula_sum   'Ca48 Al48 Si24 O168'
_cell_volume   3653.55268483
_cell_formula_units_Z   24
loop_
 _symmetry_equiv_pos_site_id
 _symmetry_equiv_pos_as_xyz
  1  'x, y, z'
loop_
 _atom_type_symbol
 _atom_type_oxidation_number
  Ca2+  2.0
  Al0+  0.0
  Si0+  0.0
  O2-  -2.0
loop_
 _atom_site_type_symbol
 _atom_site_label
 _atom_site_symmetry_multiplicity
 _atom_site_fract_x
 _atom_site_fract_y
 _atom_site_fract_z
 _atom_site_occupancy
  Ca2+  Ca0  1  0.16533499  0.08356637  0.16504820  1
  Ca2+  Ca1  1  0.16834646  0.09007981  0.50567255  1
  Ca2+  Ca2  1  0.17381506  0.08736289  0.84089259  1
  Ca2+  Ca3  1  0.18201345  0.58275155  0.17031630  1
  Ca2+  Ca4  1  0.17269500  0.58418681  0.50591714  1
  Ca2+  Ca5  1  0.16990304  0.58153680  0.84069051  1
  Ca2+  Ca6  1  0.67401388  0.08708634  0.16756050  1
  Ca2+  Ca7  1  0.67970839  0.08836456  0.50565010  1
  Ca2+  Ca8  1  0.67623338  0.08405302  0.84435376  1
  Ca2+  Ca9  1  0.66355997  0.58146267  0.17727692  1
  Ca2+  Ca10  1  0.67263984  0.57540837  0.50146787  1
  Ca2+  Ca11  1  0.66546089  0.57746615  0.83387028  1
  Ca2+  Ca12  1  0.07975710  0.32080511  0.16261322  1
  Ca2+  Ca13  1  0.07513527  0.32268540  0.49880628  1
  Ca2+  Ca14  1  0.07651260  0.32183135  0.82501720  1
  Ca2+  Ca15  1  0.08357491  0.83573716  0.16052280  1
  Ca2+  Ca16  1  0.08223047  0.82676029  0.50021028  1
  Ca2+  Ca17  1  0.08846827  0.82918226  0.83118886  1
  Ca2+  Ca18  1  0.58115201  0.33331639  0.16547675  1
  Ca2+  Ca19  1  0.57635890  0.34541887  0.49833253  1
  Ca2+  Ca20  1  0.57843661  0.32881875  0.82951694  1
  Ca2+  Ca21  1  0.58190336  0.82192940  0.15394104  1
  Ca2+  Ca22  1  0.58338717  0.82629865  0.49327396  1
  Ca2+  Ca23  1  0.58330049  0.83424859  0.83646163  1
  Ca2+  Ca24  1  0.34126332  0.42623548  0.17217846  1
  Ca2+  Ca25  1  0.33870940  0.41705961  0.50164645  1
  Ca2+  Ca26  1  0.33583191  0.42032915  0.83612674  1
  Ca2+  Ca27  1  0.33434200  0.91864905  0.16096172  1
  Ca2+  Ca28  1  0.33108587  0.92666230  0.50751541  1
  Ca2+  Ca29  1  0.32824012  0.92632060  0.84386350  1
  Ca2+  Ca30  1  0.82288847  0.42433360  0.17734960  1
  Ca2+  Ca31  1  0.82277712  0.41920299  0.51022945  1
  Ca2+  Ca32  1  0.83409898  0.41604994  0.83070119  1
  Ca2+  Ca33  1  0.82721959  0.92614115  0.16570675  1
  Ca2+  Ca34  1  0.83338676  0.92642117  0.50258187  1
  Ca2+  Ca35  1  0.82992151  0.92852943  0.84004243  1
  Ca2+  Ca36  1  0.42135713  0.17294509  0.15740662  1
  Ca2+  Ca37  1  0.41339448  0.17976902  0.49680873  1
  Ca2+  Ca38  1  0.41910329  0.16322735  0.82711670  1
  Ca2+  Ca39  1  0.42503403  0.66546844  0.15827300  1
  Ca2+  Ca40  1  0.42446855  0.66475858  0.49009003  1
  Ca2+  Ca41  1  0.41670533  0.67198607  0.83718984  1
  Ca2+  Ca42  1  0.92274183  0.15664484  0.16158827  1
  Ca2+  Ca43  1  0.92207838  0.16156564  0.49614028  1
  Ca2+  Ca44  1  0.92418886  0.16288381  0.82579395  1
  Ca2+  Ca45  1  0.91247133  0.66887944  0.16212221  1
  Ca2+  Ca46  1  0.91702205  0.65810836  0.49804238  1
  Ca2+  Ca47  1  0.92216669  0.66811357  0.82196247  1
  Al0+  Al48  1  0.00095825  -0.00067442  0.00133967  1
  Al0+  Al49  1  0.00059527  -0.00280067  0.33374659  1
  Al0+  Al50  1  0.00038449  -0.00479122  0.66595864  1
  Al0+  Al51  1  -0.00014176  0.49908552  0.00205198  1
  Al0+  Al52  1  0.00300551  0.49815962  0.33268633  1
  Al0+  Al53  1  0.00168728  0.49898469  0.66157998  1
  Al0+  Al54  1  0.49975576  -0.00084679  -0.00004800  1
  Al0+  Al55  1  0.49837302  0.00082674  0.33448379  1
  Al0+  Al56  1  0.49898535  -0.00058326  0.66730323  1
  Al0+  Al57  1  0.50112056  0.50064002  -0.00158060  1
  Al0+  Al58  1  0.49945264  0.50194475  0.33310611  1
  Al0+  Al59  1  0.50102154  0.50073869  0.66821784  1
  Al0+  Al60  1  0.24726447  0.25146029  -0.00001089  1
  Al0+  Al61  1  0.24950951  0.25088009  0.32312598  1
  Al0+  Al62  1  0.25103622  0.25171139  0.66343510  1
  Al0+  Al63  1  0.25149411  0.74930453  0.00475696  1
  Al0+  Al64  1  0.24934696  0.75134424  0.33808110  1
  Al0+  Al65  1  0.25106631  0.75094222  0.66134998  1
  Al0+  Al66  1  0.74920420  0.25366812  0.00138968  1
  Al0+  Al67  1  0.74938520  0.25050453  0.34227234  1
  Al0+  Al68  1  0.74905445  0.25008753  0.67357816  1
  Al0+  Al69  1  0.75119132  0.75021304  -0.00409663  1
  Al0+  Al70  1  0.75078324  0.75069495  0.33256782  1
  Al0+  Al71  1  0.74999439  0.74912376  0.66838233  1
  Al0+  Al72  1  0.07020936  0.17637309  0.65205586  1
  Al0+  Al73  1  0.56978504  0.68279892  0.32079777  1
  Al0+  Al74  1  0.31930816  0.57053637  0.34836916  1
  Al0+  Al75  1  0.42783382  0.82074272  0.98454470  1
  Al0+  Al76  1  0.67701008  0.42921833  0.68599775  1
  Al0+  Al77  1  0.82372708  0.57317152  0.34692478  1
  Al0+  Al78  1  0.67814048  0.92720731  0.01435949  1
  Al0+  Al79  1  0.06905673  0.17854278  0.98502784  1
  Al0+  Al80  1  0.92647230  0.31983469  0.65135724  1
  Al0+  Al81  1  0.17973490  0.92913052  0.01492453  1
  Al0+  Al82  1  0.82110778  0.06915222  0.34777906  1
  Al0+  Al83  1  0.43063851  0.32118908  0.65379634  1
  Al0+  Al84  1  0.82167222  0.06947280  0.68096288  1
  Al0+  Al85  1  0.06838850  0.17787490  0.31723227  1
  Al0+  Al86  1  0.07204217  0.67859867  0.65330874  1
  Al0+  Al87  1  0.31887781  0.07303463  0.67837181  1
  Al0+  Al88  1  0.57342627  0.67737042  0.98162913  1
  Al0+  Al89  1  0.82018333  0.07320927  0.01480997  1
  Al0+  Al90  1  0.32234720  0.07453854  0.01589133  1
  Al0+  Al91  1  0.43086794  0.32081725  0.31844344  1
  Al0+  Al92  1  0.32064596  0.56826490  0.01251825  1
  Al0+  Al93  1  0.82291559  0.57024964  0.68288352  1
  Al0+  Al94  1  0.67831132  0.42957885  0.34900100  1
  Al0+  Al95  1  0.57113885  0.17939461  0.98811214  1
  Si0+  Si96  1  0.92619062  0.81975066  0.64863421  1
  Si0+  Si97  1  0.07384291  0.67730157  0.31708215  1
  Si0+  Si98  1  0.17491777  0.42820455  0.01784053  1
  Si0+  Si99  1  0.67899155  0.43135288  0.01602021  1
  Si0+  Si100  1  0.07056344  0.67822581  0.98798384  1
  Si0+  Si101  1  0.42925403  0.82179631  0.64986202  1
  Si0+  Si102  1  0.18004752  0.42977270  0.68034150  1
  Si0+  Si103  1  0.57364170  0.17601780  0.31868971  1
  Si0+  Si104  1  0.92976677  0.82058650  0.98420381  1
  Si0+  Si105  1  0.92574700  0.32201948  0.31686842  1
  Si0+  Si106  1  0.57083813  0.67973995  0.65046176  1
  Si0+  Si107  1  0.32049855  0.07315132  0.34755799  1
  Si0+  Si108  1  0.42543999  0.82511939  0.31684943  1
  Si0+  Si109  1  0.42782184  0.32221169  0.98383126  1
  Si0+  Si110  1  0.92759638  0.32460180  0.98414662  1
  Si0+  Si111  1  0.32129352  0.57299314  0.68163412  1
  Si0+  Si112  1  0.67650349  0.92677858  0.68261446  1
  Si0+  Si113  1  0.93106551  0.81894279  0.31735486  1
  Si0+  Si114  1  0.17872614  0.92963110  0.35094659  1
  Si0+  Si115  1  0.67649841  0.92815601  0.34914198  1
  Si0+  Si116  1  0.82323965  0.57123086  0.01325937  1
  Si0+  Si117  1  0.17982407  0.92598983  0.68195281  1
  Si0+  Si118  1  0.17937927  0.42544108  0.35077839  1
  Si0+  Si119  1  0.57171767  0.17572969  0.65077326  1
  O2-  O120  1  0.24997829  0.00231568  0.06618909  1
  O2-  O121  1  0.25045021  0.00107993  0.39066089  1
  O2-  O122  1  0.24220078  0.00027490  0.72462495  1
  O2-  O123  1  0.24813919  0.49236800  0.06105298  1
  O2-  O124  1  0.24460608  0.49681416  0.39686976  1
  O2-  O125  1  0.24949032  0.50272679  0.72315477  1
  O2-  O126  1  0.74490016  0.00397024  0.06478760  1
  O2-  O127  1  0.74131211  -0.00045416  0.39464628  1
  O2-  O128  1  0.74366745  -0.00285681  0.72560141  1
  O2-  O129  1  0.74957409  0.50402203  0.05604512  1
  O2-  O130  1  0.75544931  0.49799143  0.39653427  1
  O2-  O131  1  0.75250838  0.49858488  0.73552751  1
  O2-  O132  1  -0.00931448  0.25045818  0.27118732  1
  O2-  O133  1  -0.00669164  0.24272764  0.60100748  1
  O2-  O134  1  -0.00748403  0.25218220  0.94068828  1
  O2-  O135  1  -0.00218243  0.74303280  0.27518562  1
  O2-  O136  1  -0.00682065  0.74843692  0.60517419  1
  O2-  O137  1  0.00045672  0.74828456  0.94338307  1
  O2-  O138  1  0.50554797  0.24511488  0.27433625  1
  O2-  O139  1  0.50474261  0.24600422  0.60624057  1
  O2-  O140  1  0.49030009  0.24771560  0.94041041  1
  O2-  O141  1  0.49593204  0.75828599  0.27420676  1
  O2-  O142  1  0.50112069  0.75208178  0.60781257  1
  O2-  O143  1  0.50252382  0.75174417  0.93310321  1
  O2-  O144  1  0.06695938  0.17952396  0.09842492  1
  O2-  O145  1  0.06930504  0.17797927  0.43013941  1
  O2-  O146  1  0.07180848  0.17912599  0.76540221  1
  O2-  O147  1  0.06713800  0.67783801  0.09324714  1
  O2-  O148  1  0.07652551  0.68101670  0.42211116  1
  O2-  O149  1  0.07542066  0.68208751  0.76681855  1
  O2-  O150  1  0.57359642  0.18610163  0.10142409  1
  O2-  O151  1  0.57092652  0.17171150  0.42408660  1
  O2-  O152  1  0.56818548  0.17374305  0.75633615  1
  O2-  O153  1  0.57267716  0.67555984  0.09535363  1
  O2-  O154  1  0.56804051  0.68483541  0.43448479  1
  O2-  O155  1  0.56937709  0.68000598  0.75520317  1
  O2-  O156  1  0.18007519  0.42797878  0.24508405  1
  O2-  O157  1  0.18212660  0.43045902  0.57527440  1
  O2-  O158  1  0.17100616  0.43204270  0.91215451  1
  O2-  O159  1  0.17708323  0.92724692  0.24635747  1
  O2-  O160  1  0.18352837  0.92211286  0.57607352  1
  O2-  O161  1  0.18005321  0.92673978  0.90139917  1
  O2-  O162  1  0.67875762  0.43125186  0.23468150  1
  O2-  O163  1  0.67308051  0.43543188  0.57288273  1
  O2-  O164  1  0.67820281  0.43089294  0.91134777  1
  O2-  O165  1  0.67825185  0.92696388  0.24414426  1
  O2-  O166  1  0.67668373  0.92590278  0.57658233  1
  O2-  O167  1  0.68469841  0.92666764  0.90062833  1
  O2-  O168  1  0.43215083  0.32514644  0.08944148  1
  O2-  O169  1  0.42962872  0.31917847  0.43169906  1
  O2-  O170  1  0.43019773  0.32189690  0.76679723  1
  O2-  O171  1  0.42625383  0.81491198  0.09827865  1
  O2-  O172  1  0.42595466  0.82577330  0.42312139  1
  O2-  O173  1  0.42637854  0.82104772  0.75428122  1
  O2-  O174  1  0.93037245  0.33000781  0.08959894  1
  O2-  O175  1  0.92860556  0.32220342  0.42198116  1
  O2-  O176  1  0.93235913  0.32074303  0.76519541  1
  O2-  O177  1  0.92931589  0.81851444  0.08976065  1
  O2-  O178  1  0.93373278  0.82107233  0.42234193  1
  O2-  O179  1  0.92743319  0.82019607  0.75415442  1
  O2-  O180  1  0.32149981  0.07176353  0.24305117  1
  O2-  O181  1  0.31882530  0.07059638  0.56448762  1
  O2-  O182  1  0.31896671  0.07467955  0.90208879  1
  O2-  O183  1  0.31860864  0.57079253  0.23539091  1
  O2-  O184  1  0.32095457  0.57364079  0.57643291  1
  O2-  O185  1  0.31695729  0.56759301  0.89881743  1
  O2-  O186  1  0.82201082  0.06620607  0.23509755  1
  O2-  O187  1  0.82172333  0.06564641  0.56741238  1
  O2-  O188  1  0.82149123  0.07041365  0.90135417  1
  O2-  O189  1  0.82146211  0.57343829  0.23259572  1
  O2-  O190  1  0.81975533  0.57102219  0.56960036  1
  O2-  O191  1  0.82872565  0.56841255  0.90879822  1
  O2-  O192  1  0.03898603  0.07940218  0.26580307  1
  O2-  O193  1  0.04865508  0.07472781  0.60154785  1
  O2-  O194  1  0.04136224  0.08060939  0.93266056  1
  O2-  O195  1  0.05480732  0.58290366  0.27103451  1
  O2-  O196  1  0.04784022  0.58193753  0.59717444  1
  O2-  O197  1  0.04310576  0.58618373  0.94030401  1
  O2-  O198  1  0.54767866  0.08243253  0.27180629  1
  O2-  O199  1  0.54644524  0.08221836  0.60326634  1
  O2-  O200  1  0.54858671  0.08073568  0.93530178  1
  O2-  O201  1  0.53693166  0.58732479  0.26700092  1
  O2-  O202  1  0.53905035  0.58949108  0.60340811  1
  O2-  O203  1  0.54012579  0.58050395  0.92828633  1
  O2-  O204  1  0.16328630  0.21067529  0.26131104  1
  O2-  O205  1  0.16653062  0.21176145  0.59852130  1
  O2-  O206  1  0.16567909  0.21152660  0.93178818  1
  O2-  O207  1  0.16369253  0.71247896  0.26977873  1
  O2-  O208  1  0.16649947  0.71407113  0.59556743  1
  O2-  O209  1  0.16243462  0.70540878  0.94160224  1
  O2-  O210  1  0.66837904  0.20165886  0.27512660  1
  O2-  O211  1  0.66659554  0.20013281  0.60817289  1
  O2-  O212  1  0.66612380  0.21570071  0.93328858  1
  O2-  O213  1  0.66739215  0.71090616  0.26683628  1
  O2-  O214  1  0.66334855  0.70679870  0.60382971  1
  O2-  O215  1  0.67260800  0.70387216  0.92878380  1
  O2-  O216  1  0.08420493  0.45893101  0.06786076  1
  O2-  O217  1  0.08454383  0.44757908  0.39561140  1
  O2-  O218  1  0.08864025  0.45665840  0.72817260  1
  O2-  O219  1  0.08134574  0.95573247  0.06919837  1
  O2-  O220  1  0.08779354  0.95701125  0.39981648  1
  O2-  O221  1  0.08337315  0.94132208  0.72480184  1
  O2-  O222  1  0.58734724  0.45888320  0.06337265  1
  O2-  O223  1  0.58212108  0.46453942  0.40159445  1
  O2-  O224  1  0.58022911  0.46385927  0.74007722  1
  O2-  O225  1  0.57730311  0.94557790  0.06451284  1
  O2-  O226  1  0.58089774  0.94850781  0.39490975  1
  O2-  O227  1  0.58199134  0.94949292  0.72771531  1
  O2-  O228  1  0.19607907  0.33372666  0.06266165  1
  O2-  O229  1  0.20890982  0.33242810  0.39513040  1
  O2-  O230  1  0.21081656  0.33982197  0.72917704  1
  O2-  O231  1  0.20746447  0.83113731  0.07038953  1
  O2-  O232  1  0.20646057  0.83861141  0.40074977  1
  O2-  O233  1  0.21222191  0.83457257  0.72919140  1
  O2-  O234  1  0.70773423  0.34134141  0.06591244  1
  O2-  O235  1  0.69923007  0.33043902  0.40378940  1
  O2-  O236  1  0.69974369  0.32952555  0.73840326  1
  O2-  O237  1  0.71326105  0.82978061  0.06702759  1
  O2-  O238  1  0.70745501  0.83677265  0.39708727  1
  O2-  O239  1  0.70258585  0.83370277  0.72888329  1
  O2-  O240  1  0.46261043  0.41719077  0.26495398  1
  O2-  O241  1  0.46104733  0.41891437  0.60014464  1
  O2-  O242  1  0.45966193  0.41298015  0.93576394  1
  O2-  O243  1  0.44757026  0.91999342  0.27187001  1
  O2-  O244  1  0.45654003  0.91355566  0.60090012  1
  O2-  O245  1  0.45081061  0.92048374  0.93219734  1
  O2-  O246  1  0.95473590  0.41481115  0.26899754  1
  O2-  O247  1  0.95984363  0.41604643  0.59677645  1
  O2-  O248  1  0.95848708  0.41644336  0.93567188  1
  O2-  O249  1  0.96508765  0.90762827  0.26816910  1
  O2-  O250  1  0.95646233  0.91065741  0.59930110  1
  O2-  O251  1  0.95974621  0.91099144  0.93641619  1
  O2-  O252  1  0.33535011  0.29210481  0.26157901  1
  O2-  O253  1  0.33500251  0.29176916  0.59703361  1
  O2-  O254  1  0.33066136  0.30612049  0.94185023  1
  O2-  O255  1  0.33124021  0.79808221  0.27359813  1
  O2-  O256  1  0.33889326  0.79323031  0.59948375  1
  O2-  O257  1  0.33036591  0.78624111  0.93121006  1
  O2-  O258  1  0.82961667  0.30031535  0.27442917  1
  O2-  O259  1  0.82439890  0.29839774  0.60368585  1
  O2-  O260  1  0.83243751  0.30461776  0.94030287  1
  O2-  O261  1  0.83843389  0.79542135  0.26945942  1
  O2-  O262  1  0.83164155  0.79757258  0.60237628  1
  O2-  O263  1  0.83975582  0.79321319  0.93409217  1
  O2-  O264  1  0.42087952  0.04709127  0.06843504  1
  O2-  O265  1  0.41248401  0.04710255  0.39675119  1
  O2-  O266  1  0.41527478  0.03957407  0.73103746  1
  O2-  O267  1  0.41769855  0.53785910  0.06594175  1
  O2-  O268  1  0.41511149  0.53944871  0.40232325  1
  O2-  O269  1  0.41196795  0.54448944  0.72922536  1
  O2-  O270  1  0.91642978  0.03747677  0.06711842  1
  O2-  O271  1  0.91570960  0.03066940  0.40126393  1
  O2-  O272  1  0.91789392  0.03400469  0.73343812  1
  O2-  O273  1  0.91365478  0.54249112  0.06419679  1
  O2-  O274  1  0.92593178  0.55057521  0.39478945  1
  O2-  O275  1  0.92425351  0.54479019  0.73199829  1
  O2-  O276  1  0.29364231  0.17377349  0.06784621  1
  O2-  O277  1  0.28971543  0.16522152  0.39216550  1
  O2-  O278  1  0.29189315  0.17035335  0.73189290  1
  O2-  O279  1  0.28784542  0.66233534  0.06897737  1
  O2-  O280  1  0.28893584  0.66760455  0.40313708  1
  O2-  O281  1  0.29248885  0.66549447  0.72689137  1
  O2-  O282  1  0.79532229  0.17319576  0.06690372  1
  O2-  O283  1  0.79581153  0.16631125  0.40276968  1
  O2-  O284  1  0.79543292  0.16623235  0.73525752  1
  O2-  O285  1  0.79962284  0.66489549  0.05781585  1
  O2-  O286  1  0.79510527  0.67159234  0.39987112  1
  O2-  O287  1  0.79510206  0.66988733  0.73446910  1
