# generated using pymatgen
data_Ca2Al2SiO7
_symmetry_space_group_name_H-M   'P 1'
_cell_length_a   15.45372371
_cell_length_b   15.45346026
_cell_length_c   15.28098686
_cell_angle_alpha   89.99852100
_cell_angle_beta   89.99290655
_cell_angle_gamma   89.98969683
_symmetry_Int_Tables_number   1
_chemical_formula_structural   Ca2Al2SiO7
_chemical_formula_sum   'Ca48 Al48 Si24 O168'
_cell_volume   3649.30594804
_cell_formula_units_Z   24
loop_
 _symmetry_equiv_pos_site_id
 _symmetry_equiv_pos_as_xyz
  1  'x, y, z'
loop_
 _atom_type_symbol
 _atom_type_oxidation_number
  Ca2+  2.0
  Al0+  0.0
  Si0+  0.0
  O2-  -2.0
loop_
 _atom_site_type_symbol
 _atom_site_label
 _atom_site_symmetry_multiplicity
 _atom_site_fract_x
 _atom_site_fract_y
 _atom_site_fract_z
 _atom_site_occupancy
  Ca2+  Ca0  1  0.16028637  0.07170035  0.17080298  1
  Ca2+  Ca1  1  0.15802307  0.08288417  0.50171974  1
  Ca2+  Ca2  1  0.17230912  0.07887459  0.84041257  1
  Ca2+  Ca3  1  0.17883237  0.59152794  0.16880714  1
  Ca2+  Ca4  1  0.17448557  0.58200691  0.50095674  1
  Ca2+  Ca5  1  0.16930335  0.58671255  0.84430020  1
  Ca2+  Ca6  1  0.66756013  0.07793169  0.16618765  1
  Ca2+  Ca7  1  0.68257121  0.08821529  0.50573799  1
  Ca2+  Ca8  1  0.67291532  0.07905917  0.84219254  1
  Ca2+  Ca9  1  0.67492581  0.58855379  0.16998570  1
  Ca2+  Ca10  1  0.66079653  0.57915985  0.50681362  1
  Ca2+  Ca11  1  0.66972398  0.58076463  0.83615806  1
  Ca2+  Ca12  1  0.07430595  0.32882413  0.16202055  1
  Ca2+  Ca13  1  0.07228064  0.32060318  0.49207148  1
  Ca2+  Ca14  1  0.07152131  0.32913203  0.82657540  1
  Ca2+  Ca15  1  0.08264518  0.83296095  0.15810016  1
  Ca2+  Ca16  1  0.07884259  0.83909605  0.49910964  1
  Ca2+  Ca17  1  0.07735452  0.83309212  0.83536973  1
  Ca2+  Ca18  1  0.57811591  0.32496029  0.16416251  1
  Ca2+  Ca19  1  0.58114773  0.33698563  0.49510920  1
  Ca2+  Ca20  1  0.58688415  0.32940140  0.83298374  1
  Ca2+  Ca21  1  0.57981554  0.83074193  0.15730236  1
  Ca2+  Ca22  1  0.58030839  0.82154809  0.49801096  1
  Ca2+  Ca23  1  0.57261489  0.83470976  0.82878999  1
  Ca2+  Ca24  1  0.33816735  0.42704207  0.17288385  1
  Ca2+  Ca25  1  0.33961709  0.42090368  0.50089351  1
  Ca2+  Ca26  1  0.32872147  0.42711769  0.84168247  1
  Ca2+  Ca27  1  0.32361092  0.91631929  0.16530384  1
  Ca2+  Ca28  1  0.32647916  0.91333815  0.50229212  1
  Ca2+  Ca29  1  0.33014849  0.91566964  0.84687226  1
  Ca2+  Ca30  1  0.83970363  0.41819713  0.16655254  1
  Ca2+  Ca31  1  0.82900451  0.41191820  0.50835396  1
  Ca2+  Ca32  1  0.83255421  0.41670706  0.83869388  1
  Ca2+  Ca33  1  0.82912672  0.91769083  0.17087705  1
  Ca2+  Ca34  1  0.83944501  0.92939119  0.50643684  1
  Ca2+  Ca35  1  0.83255772  0.91665216  0.83895870  1
  Ca2+  Ca36  1  0.41762762  0.16754975  0.15853859  1
  Ca2+  Ca37  1  0.41941246  0.17635927  0.49242278  1
  Ca2+  Ca38  1  0.42525689  0.15504956  0.83497387  1
  Ca2+  Ca39  1  0.41898236  0.66752541  0.16154818  1
  Ca2+  Ca40  1  0.42646353  0.66554052  0.49625848  1
  Ca2+  Ca41  1  0.41556681  0.67965243  0.82951596  1
  Ca2+  Ca42  1  0.91395105  0.17374342  0.16675947  1
  Ca2+  Ca43  1  0.91877046  0.16944895  0.49459227  1
  Ca2+  Ca44  1  0.91878958  0.17420422  0.82410999  1
  Ca2+  Ca45  1  0.92499424  0.67133972  0.15110295  1
  Ca2+  Ca46  1  0.91298362  0.67665237  0.49835689  1
  Ca2+  Ca47  1  0.91403698  0.67607179  0.83621222  1
  Al0+  Al48  1  -0.00047735  0.00187158  0.00036960  1
  Al0+  Al49  1  -0.00117126  0.00002674  0.33762967  1
  Al0+  Al50  1  0.00162119  -0.00076812  0.66730045  1
  Al0+  Al51  1  -0.00055761  0.49933857  -0.00456801  1
  Al0+  Al52  1  0.00119387  0.50126026  0.33305028  1
  Al0+  Al53  1  0.00010094  0.50027127  0.66277942  1
  Al0+  Al54  1  0.50165194  -0.00028088  0.00110854  1
  Al0+  Al55  1  0.49816682  -0.00243102  0.33669448  1
  Al0+  Al56  1  0.49972943  0.00025383  0.65750958  1
  Al0+  Al57  1  0.50074470  0.49724902  0.00406330  1
  Al0+  Al58  1  0.50184132  0.50102883  0.32797301  1
  Al0+  Al59  1  0.50056423  0.50009804  0.67212451  1
  Al0+  Al60  1  0.25035835  0.25220822  0.00240961  1
  Al0+  Al61  1  0.24898328  0.25000523  0.32389546  1
  Al0+  Al62  1  0.25015494  0.24986263  0.66530339  1
  Al0+  Al63  1  0.25074165  0.74955646  0.00075648  1
  Al0+  Al64  1  0.25073691  0.75043277  0.34566404  1
  Al0+  Al65  1  0.25009316  0.75115729  0.66309821  1
  Al0+  Al66  1  0.74817031  0.25002975  -0.00659636  1
  Al0+  Al67  1  0.74938101  0.25028922  0.33300177  1
  Al0+  Al68  1  0.74956605  0.25075844  0.67356173  1
  Al0+  Al69  1  0.75031563  0.74864806  0.00494425  1
  Al0+  Al70  1  0.74861709  0.74924481  0.33165878  1
  Al0+  Al71  1  0.74986830  0.74988866  0.65809349  1
  Al0+  Al72  1  0.67863602  0.43013057  0.68168156  1
  Al0+  Al73  1  0.17969739  0.93087101  0.34983731  1
  Al0+  Al74  1  0.43103718  0.81878144  0.98971140  1
  Al0+  Al75  1  0.82196581  0.06943445  0.68267046  1
  Al0+  Al76  1  0.42957647  0.32069530  0.31976064  1
  Al0+  Al77  1  0.92956570  0.31991984  0.98427195  1
  Al0+  Al78  1  0.92665810  0.32263531  0.31711946  1
  Al0+  Al79  1  0.06946004  0.17640472  0.31528918  1
  Al0+  Al80  1  0.56937758  0.67793125  0.65373220  1
  Al0+  Al81  1  0.68007174  0.92836876  0.01163653  1
  Al0+  Al82  1  0.81697253  0.06959371  0.34616507  1
  Al0+  Al83  1  0.92991254  0.81994648  0.65266644  1
  Al0+  Al84  1  0.42683814  0.82370147  0.64897647  1
  Al0+  Al85  1  0.57040344  0.68002857  0.31648483  1
  Al0+  Al86  1  0.07216983  0.68014654  0.98686317  1
  Al0+  Al87  1  0.32087498  0.57063560  0.01321589  1
  Al0+  Al88  1  0.92679448  0.32129651  0.65085055  1
  Al0+  Al89  1  0.32235698  0.56862100  0.34948971  1
  Al0+  Al90  1  0.17765048  0.93008234  0.01397588  1
  Al0+  Al91  1  0.56829427  0.17915630  0.98637331  1
  Al0+  Al92  1  0.07239461  0.17928863  0.65230411  1
  Al0+  Al93  1  0.92641851  0.82363022  0.98737967  1
  Al0+  Al94  1  0.82019070  0.56908212  0.01287580  1
  Al0+  Al95  1  0.32277801  0.07187900  0.01440931  1
  Si0+  Si96  1  0.67739059  0.92773902  0.68067284  1
  Si0+  Si97  1  0.07249780  0.67996000  0.32100869  1
  Si0+  Si98  1  0.82370625  0.57444173  0.68210280  1
  Si0+  Si99  1  0.17901458  0.42850961  0.67981847  1
  Si0+  Si100  1  0.07402665  0.17773811  0.98287720  1
  Si0+  Si101  1  0.68158190  0.43141758  0.34609699  1
  Si0+  Si102  1  0.82367220  0.57292999  0.34876143  1
  Si0+  Si103  1  0.17722080  0.42652106  0.35009156  1
  Si0+  Si104  1  0.42584096  0.82105549  0.31596231  1
  Si0+  Si105  1  0.92994615  0.82036631  0.31919642  1
  Si0+  Si106  1  0.42960245  0.32106625  0.65470065  1
  Si0+  Si107  1  0.07380130  0.67695230  0.64786759  1
  Si0+  Si108  1  0.32268951  0.07258467  0.67942151  1
  Si0+  Si109  1  0.32301229  0.07482976  0.35060311  1
  Si0+  Si110  1  0.57163339  0.17903665  0.65150716  1
  Si0+  Si111  1  0.67859031  0.42549599  0.01983384  1
  Si0+  Si112  1  0.42686910  0.32382209  0.98181764  1
  Si0+  Si113  1  0.82154386  0.07410273  0.01575190  1
  Si0+  Si114  1  0.67556164  0.92466093  0.35247961  1
  Si0+  Si115  1  0.31985775  0.57066894  0.68254070  1
  Si0+  Si116  1  0.57191046  0.17611695  0.31892903  1
  Si0+  Si117  1  0.17641803  0.42820232  0.01698172  1
  Si0+  Si118  1  0.57356025  0.67518609  0.98426948  1
  Si0+  Si119  1  0.18076979  0.92871544  0.68348041  1
  O2-  O120  1  0.24688430  0.00466570  0.06487975  1
  O2-  O121  1  0.25349275  0.00780194  0.39622271  1
  O2-  O122  1  0.25472598  -0.00124029  0.72202103  1
  O2-  O123  1  0.24675065  0.49549612  0.06086917  1
  O2-  O124  1  0.24878129  0.49204705  0.39625119  1
  O2-  O125  1  0.24536566  0.50315639  0.72423192  1
  O2-  O126  1  0.75810385  -0.00010130  0.05895157  1
  O2-  O127  1  0.74139278  -0.00365354  0.39560601  1
  O2-  O128  1  0.74625700  -0.00548420  0.72733947  1
  O2-  O129  1  0.74558927  0.49582938  0.06341415  1
  O2-  O130  1  0.75550075  0.49877874  0.38973301  1
  O2-  O131  1  0.75653076  0.50341012  0.72511979  1
  O2-  O132  1  -0.00042532  0.25157992  0.26722638  1
  O2-  O133  1  -0.00229286  0.24831303  0.60185315  1
  O2-  O134  1  0.00368204  0.24432819  0.93848982  1
  O2-  O135  1  -0.00086402  0.74754988  0.27786983  1
  O2-  O136  1  0.00308216  0.74381468  0.60438857  1
  O2-  O137  1  -0.00007518  0.75251325  0.93782748  1
  O2-  O138  1  0.49760320  0.23886357  0.27509158  1
  O2-  O139  1  0.50074806  0.25102446  0.61080106  1
  O2-  O140  1  0.49147735  0.25157648  0.93759823  1
  O2-  O141  1  0.49792386  0.75694803  0.27098295  1
  O2-  O142  1  0.49872405  0.75018843  0.60171104  1
  O2-  O143  1  0.50435720  0.74318255  0.94108451  1
  O2-  O144  1  0.07311687  0.17855411  0.08822528  1
  O2-  O145  1  0.06695509  0.17754052  0.42898994  1
  O2-  O146  1  0.07579563  0.18291506  0.76579453  1
  O2-  O147  1  0.07240210  0.68087027  0.10107302  1
  O2-  O148  1  0.07036372  0.67987280  0.42642248  1
  O2-  O149  1  0.07742652  0.67741524  0.75297358  1
  O2-  O150  1  0.56885813  0.18167068  0.09974080  1
  O2-  O151  1  0.57328494  0.18068512  0.42496864  1
  O2-  O152  1  0.56925167  0.17604524  0.75633968  1
  O2-  O153  1  0.57246459  0.67677887  0.09008611  1
  O2-  O154  1  0.56958122  0.67801765  0.42956961  1
  O2-  O155  1  0.56666762  0.67774454  0.76714395  1
  O2-  O156  1  0.17591042  0.43085057  0.24482693  1
  O2-  O157  1  0.18336451  0.42885072  0.57487323  1
  O2-  O158  1  0.17895431  0.42838498  0.91069280  1
  O2-  O159  1  0.18001057  0.92766666  0.23729097  1
  O2-  O160  1  0.18051042  0.92897358  0.57813877  1
  O2-  O161  1  0.17947712  0.93015751  0.90002984  1
  O2-  O162  1  0.68149241  0.43191993  0.24134299  1
  O2-  O163  1  0.67522215  0.43093160  0.56794074  1
  O2-  O164  1  0.67810829  0.42623763  0.91411951  1
  O2-  O165  1  0.67670235  0.92349455  0.24686839  1
  O2-  O166  1  0.67844186  0.93113679  0.57495016  1
  O2-  O167  1  0.67826700  0.93053076  0.89834655  1
  O2-  O168  1  0.43037006  0.32613965  0.08731221  1
  O2-  O169  1  0.43425848  0.32187411  0.43387693  1
  O2-  O170  1  0.42840390  0.32070612  0.75937724  1
  O2-  O171  1  0.43134946  0.81757454  0.10272908  1
  O2-  O172  1  0.42716499  0.81890474  0.42165947  1
  O2-  O173  1  0.42539403  0.82409685  0.76267518  1
  O2-  O174  1  0.92998790  0.31912885  0.09737032  1
  O2-  O175  1  0.92492884  0.32190490  0.43044887  1
  O2-  O176  1  0.92960835  0.32133957  0.76436887  1
  O2-  O177  1  0.92639146  0.82068748  0.10143654  1
  O2-  O178  1  0.93075505  0.81904203  0.42470744  1
  O2-  O179  1  0.92996381  0.81926355  0.76527007  1
  O2-  O180  1  0.32618529  0.07194353  0.24567372  1
  O2-  O181  1  0.32198046  0.07574035  0.57442191  1
  O2-  O182  1  0.32260623  0.06846619  0.89989535  1
  O2-  O183  1  0.32076068  0.57001725  0.23665177  1
  O2-  O184  1  0.32162928  0.56722517  0.57731999  1
  O2-  O185  1  0.31978596  0.56950124  0.89949310  1
  O2-  O186  1  0.81470848  0.06798526  0.23304107  1
  O2-  O187  1  0.82011986  0.06996544  0.56916030  1
  O2-  O188  1  0.81880787  0.07513570  0.91007257  1
  O2-  O189  1  0.82329849  0.57509134  0.24391451  1
  O2-  O190  1  0.82301537  0.57428787  0.57602709  1
  O2-  O191  1  0.81774117  0.56909798  0.89970511  1
  O2-  O192  1  0.03614823  0.07848717  0.26456135  1
  O2-  O193  1  0.04648212  0.07982731  0.60183359  1
  O2-  O194  1  0.05121683  0.08349108  0.93737533  1
  O2-  O195  1  0.04951167  0.58738239  0.27369497  1
  O2-  O196  1  0.05180660  0.58269528  0.60112126  1
  O2-  O197  1  0.04436694  0.58242331  0.93240215  1
  O2-  O198  1  0.55238019  0.07920576  0.27714710  1
  O2-  O199  1  0.54516410  0.08937711  0.59941695  1
  O2-  O200  1  0.53902973  0.08326667  0.93030177  1
  O2-  O201  1  0.53940861  0.58496498  0.26101586  1
  O2-  O202  1  0.53694838  0.57973377  0.60058218  1
  O2-  O203  1  0.54969626  0.57961387  0.94148288  1
  O2-  O204  1  0.16897418  0.19950750  0.26273546  1
  O2-  O205  1  0.17009935  0.20999086  0.59737596  1
  O2-  O206  1  0.16812001  0.20487733  0.93768328  1
  O2-  O207  1  0.16492162  0.71101131  0.27765282  1
  O2-  O208  1  0.16588830  0.70539721  0.59975459  1
  O2-  O209  1  0.16947662  0.70819971  0.93192193  1
  O2-  O210  1  0.66182166  0.20799951  0.27032901  1
  O2-  O211  1  0.66287767  0.20958049  0.60585994  1
  O2-  O212  1  0.66231983  0.21227161  0.92888798  1
  O2-  O213  1  0.66833473  0.70922286  0.26339856  1
  O2-  O214  1  0.66723396  0.70242462  0.59714168  1
  O2-  O215  1  0.66720990  0.70031981  0.93988193  1
  O2-  O216  1  0.08314997  0.45415552  0.06198880  1
  O2-  O217  1  0.08518371  0.45626756  0.39860606  1
  O2-  O218  1  0.08544539  0.45276948  0.72564460  1
  O2-  O219  1  0.07827888  0.95605207  0.06785828  1
  O2-  O220  1  0.08297647  0.96067825  0.40475556  1
  O2-  O221  1  0.08996841  0.95708872  0.73129405  1
  O2-  O222  1  0.58404967  0.44766924  0.06560975  1
  O2-  O223  1  0.59094003  0.46299309  0.39388689  1
  O2-  O224  1  0.58330414  0.46136233  0.73945466  1
  O2-  O225  1  0.58692515  0.96374828  0.06944151  1
  O2-  O226  1  0.58004481  0.94516675  0.39743768  1
  O2-  O227  1  0.58224505  0.95492640  0.72348885  1
  O2-  O228  1  0.20000672  0.33459112  0.06390636  1
  O2-  O229  1  0.20072154  0.33087123  0.39262741  1
  O2-  O230  1  0.21115276  0.33883737  0.72902832  1
  O2-  O231  1  0.20940317  0.83277343  0.06692711  1
  O2-  O232  1  0.21125947  0.83642507  0.40891042  1
  O2-  O233  1  0.20723670  0.83547018  0.72897009  1
  O2-  O234  1  0.70666362  0.33212619  0.06461412  1
  O2-  O235  1  0.70428176  0.33839736  0.39448313  1
  O2-  O236  1  0.70606664  0.33396593  0.73814786  1
  O2-  O237  1  0.70625236  0.83213327  0.06889683  1
  O2-  O238  1  0.70509050  0.83183345  0.39861085  1
  O2-  O239  1  0.70105965  0.83225988  0.72308730  1
  O2-  O240  1  0.46750925  0.41330995  0.26371178  1
  O2-  O241  1  0.45822277  0.41277017  0.60773104  1
  O2-  O242  1  0.45761835  0.41577821  0.93414600  1
  O2-  O243  1  0.44621738  0.91759449  0.27357579  1
  O2-  O244  1  0.45396377  0.92098544  0.59221838  1
  O2-  O245  1  0.46292270  0.91442002  0.93494360  1
  O2-  O246  1  0.95506255  0.42286075  0.26686154  1
  O2-  O247  1  0.95380340  0.42058330  0.59851767  1
  O2-  O248  1  0.96057821  0.41543247  0.92882817  1
  O2-  O249  1  0.95844362  0.91142376  0.27329084  1
  O2-  O250  1  0.96487969  0.91504115  0.59841163  1
  O2-  O251  1  0.95172589  0.92298724  0.93482568  1
  O2-  O252  1  0.33203044  0.29935454  0.26428940  1
  O2-  O253  1  0.33916841  0.29311385  0.60470454  1
  O2-  O254  1  0.33071357  0.30529683  0.93817018  1
  O2-  O255  1  0.33230421  0.79026039  0.27397828  1
  O2-  O256  1  0.32923164  0.79321247  0.59565527  1
  O2-  O257  1  0.33566182  0.78770046  0.93391080  1
  O2-  O258  1  0.82834451  0.29289725  0.26419813  1
  O2-  O259  1  0.82641125  0.29354031  0.60199718  1
  O2-  O260  1  0.83257625  0.29119442  0.93064131  1
  O2-  O261  1  0.83680458  0.79461965  0.27402637  1
  O2-  O262  1  0.83447349  0.79198663  0.59421439  1
  O2-  O263  1  0.82904392  0.79078265  0.93434512  1
  O2-  O264  1  0.41957946  0.04154583  0.06841201  1
  O2-  O265  1  0.41684393  0.04975046  0.39904682  1
  O2-  O266  1  0.41692186  0.04679311  0.72350787  1
  O2-  O267  1  0.41746822  0.53908042  0.06773674  1
  O2-  O268  1  0.41956845  0.53483694  0.40130849  1
  O2-  O269  1  0.40920086  0.53958472  0.73184295  1
  O2-  O270  1  0.91694017  0.05596709  0.06013691  1
  O2-  O271  1  0.91189040  0.03661442  0.40190214  1
  O2-  O272  1  0.91892900  0.03880928  0.73550507  1
  O2-  O273  1  0.91750442  0.53791742  0.06586093  1
  O2-  O274  1  0.91688144  0.55064942  0.39630680  1
  O2-  O275  1  0.91917475  0.55222810  0.72612261  1
  O2-  O276  1  0.30227887  0.17401463  0.06353533  1
  O2-  O277  1  0.29997643  0.17096479  0.39329504  1
  O2-  O278  1  0.29456525  0.16357272  0.72883472  1
  O2-  O279  1  0.28976475  0.66562450  0.06918125  1
  O2-  O280  1  0.28975353  0.66264861  0.40745070  1
  O2-  O281  1  0.29325061  0.66444049  0.72640844  1
  O2-  O282  1  0.78755293  0.16533856  0.06160080  1
  O2-  O283  1  0.78593533  0.16668551  0.40106739  1
  O2-  O284  1  0.78939774  0.16510479  0.73684407  1
  O2-  O285  1  0.79122837  0.66441141  0.07084287  1
  O2-  O286  1  0.79167152  0.66368080  0.39686327  1
  O2-  O287  1  0.79495557  0.66789039  0.72682407  1
