# generated using pymatgen
data_Ca2Al2SiO7
_symmetry_space_group_name_H-M   'P 1'
_cell_length_a   15.46027825
_cell_length_b   15.46085226
_cell_length_c   15.28546461
_cell_angle_alpha   89.99644805
_cell_angle_beta   90.00271869
_cell_angle_gamma   90.00078596
_symmetry_Int_Tables_number   1
_chemical_formula_structural   Ca2Al2SiO7
_chemical_formula_sum   'Ca48 Al48 Si24 O168'
_cell_volume   3653.67049921
_cell_formula_units_Z   24
loop_
 _symmetry_equiv_pos_site_id
 _symmetry_equiv_pos_as_xyz
  1  'x, y, z'
loop_
 _atom_type_symbol
 _atom_type_oxidation_number
  Ca2+  2.0
  Al0+  0.0
  Si0+  0.0
  O2-  -2.0
loop_
 _atom_site_type_symbol
 _atom_site_label
 _atom_site_symmetry_multiplicity
 _atom_site_fract_x
 _atom_site_fract_y
 _atom_site_fract_z
 _atom_site_occupancy
  Ca2+  Ca0  1  0.17015039  0.07738306  0.17618919  1
  Ca2+  Ca1  1  0.17048899  0.09187395  0.50134937  1
  Ca2+  Ca2  1  0.16282192  0.07712402  0.84117463  1
  Ca2+  Ca3  1  0.15974083  0.57425433  0.16965068  1
  Ca2+  Ca4  1  0.15409316  0.57760076  0.49840778  1
  Ca2+  Ca5  1  0.16284770  0.58122726  0.84356655  1
  Ca2+  Ca6  1  0.67831360  0.09305212  0.16790062  1
  Ca2+  Ca7  1  0.67613475  0.07835588  0.50093245  1
  Ca2+  Ca8  1  0.66911095  0.08093087  0.84155778  1
  Ca2+  Ca9  1  0.67216854  0.57293621  0.17620933  1
  Ca2+  Ca10  1  0.67620465  0.58480303  0.50242371  1
  Ca2+  Ca11  1  0.68256161  0.57833660  0.84409564  1
  Ca2+  Ca12  1  0.07278627  0.33692000  0.16477927  1
  Ca2+  Ca13  1  0.07695935  0.32609406  0.48912991  1
  Ca2+  Ca14  1  0.07615807  0.33411307  0.83284620  1
  Ca2+  Ca15  1  0.08704019  0.82173760  0.16011613  1
  Ca2+  Ca16  1  0.08200973  0.81867707  0.49335916  1
  Ca2+  Ca17  1  0.08364228  0.82333413  0.83263505  1
  Ca2+  Ca18  1  0.58308848  0.33293632  0.15432664  1
  Ca2+  Ca19  1  0.58233530  0.33597300  0.49223529  1
  Ca2+  Ca20  1  0.58615709  0.33275125  0.83984017  1
  Ca2+  Ca21  1  0.57410581  0.83096794  0.16470795  1
  Ca2+  Ca22  1  0.58303914  0.82950177  0.48969875  1
  Ca2+  Ca23  1  0.57912663  0.83922114  0.83031184  1
  Ca2+  Ca24  1  0.31995426  0.40603920  0.17003202  1
  Ca2+  Ca25  1  0.32460556  0.41775551  0.49928250  1
  Ca2+  Ca26  1  0.32539852  0.41771975  0.84341549  1
  Ca2+  Ca27  1  0.33344699  0.91652880  0.16993424  1
  Ca2+  Ca28  1  0.33689676  0.92044842  0.49665196  1
  Ca2+  Ca29  1  0.32603003  0.91606764  0.84388187  1
  Ca2+  Ca30  1  0.82933787  0.41925875  0.17108880  1
  Ca2+  Ca31  1  0.83607972  0.42401694  0.49381232  1
  Ca2+  Ca32  1  0.83486123  0.42419335  0.84372310  1
  Ca2+  Ca33  1  0.83841883  0.93192370  0.17059898  1
  Ca2+  Ca34  1  0.83017058  0.91943811  0.50268416  1
  Ca2+  Ca35  1  0.82903439  0.92379331  0.83909572  1
  Ca2+  Ca36  1  0.42309470  0.16969625  0.15974855  1
  Ca2+  Ca37  1  0.41824822  0.16532961  0.49239236  1
  Ca2+  Ca38  1  0.41987669  0.17313584  0.83791731  1
  Ca2+  Ca39  1  0.42043694  0.67393651  0.16385017  1
  Ca2+  Ca40  1  0.42680458  0.67525639  0.48584228  1
  Ca2+  Ca41  1  0.41614228  0.67320425  0.83385427  1
  Ca2+  Ca42  1  0.91142096  0.17682157  0.16190281  1
  Ca2+  Ca43  1  0.92708977  0.16912811  0.48801466  1
  Ca2+  Ca44  1  0.91732937  0.17214915  0.83336979  1
  Ca2+  Ca45  1  0.92437278  0.65369313  0.16451672  1
  Ca2+  Ca46  1  0.91967525  0.65986086  0.49442452  1
  Ca2+  Ca47  1  0.92544848  0.65484787  0.83197331  1
  Al0+  Al48  1  0.00022831  -0.00278924  0.00850021  1
  Al0+  Al49  1  0.00275194  -0.00244659  0.33710108  1
  Al0+  Al50  1  0.00120689  -0.00041873  0.66314711  1
  Al0+  Al51  1  0.00204193  0.49792861  -0.00163547  1
  Al0+  Al52  1  -0.00111386  0.49742795  0.33451450  1
  Al0+  Al53  1  -0.00051902  0.49789968  0.66609630  1
  Al0+  Al54  1  0.49956829  -0.00047787  -0.00890875  1
  Al0+  Al55  1  0.49836538  0.00151913  0.33327714  1
  Al0+  Al56  1  0.49890318  0.00262068  0.67027794  1
  Al0+  Al57  1  0.49978073  0.50225382  -0.00381622  1
  Al0+  Al58  1  0.49783504  0.50000290  0.33271619  1
  Al0+  Al59  1  0.49820298  0.50112221  0.66706337  1
  Al0+  Al60  1  0.25148162  0.24876437  -0.00033634  1
  Al0+  Al61  1  0.25043173  0.24779877  0.34010642  1
  Al0+  Al62  1  0.25090823  0.25113454  0.66541875  1
  Al0+  Al63  1  0.25000653  0.74982205  -0.00426417  1
  Al0+  Al64  1  0.24996239  0.75026686  0.32708717  1
  Al0+  Al65  1  0.25035729  0.75057277  0.66052465  1
  Al0+  Al66  1  0.75091390  0.25026456  -0.00493813  1
  Al0+  Al67  1  0.75079683  0.24971445  0.34187565  1
  Al0+  Al68  1  0.74792311  0.25084547  0.66448705  1
  Al0+  Al69  1  0.75196817  0.75222553  0.00469063  1
  Al0+  Al70  1  0.75043212  0.74987082  0.33079580  1
  Al0+  Al71  1  0.74973433  0.75044502  0.67722006  1
  Al0+  Al72  1  0.57216888  0.18033259  0.98471156  1
  Al0+  Al73  1  0.67532886  0.42796340  0.34880546  1
  Al0+  Al74  1  0.67877412  0.43020143  0.01330057  1
  Al0+  Al75  1  0.17967830  0.92770234  0.01359623  1
  Al0+  Al76  1  0.17919164  0.42964734  0.34803636  1
  Al0+  Al77  1  0.57368941  0.67657888  0.31788108  1
  Al0+  Al78  1  0.82013808  0.57162900  0.34862202  1
  Al0+  Al79  1  0.43040045  0.82298722  0.31758087  1
  Al0+  Al80  1  0.06777997  0.67984728  0.98652268  1
  Al0+  Al81  1  0.06996375  0.67872189  0.65220958  1
  Al0+  Al82  1  0.93056724  0.31967118  0.98564443  1
  Al0+  Al83  1  0.92864448  0.31782579  0.31764757  1
  Al0+  Al84  1  0.82085772  0.56854613  0.68223727  1
  Al0+  Al85  1  0.82006321  0.07057694  0.01218537  1
  Al0+  Al86  1  0.82373013  0.57189886  0.01661322  1
  Al0+  Al87  1  0.82371045  0.07147186  0.34829407  1
  Al0+  Al88  1  0.32016596  0.06918907  0.34681403  1
  Al0+  Al89  1  0.43069188  0.81928281  0.98394270  1
  Al0+  Al90  1  0.18096122  0.42735560  0.01283781  1
  Al0+  Al91  1  0.07080182  0.17844543  0.65401827  1
  Al0+  Al92  1  0.07415088  0.17682805  0.31731307  1
  Al0+  Al93  1  0.06846193  0.67840349  0.31846474  1
  Al0+  Al94  1  0.42646960  0.32392038  0.98542603  1
  Al0+  Al95  1  0.67891139  0.93066485  0.68010203  1
  Si0+  Si96  1  0.42898962  0.32189558  0.64983698  1
  Si0+  Si97  1  0.42819370  0.32130749  0.32106035  1
  Si0+  Si98  1  0.57058336  0.18049842  0.32161529  1
  Si0+  Si99  1  0.67844363  0.93027965  0.34687142  1
  Si0+  Si100  1  0.42938029  0.82284990  0.65034823  1
  Si0+  Si101  1  0.56947085  0.17879355  0.64941421  1
  Si0+  Si102  1  0.92731064  0.82559018  0.98351572  1
  Si0+  Si103  1  0.32080277  0.57407508  0.34929964  1
  Si0+  Si104  1  0.67341431  0.42781242  0.68484838  1
  Si0+  Si105  1  0.32188759  0.57294668  0.68069103  1
  Si0+  Si106  1  0.18116317  0.43030199  0.68182429  1
  Si0+  Si107  1  0.32191963  0.57336529  0.01528184  1
  Si0+  Si108  1  0.57110256  0.68071507  0.65411284  1
  Si0+  Si109  1  0.57523923  0.67863980  0.98148253  1
  Si0+  Si110  1  0.82347619  0.07259986  0.68269394  1
  Si0+  Si111  1  0.92657945  0.82312421  0.31661606  1
  Si0+  Si112  1  0.67488258  0.92877335  0.01781167  1
  Si0+  Si113  1  0.32029147  0.07246061  0.68440356  1
  Si0+  Si114  1  0.07232943  0.17466895  0.98648377  1
  Si0+  Si115  1  0.92666431  0.32134907  0.64871150  1
  Si0+  Si116  1  0.92624762  0.82213893  0.65157151  1
  Si0+  Si117  1  0.18038088  0.92762712  0.68046606  1
  Si0+  Si118  1  0.32261521  0.07061301  0.01536590  1
  Si0+  Si119  1  0.17873294  0.92450965  0.35257019  1
  O2-  O120  1  0.25229337  0.00447150  0.05958575  1
  O2-  O121  1  0.24464579  -0.00355399  0.39662542  1
  O2-  O122  1  0.24826281  0.00146468  0.72431742  1
  O2-  O123  1  0.25975545  0.49867946  0.05861998  1
  O2-  O124  1  0.25142599  0.50712953  0.39582360  1
  O2-  O125  1  0.24819887  0.50527249  0.72372977  1
  O2-  O126  1  0.74460657  -0.00328421  0.06046525  1
  O2-  O127  1  0.75064053  -0.00600661  0.39333690  1
  O2-  O128  1  0.75396230  0.00496227  0.72702699  1
  O2-  O129  1  0.74690460  0.50428271  0.06438113  1
  O2-  O130  1  0.74437728  0.50302164  0.39891814  1
  O2-  O131  1  0.74573277  0.49311327  0.72708843  1
  O2-  O132  1  -0.00077833  0.24442354  0.26686881  1
  O2-  O133  1  -0.00818558  0.24804560  0.60717172  1
  O2-  O134  1  0.00612619  0.24436850  0.94007287  1
  O2-  O135  1  -0.00665108  0.75270488  0.27269505  1
  O2-  O136  1  -0.00654224  0.75229407  0.60672348  1
  O2-  O137  1  -0.00943202  0.75192107  0.93881948  1
  O2-  O138  1  0.50565142  0.25718703  0.28039181  1
  O2-  O139  1  0.50213631  0.25329206  0.60699263  1
  O2-  O140  1  0.50067369  0.25401583  0.93481147  1
  O2-  O141  1  0.50089182  0.74889739  0.26943523  1
  O2-  O142  1  0.50206202  0.75310582  0.60963767  1
  O2-  O143  1  0.50765743  0.74803335  0.93499284  1
  O2-  O144  1  0.07191687  0.17451490  0.09135303  1
  O2-  O145  1  0.07359505  0.18168502  0.43166271  1
  O2-  O146  1  0.07210462  0.17900183  0.76727126  1
  O2-  O147  1  0.06919387  0.68043628  0.09912529  1
  O2-  O148  1  0.06734330  0.68024568  0.43226292  1
  O2-  O149  1  0.07264543  0.68024451  0.76503852  1
  O2-  O150  1  0.57054975  0.17916164  0.09858298  1
  O2-  O151  1  0.56677979  0.17812511  0.42737181  1
  O2-  O152  1  0.56831775  0.17751795  0.75395496  1
  O2-  O153  1  0.57218243  0.67915784  0.08652460  1
  O2-  O154  1  0.57234030  0.68015965  0.43292700  1
  O2-  O155  1  0.56706086  0.68126897  0.75886967  1
  O2-  O156  1  0.18130534  0.42876441  0.23538176  1
  O2-  O157  1  0.18336805  0.42996456  0.57677645  1
  O2-  O158  1  0.18048119  0.42995901  0.89871768  1
  O2-  O159  1  0.18063338  0.92362414  0.24723186  1
  O2-  O160  1  0.18397050  0.92553040  0.57579868  1
  O2-  O161  1  0.18060105  0.92910368  0.89929963  1
  O2-  O162  1  0.67379145  0.42558801  0.23595920  1
  O2-  O163  1  0.66804504  0.43014356  0.57976186  1
  O2-  O164  1  0.68173272  0.43162043  0.89899516  1
  O2-  O165  1  0.67633781  0.93419784  0.24178020  1
  O2-  O166  1  0.67845956  0.93194659  0.56683500  1
  O2-  O167  1  0.67575373  0.93058113  0.91158615  1
  O2-  O168  1  0.42411262  0.31865642  0.09890264  1
  O2-  O169  1  0.42782020  0.31905147  0.42698301  1
  O2-  O170  1  0.42636348  0.32052195  0.75435904  1
  O2-  O171  1  0.43120898  0.81899685  0.09634388  1
  O2-  O172  1  0.43366649  0.82306860  0.43227973  1
  O2-  O173  1  0.42731189  0.82144738  0.75528756  1
  O2-  O174  1  0.92919146  0.31974662  0.09785540  1
  O2-  O175  1  0.93080393  0.31733092  0.43198445  1
  O2-  O176  1  0.92861587  0.32241066  0.75448147  1
  O2-  O177  1  0.93101985  0.83057318  0.08850521  1
  O2-  O178  1  0.92734053  0.82376927  0.42285930  1
  O2-  O179  1  0.92933206  0.82623741  0.75683092  1
  O2-  O180  1  0.32264805  0.06836144  0.23419958  1
  O2-  O181  1  0.32283185  0.07218998  0.57938264  1
  O2-  O182  1  0.32080348  0.06971759  0.90897421  1
  O2-  O183  1  0.32130042  0.57310687  0.24412910  1
  O2-  O184  1  0.32591642  0.57046942  0.57603887  1
  O2-  O185  1  0.31802398  0.57510186  0.90866564  1
  O2-  O186  1  0.81969740  0.07267527  0.23545532  1
  O2-  O187  1  0.82218015  0.07057514  0.57721703  1
  O2-  O188  1  0.82025062  0.06793763  0.89843523  1
  O2-  O189  1  0.82093624  0.56808385  0.23598005  1
  O2-  O190  1  0.81944850  0.56962226  0.56953608  1
  O2-  O191  1  0.82368451  0.56834733  0.90224383  1
  O2-  O192  1  0.05353775  0.07395486  0.27202119  1
  O2-  O193  1  0.04691547  0.08022420  0.59897539  1
  O2-  O194  1  0.04386641  0.08114610  0.94066265  1
  O2-  O195  1  0.03909862  0.58101134  0.26704919  1
  O2-  O196  1  0.04025797  0.58087791  0.60031330  1
  O2-  O197  1  0.03962089  0.58326549  0.93077676  1
  O2-  O198  1  0.53709246  0.09196757  0.27278280  1
  O2-  O199  1  0.53612284  0.08856766  0.60182209  1
  O2-  O200  1  0.54114486  0.08383617  0.92804766  1
  O2-  O201  1  0.54200951  0.57903252  0.26557290  1
  O2-  O202  1  0.54146945  0.58915100  0.60690293  1
  O2-  O203  1  0.54892857  0.58634508  0.93272653  1
  O2-  O204  1  0.17383535  0.20563637  0.26834937  1
  O2-  O205  1  0.16743861  0.21249852  0.60094524  1
  O2-  O206  1  0.16707841  0.19672596  0.94073315  1
  O2-  O207  1  0.16531345  0.70800678  0.26535070  1
  O2-  O208  1  0.16629826  0.71028105  0.59689778  1
  O2-  O209  1  0.16338785  0.71301197  0.93083767  1
  O2-  O210  1  0.66471269  0.20255721  0.27833110  1
  O2-  O211  1  0.66314611  0.20177216  0.60256332  1
  O2-  O212  1  0.66847547  0.20793524  0.92686828  1
  O2-  O213  1  0.67116925  0.70447702  0.26434582  1
  O2-  O214  1  0.66416747  0.70817741  0.60962019  1
  O2-  O215  1  0.67019837  0.70456008  0.93768330  1
  O2-  O216  1  0.08662824  0.46188819  0.06645434  1
  O2-  O217  1  0.08364057  0.45979849  0.40409149  1
  O2-  O218  1  0.08783989  0.45400602  0.72739483  1
  O2-  O219  1  0.08442157  0.95394088  0.07062530  1
  O2-  O220  1  0.08450726  0.94440026  0.39967493  1
  O2-  O221  1  0.08684748  0.95233731  0.72603377  1
  O2-  O222  1  0.57700000  0.45349073  0.06192162  1
  O2-  O223  1  0.57455652  0.45258433  0.40114515  1
  O2-  O224  1  0.58028298  0.45518449  0.73175811  1
  O2-  O225  1  0.58050106  0.95543927  0.06051588  1
  O2-  O226  1  0.58712308  0.96083723  0.39543682  1
  O2-  O227  1  0.58252820  0.96360123  0.73484773  1
  O2-  O228  1  0.20947194  0.32997916  0.06640263  1
  O2-  O229  1  0.21470767  0.33554175  0.40486641  1
  O2-  O230  1  0.21415808  0.34002481  0.72913565  1
  O2-  O231  1  0.21479256  0.83226869  0.06605127  1
  O2-  O232  1  0.20935572  0.83215362  0.39947234  1
  O2-  O233  1  0.21212781  0.83667551  0.72815038  1
  O2-  O234  1  0.70695734  0.33081024  0.06213170  1
  O2-  O235  1  0.70556303  0.33172171  0.40646101  1
  O2-  O236  1  0.69569735  0.33122529  0.72661208  1
  O2-  O237  1  0.69744763  0.83484783  0.06328274  1
  O2-  O238  1  0.70052076  0.83536548  0.39208283  1
  O2-  O239  1  0.70562666  0.83543610  0.73859744  1
  O2-  O240  1  0.44501997  0.41510273  0.27464085  1
  O2-  O241  1  0.45392975  0.41517459  0.60321203  1
  O2-  O242  1  0.44979861  0.42341968  0.93080857  1
  O2-  O243  1  0.46094991  0.92048258  0.26427851  1
  O2-  O244  1  0.45596544  0.91656449  0.60616579  1
  O2-  O245  1  0.45769959  0.91549063  0.92635322  1
  O2-  O246  1  0.96007596  0.41526895  0.26637710  1
  O2-  O247  1  0.95861269  0.41224582  0.60153615  1
  O2-  O248  1  0.96593434  0.41354441  0.92869031  1
  O2-  O249  1  0.95519907  0.91611010  0.27134460  1
  O2-  O250  1  0.95216585  0.91487125  0.60302441  1
  O2-  O251  1  0.95923599  0.91660317  0.93458371  1
  O2-  O252  1  0.33927335  0.28534616  0.27488822  1
  O2-  O253  1  0.33860059  0.29115087  0.60104407  1
  O2-  O254  1  0.33019356  0.29011387  0.92819348  1
  O2-  O255  1  0.33199954  0.79646546  0.26529845  1
  O2-  O256  1  0.33910867  0.79413862  0.60082181  1
  O2-  O257  1  0.33572710  0.78530679  0.92737706  1
  O2-  O258  1  0.82827994  0.28938757  0.26920827  1
  O2-  O259  1  0.83052650  0.30202359  0.60492334  1
  O2-  O260  1  0.83646099  0.28793299  0.92762379  1
  O2-  O261  1  0.83213654  0.80405919  0.27061627  1
  O2-  O262  1  0.83093644  0.79735145  0.60869798  1
  O2-  O263  1  0.83058102  0.80739517  0.94020044  1
  O2-  O264  1  0.41622850  0.04171976  0.05861808  1
  O2-  O265  1  0.41587200  0.03668608  0.40467809  1
  O2-  O266  1  0.41109584  0.04384172  0.73286712  1
  O2-  O267  1  0.41856531  0.55679798  0.05692629  1
  O2-  O268  1  0.41338932  0.54698706  0.39749117  1
  O2-  O269  1  0.41199774  0.54334179  0.73109282  1
  O2-  O270  1  0.91460514  0.03958497  0.06911233  1
  O2-  O271  1  0.92029333  0.04068750  0.40288949  1
  O2-  O272  1  0.91748085  0.04651809  0.72779191  1
  O2-  O273  1  0.92053873  0.53726449  0.06652846  1
  O2-  O274  1  0.91654506  0.53761143  0.40321665  1
  O2-  O275  1  0.91783227  0.53533707  0.73498988  1
  O2-  O276  1  0.30202031  0.16509908  0.06041017  1
  O2-  O277  1  0.29182924  0.16406797  0.40688581  1
  O2-  O278  1  0.29313977  0.16509709  0.73050196  1
  O2-  O279  1  0.29029214  0.66417483  0.06198358  1
  O2-  O280  1  0.29727011  0.66870865  0.39476687  1
  O2-  O281  1  0.29639450  0.66674806  0.72568736  1
  O2-  O282  1  0.78768344  0.16661202  0.06469386  1
  O2-  O283  1  0.78934968  0.16380519  0.40767237  1
  O2-  O284  1  0.79723626  0.16751456  0.72588362  1
  O2-  O285  1  0.80516243  0.67425839  0.06488185  1
  O2-  O286  1  0.79639677  0.67268393  0.40056490  1
  O2-  O287  1  0.79251440  0.66499559  0.73794382  1
