# generated using pymatgen
data_Ca2Al2SiO7
_symmetry_space_group_name_H-M   'P 1'
_cell_length_a   15.46151386
_cell_length_b   15.46086108
_cell_length_c   15.28600724
_cell_angle_alpha   90.00666259
_cell_angle_beta   89.99102360
_cell_angle_gamma   89.99291918
_symmetry_Int_Tables_number   1
_chemical_formula_structural   Ca2Al2SiO7
_chemical_formula_sum   'Ca48 Al48 Si24 O168'
_cell_volume   3654.09421997
_cell_formula_units_Z   24
loop_
 _symmetry_equiv_pos_site_id
 _symmetry_equiv_pos_as_xyz
  1  'x, y, z'
loop_
 _atom_type_symbol
 _atom_type_oxidation_number
  Ca2+  2.0
  Al0+  0.0
  Si0+  0.0
  O2-  -2.0
loop_
 _atom_site_type_symbol
 _atom_site_label
 _atom_site_symmetry_multiplicity
 _atom_site_fract_x
 _atom_site_fract_y
 _atom_site_fract_z
 _atom_site_occupancy
  Ca2+  Ca0  1  0.17733391  0.08592435  0.16464206  1
  Ca2+  Ca1  1  0.17858454  0.07751717  0.50667810  1
  Ca2+  Ca2  1  0.17798400  0.07844694  0.84005214  1
  Ca2+  Ca3  1  0.17332185  0.57782729  0.16825574  1
  Ca2+  Ca4  1  0.18025310  0.58625616  0.50500526  1
  Ca2+  Ca5  1  0.17312683  0.57523689  0.83622507  1
  Ca2+  Ca6  1  0.66368447  0.08239290  0.16787668  1
  Ca2+  Ca7  1  0.66760412  0.08502678  0.50695441  1
  Ca2+  Ca8  1  0.66564167  0.09352911  0.83714754  1
  Ca2+  Ca9  1  0.66070208  0.57087049  0.17300691  1
  Ca2+  Ca10  1  0.65863675  0.57425771  0.50543298  1
  Ca2+  Ca11  1  0.65806702  0.57145952  0.83380040  1
  Ca2+  Ca12  1  0.08197013  0.33015931  0.15697751  1
  Ca2+  Ca13  1  0.06900485  0.34003637  0.49560331  1
  Ca2+  Ca14  1  0.08647083  0.32870500  0.83043199  1
  Ca2+  Ca15  1  0.07552239  0.84028971  0.15940078  1
  Ca2+  Ca16  1  0.08221603  0.83681303  0.49754945  1
  Ca2+  Ca17  1  0.08260314  0.84585197  0.83278891  1
  Ca2+  Ca18  1  0.57878414  0.33112448  0.15834490  1
  Ca2+  Ca19  1  0.58129754  0.33484112  0.50278263  1
  Ca2+  Ca20  1  0.57710740  0.32817243  0.82901810  1
  Ca2+  Ca21  1  0.57728747  0.82299346  0.16016774  1
  Ca2+  Ca22  1  0.57682727  0.81984411  0.49882886  1
  Ca2+  Ca23  1  0.56674563  0.82910938  0.82669765  1
  Ca2+  Ca24  1  0.32895912  0.41419840  0.16870216  1
  Ca2+  Ca25  1  0.34123328  0.42728347  0.50594520  1
  Ca2+  Ca26  1  0.34218490  0.42007483  0.83794006  1
  Ca2+  Ca27  1  0.33991516  0.92920452  0.16721400  1
  Ca2+  Ca28  1  0.33284146  0.92543998  0.51214409  1
  Ca2+  Ca29  1  0.33318325  0.92387811  0.84020526  1
  Ca2+  Ca30  1  0.82025394  0.41083826  0.17242968  1
  Ca2+  Ca31  1  0.82347546  0.40848492  0.50609433  1
  Ca2+  Ca32  1  0.82150503  0.40932496  0.83557268  1
  Ca2+  Ca33  1  0.83721687  0.91515264  0.17000707  1
  Ca2+  Ca34  1  0.83271249  0.91542625  0.50336442  1
  Ca2+  Ca35  1  0.82962810  0.91675829  0.84060367  1
  Ca2+  Ca36  1  0.41848613  0.16946049  0.15367169  1
  Ca2+  Ca37  1  0.41538298  0.16625663  0.50186910  1
  Ca2+  Ca38  1  0.41782930  0.17423462  0.82765348  1
  Ca2+  Ca39  1  0.41730990  0.66735676  0.16476723  1
  Ca2+  Ca40  1  0.42222679  0.66047223  0.49846173  1
  Ca2+  Ca41  1  0.41364457  0.67590187  0.82429787  1
  Ca2+  Ca42  1  0.92565646  0.17165694  0.16102111  1
  Ca2+  Ca43  1  0.91750059  0.17856653  0.49756829  1
  Ca2+  Ca44  1  0.92749945  0.17106104  0.82980159  1
  Ca2+  Ca45  1  0.91632040  0.67834784  0.16229623  1
  Ca2+  Ca46  1  0.92063365  0.67233844  0.49281340  1
  Ca2+  Ca47  1  0.91972657  0.67009134  0.83277770  1
  Al0+  Al48  1  -0.00033928  0.00214837  -0.00489062  1
  Al0+  Al49  1  0.00024506  0.00191881  0.33104062  1
  Al0+  Al50  1  -0.00077464  0.00209691  0.66768704  1
  Al0+  Al51  1  -0.00088143  0.50319820  0.00478171  1
  Al0+  Al52  1  -0.00305268  0.50143558  0.32594598  1
  Al0+  Al53  1  -0.00141439  0.50273669  0.66199736  1
  Al0+  Al54  1  0.50337581  -0.00242307  -0.00184906  1
  Al0+  Al55  1  0.50125739  -0.00102353  0.33907969  1
  Al0+  Al56  1  0.50141412  -0.00056607  0.66279715  1
  Al0+  Al57  1  0.50216722  0.49923670  0.00341665  1
  Al0+  Al58  1  0.49979214  0.49790481  0.33546915  1
  Al0+  Al59  1  0.50072200  0.49864085  0.67052771  1
  Al0+  Al60  1  0.24961223  0.25123766  -0.00074251  1
  Al0+  Al61  1  0.24877672  0.24936089  0.34035953  1
  Al0+  Al62  1  0.24954788  0.24906188  0.66271561  1
  Al0+  Al63  1  0.24748190  0.74971536  0.00123010  1
  Al0+  Al64  1  0.24989464  0.75036667  0.33571219  1
  Al0+  Al65  1  0.24651160  0.75013430  0.67068876  1
  Al0+  Al66  1  0.75074241  0.25027219  0.00379334  1
  Al0+  Al67  1  0.74956311  0.24849445  0.33324519  1
  Al0+  Al68  1  0.75101785  0.24989000  0.66469320  1
  Al0+  Al69  1  0.75182774  0.74997242  -0.00422823  1
  Al0+  Al70  1  0.74930434  0.74816926  0.32524922  1
  Al0+  Al71  1  0.75069372  0.74965585  0.66456636  1
  Al0+  Al72  1  0.42767248  0.81932363  0.98839731  1
  Al0+  Al73  1  0.68118011  0.42900733  0.68196747  1
  Al0+  Al74  1  0.42494333  0.82065166  0.65130133  1
  Al0+  Al75  1  0.93083068  0.32142624  0.65482066  1
  Al0+  Al76  1  0.31926969  0.56983663  0.34636750  1
  Al0+  Al77  1  0.32319712  0.07156578  0.34888757  1
  Al0+  Al78  1  0.57175450  0.17910580  0.65033937  1
  Al0+  Al79  1  0.32097152  0.56879288  0.68131395  1
  Al0+  Al80  1  0.56841368  0.67662934  0.31831190  1
  Al0+  Al81  1  0.92691572  0.32129816  0.31723860  1
  Al0+  Al82  1  0.32422169  0.07199579  0.68401244  1
  Al0+  Al83  1  0.68064182  0.42942296  0.01529088  1
  Al0+  Al84  1  0.42848076  0.32167522  0.98714861  1
  Al0+  Al85  1  0.93053568  0.82131982  0.98401159  1
  Al0+  Al86  1  0.42722626  0.32120593  0.65015474  1
  Al0+  Al87  1  0.17748985  0.92960683  0.68193036  1
  Al0+  Al88  1  0.07154667  0.18093854  0.98595898  1
  Al0+  Al89  1  0.17727019  0.92923704  0.01688647  1
  Al0+  Al90  1  0.32366957  0.07013266  0.01414491  1
  Al0+  Al91  1  0.57304710  0.17831762  0.98755376  1
  Al0+  Al92  1  0.17840920  0.42878072  0.01205136  1
  Al0+  Al93  1  0.57041768  0.67855322  0.65290817  1
  Al0+  Al94  1  0.68054926  0.42796510  0.34943342  1
  Al0+  Al95  1  0.93070817  0.82123843  0.32013503  1
  Si0+  Si96  1  0.32267405  0.57237007  0.01653019  1
  Si0+  Si97  1  0.82206827  0.57463292  0.01864401  1
  Si0+  Si98  1  0.07163157  0.17687656  0.64764804  1
  Si0+  Si99  1  0.82134753  0.06918394  0.34826381  1
  Si0+  Si100  1  0.07204459  0.18046312  0.31649734  1
  Si0+  Si101  1  0.17414682  0.42918603  0.67944604  1
  Si0+  Si102  1  0.82125305  0.57362930  0.34916536  1
  Si0+  Si103  1  0.07176698  0.67649648  0.98206257  1
  Si0+  Si104  1  0.68003609  0.92622398  0.34822649  1
  Si0+  Si105  1  0.57038458  0.17665639  0.31888208  1
  Si0+  Si106  1  0.17464333  0.42797823  0.34963852  1
  Si0+  Si107  1  0.82397906  0.57462527  0.68321564  1
  Si0+  Si108  1  0.68080612  0.92628280  0.68110355  1
  Si0+  Si109  1  0.42867232  0.31932293  0.31976507  1
  Si0+  Si110  1  0.68038877  0.92655839  0.01524503  1
  Si0+  Si111  1  0.81939259  0.07071516  0.68197535  1
  Si0+  Si112  1  0.82087865  0.07047245  0.01542046  1
  Si0+  Si113  1  0.57211771  0.67730411  0.98370235  1
  Si0+  Si114  1  0.92911935  0.82261652  0.65203768  1
  Si0+  Si115  1  0.17692301  0.92985997  0.34875098  1
  Si0+  Si116  1  0.06978788  0.67840980  0.65091612  1
  Si0+  Si117  1  0.07489277  0.67844777  0.31489147  1
  Si0+  Si118  1  0.92808857  0.32414338  0.98485036  1
  Si0+  Si119  1  0.42780562  0.82313555  0.31730313  1
  O2-  O120  1  0.25275511  -0.00255620  0.06675802  1
  O2-  O121  1  0.24969760  -0.00629598  0.39243309  1
  O2-  O122  1  0.25332334  -0.00270117  0.73138744  1
  O2-  O123  1  0.25553431  0.50096678  0.05921914  1
  O2-  O124  1  0.24227174  0.49721649  0.39375195  1
  O2-  O125  1  0.24907304  0.48969010  0.72517480  1
  O2-  O126  1  0.74983647  -0.00061896  0.05805750  1
  O2-  O127  1  0.75179015  -0.00310811  0.39083979  1
  O2-  O128  1  0.74795545  0.00070839  0.72458593  1
  O2-  O129  1  0.75475782  0.50484083  0.06258844  1
  O2-  O130  1  0.75678812  0.50255574  0.39514023  1
  O2-  O131  1  0.75512858  0.50631970  0.72686984  1
  O2-  O132  1  0.00669359  0.25208735  0.27139147  1
  O2-  O133  1  0.00797197  0.25097484  0.60466724  1
  O2-  O134  1  0.00043464  0.26028314  0.94016827  1
  O2-  O135  1  0.00623033  0.74825963  0.27229109  1
  O2-  O136  1  0.00069396  0.75272378  0.61009114  1
  O2-  O137  1  0.00702328  0.74906685  0.93704858  1
  O2-  O138  1  0.49586137  0.24417464  0.27797548  1
  O2-  O139  1  0.49730591  0.24742681  0.59886504  1
  O2-  O140  1  0.49834548  0.24697523  0.93829798  1
  O2-  O141  1  0.49361066  0.75189871  0.27250124  1
  O2-  O142  1  0.49522252  0.74656666  0.60121184  1
  O2-  O143  1  0.49972811  0.74219547  0.94109690  1
  O2-  O144  1  0.06830488  0.18126082  0.09951954  1
  O2-  O145  1  0.06837142  0.17900183  0.42198942  1
  O2-  O146  1  0.06804084  0.17489307  0.75310159  1
  O2-  O147  1  0.06860247  0.67461839  0.08759041  1
  O2-  O148  1  0.07382626  0.67841950  0.42075994  1
  O2-  O149  1  0.06627812  0.67262859  0.75543568  1
  O2-  O150  1  0.57395543  0.17973648  0.10201250  1
  O2-  O151  1  0.57316925  0.17628545  0.42345443  1
  O2-  O152  1  0.57619908  0.18292525  0.76327847  1
  O2-  O153  1  0.57272300  0.67885124  0.08975936  1
  O2-  O154  1  0.56888046  0.67823228  0.43095237  1
  O2-  O155  1  0.57192803  0.68246827  0.76642587  1
  O2-  O156  1  0.17700247  0.42662882  0.24399018  1
  O2-  O157  1  0.16871944  0.43664839  0.57397310  1
  O2-  O158  1  0.17409934  0.43240197  0.89922962  1
  O2-  O159  1  0.17360680  0.93214402  0.24374162  1
  O2-  O160  1  0.17293338  0.93317409  0.56768429  1
  O2-  O161  1  0.17699731  0.93356445  0.90393263  1
  O2-  O162  1  0.68046246  0.42757012  0.23626583  1
  O2-  O163  1  0.68391365  0.42886570  0.56872167  1
  O2-  O164  1  0.68250836  0.42926968  0.90244403  1
  O2-  O165  1  0.67932090  0.92858045  0.24302299  1
  O2-  O166  1  0.68690215  0.92421324  0.57569894  1
  O2-  O167  1  0.68332457  0.92386578  0.91028687  1
  O2-  O168  1  0.43006292  0.32192172  0.10178831  1
  O2-  O169  1  0.43076029  0.32066651  0.42445458  1
  O2-  O170  1  0.42943531  0.32252691  0.76333110  1
  O2-  O171  1  0.43245588  0.81890643  0.10210272  1
  O2-  O172  1  0.42996292  0.82437858  0.42242674  1
  O2-  O173  1  0.42749502  0.81946319  0.76505006  1
  O2-  O174  1  0.92747799  0.31941370  0.09063787  1
  O2-  O175  1  0.92712948  0.31813787  0.43052519  1
  O2-  O176  1  0.93166473  0.31824752  0.76782941  1
  O2-  O177  1  0.92925606  0.82000934  0.09723130  1
  O2-  O178  1  0.93137273  0.82094664  0.43367493  1
  O2-  O179  1  0.92762417  0.82243820  0.75677490  1
  O2-  O180  1  0.32499458  0.07305329  0.23603303  1
  O2-  O181  1  0.32035247  0.07006154  0.56973744  1
  O2-  O182  1  0.32407923  0.07005950  0.90149258  1
  O2-  O183  1  0.31795052  0.56785336  0.23321145  1
  O2-  O184  1  0.31874577  0.56913215  0.56787353  1
  O2-  O185  1  0.32164828  0.57291307  0.91107015  1
  O2-  O186  1  0.82129402  0.06867673  0.24314125  1
  O2-  O187  1  0.82102223  0.06809065  0.57640691  1
  O2-  O188  1  0.82024819  0.07023504  0.91015509  1
  O2-  O189  1  0.81889651  0.57502408  0.24377744  1
  O2-  O190  1  0.82645413  0.57694427  0.57774012  1
  O2-  O191  1  0.82290250  0.57627379  0.91312698  1
  O2-  O192  1  0.04189686  0.08871668  0.26929930  1
  O2-  O193  1  0.03654324  0.08674858  0.59941905  1
  O2-  O194  1  0.03374725  0.08854909  0.92940309  1
  O2-  O195  1  0.04869396  0.58565392  0.26727326  1
  O2-  O196  1  0.03901715  0.59038543  0.59756420  1
  O2-  O197  1  0.03986272  0.58514690  0.93400538  1
  O2-  O198  1  0.54721253  0.08240792  0.27334533  1
  O2-  O199  1  0.55096742  0.07856161  0.59781378  1
  O2-  O200  1  0.55526771  0.07704373  0.93727659  1
  O2-  O201  1  0.53578236  0.58037508  0.26438065  1
  O2-  O202  1  0.54436546  0.57924218  0.60218457  1
  O2-  O203  1  0.54979574  0.58250657  0.94041156  1
  O2-  O204  1  0.16710450  0.20413139  0.27262042  1
  O2-  O205  1  0.16604600  0.19603399  0.60204846  1
  O2-  O206  1  0.16699227  0.20999478  0.93081038  1
  O2-  O207  1  0.16851966  0.70297678  0.26863896  1
  O2-  O208  1  0.16097103  0.70553996  0.60281582  1
  O2-  O209  1  0.16668963  0.69620493  0.93758705  1
  O2-  O210  1  0.66177788  0.20551606  0.27130420  1
  O2-  O211  1  0.67016186  0.20899514  0.59640968  1
  O2-  O212  1  0.67166856  0.20896683  0.93576301  1
  O2-  O213  1  0.66400920  0.70788423  0.26244058  1
  O2-  O214  1  0.66876401  0.70969444  0.59900285  1
  O2-  O215  1  0.66469631  0.70525802  0.93780802  1
  O2-  O216  1  0.08261774  0.46142605  0.06896732  1
  O2-  O217  1  0.07897326  0.45429313  0.39163564  1
  O2-  O218  1  0.08350828  0.46208260  0.72795555  1
  O2-  O219  1  0.07819696  0.96235510  0.06711432  1
  O2-  O220  1  0.08439284  0.95969907  0.39650116  1
  O2-  O221  1  0.07906192  0.96211427  0.73434026  1
  O2-  O222  1  0.58466822  0.46021132  0.07164014  1
  O2-  O223  1  0.58428415  0.46006908  0.40210038  1
  O2-  O224  1  0.58551524  0.45886580  0.73699165  1
  O2-  O225  1  0.58968381  0.95216053  0.06535117  1
  O2-  O226  1  0.58992254  0.95403858  0.39822681  1
  O2-  O227  1  0.58746185  0.94963253  0.72553175  1
  O2-  O228  1  0.20598803  0.33286673  0.06880619  1
  O2-  O229  1  0.19728814  0.33483272  0.39749014  1
  O2-  O230  1  0.19035018  0.33133366  0.71838454  1
  O2-  O231  1  0.19673532  0.82715440  0.06655457  1
  O2-  O232  1  0.19606896  0.83397520  0.39304849  1
  O2-  O233  1  0.19408383  0.82837059  0.73306222  1
  O2-  O234  1  0.71323910  0.33360612  0.07115105  1
  O2-  O235  1  0.71249600  0.33066576  0.40184273  1
  O2-  O236  1  0.71776465  0.33346648  0.73448948  1
  O2-  O237  1  0.71161900  0.83561828  0.06335010  1
  O2-  O238  1  0.71001894  0.83435077  0.39388271  1
  O2-  O239  1  0.71392820  0.83717291  0.73076450  1
  O2-  O240  1  0.45959473  0.40908900  0.27115488  1
  O2-  O241  1  0.46087651  0.41880925  0.59853944  1
  O2-  O242  1  0.46021059  0.41996858  0.93593220  1
  O2-  O243  1  0.45943581  0.91564206  0.27164204  1
  O2-  O244  1  0.45785707  0.91707367  0.59765750  1
  O2-  O245  1  0.46398919  0.91303490  0.93333832  1
  O2-  O246  1  0.94901797  0.42017781  0.26381797  1
  O2-  O247  1  0.95677428  0.41882012  0.59861948  1
  O2-  O248  1  0.94678767  0.42078908  0.94370720  1
  O2-  O249  1  0.95872962  0.91899395  0.26622221  1
  O2-  O250  1  0.95534768  0.91502300  0.60432554  1
  O2-  O251  1  0.95657620  0.91851953  0.92972512  1
  O2-  O252  1  0.33345721  0.29577981  0.27663314  1
  O2-  O253  1  0.32692152  0.29895268  0.59643260  1
  O2-  O254  1  0.32926829  0.30003377  0.93478055  1
  O2-  O255  1  0.33245411  0.80087458  0.27365481  1
  O2-  O256  1  0.32413655  0.79644451  0.60172773  1
  O2-  O257  1  0.32962497  0.79246254  0.93619410  1
  O2-  O258  1  0.83277046  0.28258860  0.26346766  1
  O2-  O259  1  0.83778680  0.28417332  0.59852829  1
  O2-  O260  1  0.83686066  0.29164707  0.93908377  1
  O2-  O261  1  0.83496845  0.79110847  0.26386810  1
  O2-  O262  1  0.83858818  0.79401666  0.60263736  1
  O2-  O263  1  0.83467149  0.78884126  0.92872860  1
  O2-  O264  1  0.42306886  0.04020871  0.06709725  1
  O2-  O265  1  0.41998660  0.04208484  0.40348217  1
  O2-  O266  1  0.42512498  0.04635340  0.73216907  1
  O2-  O267  1  0.41683182  0.54945552  0.06256509  1
  O2-  O268  1  0.41420289  0.53550169  0.40064188  1
  O2-  O269  1  0.41729982  0.54188607  0.73667621  1
  O2-  O270  1  0.91165004  0.04090815  0.06327416  1
  O2-  O271  1  0.91333489  0.04285393  0.39660672  1
  O2-  O272  1  0.91046736  0.04203226  0.73006402  1
  O2-  O273  1  0.91576379  0.55296702  0.06631063  1
  O2-  O274  1  0.91795209  0.55305032  0.39192728  1
  O2-  O275  1  0.91731209  0.54819265  0.72977448  1
  O2-  O276  1  0.29254409  0.16858585  0.06614878  1
  O2-  O277  1  0.28980428  0.16657542  0.40499366  1
  O2-  O278  1  0.29340635  0.17188578  0.73276385  1
  O2-  O279  1  0.29365373  0.66404208  0.06482049  1
  O2-  O280  1  0.29158188  0.66765520  0.40087457  1
  O2-  O281  1  0.28511741  0.66365663  0.73504918  1
  O2-  O282  1  0.79443507  0.16136882  0.06544815  1
  O2-  O283  1  0.79062982  0.15947368  0.39666636  1
  O2-  O284  1  0.79271093  0.16188468  0.73006715  1
  O2-  O285  1  0.79465277  0.66843364  0.06443046  1
  O2-  O286  1  0.79457097  0.66745472  0.39493268  1
  O2-  O287  1  0.79958102  0.66870742  0.72978585  1
