# generated using pymatgen
data_Ca2Al2SiO7
_symmetry_space_group_name_H-M   'P 1'
_cell_length_a   15.45921405
_cell_length_b   15.45931980
_cell_length_c   15.28520549
_cell_angle_alpha   90.00425865
_cell_angle_beta   90.00295081
_cell_angle_gamma   89.98812889
_symmetry_Int_Tables_number   1
_chemical_formula_structural   Ca2Al2SiO7
_chemical_formula_sum   'Ca48 Al48 Si24 O168'
_cell_volume   3652.99487162
_cell_formula_units_Z   24
loop_
 _symmetry_equiv_pos_site_id
 _symmetry_equiv_pos_as_xyz
  1  'x, y, z'
loop_
 _atom_type_symbol
 _atom_type_oxidation_number
  Ca2+  2.0
  Al0+  0.0
  Si0+  0.0
  O2-  -2.0
loop_
 _atom_site_type_symbol
 _atom_site_label
 _atom_site_symmetry_multiplicity
 _atom_site_fract_x
 _atom_site_fract_y
 _atom_site_fract_z
 _atom_site_occupancy
  Ca2+  Ca0  1  0.16369118  0.08500440  0.17080964  1
  Ca2+  Ca1  1  0.17078540  0.08143768  0.50468827  1
  Ca2+  Ca2  1  0.17157819  0.08159328  0.83599135  1
  Ca2+  Ca3  1  0.16052213  0.57269794  0.17056171  1
  Ca2+  Ca4  1  0.17282382  0.57344511  0.51195130  1
  Ca2+  Ca5  1  0.16432568  0.57830730  0.83898390  1
  Ca2+  Ca6  1  0.67500911  0.07664709  0.17244617  1
  Ca2+  Ca7  1  0.66358070  0.06630319  0.50615720  1
  Ca2+  Ca8  1  0.67230301  0.07417126  0.83887759  1
  Ca2+  Ca9  1  0.66481267  0.59096553  0.16448822  1
  Ca2+  Ca10  1  0.66342778  0.59221589  0.50325367  1
  Ca2+  Ca11  1  0.66783636  0.58495813  0.84154907  1
  Ca2+  Ca12  1  0.09114560  0.32552652  0.16158662  1
  Ca2+  Ca13  1  0.09416517  0.32928202  0.49496829  1
  Ca2+  Ca14  1  0.09272235  0.33182865  0.83259495  1
  Ca2+  Ca15  1  0.07630876  0.82779976  0.15842641  1
  Ca2+  Ca16  1  0.07485506  0.83024230  0.49735442  1
  Ca2+  Ca17  1  0.07617716  0.81727281  0.82616093  1
  Ca2+  Ca18  1  0.57737229  0.33962087  0.16227575  1
  Ca2+  Ca19  1  0.56622400  0.33494593  0.49608941  1
  Ca2+  Ca20  1  0.57898430  0.33538109  0.82636859  1
  Ca2+  Ca21  1  0.57717629  0.82891529  0.16476586  1
  Ca2+  Ca22  1  0.57836490  0.82853712  0.49542316  1
  Ca2+  Ca23  1  0.57979106  0.82504614  0.82626543  1
  Ca2+  Ca24  1  0.32532064  0.41790809  0.17277414  1
  Ca2+  Ca25  1  0.32902774  0.41910657  0.50858013  1
  Ca2+  Ca26  1  0.32867265  0.42541587  0.83159348  1
  Ca2+  Ca27  1  0.33703642  0.91383190  0.17019039  1
  Ca2+  Ca28  1  0.34324831  0.92234105  0.50827534  1
  Ca2+  Ca29  1  0.34300483  0.91857962  0.83430987  1
  Ca2+  Ca30  1  0.82788565  0.42480825  0.16487793  1
  Ca2+  Ca31  1  0.82980554  0.42024704  0.50481851  1
  Ca2+  Ca32  1  0.82364874  0.42440883  0.84585674  1
  Ca2+  Ca33  1  0.83151914  0.91765075  0.17466320  1
  Ca2+  Ca34  1  0.82480979  0.90366005  0.50338845  1
  Ca2+  Ca35  1  0.82928294  0.91328403  0.83487022  1
  Ca2+  Ca36  1  0.41662567  0.17452985  0.16609983  1
  Ca2+  Ca37  1  0.40636996  0.17691300  0.49957367  1
  Ca2+  Ca38  1  0.41400787  0.17297891  0.82598134  1
  Ca2+  Ca39  1  0.42472112  0.67689456  0.15938833  1
  Ca2+  Ca40  1  0.42526997  0.66906309  0.49612132  1
  Ca2+  Ca41  1  0.42562685  0.67199136  0.82382726  1
  Ca2+  Ca42  1  0.92744518  0.16382632  0.15908635  1
  Ca2+  Ca43  1  0.92523777  0.17003827  0.49339207  1
  Ca2+  Ca44  1  0.91962232  0.16431605  0.83442793  1
  Ca2+  Ca45  1  0.91765772  0.66935915  0.16245187  1
  Ca2+  Ca46  1  0.92017520  0.67597947  0.50155255  1
  Ca2+  Ca47  1  0.92451423  0.66005576  0.82897269  1
  Al0+  Al48  1  0.00215349  0.00098401  -0.00250699  1
  Al0+  Al49  1  0.00140422  0.00130901  0.32747430  1
  Al0+  Al50  1  0.00005155  0.00140481  0.66304455  1
  Al0+  Al51  1  -0.00235125  0.49790808  0.00649227  1
  Al0+  Al52  1  -0.00217559  0.49793260  0.34058431  1
  Al0+  Al53  1  -0.00119083  0.49706157  0.66597377  1
  Al0+  Al54  1  0.50000905  0.00416175  -0.00044023  1
  Al0+  Al55  1  0.50134639  0.00130239  0.33462987  1
  Al0+  Al56  1  0.50309618  -0.00012408  0.67571769  1
  Al0+  Al57  1  0.49706678  0.50161326  0.00014894  1
  Al0+  Al58  1  0.49992932  0.49999174  0.32493327  1
  Al0+  Al59  1  0.49755984  0.49835419  0.66205467  1
  Al0+  Al60  1  0.25051562  0.24904174  -0.00073212  1
  Al0+  Al61  1  0.24999843  0.24948804  0.32836928  1
  Al0+  Al62  1  0.25019542  0.24838289  0.67162999  1
  Al0+  Al63  1  0.24818010  0.75237530  -0.00707129  1
  Al0+  Al64  1  0.25004023  0.74893691  0.33147776  1
  Al0+  Al65  1  0.25046967  0.75009250  0.66238546  1
  Al0+  Al66  1  0.75022407  0.24897752  0.00950196  1
  Al0+  Al67  1  0.75137385  0.25147839  0.33594882  1
  Al0+  Al68  1  0.75153398  0.24825006  0.66495430  1
  Al0+  Al69  1  0.74768074  0.75115172  0.00214564  1
  Al0+  Al70  1  0.75163093  0.75049622  0.32955581  1
  Al0+  Al71  1  0.75078363  0.74922220  0.66698937  1
  Al0+  Al72  1  0.82040190  0.57316195  0.01598614  1
  Al0+  Al73  1  0.18084428  0.42931666  0.01509319  1
  Al0+  Al74  1  0.82311851  0.06908025  0.01436385  1
  Al0+  Al75  1  0.93015938  0.82120392  0.65288325  1
  Al0+  Al76  1  0.57074049  0.67817173  0.65137351  1
  Al0+  Al77  1  0.93166082  0.81953122  0.31851177  1
  Al0+  Al78  1  0.57150993  0.67970519  0.31593509  1
  Al0+  Al79  1  0.42855428  0.82448121  0.98297548  1
  Al0+  Al80  1  0.42922322  0.82427725  0.65180210  1
  Al0+  Al81  1  0.42941913  0.31968159  0.31820576  1
  Al0+  Al82  1  0.57032455  0.67940721  0.98275215  1
  Al0+  Al83  1  0.06942539  0.18222322  0.31960138  1
  Al0+  Al84  1  0.06802831  0.67595990  0.98843093  1
  Al0+  Al85  1  0.68120576  0.92984865  0.34738421  1
  Al0+  Al86  1  0.32249830  0.57368264  0.68087525  1
  Al0+  Al87  1  0.42901722  0.31807680  0.65466428  1
  Al0+  Al88  1  0.32007213  0.06850227  0.68065834  1
  Al0+  Al89  1  0.07289952  0.67454227  0.65093020  1
  Al0+  Al90  1  0.68163792  0.92759209  0.68217124  1
  Al0+  Al91  1  0.07179681  0.17931847  0.98312678  1
  Al0+  Al92  1  0.17821923  0.42914218  0.68339913  1
  Al0+  Al93  1  0.67488147  0.42942535  0.01485677  1
  Al0+  Al94  1  0.42716273  0.82420872  0.31867752  1
  Al0+  Al95  1  0.18049462  0.42876178  0.34761074  1
  Si0+  Si96  1  0.18006231  0.92936358  0.01390618  1
  Si0+  Si97  1  0.42881043  0.32028728  0.98430769  1
  Si0+  Si98  1  0.57393273  0.17837195  0.31786218  1
  Si0+  Si99  1  0.67844602  0.42666101  0.67778699  1
  Si0+  Si100  1  0.17434611  0.92742891  0.68219074  1
  Si0+  Si101  1  0.92780826  0.82282403  0.98454717  1
  Si0+  Si102  1  0.67700947  0.92992256  0.01868134  1
  Si0+  Si103  1  0.17741072  0.92755852  0.34599645  1
  Si0+  Si104  1  0.32133393  0.07154438  0.01717853  1
  Si0+  Si105  1  0.57521477  0.17781135  0.65123210  1
  Si0+  Si106  1  0.81944734  0.57079794  0.35134576  1
  Si0+  Si107  1  0.82504526  0.07256127  0.35130335  1
  Si0+  Si108  1  0.92679185  0.31980243  0.98471106  1
  Si0+  Si109  1  0.57311962  0.18094193  0.98625464  1
  Si0+  Si110  1  0.81939668  0.56902926  0.68035615  1
  Si0+  Si111  1  0.67677237  0.42801519  0.35020528  1
  Si0+  Si112  1  0.92455375  0.32438806  0.31534519  1
  Si0+  Si113  1  0.32008444  0.57551685  0.01695701  1
  Si0+  Si114  1  0.07174704  0.67515967  0.31841969  1
  Si0+  Si115  1  0.32327008  0.57236622  0.34846041  1
  Si0+  Si116  1  0.82405803  0.07420028  0.68272210  1
  Si0+  Si117  1  0.31996308  0.06974312  0.34657731  1
  Si0+  Si118  1  0.07083162  0.18065345  0.65189790  1
  Si0+  Si119  1  0.92616778  0.32034344  0.65207320  1
  O2-  O120  1  0.25341945  -0.00251463  0.05821073  1
  O2-  O121  1  0.25382431  -0.00652650  0.38773457  1
  O2-  O122  1  0.24934410  -0.01046181  0.72697557  1
  O2-  O123  1  0.25097939  0.50760225  0.06285250  1
  O2-  O124  1  0.25257727  0.50573487  0.39319003  1
  O2-  O125  1  0.24482019  0.50707439  0.73151599  1
  O2-  O126  1  0.75069817  -0.00641760  0.06276704  1
  O2-  O127  1  0.75571268  0.00543777  0.39584627  1
  O2-  O128  1  0.75790348  0.00310037  0.72600951  1
  O2-  O129  1  0.74435574  0.50404956  0.06521985  1
  O2-  O130  1  0.74661853  0.50017169  0.39275541  1
  O2-  O131  1  0.74659491  0.49913283  0.72110939  1
  O2-  O132  1  -0.00632036  0.25569659  0.27261666  1
  O2-  O133  1  -0.00016805  0.25177642  0.61046330  1
  O2-  O134  1  -0.00317974  0.25409433  0.93720216  1
  O2-  O135  1  0.00772419  0.74671736  0.27185659  1
  O2-  O136  1  0.00491305  0.75176184  0.60274486  1
  O2-  O137  1  -0.01023914  0.74751518  0.94185796  1
  O2-  O138  1  0.50851487  0.24912143  0.27163320  1
  O2-  O139  1  0.50447910  0.24410176  0.60686206  1
  O2-  O140  1  0.50625882  0.25538543  0.94344115  1
  O2-  O141  1  0.49733674  0.75101665  0.26872044  1
  O2-  O142  1  0.49780798  0.74938556  0.60167011  1
  O2-  O143  1  0.49906321  0.75165004  0.93322293  1
  O2-  O144  1  0.07250567  0.18010305  0.09616569  1
  O2-  O145  1  0.07029950  0.18238656  0.43317275  1
  O2-  O146  1  0.07005618  0.17963117  0.75685628  1
  O2-  O147  1  0.06823620  0.67971096  0.10190589  1
  O2-  O148  1  0.06941555  0.67615692  0.42365000  1
  O2-  O149  1  0.06654588  0.67206322  0.76471346  1
  O2-  O150  1  0.56933118  0.17863545  0.09137739  1
  O2-  O151  1  0.57214513  0.17879932  0.42335158  1
  O2-  O152  1  0.57884665  0.18271917  0.75710713  1
  O2-  O153  1  0.56871125  0.68192804  0.09609689  1
  O2-  O154  1  0.57090830  0.67957700  0.42938669  1
  O2-  O155  1  0.57323555  0.67746559  0.76449310  1
  O2-  O156  1  0.18143813  0.42868325  0.23442603  1
  O2-  O157  1  0.18152718  0.42542120  0.56960266  1
  O2-  O158  1  0.18401605  0.42779200  0.90245139  1
  O2-  O159  1  0.17516126  0.93043386  0.24082292  1
  O2-  O160  1  0.16904405  0.93463406  0.57645460  1
  O2-  O161  1  0.17803845  0.93236532  0.90915794  1
  O2-  O162  1  0.67915372  0.42504027  0.24567946  1
  O2-  O163  1  0.68223130  0.42406083  0.57260646  1
  O2-  O164  1  0.67800465  0.42602288  0.90067262  1
  O2-  O165  1  0.68325220  0.93367861  0.23425431  1
  O2-  O166  1  0.68222358  0.92865454  0.56891524  1
  O2-  O167  1  0.67703978  0.93264580  0.91312563  1
  O2-  O168  1  0.42735298  0.31629120  0.08961180  1
  O2-  O169  1  0.42787111  0.31700066  0.43127958  1
  O2-  O170  1  0.43142484  0.31706164  0.76797086  1
  O2-  O171  1  0.42993292  0.82527660  0.09680783  1
  O2-  O172  1  0.42913575  0.82676557  0.43149353  1
  O2-  O173  1  0.43542803  0.82571210  0.76488866  1
  O2-  O174  1  0.92731006  0.31726706  0.09023485  1
  O2-  O175  1  0.92188318  0.32276088  0.42141212  1
  O2-  O176  1  0.92023247  0.31844875  0.75657850  1
  O2-  O177  1  0.93260150  0.82546417  0.09031770  1
  O2-  O178  1  0.93214673  0.81806213  0.43133255  1
  O2-  O179  1  0.93033448  0.82006919  0.76655505  1
  O2-  O180  1  0.31851956  0.07177953  0.24123600  1
  O2-  O181  1  0.31554472  0.07262834  0.56713437  1
  O2-  O182  1  0.32063326  0.07403612  0.91229452  1
  O2-  O183  1  0.32163530  0.57108448  0.24268426  1
  O2-  O184  1  0.32502609  0.56691948  0.56706683  1
  O2-  O185  1  0.32054048  0.57265050  0.91170638  1
  O2-  O186  1  0.82477080  0.07160256  0.24562430  1
  O2-  O187  1  0.82320793  0.07960643  0.57745885  1
  O2-  O188  1  0.82062593  0.06841303  0.90100251  1
  O2-  O189  1  0.82197799  0.56924496  0.24667975  1
  O2-  O190  1  0.81986179  0.56698873  0.57492568  1
  O2-  O191  1  0.82219033  0.56860963  0.90201349  1
  O2-  O192  1  0.04049574  0.08622313  0.26327672  1
  O2-  O193  1  0.04357048  0.08998832  0.60187247  1
  O2-  O194  1  0.04108833  0.08309443  0.92842873  1
  O2-  O195  1  0.04020952  0.58197433  0.27463858  1
  O2-  O196  1  0.03859147  0.57760537  0.59738291  1
  O2-  O197  1  0.03869276  0.57805073  0.93643634  1
  O2-  O198  1  0.54535635  0.08689646  0.26981024  1
  O2-  O199  1  0.54993194  0.08330254  0.60935498  1
  O2-  O200  1  0.54148646  0.09167300  0.93635240  1
  O2-  O201  1  0.54693788  0.58064787  0.26275619  1
  O2-  O202  1  0.54492430  0.57896813  0.59799167  1
  O2-  O203  1  0.54324331  0.57912131  0.93249532  1
  O2-  O204  1  0.16461993  0.21240652  0.26298551  1
  O2-  O205  1  0.16219823  0.20939536  0.60482748  1
  O2-  O206  1  0.16873955  0.21054715  0.93000333  1
  O2-  O207  1  0.16687570  0.69470390  0.27354119  1
  O2-  O208  1  0.17225206  0.69740399  0.59856048  1
  O2-  O209  1  0.16228184  0.70964194  0.93244031  1
  O2-  O210  1  0.66952336  0.20113368  0.27411916  1
  O2-  O211  1  0.66757000  0.20332491  0.60211714  1
  O2-  O212  1  0.66692043  0.20394997  0.94111419  1
  O2-  O213  1  0.66943660  0.70948288  0.26386322  1
  O2-  O214  1  0.66973114  0.70676610  0.60005034  1
  O2-  O215  1  0.67102702  0.70585367  0.93279538  1
  O2-  O216  1  0.08237116  0.45325065  0.06874384  1
  O2-  O217  1  0.08155041  0.45253358  0.40134667  1
  O2-  O218  1  0.07619416  0.44961576  0.73330975  1
  O2-  O219  1  0.08981033  0.96089153  0.06278714  1
  O2-  O220  1  0.08832043  0.96266188  0.39485667  1
  O2-  O221  1  0.08407998  0.96156903  0.73091786  1
  O2-  O222  1  0.57519105  0.45427321  0.06731054  1
  O2-  O223  1  0.58318084  0.45457525  0.39456787  1
  O2-  O224  1  0.58527310  0.44981269  0.72310688  1
  O2-  O225  1  0.58578108  0.96426015  0.06474335  1
  O2-  O226  1  0.58493052  0.96307544  0.40174780  1
  O2-  O227  1  0.58877190  0.96161528  0.74067784  1
  O2-  O228  1  0.21648801  0.33281779  0.06762943  1
  O2-  O229  1  0.21468443  0.33157675  0.39892860  1
  O2-  O230  1  0.21141843  0.33235655  0.73673776  1
  O2-  O231  1  0.20383607  0.83673073  0.06193668  1
  O2-  O232  1  0.19700551  0.83315799  0.39180539  1
  O2-  O233  1  0.19081045  0.83046670  0.72330465  1
  O2-  O234  1  0.70495418  0.33239622  0.07093474  1
  O2-  O235  1  0.70518426  0.33661787  0.39947506  1
  O2-  O236  1  0.70873006  0.33551789  0.72593919  1
  O2-  O237  1  0.69701386  0.83504437  0.06316028  1
  O2-  O238  1  0.71469920  0.83323710  0.39937293  1
  O2-  O239  1  0.71513031  0.83232252  0.73736588  1
  O2-  O240  1  0.45736349  0.41529226  0.26194921  1
  O2-  O241  1  0.45957240  0.41211241  0.59668861  1
  O2-  O242  1  0.44971293  0.41418711  0.93924045  1
  O2-  O243  1  0.45629967  0.92342151  0.26640307  1
  O2-  O244  1  0.46185048  0.92391556  0.60230529  1
  O2-  O245  1  0.45693212  0.92502698  0.93380295  1
  O2-  O246  1  0.95007204  0.41871356  0.27192710  1
  O2-  O247  1  0.95073521  0.41175839  0.60295330  1
  O2-  O248  1  0.94940113  0.41452946  0.94081720  1
  O2-  O249  1  0.96074379  0.91651576  0.26459686  1
  O2-  O250  1  0.95366081  0.92122038  0.59933489  1
  O2-  O251  1  0.96013033  0.91313376  0.93642759  1
  O2-  O252  1  0.33641532  0.28283498  0.26167286  1
  O2-  O253  1  0.33328282  0.28273593  0.60132444  1
  O2-  O254  1  0.34094880  0.28354021  0.93617474  1
  O2-  O255  1  0.32692945  0.79884815  0.26610687  1
  O2-  O256  1  0.32694636  0.80816852  0.60228614  1
  O2-  O257  1  0.32830594  0.80223961  0.93179593  1
  O2-  O258  1  0.83070454  0.29989437  0.26924265  1
  O2-  O259  1  0.83681692  0.28998191  0.59963033  1
  O2-  O260  1  0.83310138  0.29134032  0.93971812  1
  O2-  O261  1  0.83695510  0.78757477  0.26306498  1
  O2-  O262  1  0.83439380  0.78644045  0.59908107  1
  O2-  O263  1  0.83090068  0.80536578  0.94367105  1
  O2-  O264  1  0.41452407  0.04863517  0.06494658  1
  O2-  O265  1  0.41327226  0.04947080  0.39428645  1
  O2-  O266  1  0.41793779  0.04612647  0.73675640  1
  O2-  O267  1  0.41265841  0.54767142  0.06381708  1
  O2-  O268  1  0.41701205  0.54323786  0.39208394  1
  O2-  O269  1  0.41844391  0.53579670  0.73482601  1
  O2-  O270  1  0.92123448  0.04039861  0.06696792  1
  O2-  O271  1  0.91944847  0.04677172  0.39571797  1
  O2-  O272  1  0.91897626  0.05151065  0.72747350  1
  O2-  O273  1  0.91537371  0.53959568  0.07357061  1
  O2-  O274  1  0.90920695  0.54064742  0.40225660  1
  O2-  O275  1  0.90972364  0.53746862  0.72807226  1
  O2-  O276  1  0.28924702  0.16140262  0.06595351  1
  O2-  O277  1  0.28527509  0.15934684  0.39409792  1
  O2-  O278  1  0.28421363  0.16192082  0.73811526  1
  O2-  O279  1  0.29508495  0.67049803  0.06028207  1
  O2-  O280  1  0.30124025  0.66732303  0.39385479  1
  O2-  O281  1  0.30309548  0.67549957  0.73025554  1
  O2-  O282  1  0.79245531  0.16391056  0.07185649  1
  O2-  O283  1  0.80247515  0.16804660  0.39584724  1
  O2-  O284  1  0.79560728  0.16641125  0.73157937  1
  O2-  O285  1  0.79597992  0.67301844  0.06888749  1
  O2-  O286  1  0.79188051  0.66287000  0.39752574  1
  O2-  O287  1  0.79478472  0.66041660  0.72863785  1
