# generated using pymatgen
data_Ca2Al2SiO7
_symmetry_space_group_name_H-M   'P 1'
_cell_length_a   15.47226603
_cell_length_b   15.46981309
_cell_length_c   15.29442895
_cell_angle_alpha   89.99043278
_cell_angle_beta   90.00931288
_cell_angle_gamma   89.97279304
_symmetry_Int_Tables_number   1
_chemical_formula_structural   Ca2Al2SiO7
_chemical_formula_sum   'Ca48 Al48 Si24 O168'
_cell_volume   3660.76791113
_cell_formula_units_Z   24
loop_
 _symmetry_equiv_pos_site_id
 _symmetry_equiv_pos_as_xyz
  1  'x, y, z'
loop_
 _atom_type_symbol
 _atom_type_oxidation_number
  Ca2+  2.0
  Al0+  0.0
  Si0+  0.0
  O2-  -2.0
loop_
 _atom_site_type_symbol
 _atom_site_label
 _atom_site_symmetry_multiplicity
 _atom_site_fract_x
 _atom_site_fract_y
 _atom_site_fract_z
 _atom_site_occupancy
  Ca2+  Ca0  1  0.15367353  0.07253315  0.16821622  1
  Ca2+  Ca1  1  0.16331795  0.08025171  0.50360167  1
  Ca2+  Ca2  1  0.17018549  0.08685625  0.84086612  1
  Ca2+  Ca3  1  0.16826086  0.58627896  0.17374810  1
  Ca2+  Ca4  1  0.16914119  0.58951492  0.50222584  1
  Ca2+  Ca5  1  0.16565168  0.57936409  0.84426452  1
  Ca2+  Ca6  1  0.67759225  0.08087651  0.17547813  1
  Ca2+  Ca7  1  0.67596516  0.07670843  0.50602937  1
  Ca2+  Ca8  1  0.66952415  0.07472652  0.83456182  1
  Ca2+  Ca9  1  0.67039757  0.58305980  0.17274475  1
  Ca2+  Ca10  1  0.66603308  0.58888158  0.50521926  1
  Ca2+  Ca11  1  0.66963411  0.58475844  0.83523146  1
  Ca2+  Ca12  1  0.07939040  0.32324723  0.15838920  1
  Ca2+  Ca13  1  0.07508499  0.31923784  0.49597759  1
  Ca2+  Ca14  1  0.08564893  0.32727098  0.82828452  1
  Ca2+  Ca15  1  0.08968353  0.82800288  0.16116589  1
  Ca2+  Ca16  1  0.08943930  0.82653544  0.49502574  1
  Ca2+  Ca17  1  0.08114316  0.82838660  0.83259126  1
  Ca2+  Ca18  1  0.57998955  0.33196131  0.16442660  1
  Ca2+  Ca19  1  0.57472502  0.33417923  0.49880231  1
  Ca2+  Ca20  1  0.57193299  0.32966129  0.82714262  1
  Ca2+  Ca21  1  0.57358580  0.83246920  0.16710128  1
  Ca2+  Ca22  1  0.57936950  0.82827625  0.49626197  1
  Ca2+  Ca23  1  0.58190096  0.82870243  0.82322799  1
  Ca2+  Ca24  1  0.32079883  0.42731650  0.16566074  1
  Ca2+  Ca25  1  0.33368944  0.42197623  0.50366789  1
  Ca2+  Ca26  1  0.32546035  0.42134907  0.84146677  1
  Ca2+  Ca27  1  0.32082159  0.91747086  0.17038244  1
  Ca2+  Ca28  1  0.32910635  0.91880896  0.50078092  1
  Ca2+  Ca29  1  0.32344741  0.92888029  0.84054435  1
  Ca2+  Ca30  1  0.83546842  0.40903700  0.17266355  1
  Ca2+  Ca31  1  0.83893850  0.41452546  0.50392904  1
  Ca2+  Ca32  1  0.83695813  0.41128929  0.83660819  1
  Ca2+  Ca33  1  0.84182551  0.92278328  0.17257142  1
  Ca2+  Ca34  1  0.83234724  0.91790614  0.50745637  1
  Ca2+  Ca35  1  0.83160665  0.90288577  0.83474953  1
  Ca2+  Ca36  1  0.41921030  0.16068605  0.15952989  1
  Ca2+  Ca37  1  0.40907245  0.17110431  0.50150830  1
  Ca2+  Ca38  1  0.40574687  0.16997149  0.82505648  1
  Ca2+  Ca39  1  0.41215136  0.66543334  0.16908538  1
  Ca2+  Ca40  1  0.42648671  0.67053128  0.48680394  1
  Ca2+  Ca41  1  0.42043269  0.66432358  0.82889152  1
  Ca2+  Ca42  1  0.92463382  0.17041941  0.16399670  1
  Ca2+  Ca43  1  0.92221254  0.16959143  0.49194208  1
  Ca2+  Ca44  1  0.93203095  0.17667928  0.82960474  1
  Ca2+  Ca45  1  0.93201802  0.67295492  0.15963546  1
  Ca2+  Ca46  1  0.92959526  0.67305353  0.50090993  1
  Ca2+  Ca47  1  0.93140154  0.67327743  0.83036451  1
  Al0+  Al48  1  -0.00265163  0.00194853  -0.00552407  1
  Al0+  Al49  1  0.00014089  0.00078817  0.34260570  1
  Al0+  Al50  1  -0.00096723  0.00030964  0.66445893  1
  Al0+  Al51  1  -0.00313256  0.50096225  -0.00072611  1
  Al0+  Al52  1  -0.00171056  0.49982029  0.32937979  1
  Al0+  Al53  1  0.00063643  0.50090623  0.66098777  1
  Al0+  Al54  1  0.50223754  -0.00232599  0.00207086  1
  Al0+  Al55  1  0.49928595  -0.00016834  0.33026148  1
  Al0+  Al56  1  0.50194042  0.00051053  0.67500532  1
  Al0+  Al57  1  0.50139141  0.49793993  0.00417189  1
  Al0+  Al58  1  0.50082571  0.49930488  0.33250383  1
  Al0+  Al59  1  0.50133577  0.49877061  0.66051944  1
  Al0+  Al60  1  0.25321039  0.25382321  0.00597279  1
  Al0+  Al61  1  0.24917681  0.25077636  0.32804707  1
  Al0+  Al62  1  0.24938629  0.25282167  0.65964076  1
  Al0+  Al63  1  0.25466526  0.75294849  -0.00006118  1
  Al0+  Al64  1  0.25241640  0.75134773  0.33555406  1
  Al0+  Al65  1  0.25307894  0.75215084  0.66660262  1
  Al0+  Al66  1  0.74758477  0.24774465  -0.00362299  1
  Al0+  Al67  1  0.74765079  0.24930003  0.33741884  1
  Al0+  Al68  1  0.74744799  0.25014050  0.66736917  1
  Al0+  Al69  1  0.74758337  0.74727463  0.00057372  1
  Al0+  Al70  1  0.74845753  0.74808351  0.33084859  1
  Al0+  Al71  1  0.75070782  0.74800642  0.66462489  1
  Al0+  Al72  1  0.31927641  0.56887917  0.34893076  1
  Al0+  Al73  1  0.32278755  0.57210290  0.01359004  1
  Al0+  Al74  1  0.42890271  0.32001181  0.65309993  1
  Al0+  Al75  1  0.92722646  0.32099162  0.65167843  1
  Al0+  Al76  1  0.31771026  0.07174391  0.67788163  1
  Al0+  Al77  1  0.56937474  0.67925790  0.65422397  1
  Al0+  Al78  1  0.42915173  0.82217625  0.31690492  1
  Al0+  Al79  1  0.92884654  0.82032492  0.65203167  1
  Al0+  Al80  1  0.17462435  0.43081603  0.01484231  1
  Al0+  Al81  1  0.07340268  0.18124188  0.98489413  1
  Al0+  Al82  1  0.92716671  0.82156375  0.98702766  1
  Al0+  Al83  1  0.18055642  0.93028606  0.34844138  1
  Al0+  Al84  1  0.92694078  0.31941281  0.31850501  1
  Al0+  Al85  1  0.57211824  0.67725104  0.31511396  1
  Al0+  Al86  1  0.07132569  0.68095060  0.32056019  1
  Al0+  Al87  1  0.07244928  0.17881086  0.65101083  1
  Al0+  Al88  1  0.92582949  0.32158740  0.98541397  1
  Al0+  Al89  1  0.68285989  0.92814541  0.68056019  1
  Al0+  Al90  1  0.07166055  0.17662123  0.31663597  1
  Al0+  Al91  1  0.07514298  0.68027218  0.65182306  1
  Al0+  Al92  1  0.07585909  0.67991391  0.98689175  1
  Al0+  Al93  1  0.17655659  0.93208825  0.01358781  1
  Al0+  Al94  1  0.32231269  0.07310071  0.01512252  1
  Al0+  Al95  1  0.81993103  0.06967508  0.34798227  1
  Si0+  Si96  1  0.82073456  0.56838887  0.68178084  1
  Si0+  Si97  1  0.67911875  0.42892614  0.35043300  1
  Si0+  Si98  1  0.42842157  0.32237979  0.31578273  1
  Si0+  Si99  1  0.82311284  0.07459499  0.68634595  1
  Si0+  Si100  1  0.43258162  0.32048682  0.98657388  1
  Si0+  Si101  1  0.18043115  0.43305193  0.67826521  1
  Si0+  Si102  1  0.57072088  0.17613689  0.98433538  1
  Si0+  Si103  1  0.68023474  0.42746981  0.01477804  1
  Si0+  Si104  1  0.17636891  0.92631712  0.68427614  1
  Si0+  Si105  1  0.67608133  0.92704811  0.34929901  1
  Si0+  Si106  1  0.56924013  0.67720498  0.98464229  1
  Si0+  Si107  1  0.81698494  0.07082487  0.01373259  1
  Si0+  Si108  1  0.82167915  0.57145538  0.34935871  1
  Si0+  Si109  1  0.56927577  0.17995969  0.31967511  1
  Si0+  Si110  1  0.17562642  0.42703578  0.35185702  1
  Si0+  Si111  1  0.32454010  0.57185844  0.67917802  1
  Si0+  Si112  1  0.43000039  0.82494413  0.65178779  1
  Si0+  Si113  1  0.43125197  0.82317891  0.98200421  1
  Si0+  Si114  1  0.32509230  0.07433762  0.34948624  1
  Si0+  Si115  1  0.81890045  0.57177773  0.01528866  1
  Si0+  Si116  1  0.67635582  0.42804456  0.68262882  1
  Si0+  Si117  1  0.92751321  0.82240222  0.32019366  1
  Si0+  Si118  1  0.67912377  0.92501869  0.01719701  1
  Si0+  Si119  1  0.57160995  0.17605560  0.65023189  1
  O2-  O120  1  0.24615621  0.00641180  0.06534352  1
  O2-  O121  1  0.25375245  0.00853123  0.39251076  1
  O2-  O122  1  0.24163945  -0.00023442  0.72608630  1
  O2-  O123  1  0.24091512  0.51037269  0.06265161  1
  O2-  O124  1  0.24369835  0.49611028  0.39763838  1
  O2-  O125  1  0.24850199  0.50702552  0.72137743  1
  O2-  O126  1  0.75228356  -0.00601221  0.05778269  1
  O2-  O127  1  0.74780631  -0.00831577  0.39362891  1
  O2-  O128  1  0.75912166  0.00041211  0.73005200  1
  O2-  O129  1  0.75486618  0.49362715  0.05739711  1
  O2-  O130  1  0.75035219  0.49979243  0.39163437  1
  O2-  O131  1  0.75156940  0.49445575  0.72460867  1
  O2-  O132  1  0.00107465  0.25093025  0.26828478  1
  O2-  O133  1  -0.00711075  0.24367825  0.60252999  1
  O2-  O134  1  0.00554750  0.25838880  0.93614375  1
  O2-  O135  1  -0.00364494  0.75546782  0.27464097  1
  O2-  O136  1  0.00817745  0.75716590  0.60183864  1
  O2-  O137  1  0.00360341  0.75315845  0.93888914  1
  O2-  O138  1  0.49498337  0.24611895  0.27485024  1
  O2-  O139  1  0.50175091  0.24332376  0.60591507  1
  O2-  O140  1  0.49483433  0.24206502  0.94321417  1
  O2-  O141  1  0.49990397  0.74865293  0.26574231  1
  O2-  O142  1  0.49408336  0.75222669  0.60738560  1
  O2-  O143  1  0.49850031  0.74725750  0.94145846  1
  O2-  O144  1  0.06769123  0.17808157  0.09794425  1
  O2-  O145  1  0.07070313  0.17765534  0.43009802  1
  O2-  O146  1  0.07697535  0.18449275  0.76441417  1
  O2-  O147  1  0.07264007  0.68100605  0.10051233  1
  O2-  O148  1  0.07013861  0.68137883  0.43346988  1
  O2-  O149  1  0.07405129  0.67633767  0.76507394  1
  O2-  O150  1  0.57386189  0.17866679  0.08974595  1
  O2-  O151  1  0.56962952  0.18208714  0.42448209  1
  O2-  O152  1  0.57241406  0.17827685  0.75605555  1
  O2-  O153  1  0.57083346  0.67717521  0.08920548  1
  O2-  O154  1  0.57184660  0.67780314  0.42867657  1
  O2-  O155  1  0.56785865  0.67798471  0.76799410  1
  O2-  O156  1  0.17777783  0.42791702  0.24644382  1
  O2-  O157  1  0.18305405  0.43325571  0.57335385  1
  O2-  O158  1  0.18081901  0.42858635  0.90044270  1
  O2-  O159  1  0.17918368  0.92961975  0.23561476  1
  O2-  O160  1  0.18088333  0.92279810  0.57891162  1
  O2-  O161  1  0.17992687  0.93165444  0.89995141  1
  O2-  O162  1  0.67835413  0.42696966  0.24490142  1
  O2-  O163  1  0.67270831  0.42943945  0.57783725  1
  O2-  O164  1  0.67596682  0.42935616  0.90984979  1
  O2-  O165  1  0.67534656  0.93048107  0.24339126  1
  O2-  O166  1  0.68177560  0.93042714  0.56756275  1
  O2-  O167  1  0.67697129  0.92476566  0.91215249  1
  O2-  O168  1  0.43951499  0.32276626  0.09151517  1
  O2-  O169  1  0.43131148  0.32350234  0.42100701  1
  O2-  O170  1  0.43082828  0.32158139  0.76639324  1
  O2-  O171  1  0.43479131  0.82717647  0.08655200  1
  O2-  O172  1  0.43332130  0.82330758  0.43090820  1
  O2-  O173  1  0.43194452  0.82356982  0.75756436  1
  O2-  O174  1  0.91845255  0.31350516  0.09802254  1
  O2-  O175  1  0.92547027  0.31692449  0.43185438  1
  O2-  O176  1  0.93017516  0.32201250  0.76495008  1
  O2-  O177  1  0.92243365  0.81847414  0.10065265  1
  O2-  O178  1  0.92598508  0.81873033  0.42549211  1
  O2-  O179  1  0.92704769  0.81285264  0.76522387  1
  O2-  O180  1  0.33075724  0.07190874  0.24460318  1
  O2-  O181  1  0.31918544  0.06958647  0.56488712  1
  O2-  O182  1  0.32451603  0.07037712  0.90128859  1
  O2-  O183  1  0.31876682  0.56628241  0.23611355  1
  O2-  O184  1  0.32693148  0.56877248  0.57434640  1
  O2-  O185  1  0.33035598  0.56514882  0.89962878  1
  O2-  O186  1  0.81653678  0.06987558  0.23425707  1
  O2-  O187  1  0.81726019  0.07707517  0.58090994  1
  O2-  O188  1  0.81027827  0.07403308  0.90921417  1
  O2-  O189  1  0.81950923  0.57151102  0.24417461  1
  O2-  O190  1  0.81846091  0.56793770  0.57662917  1
  O2-  O191  1  0.81295899  0.57513929  0.91037211  1
  O2-  O192  1  0.03751311  0.07811703  0.26792620  1
  O2-  O193  1  0.05203895  0.07741116  0.60238867  1
  O2-  O194  1  0.04036428  0.08527245  0.92997804  1
  O2-  O195  1  0.04012745  0.58454349  0.26716254  1
  O2-  O196  1  0.04114341  0.58469386  0.59694943  1
  O2-  O197  1  0.04380187  0.58188765  0.93494387  1
  O2-  O198  1  0.54727202  0.08751704  0.27082311  1
  O2-  O199  1  0.54801414  0.08176424  0.60600853  1
  O2-  O200  1  0.54936906  0.08220909  0.93857335  1
  O2-  O201  1  0.54493331  0.57760785  0.26397201  1
  O2-  O202  1  0.54195503  0.58326524  0.59834335  1
  O2-  O203  1  0.54299518  0.58402738  0.93863036  1
  O2-  O204  1  0.17133362  0.20120674  0.26444965  1
  O2-  O205  1  0.16602522  0.21482047  0.59380904  1
  O2-  O206  1  0.17512753  0.20784647  0.93751501  1
  O2-  O207  1  0.16817134  0.71136893  0.26933980  1
  O2-  O208  1  0.17581386  0.70438429  0.60069248  1
  O2-  O209  1  0.17544071  0.70451177  0.93443059  1
  O2-  O210  1  0.65866792  0.21278989  0.27054343  1
  O2-  O211  1  0.66352510  0.20459897  0.60305099  1
  O2-  O212  1  0.65818375  0.20990671  0.93325329  1
  O2-  O213  1  0.67071283  0.70461909  0.26157383  1
  O2-  O214  1  0.66517186  0.70953460  0.60024494  1
  O2-  O215  1  0.66026977  0.70592407  0.93649706  1
  O2-  O216  1  0.07297879  0.44888267  0.06524721  1
  O2-  O217  1  0.08077390  0.45159537  0.39526685  1
  O2-  O218  1  0.08776767  0.45797295  0.72509880  1
  O2-  O219  1  0.07566247  0.95680478  0.06448543  1
  O2-  O220  1  0.08472817  0.95768500  0.40566465  1
  O2-  O221  1  0.08011681  0.94574099  0.72663177  1
  O2-  O222  1  0.59154895  0.45917035  0.06632289  1
  O2-  O223  1  0.58757694  0.45728246  0.39797827  1
  O2-  O224  1  0.58632861  0.46081839  0.73171989  1
  O2-  O225  1  0.58957761  0.95728721  0.06603136  1
  O2-  O226  1  0.58415193  0.95743634  0.39575924  1
  O2-  O227  1  0.58802378  0.96062979  0.73887041  1
  O2-  O228  1  0.21292938  0.33733372  0.07178070  1
  O2-  O229  1  0.20477018  0.33317021  0.39599748  1
  O2-  O230  1  0.21310021  0.34262102  0.72513279  1
  O2-  O231  1  0.21053048  0.83453389  0.06541093  1
  O2-  O232  1  0.21650404  0.83626354  0.40435310  1
  O2-  O233  1  0.20746156  0.83463591  0.73260487  1
  O2-  O234  1  0.70311180  0.33362103  0.06142201  1
  O2-  O235  1  0.70412946  0.33745166  0.39987708  1
  O2-  O236  1  0.69725266  0.33451342  0.73062075  1
  O2-  O237  1  0.70204659  0.83212536  0.06442423  1
  O2-  O238  1  0.69732761  0.83112291  0.39216907  1
  O2-  O239  1  0.71151329  0.83024186  0.73479731  1
  O2-  O240  1  0.46516881  0.40998973  0.26729687  1
  O2-  O241  1  0.46506622  0.41306434  0.59573802  1
  O2-  O242  1  0.47022754  0.40849631  0.93759764  1
  O2-  O243  1  0.45968106  0.91961882  0.26197544  1
  O2-  O244  1  0.46151143  0.91683475  0.60673839  1
  O2-  O245  1  0.46607861  0.91235339  0.93324949  1
  O2-  O246  1  0.94878352  0.41981382  0.26765199  1
  O2-  O247  1  0.95810445  0.41774268  0.59777033  1
  O2-  O248  1  0.94023763  0.42470951  0.93815339  1
  O2-  O249  1  0.95195141  0.91720589  0.27813155  1
  O2-  O250  1  0.94309273  0.92317374  0.60465259  1
  O2-  O251  1  0.94615227  0.92111823  0.93330707  1
  O2-  O252  1  0.33540989  0.30161840  0.26917554  1
  O2-  O253  1  0.33504801  0.29188678  0.59402734  1
  O2-  O254  1  0.33875476  0.30192697  0.94070613  1
  O2-  O255  1  0.33212445  0.79211468  0.26427886  1
  O2-  O256  1  0.33549179  0.80433999  0.60688837  1
  O2-  O257  1  0.33948090  0.80026054  0.93346100  1
  O2-  O258  1  0.82670014  0.29018598  0.26870840  1
  O2-  O259  1  0.82417123  0.30120504  0.60421305  1
  O2-  O260  1  0.82884831  0.28732812  0.93042950  1
  O2-  O261  1  0.83341807  0.79877111  0.27406807  1
  O2-  O262  1  0.83391521  0.78414578  0.59708981  1
  O2-  O263  1  0.82910350  0.78661272  0.93490681  1
  O2-  O264  1  0.42128357  0.04010433  0.06655706  1
  O2-  O265  1  0.41828729  0.04722216  0.39696813  1
  O2-  O266  1  0.41520819  0.04429805  0.73316271  1
  O2-  O267  1  0.41729152  0.53263387  0.06932838  1
  O2-  O268  1  0.41706285  0.53488319  0.40030883  1
  O2-  O269  1  0.41463407  0.53783835  0.72665922  1
  O2-  O270  1  0.91022632  0.04817102  0.05922358  1
  O2-  O271  1  0.91446257  0.04198019  0.40589936  1
  O2-  O272  1  0.91918777  0.05558014  0.72899418  1
  O2-  O273  1  0.91242710  0.55288516  0.06188751  1
  O2-  O274  1  0.91307476  0.54383441  0.39751439  1
  O2-  O275  1  0.91338929  0.54210981  0.72822192  1
  O2-  O276  1  0.30804683  0.17481943  0.06535876  1
  O2-  O277  1  0.30287372  0.17077660  0.39153086  1
  O2-  O278  1  0.28977515  0.17125886  0.72873562  1
  O2-  O279  1  0.30916688  0.67481386  0.06135006  1
  O2-  O280  1  0.29378372  0.66666930  0.40230286  1
  O2-  O281  1  0.30543309  0.66656096  0.72476542  1
  O2-  O282  1  0.78035385  0.15923864  0.06300111  1
  O2-  O283  1  0.78174935  0.16361425  0.40320747  1
  O2-  O284  1  0.78978269  0.16588482  0.73345874  1
  O2-  O285  1  0.78180933  0.65886615  0.06634173  1
  O2-  O286  1  0.79179493  0.66287496  0.39687199  1
  O2-  O287  1  0.78747343  0.65761107  0.73015317  1
