# generated using pymatgen
data_Ca2Al2SiO7
_symmetry_space_group_name_H-M   'P 1'
_cell_length_a   15.45952127
_cell_length_b   15.45896108
_cell_length_c   15.28465317
_cell_angle_alpha   89.99519556
_cell_angle_beta   89.99712915
_cell_angle_gamma   90.01559699
_symmetry_Int_Tables_number   1
_chemical_formula_structural   Ca2Al2SiO7
_chemical_formula_sum   'Ca48 Al48 Si24 O168'
_cell_volume   3652.85064160
_cell_formula_units_Z   24
loop_
 _symmetry_equiv_pos_site_id
 _symmetry_equiv_pos_as_xyz
  1  'x, y, z'
loop_
 _atom_type_symbol
 _atom_type_oxidation_number
  Ca2+  2.0
  Al0+  0.0
  Si0+  0.0
  O2-  -2.0
loop_
 _atom_site_type_symbol
 _atom_site_label
 _atom_site_symmetry_multiplicity
 _atom_site_fract_x
 _atom_site_fract_y
 _atom_site_fract_z
 _atom_site_occupancy
  Ca2+  Ca0  1  0.17424581  0.07667643  0.17076675  1
  Ca2+  Ca1  1  0.17197223  0.07358387  0.50663741  1
  Ca2+  Ca2  1  0.17912887  0.08309729  0.83592977  1
  Ca2+  Ca3  1  0.16837941  0.58149395  0.17872504  1
  Ca2+  Ca4  1  0.17602947  0.57858619  0.50009994  1
  Ca2+  Ca5  1  0.17295691  0.58237462  0.83202265  1
  Ca2+  Ca6  1  0.67087018  0.09005985  0.17073418  1
  Ca2+  Ca7  1  0.66657795  0.07939276  0.50746250  1
  Ca2+  Ca8  1  0.67135364  0.07815269  0.83396600  1
  Ca2+  Ca9  1  0.67075388  0.57760772  0.17511398  1
  Ca2+  Ca10  1  0.67220568  0.57949830  0.51064289  1
  Ca2+  Ca11  1  0.66144960  0.58380890  0.83376281  1
  Ca2+  Ca12  1  0.07566585  0.33993331  0.16070785  1
  Ca2+  Ca13  1  0.08680494  0.34035285  0.49825947  1
  Ca2+  Ca14  1  0.07747676  0.33601785  0.82717195  1
  Ca2+  Ca15  1  0.08894319  0.82166910  0.16642240  1
  Ca2+  Ca16  1  0.08260399  0.82738029  0.48960187  1
  Ca2+  Ca17  1  0.08268474  0.82785308  0.83152342  1
  Ca2+  Ca18  1  0.57987837  0.33261315  0.16421784  1
  Ca2+  Ca19  1  0.58501393  0.33279804  0.49803717  1
  Ca2+  Ca20  1  0.57073679  0.33485433  0.82509785  1
  Ca2+  Ca21  1  0.57734519  0.82370294  0.16332952  1
  Ca2+  Ca22  1  0.57482692  0.83183941  0.49994041  1
  Ca2+  Ca23  1  0.58406251  0.82453249  0.82317808  1
  Ca2+  Ca24  1  0.32872696  0.42372700  0.17448900  1
  Ca2+  Ca25  1  0.32951991  0.42665552  0.50934050  1
  Ca2+  Ca26  1  0.33506171  0.41612719  0.83372485  1
  Ca2+  Ca27  1  0.33163985  0.91771710  0.17367671  1
  Ca2+  Ca28  1  0.33613691  0.91638471  0.50417909  1
  Ca2+  Ca29  1  0.34644826  0.92878080  0.83310559  1
  Ca2+  Ca30  1  0.82866245  0.41975627  0.17528842  1
  Ca2+  Ca31  1  0.82095738  0.42619845  0.50235546  1
  Ca2+  Ca32  1  0.82598999  0.41781283  0.83196775  1
  Ca2+  Ca33  1  0.83439516  0.92326630  0.16753856  1
  Ca2+  Ca34  1  0.82393446  0.92223381  0.51201230  1
  Ca2+  Ca35  1  0.82828741  0.92441443  0.83404771  1
  Ca2+  Ca36  1  0.42126221  0.17237884  0.16129236  1
  Ca2+  Ca37  1  0.41944996  0.17206352  0.49798389  1
  Ca2+  Ca38  1  0.40635082  0.17523676  0.82665323  1
  Ca2+  Ca39  1  0.41506412  0.67016185  0.16388039  1
  Ca2+  Ca40  1  0.41159678  0.67200223  0.49859314  1
  Ca2+  Ca41  1  0.42806777  0.67013741  0.82100883  1
  Ca2+  Ca42  1  0.91838093  0.17456830  0.15662950  1
  Ca2+  Ca43  1  0.91590039  0.16661271  0.49637416  1
  Ca2+  Ca44  1  0.91022470  0.16807447  0.83025012  1
  Ca2+  Ca45  1  0.92969597  0.65713832  0.16442860  1
  Ca2+  Ca46  1  0.91988692  0.65667870  0.49489478  1
  Ca2+  Ca47  1  0.92344487  0.65949016  0.82777178  1
  Al0+  Al48  1  0.00036187  -0.00113662  0.00496843  1
  Al0+  Al49  1  0.00127242  0.00041380  0.33460015  1
  Al0+  Al50  1  0.00137899  -0.00002498  0.67005345  1
  Al0+  Al51  1  -0.00048897  0.49924612  -0.01040188  1
  Al0+  Al52  1  -0.00045832  0.49939756  0.33533291  1
  Al0+  Al53  1  -0.00091939  0.49777636  0.67105990  1
  Al0+  Al54  1  0.50124767  0.00010441  0.00754692  1
  Al0+  Al55  1  0.50183101  0.00104001  0.32244178  1
  Al0+  Al56  1  0.50049759  0.00014664  0.67168047  1
  Al0+  Al57  1  0.49928186  0.49969199  -0.00501042  1
  Al0+  Al58  1  0.49991620  0.49966729  0.33972182  1
  Al0+  Al59  1  0.49938392  0.50012987  0.66435662  1
  Al0+  Al60  1  0.24864486  0.24949349  0.00361923  1
  Al0+  Al61  1  0.25007499  0.24824974  0.33399993  1
  Al0+  Al62  1  0.24743172  0.24833233  0.66696693  1
  Al0+  Al63  1  0.25018480  0.75020312  -0.00664643  1
  Al0+  Al64  1  0.24848965  0.75143813  0.33193526  1
  Al0+  Al65  1  0.24837120  0.74802615  0.66694044  1
  Al0+  Al66  1  0.74925502  0.24993778  -0.00056000  1
  Al0+  Al67  1  0.75092291  0.25050312  0.33231186  1
  Al0+  Al68  1  0.75078725  0.25302746  0.67157776  1
  Al0+  Al69  1  0.75128768  0.74981521  -0.00085498  1
  Al0+  Al70  1  0.75055382  0.75370756  0.33467910  1
  Al0+  Al71  1  0.75233196  0.75080652  0.67021757  1
  Al0+  Al72  1  0.32176852  0.57281727  0.34660256  1
  Al0+  Al73  1  0.67669986  0.42992136  0.68389556  1
  Al0+  Al74  1  0.92786698  0.31983494  0.98444195  1
  Al0+  Al75  1  0.57349717  0.67889121  0.64950447  1
  Al0+  Al76  1  0.82315655  0.07227828  0.68066618  1
  Al0+  Al77  1  0.07154645  0.67879406  0.98380817  1
  Al0+  Al78  1  0.32138349  0.07230113  0.01669321  1
  Al0+  Al79  1  0.17990098  0.42806603  0.68367657  1
  Al0+  Al80  1  0.32115167  0.57226521  0.68362195  1
  Al0+  Al81  1  0.82043958  0.57294154  0.34537298  1
  Al0+  Al82  1  0.17832770  0.42658148  0.34590621  1
  Al0+  Al83  1  0.67832001  0.42747317  0.34693116  1
  Al0+  Al84  1  0.42848151  0.82253214  0.65212953  1
  Al0+  Al85  1  0.18002807  0.93027327  0.34623856  1
  Al0+  Al86  1  0.32043385  0.06905054  0.67760017  1
  Al0+  Al87  1  0.06744534  0.67972499  0.32151037  1
  Al0+  Al88  1  0.81959477  0.07134374  0.01584912  1
  Al0+  Al89  1  0.67791693  0.92905469  0.68135147  1
  Al0+  Al90  1  0.42820487  0.31877684  0.98754067  1
  Al0+  Al91  1  0.82083393  0.57148432  0.68363214  1
  Al0+  Al92  1  0.57113838  0.67954353  0.98790488  1
  Al0+  Al93  1  0.57129466  0.18121359  0.31999966  1
  Al0+  Al94  1  0.42943469  0.81942565  0.31832430  1
  Al0+  Al95  1  0.42624716  0.32019723  0.65145268  1
  Si0+  Si96  1  0.67744452  0.43054369  0.01496440  1
  Si0+  Si97  1  0.93208077  0.31814676  0.31944854  1
  Si0+  Si98  1  0.67786731  0.93053814  0.34651900  1
  Si0+  Si99  1  0.42839483  0.82328374  0.98348784  1
  Si0+  Si100  1  0.82098933  0.07113587  0.34691850  1
  Si0+  Si101  1  0.82262671  0.57041644  0.01462616  1
  Si0+  Si102  1  0.32489560  0.07074505  0.34935560  1
  Si0+  Si103  1  0.57320708  0.17978261  0.65263131  1
  Si0+  Si104  1  0.07001666  0.17790264  0.65070332  1
  Si0+  Si105  1  0.57459598  0.67691546  0.31848107  1
  Si0+  Si106  1  0.07105101  0.17654106  0.98402557  1
  Si0+  Si107  1  0.17739458  0.43091281  0.01417517  1
  Si0+  Si108  1  0.17703144  0.92611186  0.68399136  1
  Si0+  Si109  1  0.92618781  0.82612655  0.31647450  1
  Si0+  Si110  1  0.17883374  0.92608539  0.01752795  1
  Si0+  Si111  1  0.93132487  0.82294972  0.65223094  1
  Si0+  Si112  1  0.57192521  0.17694674  0.98261261  1
  Si0+  Si113  1  0.92843296  0.32059874  0.64883854  1
  Si0+  Si114  1  0.67909661  0.92573206  0.02059922  1
  Si0+  Si115  1  0.92853921  0.82330799  0.98304514  1
  Si0+  Si116  1  0.07264850  0.17497959  0.31781436  1
  Si0+  Si117  1  0.42617578  0.32364349  0.31773337  1
  Si0+  Si118  1  0.06908624  0.67725677  0.64960052  1
  Si0+  Si119  1  0.32130809  0.57099182  0.01341778  1
  O2-  O120  1  0.24888324  -0.00597659  0.06105710  1
  O2-  O121  1  0.25510538  0.00365257  0.39380843  1
  O2-  O122  1  0.25076801  -0.01001191  0.72641180  1
  O2-  O123  1  0.24801588  0.50222135  0.05636671  1
  O2-  O124  1  0.25460318  0.49449492  0.39402649  1
  O2-  O125  1  0.25309721  0.49716692  0.73559148  1
  O2-  O126  1  0.74518139  -0.00240136  0.06500967  1
  O2-  O127  1  0.75150487  -0.00075649  0.38845176  1
  O2-  O128  1  0.75016710  0.00178033  0.73038248  1
  O2-  O129  1  0.75021365  0.50067865  0.05680765  1
  O2-  O130  1  0.74210788  0.50792554  0.39470411  1
  O2-  O131  1  0.74454759  0.50542695  0.73532659  1
  O2-  O132  1  0.00578351  0.25011188  0.27597991  1
  O2-  O133  1  -0.00217532  0.24729350  0.60724790  1
  O2-  O134  1  0.00084163  0.24261092  0.93834806  1
  O2-  O135  1  -0.00918273  0.75289962  0.27337159  1
  O2-  O136  1  -0.00102841  0.74989276  0.60839927  1
  O2-  O137  1  -0.00409832  0.75362139  0.93840136  1
  O2-  O138  1  0.49704636  0.25674952  0.27355333  1
  O2-  O139  1  0.50442916  0.24753309  0.60707680  1
  O2-  O140  1  0.49916042  0.24089341  0.93904324  1
  O2-  O141  1  0.50187184  0.74114697  0.27304090  1
  O2-  O142  1  0.49866667  0.74930247  0.60092905  1
  O2-  O143  1  0.49844107  0.75595339  0.94122279  1
  O2-  O144  1  0.06988826  0.17891510  0.09006858  1
  O2-  O145  1  0.06881309  0.16997154  0.42258863  1
  O2-  O146  1  0.06973630  0.17726749  0.75579017  1
  O2-  O147  1  0.07133486  0.67736243  0.09710193  1
  O2-  O148  1  0.06583540  0.68117221  0.43435346  1
  O2-  O149  1  0.06818615  0.67905638  0.75512144  1
  O2-  O150  1  0.57333972  0.18130240  0.08856161  1
  O2-  O151  1  0.57138485  0.17843352  0.43288489  1
  O2-  O152  1  0.57324137  0.18047433  0.75821586  1
  O2-  O153  1  0.56955274  0.67882155  0.10155606  1
  O2-  O154  1  0.57882363  0.68199304  0.42301121  1
  O2-  O155  1  0.57264403  0.68239117  0.76362368  1
  O2-  O156  1  0.17609513  0.42916960  0.23145900  1
  O2-  O157  1  0.17922804  0.43064856  0.57021179  1
  O2-  O158  1  0.17761387  0.43013814  0.90961026  1
  O2-  O159  1  0.18014610  0.93221205  0.23293909  1
  O2-  O160  1  0.17189487  0.92970246  0.57849626  1
  O2-  O161  1  0.17645783  0.92694894  0.91208248  1
  O2-  O162  1  0.68243004  0.42580402  0.23233294  1
  O2-  O163  1  0.68268947  0.42569533  0.57055141  1
  O2-  O164  1  0.67688953  0.43121755  0.91047742  1
  O2-  O165  1  0.68005048  0.93060701  0.24137793  1
  O2-  O166  1  0.67886910  0.93230700  0.56697690  1
  O2-  O167  1  0.68029577  0.92572217  0.91546306  1
  O2-  O168  1  0.43079973  0.32089485  0.10088375  1
  O2-  O169  1  0.42340476  0.31973950  0.42275943  1
  O2-  O170  1  0.42502524  0.31563934  0.76495291  1
  O2-  O171  1  0.42642117  0.82057236  0.08942661  1
  O2-  O172  1  0.43166816  0.82379715  0.43065093  1
  O2-  O173  1  0.43137815  0.82342177  0.76598486  1
  O2-  O174  1  0.93040623  0.32147734  0.09836434  1
  O2-  O175  1  0.93093028  0.31475996  0.42431446  1
  O2-  O176  1  0.92961631  0.31964174  0.75404960  1
  O2-  O177  1  0.92903911  0.82379328  0.08872792  1
  O2-  O178  1  0.92842129  0.83193552  0.42172132  1
  O2-  O179  1  0.93599997  0.82586963  0.75735579  1
  O2-  O180  1  0.32212499  0.07042549  0.24350397  1
  O2-  O181  1  0.31747394  0.06940088  0.56451195  1
  O2-  O182  1  0.31879409  0.07222596  0.90360388  1
  O2-  O183  1  0.31963160  0.57215498  0.23167782  1
  O2-  O184  1  0.31593189  0.57477973  0.57030910  1
  O2-  O185  1  0.32112604  0.56985513  0.90894895  1
  O2-  O186  1  0.82096886  0.07179516  0.24174701  1
  O2-  O187  1  0.82406530  0.06958124  0.56641165  1
  O2-  O188  1  0.81838088  0.06931612  0.90340098  1
  O2-  O189  1  0.82279049  0.56780273  0.23095900  1
  O2-  O190  1  0.82358416  0.56751438  0.57013991  1
  O2-  O191  1  0.82272651  0.56956108  0.91008854  1
  O2-  O192  1  0.04037742  0.08603290  0.26670604  1
  O2-  O193  1  0.04268639  0.08528265  0.60317171  1
  O2-  O194  1  0.04863269  0.08114068  0.94057029  1
  O2-  O195  1  0.03701523  0.58269559  0.26590124  1
  O2-  O196  1  0.03808804  0.58534072  0.60491919  1
  O2-  O197  1  0.03954710  0.58456345  0.92689714  1
  O2-  O198  1  0.54218297  0.08703359  0.25969470  1
  O2-  O199  1  0.54764550  0.08565419  0.60800846  1
  O2-  O200  1  0.55171917  0.07981737  0.94235865  1
  O2-  O201  1  0.55421407  0.58044550  0.27561926  1
  O2-  O202  1  0.54911989  0.57911861  0.59901549  1
  O2-  O203  1  0.53921799  0.58466994  0.93243336  1
  O2-  O204  1  0.16647088  0.19697025  0.27143108  1
  O2-  O205  1  0.15997806  0.20606541  0.60063990  1
  O2-  O206  1  0.16398903  0.20453477  0.93878372  1
  O2-  O207  1  0.16228080  0.71314322  0.26536096  1
  O2-  O208  1  0.16099561  0.70423996  0.60319392  1
  O2-  O209  1  0.16688925  0.71077493  0.92764041  1
  O2-  O210  1  0.66832269  0.21192272  0.26436845  1
  O2-  O211  1  0.66730371  0.20577685  0.60660014  1
  O2-  O212  1  0.66433676  0.20467281  0.93645268  1
  O2-  O213  1  0.66674290  0.70762736  0.26966575  1
  O2-  O214  1  0.67349620  0.70901690  0.59974453  1
  O2-  O215  1  0.66907623  0.70773374  0.93516872  1
  O2-  O216  1  0.08448781  0.46017190  0.05915146  1
  O2-  O217  1  0.08174799  0.45724178  0.40003156  1
  O2-  O218  1  0.08204545  0.45802589  0.73646567  1
  O2-  O219  1  0.08581791  0.95111979  0.06541781  1
  O2-  O220  1  0.08380160  0.96218755  0.40131720  1
  O2-  O221  1  0.08707797  0.95816335  0.73393270  1
  O2-  O222  1  0.58624346  0.46025168  0.06296887  1
  O2-  O223  1  0.57746674  0.44294163  0.39755325  1
  O2-  O224  1  0.57660453  0.45260194  0.73436956  1
  O2-  O225  1  0.58481907  0.94799145  0.06691265  1
  O2-  O226  1  0.58713092  0.96315796  0.39175961  1
  O2-  O227  1  0.58205240  0.95749230  0.73838322  1
  O2-  O228  1  0.20226369  0.33858913  0.06217587  1
  O2-  O229  1  0.19807171  0.32498164  0.39655915  1
  O2-  O230  1  0.20274246  0.32776801  0.73478154  1
  O2-  O231  1  0.20600185  0.83177978  0.06222360  1
  O2-  O232  1  0.20758539  0.83407289  0.40029188  1
  O2-  O233  1  0.19554399  0.83086912  0.72797825  1
  O2-  O234  1  0.70480961  0.33793042  0.06101340  1
  O2-  O235  1  0.71656289  0.33249678  0.40088099  1
  O2-  O236  1  0.71036441  0.33392072  0.73913999  1
  O2-  O237  1  0.70909016  0.83330433  0.06787605  1
  O2-  O238  1  0.70247052  0.83907951  0.39542426  1
  O2-  O239  1  0.71026178  0.83336201  0.73617824  1
  O2-  O240  1  0.44921814  0.41859833  0.27255326  1
  O2-  O241  1  0.45334276  0.41763753  0.59903401  1
  O2-  O242  1  0.46063467  0.41377480  0.93223795  1
  O2-  O243  1  0.46302912  0.91383855  0.26048829  1
  O2-  O244  1  0.45774946  0.92199797  0.60042092  1
  O2-  O245  1  0.45446789  0.91882384  0.94199344  1
  O2-  O246  1  0.95805396  0.41012817  0.27132418  1
  O2-  O247  1  0.96028874  0.41143602  0.60218527  1
  O2-  O248  1  0.96017707  0.41354759  0.92712817  1
  O2-  O249  1  0.95725604  0.91773673  0.26766845  1
  O2-  O250  1  0.96137350  0.91410783  0.60349761  1
  O2-  O251  1  0.95649196  0.91666877  0.93718205  1
  O2-  O252  1  0.33314050  0.29577680  0.26974354  1
  O2-  O253  1  0.33062647  0.28492026  0.59790155  1
  O2-  O254  1  0.32984332  0.28986054  0.93592894  1
  O2-  O255  1  0.33239519  0.79099787  0.26340085  1
  O2-  O256  1  0.32739518  0.79645021  0.60192179  1
  O2-  O257  1  0.33519852  0.80050098  0.93627615  1
  O2-  O258  1  0.84215819  0.28711767  0.26980466  1
  O2-  O259  1  0.83631455  0.29345192  0.60181189  1
  O2-  O260  1  0.83100489  0.28938404  0.93137146  1
  O2-  O261  1  0.83090816  0.80709540  0.27063447  1
  O2-  O262  1  0.83800393  0.80020792  0.60646117  1
  O2-  O263  1  0.83461663  0.79954026  0.93771949  1
  O2-  O264  1  0.41920995  0.04561038  0.07092380  1
  O2-  O265  1  0.41906655  0.04331796  0.39152570  1
  O2-  O266  1  0.41666142  0.04483498  0.73513677  1
  O2-  O267  1  0.41216483  0.54065976  0.06136360  1
  O2-  O268  1  0.42121553  0.55247329  0.39957950  1
  O2-  O269  1  0.42101290  0.54741526  0.73299955  1
  O2-  O270  1  0.91720794  0.04146241  0.07010797  1
  O2-  O271  1  0.91335542  0.04552993  0.39368176  1
  O2-  O272  1  0.92048723  0.04217108  0.73543091  1
  O2-  O273  1  0.91476266  0.53869213  0.05958121  1
  O2-  O274  1  0.91513477  0.53723733  0.40003997  1
  O2-  O275  1  0.91641728  0.53575211  0.73791978  1
  O2-  O276  1  0.28652419  0.16701594  0.07300089  1
  O2-  O277  1  0.30076793  0.16493308  0.39395826  1
  O2-  O278  1  0.28179650  0.16184281  0.73342247  1
  O2-  O279  1  0.29519036  0.66507093  0.05758335  1
  O2-  O280  1  0.28687203  0.66855154  0.39907724  1
  O2-  O281  1  0.28809347  0.66925559  0.73801698  1
  O2-  O282  1  0.78907561  0.16875001  0.06997234  1
  O2-  O283  1  0.79263355  0.16205130  0.39457881  1
  O2-  O284  1  0.79732507  0.17059031  0.73294664  1
  O2-  O285  1  0.79907834  0.66382133  0.06099512  1
  O2-  O286  1  0.80369807  0.67539391  0.39471291  1
  O2-  O287  1  0.80410443  0.67282056  0.73446053  1
