# generated using pymatgen
data_Ca2Al2SiO7
_symmetry_space_group_name_H-M   'P 1'
_cell_length_a   15.45874255
_cell_length_b   15.45969586
_cell_length_c   15.28402132
_cell_angle_alpha   89.98610166
_cell_angle_beta   89.99356149
_cell_angle_gamma   89.98614922
_symmetry_Int_Tables_number   1
_chemical_formula_structural   Ca2Al2SiO7
_chemical_formula_sum   'Ca48 Al48 Si24 O168'
_cell_volume   3652.68917107
_cell_formula_units_Z   24
loop_
 _symmetry_equiv_pos_site_id
 _symmetry_equiv_pos_as_xyz
  1  'x, y, z'
loop_
 _atom_type_symbol
 _atom_type_oxidation_number
  Ca2+  2.0
  Al0+  0.0
  Si0+  0.0
  O2-  -2.0
loop_
 _atom_site_type_symbol
 _atom_site_label
 _atom_site_symmetry_multiplicity
 _atom_site_fract_x
 _atom_site_fract_y
 _atom_site_fract_z
 _atom_site_occupancy
  Ca2+  Ca0  1  0.16829717  0.08666411  0.16941917  1
  Ca2+  Ca1  1  0.17391445  0.09220737  0.50506598  1
  Ca2+  Ca2  1  0.16729522  0.08103834  0.83807831  1
  Ca2+  Ca3  1  0.16734777  0.58305195  0.16939794  1
  Ca2+  Ca4  1  0.16565377  0.57922891  0.50715289  1
  Ca2+  Ca5  1  0.16446647  0.58559585  0.83943107  1
  Ca2+  Ca6  1  0.67477808  0.08235951  0.17797083  1
  Ca2+  Ca7  1  0.67577709  0.08864111  0.50127205  1
  Ca2+  Ca8  1  0.67978572  0.08840693  0.83678312  1
  Ca2+  Ca9  1  0.67144513  0.57477534  0.18127370  1
  Ca2+  Ca10  1  0.67192592  0.58422264  0.50276851  1
  Ca2+  Ca11  1  0.66836416  0.58686228  0.83176795  1
  Ca2+  Ca12  1  0.06972868  0.32044462  0.16445341  1
  Ca2+  Ca13  1  0.07547881  0.32092291  0.49414246  1
  Ca2+  Ca14  1  0.07782336  0.31955180  0.83160077  1
  Ca2+  Ca15  1  0.08481493  0.82972928  0.15854615  1
  Ca2+  Ca16  1  0.08180939  0.82727617  0.50087228  1
  Ca2+  Ca17  1  0.08984791  0.82480887  0.83143392  1
  Ca2+  Ca18  1  0.58662497  0.32731944  0.16667457  1
  Ca2+  Ca19  1  0.57982487  0.33034952  0.49420277  1
  Ca2+  Ca20  1  0.57134007  0.33357463  0.83076427  1
  Ca2+  Ca21  1  0.58363426  0.83360391  0.16678236  1
  Ca2+  Ca22  1  0.58938779  0.82787494  0.49436291  1
  Ca2+  Ca23  1  0.57231169  0.83235635  0.82503286  1
  Ca2+  Ca24  1  0.33261823  0.41261353  0.16854011  1
  Ca2+  Ca25  1  0.33232720  0.41471034  0.50744343  1
  Ca2+  Ca26  1  0.33490115  0.41452795  0.83779679  1
  Ca2+  Ca27  1  0.32649093  0.91686323  0.17033298  1
  Ca2+  Ca28  1  0.33659210  0.92939398  0.50469219  1
  Ca2+  Ca29  1  0.33211061  0.91695376  0.83794159  1
  Ca2+  Ca30  1  0.83421513  0.41796929  0.17653308  1
  Ca2+  Ca31  1  0.83077432  0.42091363  0.49968112  1
  Ca2+  Ca32  1  0.83740091  0.42051686  0.83576359  1
  Ca2+  Ca33  1  0.83061414  0.93007574  0.17411011  1
  Ca2+  Ca34  1  0.82780148  0.92590191  0.50110433  1
  Ca2+  Ca35  1  0.83650841  0.92811365  0.83613802  1
  Ca2+  Ca36  1  0.42259220  0.16544800  0.16686742  1
  Ca2+  Ca37  1  0.41575938  0.16744242  0.49342518  1
  Ca2+  Ca38  1  0.40919723  0.17643933  0.82633638  1
  Ca2+  Ca39  1  0.42609247  0.67280087  0.16112414  1
  Ca2+  Ca40  1  0.43058237  0.67455229  0.49823577  1
  Ca2+  Ca41  1  0.42011951  0.68136404  0.82501277  1
  Ca2+  Ca42  1  0.91418091  0.17177361  0.16014472  1
  Ca2+  Ca43  1  0.92329985  0.16276152  0.49030043  1
  Ca2+  Ca44  1  0.92401437  0.15986310  0.82989839  1
  Ca2+  Ca45  1  0.91901958  0.66686903  0.16289976  1
  Ca2+  Ca46  1  0.91514182  0.65932754  0.49662051  1
  Ca2+  Ca47  1  0.92697564  0.66431120  0.82573077  1
  Al0+  Al48  1  0.00100070  -0.00137010  0.00635294  1
  Al0+  Al49  1  0.00263628  -0.00453940  0.33321775  1
  Al0+  Al50  1  0.00168936  -0.00253635  0.66601729  1
  Al0+  Al51  1  0.00156911  0.49833804  -0.00512327  1
  Al0+  Al52  1  0.00223800  0.49798779  0.33315210  1
  Al0+  Al53  1  -0.00053362  0.49796605  0.66754346  1
  Al0+  Al54  1  0.50121310  0.00017127  -0.00440336  1
  Al0+  Al55  1  0.49692790  0.00051650  0.33532420  1
  Al0+  Al56  1  0.49932904  0.00328384  0.66976176  1
  Al0+  Al57  1  0.50113512  0.49963312  -0.00236587  1
  Al0+  Al58  1  0.49929301  0.50284986  0.33306275  1
  Al0+  Al59  1  0.49855590  0.50095139  0.66092080  1
  Al0+  Al60  1  0.24907183  0.25094131  -0.00419237  1
  Al0+  Al61  1  0.24748213  0.25075142  0.33237204  1
  Al0+  Al62  1  0.24774833  0.25036998  0.66419751  1
  Al0+  Al63  1  0.25250771  0.75024666  -0.00176527  1
  Al0+  Al64  1  0.25045020  0.75021212  0.33520136  1
  Al0+  Al65  1  0.25044091  0.74952935  0.65661237  1
  Al0+  Al66  1  0.74939797  0.25339784  -0.00100461  1
  Al0+  Al67  1  0.74812013  0.25220611  0.33480815  1
  Al0+  Al68  1  0.74862588  0.25277030  0.67440824  1
  Al0+  Al69  1  0.75137424  0.74980134  0.00002223  1
  Al0+  Al70  1  0.75143066  0.74983981  0.33378227  1
  Al0+  Al71  1  0.75097472  0.74977312  0.67085224  1
  Al0+  Al72  1  0.57270368  0.68126769  0.65122526  1
  Al0+  Al73  1  0.32037421  0.07240351  0.68156855  1
  Al0+  Al74  1  0.31720724  0.07094337  0.34517160  1
  Al0+  Al75  1  0.43079741  0.82129996  0.98734359  1
  Al0+  Al76  1  0.18191403  0.92806384  0.01309109  1
  Al0+  Al77  1  0.56954302  0.17881841  0.32197262  1
  Al0+  Al78  1  0.82278410  0.57009742  0.34695433  1
  Al0+  Al79  1  0.42972206  0.32016602  0.98783260  1
  Al0+  Al80  1  0.07169165  0.17542467  0.31760272  1
  Al0+  Al81  1  0.67783417  0.92939445  0.34708815  1
  Al0+  Al82  1  0.92640632  0.32113521  0.98289630  1
  Al0+  Al83  1  0.42818539  0.31967784  0.65221994  1
  Al0+  Al84  1  0.06970456  0.67684738  0.65178667  1
  Al0+  Al85  1  0.06931895  0.17616769  0.98458601  1
  Al0+  Al86  1  0.67578774  0.42817787  0.34921747  1
  Al0+  Al87  1  0.81983988  0.07131574  0.01448632  1
  Al0+  Al88  1  0.07035713  0.68004471  0.98812901  1
  Al0+  Al89  1  0.82226053  0.07261163  0.34747906  1
  Al0+  Al90  1  0.82097621  0.57040338  0.68262860  1
  Al0+  Al91  1  0.82213613  0.07127090  0.68044614  1
  Al0+  Al92  1  0.06798427  0.17725846  0.65244506  1
  Al0+  Al93  1  0.57265833  0.68027991  0.31816603  1
  Al0+  Al94  1  0.42851033  0.82550750  0.64889461  1
  Al0+  Al95  1  0.92814815  0.31990573  0.32047693  1
  Si0+  Si96  1  0.32273577  0.07474087  0.01609264  1
  Si0+  Si97  1  0.67799556  0.92796326  0.68466151  1
  Si0+  Si98  1  0.42644271  0.32352757  0.31738585  1
  Si0+  Si99  1  0.92615631  0.32126992  0.65018244  1
  Si0+  Si100  1  0.57258556  0.17771116  0.98293705  1
  Si0+  Si101  1  0.57408293  0.17996907  0.65171431  1
  Si0+  Si102  1  0.32033661  0.57107889  0.68117968  1
  Si0+  Si103  1  0.32119337  0.57347417  0.34938235  1
  Si0+  Si104  1  0.92945126  0.81961801  0.31780635  1
  Si0+  Si105  1  0.07252986  0.67824138  0.31841229  1
  Si0+  Si106  1  0.17925447  0.42954228  0.68350705  1
  Si0+  Si107  1  0.18123819  0.43072236  0.34863966  1
  Si0+  Si108  1  0.17784580  0.92331374  0.35276280  1
  Si0+  Si109  1  0.32174236  0.57036991  0.01407171  1
  Si0+  Si110  1  0.17981442  0.92585633  0.68283698  1
  Si0+  Si111  1  0.92830655  0.82138127  0.65000209  1
  Si0+  Si112  1  0.42743813  0.82194529  0.31552119  1
  Si0+  Si113  1  0.92687979  0.82191074  0.98385404  1
  Si0+  Si114  1  0.67706883  0.43226668  0.01526921  1
  Si0+  Si115  1  0.67476487  0.42967364  0.68648775  1
  Si0+  Si116  1  0.82338501  0.57031273  0.01419868  1
  Si0+  Si117  1  0.57374620  0.67740472  0.98372673  1
  Si0+  Si118  1  0.17906621  0.42846197  0.01557048  1
  Si0+  Si119  1  0.67632969  0.92702586  0.01563709  1
  O2-  O120  1  0.25507207  0.00463872  0.05981218  1
  O2-  O121  1  0.24157508  -0.00221303  0.39370284  1
  O2-  O122  1  0.24877339  -0.00590835  0.72719621  1
  O2-  O123  1  0.25140574  0.49908341  0.05783959  1
  O2-  O124  1  0.25296607  0.50026251  0.39218430  1
  O2-  O125  1  0.24935407  0.50165119  0.72641586  1
  O2-  O126  1  0.74395401  -0.00330608  0.05927720  1
  O2-  O127  1  0.74683648  0.00391032  0.39781964  1
  O2-  O128  1  0.74584578  -0.00187627  0.72838909  1
  O2-  O129  1  0.75033124  0.50189200  0.05629056  1
  O2-  O130  1  0.74911756  0.50010674  0.39722430  1
  O2-  O131  1  0.74458916  0.49778972  0.73062025  1
  O2-  O132  1  -0.00804141  0.24034418  0.27004614  1
  O2-  O133  1  -0.01250314  0.24603376  0.60658801  1
  O2-  O134  1  -0.00612383  0.24442386  0.93395808  1
  O2-  O135  1  0.00155561  0.74837181  0.27621495  1
  O2-  O136  1  -0.00714476  0.74865921  0.60488910  1
  O2-  O137  1  -0.00493888  0.75264662  0.93954949  1
  O2-  O138  1  0.49695394  0.25629582  0.27443006  1
  O2-  O139  1  0.50204464  0.24468643  0.60688070  1
  O2-  O140  1  0.49925436  0.24208191  0.93945607  1
  O2-  O141  1  0.49836902  0.75543473  0.27106347  1
  O2-  O142  1  0.50554587  0.75775361  0.60083988  1
  O2-  O143  1  0.50899011  0.75010356  0.94095652  1
  O2-  O144  1  0.07078774  0.17995160  0.09775924  1
  O2-  O145  1  0.07400021  0.18120386  0.43125002  1
  O2-  O146  1  0.06904596  0.17809124  0.76543889  1
  O2-  O147  1  0.06955927  0.67959576  0.10165115  1
  O2-  O148  1  0.07376559  0.67823256  0.42334846  1
  O2-  O149  1  0.07117494  0.67854404  0.76501039  1
  O2-  O150  1  0.57288759  0.17851083  0.08859021  1
  O2-  O151  1  0.56647848  0.17938423  0.43495774  1
  O2-  O152  1  0.57531472  0.18355039  0.75761284  1
  O2-  O153  1  0.57223465  0.67519577  0.08926204  1
  O2-  O154  1  0.57079041  0.68069714  0.43069638  1
  O2-  O155  1  0.56886678  0.68157388  0.76558223  1
  O2-  O156  1  0.18250812  0.43324266  0.24320063  1
  O2-  O157  1  0.18067563  0.43132592  0.57806205  1
  O2-  O158  1  0.17999526  0.42976653  0.91046522  1
  O2-  O159  1  0.18166479  0.91489283  0.24738830  1
  O2-  O160  1  0.17874753  0.92563353  0.57729214  1
  O2-  O161  1  0.18498526  0.92424615  0.90021097  1
  O2-  O162  1  0.67422779  0.43114236  0.23485000  1
  O2-  O163  1  0.67411584  0.42795732  0.58146925  1
  O2-  O164  1  0.67285114  0.43532379  0.91036086  1
  O2-  O165  1  0.68114723  0.92994046  0.23295984  1
  O2-  O166  1  0.68023714  0.92701657  0.57934121  1
  O2-  O167  1  0.67696569  0.92612275  0.91012840  1
  O2-  O168  1  0.43160350  0.32237355  0.10066496  1
  O2-  O169  1  0.42408933  0.32243949  0.42286210  1
  O2-  O170  1  0.42882863  0.32049544  0.76566022  1
  O2-  O171  1  0.42984300  0.81766957  0.10040536  1
  O2-  O172  1  0.42478831  0.81884146  0.42050855  1
  O2-  O173  1  0.42698309  0.82075219  0.76305466  1
  O2-  O174  1  0.92785419  0.32392706  0.09614947  1
  O2-  O175  1  0.93392044  0.32458868  0.43384433  1
  O2-  O176  1  0.93044838  0.32313252  0.75578950  1
  O2-  O177  1  0.92561891  0.81839729  0.08958812  1
  O2-  O178  1  0.93090257  0.81976085  0.42279033  1
  O2-  O179  1  0.93145841  0.82203148  0.75582469  1
  O2-  O180  1  0.31756690  0.06929813  0.23175168  1
  O2-  O181  1  0.31740793  0.07443443  0.56849098  1
  O2-  O182  1  0.32075892  0.07538844  0.91056283  1
  O2-  O183  1  0.31869470  0.57533720  0.24377116  1
  O2-  O184  1  0.31829057  0.56819933  0.57594691  1
  O2-  O185  1  0.32092803  0.56975774  0.90898319  1
  O2-  O186  1  0.82096465  0.07009966  0.23370519  1
  O2-  O187  1  0.82179500  0.07038155  0.56784631  1
  O2-  O188  1  0.81935690  0.06861896  0.90095248  1
  O2-  O189  1  0.82391452  0.56932958  0.23259663  1
  O2-  O190  1  0.82272209  0.56678658  0.57013051  1
  O2-  O191  1  0.82292772  0.57022223  0.90921156  1
  O2-  O192  1  0.05680304  0.07198698  0.27069498  1
  O2-  O193  1  0.04486864  0.07855359  0.59968049  1
  O2-  O194  1  0.04515478  0.07535430  0.93474360  1
  O2-  O195  1  0.04720651  0.58609730  0.27077906  1
  O2-  O196  1  0.04069643  0.57918780  0.59904469  1
  O2-  O197  1  0.04236794  0.58390453  0.93264375  1
  O2-  O198  1  0.53588945  0.08359303  0.26578051  1
  O2-  O199  1  0.55397611  0.08446266  0.60934014  1
  O2-  O200  1  0.55436069  0.08296848  0.93670646  1
  O2-  O201  1  0.53774162  0.58468110  0.26338737  1
  O2-  O202  1  0.53950065  0.58478039  0.59796107  1
  O2-  O203  1  0.54380623  0.58618300  0.93596109  1
  O2-  O204  1  0.16633934  0.21433394  0.26291593  1
  O2-  O205  1  0.16137423  0.21666109  0.59852227  1
  O2-  O206  1  0.16649675  0.20927956  0.93146565  1
  O2-  O207  1  0.16463410  0.70689775  0.27122914  1
  O2-  O208  1  0.16469107  0.70706207  0.59481440  1
  O2-  O209  1  0.16707959  0.71011904  0.93429719  1
  O2-  O210  1  0.66560152  0.20863143  0.26647270  1
  O2-  O211  1  0.66667703  0.21005639  0.60593978  1
  O2-  O212  1  0.66299652  0.21063699  0.93509935  1
  O2-  O213  1  0.66971969  0.70896598  0.26386913  1
  O2-  O214  1  0.67372331  0.70452358  0.60190680  1
  O2-  O215  1  0.66922145  0.69871746  0.93935727  1
  O2-  O216  1  0.08827332  0.45972121  0.06308910  1
  O2-  O217  1  0.09148571  0.46110667  0.39781321  1
  O2-  O218  1  0.08780082  0.45673382  0.73120781  1
  O2-  O219  1  0.08474501  0.95261772  0.06915753  1
  O2-  O220  1  0.08244487  0.94140512  0.39691034  1
  O2-  O221  1  0.08611997  0.94978192  0.72949670  1
  O2-  O222  1  0.58653933  0.46160788  0.06494166  1
  O2-  O223  1  0.57679204  0.45761227  0.40112266  1
  O2-  O224  1  0.58088713  0.45868608  0.73160119  1
  O2-  O225  1  0.58180155  0.95065304  0.06122713  1
  O2-  O226  1  0.57741369  0.95077175  0.39757877  1
  O2-  O227  1  0.58395840  0.95285891  0.73039266  1
  O2-  O228  1  0.20851844  0.33750009  0.06353856  1
  O2-  O229  1  0.20823011  0.33940363  0.39675210  1
  O2-  O230  1  0.20973239  0.33899578  0.73112993  1
  O2-  O231  1  0.21567233  0.83206008  0.06901098  1
  O2-  O232  1  0.20820879  0.83209984  0.40229041  1
  O2-  O233  1  0.20646658  0.83079839  0.72642730  1
  O2-  O234  1  0.70230187  0.33932041  0.06123351  1
  O2-  O235  1  0.70119214  0.33049574  0.40379892  1
  O2-  O236  1  0.69906941  0.33715957  0.73606433  1
  O2-  O237  1  0.70192972  0.83248661  0.06126691  1
  O2-  O238  1  0.71163647  0.83283812  0.40012048  1
  O2-  O239  1  0.70402773  0.83538742  0.73314697  1
  O2-  O240  1  0.44752974  0.41876183  0.27274311  1
  O2-  O241  1  0.45645618  0.41643678  0.59791450  1
  O2-  O242  1  0.46264174  0.41605025  0.93203867  1
  O2-  O243  1  0.44919375  0.91603856  0.26974615  1
  O2-  O244  1  0.45158591  0.92709550  0.60124448  1
  O2-  O245  1  0.45615802  0.91867509  0.93172970  1
  O2-  O246  1  0.96641806  0.41549407  0.26520920  1
  O2-  O247  1  0.95958114  0.41173993  0.60327211  1
  O2-  O248  1  0.96181177  0.41679495  0.92833010  1
  O2-  O249  1  0.95836722  0.90985035  0.26774049  1
  O2-  O250  1  0.95918205  0.91173128  0.60075986  1
  O2-  O251  1  0.95409686  0.91511360  0.93963025  1
  O2-  O252  1  0.33384599  0.29589301  0.27020077  1
  O2-  O253  1  0.33147454  0.29096020  0.59813135  1
  O2-  O254  1  0.33236332  0.29527622  0.93262533  1
  O2-  O255  1  0.33456694  0.79073416  0.26938455  1
  O2-  O256  1  0.33327276  0.79206080  0.59344027  1
  O2-  O257  1  0.33756383  0.78461729  0.93118588  1
  O2-  O258  1  0.82702507  0.30235647  0.26961128  1
  O2-  O259  1  0.82851782  0.30464879  0.61059651  1
  O2-  O260  1  0.82561543  0.30163652  0.93115320  1
  O2-  O261  1  0.83927927  0.79148362  0.26800047  1
  O2-  O262  1  0.83318528  0.79979938  0.60706690  1
  O2-  O263  1  0.83333190  0.79783795  0.93632618  1
  O2-  O264  1  0.41865999  0.05060505  0.05830738  1
  O2-  O265  1  0.41243940  0.04014514  0.40115085  1
  O2-  O266  1  0.41890303  0.04936140  0.73640725  1
  O2-  O267  1  0.41373986  0.54195786  0.06151429  1
  O2-  O268  1  0.41312299  0.54831348  0.39651011  1
  O2-  O269  1  0.41212971  0.54313607  0.72833659  1
  O2-  O270  1  0.91541789  0.03977624  0.06939295  1
  O2-  O271  1  0.92066795  0.03861183  0.39796247  1
  O2-  O272  1  0.91796621  0.03531534  0.73386075  1
  O2-  O273  1  0.91549779  0.54132257  0.06048932  1
  O2-  O274  1  0.92203554  0.54164709  0.39913740  1
  O2-  O275  1  0.91766892  0.53688073  0.73679640  1
  O2-  O276  1  0.29630516  0.16840876  0.06199674  1
  O2-  O277  1  0.28806938  0.16863449  0.39888070  1
  O2-  O278  1  0.28459825  0.16839473  0.73477759  1
  O2-  O279  1  0.29257762  0.66069905  0.06322962  1
  O2-  O280  1  0.29004621  0.66319720  0.39839360  1
  O2-  O281  1  0.29177490  0.66411486  0.72578759  1
  O2-  O282  1  0.78883559  0.16978452  0.06466730  1
  O2-  O283  1  0.79710908  0.17159583  0.39922767  1
  O2-  O284  1  0.79265193  0.16815620  0.73595717  1
  O2-  O285  1  0.79959487  0.66416690  0.06024903  1
  O2-  O286  1  0.79694585  0.66887232  0.39900635  1
  O2-  O287  1  0.79460418  0.66807320  0.73809574  1
