# generated using pymatgen
data_Ca2Al2SiO7
_symmetry_space_group_name_H-M   'P 1'
_cell_length_a   15.46843873
_cell_length_b   15.46556184
_cell_length_c   15.28991767
_cell_angle_alpha   90.00170568
_cell_angle_beta   90.01470504
_cell_angle_gamma   89.97683490
_symmetry_Int_Tables_number   1
_chemical_formula_structural   Ca2Al2SiO7
_chemical_formula_sum   'Ca48 Al48 Si24 O168'
_cell_volume   3657.77746536
_cell_formula_units_Z   24
loop_
 _symmetry_equiv_pos_site_id
 _symmetry_equiv_pos_as_xyz
  1  'x, y, z'
loop_
 _atom_type_symbol
 _atom_type_oxidation_number
  Ca2+  2.0
  Al0+  0.0
  Si0+  0.0
  O2-  -2.0
loop_
 _atom_site_type_symbol
 _atom_site_label
 _atom_site_symmetry_multiplicity
 _atom_site_fract_x
 _atom_site_fract_y
 _atom_site_fract_z
 _atom_site_occupancy
  Ca2+  Ca0  1  0.16787521  0.08849792  0.17097281  1
  Ca2+  Ca1  1  0.15643316  0.07288259  0.50056391  1
  Ca2+  Ca2  1  0.16512657  0.07745285  0.84115340  1
  Ca2+  Ca3  1  0.16166029  0.57118603  0.16792950  1
  Ca2+  Ca4  1  0.16821192  0.58071625  0.50683696  1
  Ca2+  Ca5  1  0.17454495  0.58231547  0.84233815  1
  Ca2+  Ca6  1  0.66729414  0.07958495  0.16634532  1
  Ca2+  Ca7  1  0.66700211  0.07729571  0.50315353  1
  Ca2+  Ca8  1  0.67313833  0.07991520  0.84982097  1
  Ca2+  Ca9  1  0.66742019  0.58435875  0.16704266  1
  Ca2+  Ca10  1  0.66797717  0.58341913  0.50711752  1
  Ca2+  Ca11  1  0.66623356  0.58638866  0.83924665  1
  Ca2+  Ca12  1  0.08532474  0.32687526  0.15746194  1
  Ca2+  Ca13  1  0.08173332  0.33082596  0.49214474  1
  Ca2+  Ca14  1  0.07834584  0.33216326  0.83656521  1
  Ca2+  Ca15  1  0.09575152  0.82138107  0.16441429  1
  Ca2+  Ca16  1  0.09173724  0.82573025  0.49603183  1
  Ca2+  Ca17  1  0.08522881  0.82465870  0.82436599  1
  Ca2+  Ca18  1  0.56896210  0.32853533  0.15694170  1
  Ca2+  Ca19  1  0.56876444  0.33375072  0.49647294  1
  Ca2+  Ca20  1  0.57055249  0.32768092  0.83261183  1
  Ca2+  Ca21  1  0.58863709  0.83177703  0.15853377  1
  Ca2+  Ca22  1  0.58486288  0.82871126  0.49658058  1
  Ca2+  Ca23  1  0.58502169  0.82520085  0.83243152  1
  Ca2+  Ca24  1  0.32573440  0.41465504  0.16716490  1
  Ca2+  Ca25  1  0.32984910  0.41745683  0.50403854  1
  Ca2+  Ca26  1  0.33271726  0.42324306  0.84127061  1
  Ca2+  Ca27  1  0.32990269  0.92676044  0.16780563  1
  Ca2+  Ca28  1  0.31973476  0.91678534  0.50452827  1
  Ca2+  Ca29  1  0.32818335  0.92295641  0.83778940  1
  Ca2+  Ca30  1  0.83561486  0.41467729  0.16680004  1
  Ca2+  Ca31  1  0.83296568  0.41669171  0.50741070  1
  Ca2+  Ca32  1  0.83576878  0.41268583  0.84009220  1
  Ca2+  Ca33  1  0.82364185  0.91984708  0.16634839  1
  Ca2+  Ca34  1  0.83215840  0.91252868  0.50454353  1
  Ca2+  Ca35  1  0.82989301  0.91903527  0.84197536  1
  Ca2+  Ca36  1  0.41467036  0.17565695  0.15540136  1
  Ca2+  Ca37  1  0.40934274  0.18003082  0.49558617  1
  Ca2+  Ca38  1  0.40654542  0.17795811  0.83653548  1
  Ca2+  Ca39  1  0.42061598  0.66885776  0.15643346  1
  Ca2+  Ca40  1  0.41807305  0.66225929  0.50234181  1
  Ca2+  Ca41  1  0.42478104  0.65379385  0.83021514  1
  Ca2+  Ca42  1  0.92692605  0.16858095  0.15730614  1
  Ca2+  Ca43  1  0.92263627  0.17211498  0.49754012  1
  Ca2+  Ca44  1  0.91527785  0.17329749  0.83508852  1
  Ca2+  Ca45  1  0.93046884  0.66768936  0.16161696  1
  Ca2+  Ca46  1  0.93164596  0.67251504  0.50012685  1
  Ca2+  Ca47  1  0.93208129  0.67211877  0.82882627  1
  Al0+  Al48  1  -0.00273097  -0.00132433  0.00305238  1
  Al0+  Al49  1  -0.00184221  0.00045306  0.33345110  1
  Al0+  Al50  1  -0.00307411  0.00006939  0.66949276  1
  Al0+  Al51  1  0.00019081  0.50194502  -0.00390615  1
  Al0+  Al52  1  -0.00017520  0.50220812  0.33552755  1
  Al0+  Al53  1  -0.00138239  0.50010288  0.66042684  1
  Al0+  Al54  1  0.49828850  -0.00186599  0.00442244  1
  Al0+  Al55  1  0.50116317  0.00020572  0.34065126  1
  Al0+  Al56  1  0.50049457  -0.00128866  0.66739709  1
  Al0+  Al57  1  0.50101981  0.50087172  -0.00219318  1
  Al0+  Al58  1  0.50112112  0.50051971  0.32910120  1
  Al0+  Al59  1  0.50067595  0.49755410  0.66115172  1
  Al0+  Al60  1  0.24729883  0.24973036  -0.00261099  1
  Al0+  Al61  1  0.24870295  0.25342737  0.33101261  1
  Al0+  Al62  1  0.24895772  0.24959443  0.66163906  1
  Al0+  Al63  1  0.25369953  0.74974822  -0.00147771  1
  Al0+  Al64  1  0.25371607  0.75058908  0.33150177  1
  Al0+  Al65  1  0.25392505  0.74951250  0.67169889  1
  Al0+  Al66  1  0.74931778  0.24992543  0.00074799  1
  Al0+  Al67  1  0.74846678  0.25048556  0.33674152  1
  Al0+  Al68  1  0.74928253  0.24907685  0.66186667  1
  Al0+  Al69  1  0.75042926  0.74862233  0.00062886  1
  Al0+  Al70  1  0.75140757  0.75025167  0.33800445  1
  Al0+  Al71  1  0.75126061  0.74797821  0.66027859  1
  Al0+  Al72  1  0.42709069  0.32095320  0.98429433  1
  Al0+  Al73  1  0.57014984  0.17613048  0.98736134  1
  Al0+  Al74  1  0.07109118  0.17572178  0.98434187  1
  Al0+  Al75  1  0.57139582  0.68015904  0.98747911  1
  Al0+  Al76  1  0.92866409  0.32176232  0.98728681  1
  Al0+  Al77  1  0.93010285  0.82236555  0.65260911  1
  Al0+  Al78  1  0.67886238  0.92765695  0.01360419  1
  Al0+  Al79  1  0.82192385  0.07386108  0.01713045  1
  Al0+  Al80  1  0.07577726  0.68045116  0.65178112  1
  Al0+  Al81  1  0.92824858  0.32033713  0.65211529  1
  Al0+  Al82  1  0.17836124  0.93003439  0.68050127  1
  Al0+  Al83  1  0.32414772  0.57137702  0.01607096  1
  Al0+  Al84  1  0.06832411  0.17923361  0.32034839  1
  Al0+  Al85  1  0.18008176  0.92883653  0.34532582  1
  Al0+  Al86  1  0.07349983  0.68063931  0.98646368  1
  Al0+  Al87  1  0.31789605  0.07103441  0.01220503  1
  Al0+  Al88  1  0.17887208  0.43027155  0.34802229  1
  Al0+  Al89  1  0.67961806  0.92909811  0.35037979  1
  Al0+  Al90  1  0.32180820  0.56779976  0.67957712  1
  Al0+  Al91  1  0.57009775  0.67953307  0.65201804  1
  Al0+  Al92  1  0.42935989  0.32152709  0.31742304  1
  Al0+  Al93  1  0.17762132  0.43117386  0.01332212  1
  Al0+  Al94  1  0.07330043  0.68014037  0.31835534  1
  Al0+  Al95  1  0.42834320  0.31918427  0.65177500  1
  Si0+  Si96  1  0.82079913  0.57097978  0.35042344  1
  Si0+  Si97  1  0.32132109  0.07397942  0.35015726  1
  Si0+  Si98  1  0.57250806  0.17662876  0.64952999  1
  Si0+  Si99  1  0.57214531  0.17685789  0.31781032  1
  Si0+  Si100  1  0.92691889  0.82138644  0.31551492  1
  Si0+  Si101  1  0.67866686  0.42873251  0.01452407  1
  Si0+  Si102  1  0.81821420  0.07215223  0.68229217  1
  Si0+  Si103  1  0.32286313  0.07324957  0.68224064  1
  Si0+  Si104  1  0.07119112  0.17752919  0.64991608  1
  Si0+  Si105  1  0.42960147  0.82518803  0.64831610  1
  Si0+  Si106  1  0.17618408  0.92668130  0.01579751  1
  Si0+  Si107  1  0.32456940  0.57196433  0.34960507  1
  Si0+  Si108  1  0.67957818  0.92647146  0.68213045  1
  Si0+  Si109  1  0.57274492  0.68098806  0.31823281  1
  Si0+  Si110  1  0.17512319  0.42667168  0.68264510  1
  Si0+  Si111  1  0.92584261  0.32329646  0.31816773  1
  Si0+  Si112  1  0.82072736  0.57035865  0.68243827  1
  Si0+  Si113  1  0.67818755  0.43000675  0.34887364  1
  Si0+  Si114  1  0.68002152  0.42843375  0.68161999  1
  Si0+  Si115  1  0.82144520  0.07329638  0.35325987  1
  Si0+  Si116  1  0.92728878  0.81989510  0.98596765  1
  Si0+  Si117  1  0.42787070  0.82292825  0.98228882  1
  Si0+  Si118  1  0.82093556  0.57064261  0.01441511  1
  Si0+  Si119  1  0.43062807  0.82266021  0.31889174  1
  O2-  O120  1  0.23955961  0.00036897  0.05972313  1
  O2-  O121  1  0.25173150  0.00591070  0.39409442  1
  O2-  O122  1  0.25254269  0.00595311  0.72549040  1
  O2-  O123  1  0.25075179  0.50129463  0.06574743  1
  O2-  O124  1  0.25383277  0.50551844  0.39365304  1
  O2-  O125  1  0.24342059  0.49639951  0.72515595  1
  O2-  O126  1  0.74734580  0.00259747  0.06446124  1
  O2-  O127  1  0.75321286  0.00416135  0.39838396  1
  O2-  O128  1  0.74826756  -0.00058756  0.72363459  1
  O2-  O129  1  0.75164021  0.49799386  0.05720942  1
  O2-  O130  1  0.75138458  0.49781949  0.39268161  1
  O2-  O131  1  0.75179948  0.49770925  0.72543070  1
  O2-  O132  1  -0.00599759  0.25495262  0.27488112  1
  O2-  O133  1  0.00647116  0.25011155  0.60544428  1
  O2-  O134  1  -0.00186946  0.24801828  0.93631841  1
  O2-  O135  1  0.00072279  0.75800022  0.27191708  1
  O2-  O136  1  0.00744758  0.75658051  0.60165410  1
  O2-  O137  1  0.00328667  0.76013563  0.94159391  1
  O2-  O138  1  0.50214863  0.24356588  0.27394071  1
  O2-  O139  1  0.49973618  0.24066270  0.60495581  1
  O2-  O140  1  0.49727784  0.24586844  0.93547890  1
  O2-  O141  1  0.50364234  0.75333229  0.27662725  1
  O2-  O142  1  0.49714164  0.75492089  0.60393190  1
  O2-  O143  1  0.49547857  0.75217487  0.93953540  1
  O2-  O144  1  0.07063589  0.17773885  0.09809307  1
  O2-  O145  1  0.06526863  0.17972945  0.43391922  1
  O2-  O146  1  0.07058342  0.17631822  0.75493764  1
  O2-  O147  1  0.06984856  0.67990325  0.09995703  1
  O2-  O148  1  0.07239050  0.68017894  0.43127161  1
  O2-  O149  1  0.07229930  0.67989560  0.76516907  1
  O2-  O150  1  0.56863647  0.18002775  0.10134701  1
  O2-  O151  1  0.57289574  0.17880936  0.42387470  1
  O2-  O152  1  0.57662632  0.17869972  0.75430887  1
  O2-  O153  1  0.57349636  0.68188499  0.10108933  1
  O2-  O154  1  0.57226227  0.67974706  0.42334484  1
  O2-  O155  1  0.57146764  0.68037411  0.76462700  1
  O2-  O156  1  0.17723481  0.42976229  0.23564767  1
  O2-  O157  1  0.17642661  0.42657476  0.57654444  1
  O2-  O158  1  0.17569088  0.43365710  0.89960524  1
  O2-  O159  1  0.18507330  0.92700783  0.23279967  1
  O2-  O160  1  0.18005067  0.93150380  0.56690276  1
  O2-  O161  1  0.17848337  0.92620668  0.91003415  1
  O2-  O162  1  0.67807709  0.43153905  0.24397936  1
  O2-  O163  1  0.68125911  0.43064851  0.57590262  1
  O2-  O164  1  0.67827376  0.43059268  0.90930558  1
  O2-  O165  1  0.68084682  0.92687552  0.23806802  1
  O2-  O166  1  0.68036519  0.92792790  0.57673681  1
  O2-  O167  1  0.68351989  0.92420918  0.89971637  1
  O2-  O168  1  0.42983170  0.32105279  0.09790222  1
  O2-  O169  1  0.43218522  0.32171202  0.43098714  1
  O2-  O170  1  0.43010937  0.31963974  0.76406959  1
  O2-  O171  1  0.42773966  0.82280646  0.08831939  1
  O2-  O172  1  0.43052640  0.82057037  0.42402617  1
  O2-  O173  1  0.43275913  0.83115386  0.75317473  1
  O2-  O174  1  0.92985520  0.32312217  0.10109961  1
  O2-  O175  1  0.92499781  0.32182726  0.42406219  1
  O2-  O176  1  0.92407003  0.31781886  0.76422969  1
  O2-  O177  1  0.92305712  0.81461920  0.09150898  1
  O2-  O178  1  0.92471480  0.81761842  0.42102117  1
  O2-  O179  1  0.92768840  0.81917786  0.76603889  1
  O2-  O180  1  0.32304524  0.07175450  0.24477027  1
  O2-  O181  1  0.32439179  0.07234016  0.57645638  1
  O2-  O182  1  0.31776167  0.06760606  0.89882960  1
  O2-  O183  1  0.32773305  0.57169234  0.24464782  1
  O2-  O184  1  0.32278439  0.56532554  0.56598520  1
  O2-  O185  1  0.32456072  0.56837837  0.90236243  1
  O2-  O186  1  0.81938807  0.07522300  0.24847666  1
  O2-  O187  1  0.81599743  0.07353504  0.57699404  1
  O2-  O188  1  0.82020594  0.07213673  0.90291629  1
  O2-  O189  1  0.81908827  0.57177023  0.24515763  1
  O2-  O190  1  0.81835249  0.56922266  0.57696120  1
  O2-  O191  1  0.81904801  0.57209305  0.90934219  1
  O2-  O192  1  0.03923561  0.08214392  0.26659077  1
  O2-  O193  1  0.03892632  0.08581397  0.60373998  1
  O2-  O194  1  0.04260473  0.07591920  0.93369568  1
  O2-  O195  1  0.03561168  0.58477360  0.26610209  1
  O2-  O196  1  0.04148879  0.58392928  0.59800345  1
  O2-  O197  1  0.03629577  0.58791763  0.93083210  1
  O2-  O198  1  0.54962478  0.08120978  0.27561278  1
  O2-  O199  1  0.55098540  0.08083051  0.60540008  1
  O2-  O200  1  0.54691955  0.07570141  0.93728950  1
  O2-  O201  1  0.54589824  0.58932639  0.27048924  1
  O2-  O202  1  0.54008585  0.58345038  0.59617276  1
  O2-  O203  1  0.54463393  0.58342383  0.93220866  1
  O2-  O204  1  0.16531928  0.20915712  0.26823622  1
  O2-  O205  1  0.16545350  0.19745482  0.60255405  1
  O2-  O206  1  0.16786334  0.20356306  0.92920786  1
  O2-  O207  1  0.17080597  0.70948175  0.26568727  1
  O2-  O208  1  0.17584005  0.70574660  0.60091077  1
  O2-  O209  1  0.17123173  0.70739992  0.93375062  1
  O2-  O210  1  0.66598416  0.20417230  0.27354771  1
  O2-  O211  1  0.66287533  0.20658134  0.59871164  1
  O2-  O212  1  0.66761052  0.20694846  0.93475419  1
  O2-  O213  1  0.66578155  0.70754963  0.27290078  1
  O2-  O214  1  0.66592819  0.70909609  0.59561433  1
  O2-  O215  1  0.66779909  0.71076847  0.93249665  1
  O2-  O216  1  0.07982285  0.46305138  0.06704146  1
  O2-  O217  1  0.08142403  0.46013333  0.40225277  1
  O2-  O218  1  0.07984858  0.45077997  0.72530501  1
  O2-  O219  1  0.08047781  0.94268082  0.06036147  1
  O2-  O220  1  0.08130779  0.95609462  0.39785528  1
  O2-  O221  1  0.08095230  0.95866471  0.73401798  1
  O2-  O222  1  0.58935009  0.46085654  0.06389297  1
  O2-  O223  1  0.58787621  0.46247962  0.39715502  1
  O2-  O224  1  0.58876492  0.45798316  0.72741907  1
  O2-  O225  1  0.57975250  0.94986312  0.06746736  1
  O2-  O226  1  0.58316099  0.95799255  0.40731473  1
  O2-  O227  1  0.58608054  0.95033920  0.72754089  1
  O2-  O228  1  0.20379808  0.33143604  0.06378570  1
  O2-  O229  1  0.21007997  0.33386398  0.40297925  1
  O2-  O230  1  0.20083259  0.33170286  0.72545318  1
  O2-  O231  1  0.20975511  0.83558776  0.06211650  1
  O2-  O232  1  0.21633428  0.83370084  0.40027186  1
  O2-  O233  1  0.21146296  0.83465254  0.73486827  1
  O2-  O234  1  0.70415479  0.33792065  0.06426638  1
  O2-  O235  1  0.70186145  0.33740379  0.39763609  1
  O2-  O236  1  0.70706480  0.33542379  0.72625763  1
  O2-  O237  1  0.71280124  0.83074258  0.06851479  1
  O2-  O238  1  0.71139391  0.83228591  0.40489836  1
  O2-  O239  1  0.70943299  0.83403508  0.72642786  1
  O2-  O240  1  0.46494221  0.41661933  0.26382295  1
  O2-  O241  1  0.46556859  0.41193941  0.59464609  1
  O2-  O242  1  0.46168783  0.41745960  0.93208185  1
  O2-  O243  1  0.45706338  0.91625245  0.27459813  1
  O2-  O244  1  0.45608239  0.91755379  0.59887342  1
  O2-  O245  1  0.45505010  0.91507773  0.93520604  1
  O2-  O246  1  0.94859948  0.41842766  0.27528526  1
  O2-  O247  1  0.95283603  0.41784297  0.59671803  1
  O2-  O248  1  0.95630899  0.41938909  0.93204810  1
  O2-  O249  1  0.94447770  0.91766218  0.27343183  1
  O2-  O250  1  0.94885698  0.92365190  0.60130723  1
  O2-  O251  1  0.94305529  0.91643956  0.94363913  1
  O2-  O252  1  0.33228718  0.29353648  0.26533390  1
  O2-  O253  1  0.33138632  0.29110399  0.59563663  1
  O2-  O254  1  0.32952481  0.29334997  0.93068204  1
  O2-  O255  1  0.34122253  0.79397132  0.26828080  1
  O2-  O256  1  0.33629028  0.79740181  0.60371605  1
  O2-  O257  1  0.33492680  0.79980234  0.93436545  1
  O2-  O258  1  0.83047490  0.29947284  0.27446925  1
  O2-  O259  1  0.83276382  0.28710626  0.59526392  1
  O2-  O260  1  0.82906111  0.29684919  0.93518982  1
  O2-  O261  1  0.83525744  0.78812000  0.26954798  1
  O2-  O262  1  0.83498942  0.78738246  0.59597635  1
  O2-  O263  1  0.83791414  0.78610693  0.93661700  1
  O2-  O264  1  0.41236575  0.03750674  0.06930750  1
  O2-  O265  1  0.41444729  0.04890848  0.39813817  1
  O2-  O266  1  0.41639231  0.04654138  0.72820943  1
  O2-  O267  1  0.42356612  0.54433976  0.06829326  1
  O2-  O268  1  0.41836342  0.54387224  0.39578322  1
  O2-  O269  1  0.41881708  0.53316519  0.73119951  1
  O2-  O270  1  0.91869006  0.04249642  0.07223850  1
  O2-  O271  1  0.91454416  0.04716342  0.39995001  1
  O2-  O272  1  0.91006570  0.04741005  0.73006434  1
  O2-  O273  1  0.91206688  0.54345492  0.06290958  1
  O2-  O274  1  0.91198621  0.54490323  0.39943195  1
  O2-  O275  1  0.91360739  0.54399795  0.72793845  1
  O2-  O276  1  0.29073549  0.16814554  0.06616900  1
  O2-  O277  1  0.29485596  0.16760399  0.39489898  1
  O2-  O278  1  0.29745834  0.16780551  0.72604180  1
  O2-  O279  1  0.30054108  0.67238759  0.06599050  1
  O2-  O280  1  0.30224396  0.66684713  0.39456220  1
  O2-  O281  1  0.30110139  0.66668132  0.73324902  1
  O2-  O282  1  0.79436248  0.17226962  0.07065849  1
  O2-  O283  1  0.79463536  0.16699307  0.40089771  1
  O2-  O284  1  0.78759988  0.16355623  0.72871617  1
  O2-  O285  1  0.78964439  0.65966795  0.06499442  1
  O2-  O286  1  0.78955283  0.66058959  0.39977041  1
  O2-  O287  1  0.78925711  0.66151239  0.72845414  1
