# generated using pymatgen
data_Ca2Al2SiO7
_symmetry_space_group_name_H-M   'P 1'
_cell_length_a   15.46391663
_cell_length_b   15.46416153
_cell_length_c   15.28846023
_cell_angle_alpha   89.99356858
_cell_angle_beta   89.98964711
_cell_angle_gamma   90.00431473
_symmetry_Int_Tables_number   1
_chemical_formula_structural   Ca2Al2SiO7
_chemical_formula_sum   'Ca48 Al48 Si24 O168'
_cell_volume   3656.02884874
_cell_formula_units_Z   24
loop_
 _symmetry_equiv_pos_site_id
 _symmetry_equiv_pos_as_xyz
  1  'x, y, z'
loop_
 _atom_type_symbol
 _atom_type_oxidation_number
  Ca2+  2.0
  Al0+  0.0
  Si0+  0.0
  O2-  -2.0
loop_
 _atom_site_type_symbol
 _atom_site_label
 _atom_site_symmetry_multiplicity
 _atom_site_fract_x
 _atom_site_fract_y
 _atom_site_fract_z
 _atom_site_occupancy
  Ca2+  Ca0  1  0.17428302  0.07665727  0.17148890  1
  Ca2+  Ca1  1  0.17196072  0.08121803  0.50781900  1
  Ca2+  Ca2  1  0.17356493  0.07529393  0.83313968  1
  Ca2+  Ca3  1  0.16312081  0.58493746  0.16792923  1
  Ca2+  Ca4  1  0.17528459  0.57553302  0.51310949  1
  Ca2+  Ca5  1  0.16719493  0.58093468  0.83259532  1
  Ca2+  Ca6  1  0.68002166  0.08040702  0.17135170  1
  Ca2+  Ca7  1  0.67156086  0.07711422  0.50532636  1
  Ca2+  Ca8  1  0.66792396  0.07474928  0.83551557  1
  Ca2+  Ca9  1  0.67025565  0.58650019  0.17516838  1
  Ca2+  Ca10  1  0.67116671  0.58754640  0.51074459  1
  Ca2+  Ca11  1  0.66369628  0.58166142  0.82670824  1
  Ca2+  Ca12  1  0.08227719  0.32373719  0.16509474  1
  Ca2+  Ca13  1  0.08643339  0.32328784  0.50247365  1
  Ca2+  Ca14  1  0.08058349  0.32530152  0.81767075  1
  Ca2+  Ca15  1  0.07979675  0.82906539  0.15452251  1
  Ca2+  Ca16  1  0.08541191  0.83518582  0.50086132  1
  Ca2+  Ca17  1  0.08088536  0.84051414  0.83204958  1
  Ca2+  Ca18  1  0.58200118  0.32977908  0.16365431  1
  Ca2+  Ca19  1  0.57975127  0.33915476  0.50458978  1
  Ca2+  Ca20  1  0.57943285  0.32968869  0.82176465  1
  Ca2+  Ca21  1  0.57380504  0.83442631  0.16637978  1
  Ca2+  Ca22  1  0.57570024  0.82928172  0.49959755  1
  Ca2+  Ca23  1  0.57244728  0.83371683  0.82194415  1
  Ca2+  Ca24  1  0.32960071  0.41955781  0.17040102  1
  Ca2+  Ca25  1  0.33087159  0.42206570  0.51436479  1
  Ca2+  Ca26  1  0.33519830  0.42123971  0.82684367  1
  Ca2+  Ca27  1  0.33481666  0.91929478  0.16848309  1
  Ca2+  Ca28  1  0.33430423  0.92351091  0.50969017  1
  Ca2+  Ca29  1  0.32801430  0.91866634  0.83924499  1
  Ca2+  Ca30  1  0.83099821  0.42594536  0.17511647  1
  Ca2+  Ca31  1  0.82978047  0.42818621  0.51192743  1
  Ca2+  Ca32  1  0.83446548  0.41878082  0.82893614  1
  Ca2+  Ca33  1  0.84218411  0.92438686  0.16839999  1
  Ca2+  Ca34  1  0.82653592  0.92047995  0.50634470  1
  Ca2+  Ca35  1  0.82817486  0.91789065  0.83743857  1
  Ca2+  Ca36  1  0.41316677  0.16125427  0.16429680  1
  Ca2+  Ca37  1  0.40574367  0.17045279  0.49976843  1
  Ca2+  Ca38  1  0.40846354  0.16941425  0.82461772  1
  Ca2+  Ca39  1  0.41971996  0.68075565  0.16251823  1
  Ca2+  Ca40  1  0.42351598  0.67439966  0.49728159  1
  Ca2+  Ca41  1  0.41791195  0.67870308  0.82145965  1
  Ca2+  Ca42  1  0.92075307  0.15796009  0.16262815  1
  Ca2+  Ca43  1  0.92954330  0.16567501  0.49575091  1
  Ca2+  Ca44  1  0.92262836  0.16921525  0.82141268  1
  Ca2+  Ca45  1  0.92034680  0.67276748  0.15819055  1
  Ca2+  Ca46  1  0.91204227  0.66346743  0.49767361  1
  Ca2+  Ca47  1  0.92159384  0.66867312  0.83037987  1
  Al0+  Al48  1  0.00125699  -0.00085780  0.00127593  1
  Al0+  Al49  1  0.00204458  0.00035025  0.33335037  1
  Al0+  Al50  1  0.00163436  -0.00022638  0.66394621  1
  Al0+  Al51  1  -0.00090059  0.49867019  -0.00104442  1
  Al0+  Al52  1  -0.00183812  0.49805997  0.33676829  1
  Al0+  Al53  1  -0.00041898  0.50047843  0.66991882  1
  Al0+  Al54  1  0.50202424  0.00075884  0.00072353  1
  Al0+  Al55  1  0.49974433  0.00262127  0.33285820  1
  Al0+  Al56  1  0.50201043  0.00163496  0.66991759  1
  Al0+  Al57  1  0.49912907  0.49793049  0.00264985  1
  Al0+  Al58  1  0.49905213  0.49996916  0.32745819  1
  Al0+  Al59  1  0.50219712  0.49956288  0.66731877  1
  Al0+  Al60  1  0.24930771  0.25153730  0.00354041  1
  Al0+  Al61  1  0.24795766  0.24865285  0.32939451  1
  Al0+  Al62  1  0.24988783  0.25008817  0.66497193  1
  Al0+  Al63  1  0.25134009  0.74732142  -0.00289002  1
  Al0+  Al64  1  0.24906357  0.74947273  0.32915130  1
  Al0+  Al65  1  0.24821068  0.75149970  0.66851681  1
  Al0+  Al66  1  0.74827573  0.25010474  0.00471120  1
  Al0+  Al67  1  0.74973448  0.25141653  0.33736303  1
  Al0+  Al68  1  0.75100013  0.25330084  0.66412046  1
  Al0+  Al69  1  0.74964369  0.74805514  -0.00248318  1
  Al0+  Al70  1  0.74968929  0.75034701  0.33185480  1
  Al0+  Al71  1  0.75051797  0.75164839  0.67274159  1
  Al0+  Al72  1  0.82207658  0.57336756  0.68491985  1
  Al0+  Al73  1  0.17957244  0.42877345  0.68097795  1
  Al0+  Al74  1  0.07121681  0.67625456  0.98364453  1
  Al0+  Al75  1  0.07080004  0.17789601  0.65120475  1
  Al0+  Al76  1  0.18037501  0.92658651  0.01642861  1
  Al0+  Al77  1  0.07020338  0.17877841  0.31598220  1
  Al0+  Al78  1  0.43167141  0.82178740  0.98470166  1
  Al0+  Al79  1  0.92765633  0.32372514  0.65034923  1
  Al0+  Al80  1  0.67945689  0.93008801  0.67959305  1
  Al0+  Al81  1  0.81925343  0.57159236  0.34600725  1
  Al0+  Al82  1  0.82365337  0.07144318  0.34861203  1
  Al0+  Al83  1  0.32165051  0.07103433  0.68028337  1
  Al0+  Al84  1  0.32306133  0.57228517  0.68028192  1
  Al0+  Al85  1  0.57145724  0.68056929  0.65306684  1
  Al0+  Al86  1  0.42594920  0.82398066  0.65175999  1
  Al0+  Al87  1  0.67921282  0.42831588  0.68217635  1
  Al0+  Al88  1  0.82010269  0.07056460  0.01143245  1
  Al0+  Al89  1  0.42772775  0.82341463  0.31762020  1
  Al0+  Al90  1  0.43038183  0.31924679  0.65395426  1
  Al0+  Al91  1  0.32081178  0.07043170  0.34802333  1
  Al0+  Al92  1  0.17752070  0.92794845  0.68136516  1
  Al0+  Al93  1  0.32139817  0.07237567  0.01653566  1
  Al0+  Al94  1  0.92899759  0.82248109  0.98359113  1
  Al0+  Al95  1  0.57179210  0.67877660  0.31745558  1
  Si0+  Si96  1  0.82140847  0.56931363  0.01613744  1
  Si0+  Si97  1  0.17705392  0.42953873  0.01685721  1
  Si0+  Si98  1  0.92702885  0.31975259  0.98691416  1
  Si0+  Si99  1  0.32203756  0.56910167  0.01655454  1
  Si0+  Si100  1  0.92968956  0.82064842  0.32043984  1
  Si0+  Si101  1  0.42817547  0.32044961  0.31691815  1
  Si0+  Si102  1  0.57189009  0.18113587  0.98669562  1
  Si0+  Si103  1  0.92901604  0.82084157  0.65102142  1
  Si0+  Si104  1  0.57162760  0.67448403  0.98246177  1
  Si0+  Si105  1  0.07057542  0.67841223  0.65107081  1
  Si0+  Si106  1  0.07110001  0.18014600  0.98518424  1
  Si0+  Si107  1  0.06988525  0.67621305  0.32068169  1
  Si0+  Si108  1  0.67839733  0.92954008  0.34931495  1
  Si0+  Si109  1  0.32028943  0.57099445  0.34596261  1
  Si0+  Si110  1  0.67840382  0.92594886  0.01785062  1
  Si0+  Si111  1  0.17866347  0.92568927  0.34955491  1
  Si0+  Si112  1  0.17929629  0.42888099  0.34726607  1
  Si0+  Si113  1  0.57339915  0.17990313  0.31768977  1
  Si0+  Si114  1  0.92757492  0.32175151  0.31572656  1
  Si0+  Si115  1  0.67797654  0.42908619  0.01723582  1
  Si0+  Si116  1  0.82256428  0.07194644  0.68018718  1
  Si0+  Si117  1  0.57464435  0.17726960  0.64951736  1
  Si0+  Si118  1  0.42786925  0.32076693  0.98563448  1
  Si0+  Si119  1  0.67496994  0.42839447  0.35007100  1
  O2-  O120  1  0.25265186  -0.00213128  0.06769519  1
  O2-  O121  1  0.25012271  -0.00835217  0.39240549  1
  O2-  O122  1  0.25426163  -0.00478336  0.73013089  1
  O2-  O123  1  0.24673403  0.50190474  0.05957705  1
  O2-  O124  1  0.24941557  0.50053526  0.38843777  1
  O2-  O125  1  0.25025695  0.50140185  0.73201278  1
  O2-  O126  1  0.75111116  -0.00872106  0.06130139  1
  O2-  O127  1  0.74845414  -0.00283499  0.39352903  1
  O2-  O128  1  0.75242607  0.00669045  0.72620396  1
  O2-  O129  1  0.74733202  0.50157231  0.05920192  1
  O2-  O130  1  0.74183180  0.49964731  0.39131247  1
  O2-  O131  1  0.75106947  0.49944179  0.73384814  1
  O2-  O132  1  -0.00833742  0.25023036  0.26852310  1
  O2-  O133  1  -0.00184616  0.25006571  0.60124695  1
  O2-  O134  1  -0.00352157  0.24804407  0.94448362  1
  O2-  O135  1  -0.00036635  0.74797456  0.27906848  1
  O2-  O136  1  -0.00059234  0.74928791  0.60824125  1
  O2-  O137  1  0.00264758  0.75174432  0.93389894  1
  O2-  O138  1  0.50054061  0.25011310  0.27527133  1
  O2-  O139  1  0.50363470  0.24398108  0.60547564  1
  O2-  O140  1  0.49498887  0.24578130  0.94533585  1
  O2-  O141  1  0.49979280  0.75063005  0.26765137  1
  O2-  O142  1  0.49713229  0.75005183  0.60323907  1
  O2-  O143  1  0.50700524  0.74682136  0.93973626  1
  O2-  O144  1  0.07100201  0.18327481  0.09074714  1
  O2-  O145  1  0.07198452  0.18109524  0.42804574  1
  O2-  O146  1  0.06816761  0.17778544  0.76544315  1
  O2-  O147  1  0.06550097  0.67292389  0.09840241  1
  O2-  O148  1  0.07119319  0.67507810  0.42541003  1
  O2-  O149  1  0.06908497  0.67717833  0.75562778  1
  O2-  O150  1  0.57493572  0.18562277  0.09217024  1
  O2-  O151  1  0.57580140  0.18014513  0.42205420  1
  O2-  O152  1  0.57691984  0.17913768  0.75546276  1
  O2-  O153  1  0.56960094  0.67194017  0.08833129  1
  O2-  O154  1  0.57075066  0.67718545  0.43012976  1
  O2-  O155  1  0.57043564  0.68311026  0.76696934  1
  O2-  O156  1  0.17962766  0.43028602  0.24132599  1
  O2-  O157  1  0.18187918  0.43079075  0.56659978  1
  O2-  O158  1  0.17694393  0.42681979  0.91278967  1
  O2-  O159  1  0.17620378  0.92513325  0.24411600  1
  O2-  O160  1  0.17485694  0.92970826  0.56740188  1
  O2-  O161  1  0.17952780  0.93078858  0.90365986  1
  O2-  O162  1  0.67654802  0.42662902  0.24355356  1
  O2-  O163  1  0.67895138  0.42994977  0.56853870  1
  O2-  O164  1  0.67669958  0.42657432  0.91313310  1
  O2-  O165  1  0.67932957  0.93142080  0.24337028  1
  O2-  O166  1  0.68256664  0.93062141  0.56609625  1
  O2-  O167  1  0.67745080  0.92932961  0.91259787  1
  O2-  O168  1  0.42997282  0.32376317  0.09132609  1
  O2-  O169  1  0.42717906  0.32266831  0.42127336  1
  O2-  O170  1  0.43155602  0.31783407  0.76758478  1
  O2-  O171  1  0.43363691  0.82042372  0.09819905  1
  O2-  O172  1  0.42726611  0.82179892  0.43040755  1
  O2-  O173  1  0.42871966  0.82351181  0.76545960  1
  O2-  O174  1  0.92852723  0.32099811  0.09243096  1
  O2-  O175  1  0.93094187  0.32410796  0.42011972  1
  O2-  O176  1  0.92858713  0.31927733  0.76505446  1
  O2-  O177  1  0.92867669  0.81913729  0.09822594  1
  O2-  O178  1  0.92963754  0.82052706  0.42554940  1
  O2-  O179  1  0.92966166  0.82260129  0.75569113  1
  O2-  O180  1  0.31833829  0.07169095  0.23495539  1
  O2-  O181  1  0.31857664  0.07130645  0.56638868  1
  O2-  O182  1  0.31855994  0.07746143  0.90410260  1
  O2-  O183  1  0.31812310  0.56877167  0.24030852  1
  O2-  O184  1  0.32011844  0.57009002  0.56573395  1
  O2-  O185  1  0.32615662  0.56455786  0.91248947  1
  O2-  O186  1  0.82199739  0.06898565  0.23505690  1
  O2-  O187  1  0.82205852  0.06763515  0.57435970  1
  O2-  O188  1  0.81477057  0.07521717  0.89895519  1
  O2-  O189  1  0.82098874  0.56852662  0.23219324  1
  O2-  O190  1  0.82047036  0.57383887  0.57093267  1
  O2-  O191  1  0.82370985  0.56662476  0.91207376  1
  O2-  O192  1  0.04075579  0.08117216  0.26265235  1
  O2-  O193  1  0.04069481  0.08087329  0.59552170  1
  O2-  O194  1  0.04667270  0.08737726  0.94036829  1
  O2-  O195  1  0.04139486  0.58441821  0.27246763  1
  O2-  O196  1  0.04295098  0.58691038  0.60308741  1
  O2-  O197  1  0.03832150  0.57861921  0.93115809  1
  O2-  O198  1  0.54686800  0.08878384  0.26846752  1
  O2-  O199  1  0.55239974  0.08329989  0.60384122  1
  O2-  O200  1  0.55219694  0.08716851  0.94136031  1
  O2-  O201  1  0.54410299  0.57990593  0.26244462  1
  O2-  O202  1  0.54764708  0.58078793  0.60192468  1
  O2-  O203  1  0.54226246  0.58084992  0.93837837  1
  O2-  O204  1  0.16425182  0.21539191  0.25935224  1
  O2-  O205  1  0.16744506  0.20962214  0.59729802  1
  O2-  O206  1  0.16157102  0.21390098  0.93964581  1
  O2-  O207  1  0.16110519  0.70186184  0.27041790  1
  O2-  O208  1  0.16181444  0.70566948  0.60210169  1
  O2-  O209  1  0.17269459  0.69446540  0.93522405  1
  O2-  O210  1  0.66446730  0.21045615  0.26825497  1
  O2-  O211  1  0.66669828  0.20509603  0.60131260  1
  O2-  O212  1  0.66065804  0.21589281  0.93790033  1
  O2-  O213  1  0.67023136  0.70803366  0.26296927  1
  O2-  O214  1  0.67033885  0.71241208  0.60245742  1
  O2-  O215  1  0.66757153  0.69345901  0.93981486  1
  O2-  O216  1  0.08495556  0.45621297  0.06575056  1
  O2-  O217  1  0.08749951  0.45490563  0.39415299  1
  O2-  O218  1  0.08181833  0.45609410  0.73436779  1
  O2-  O219  1  0.08127390  0.95510434  0.06897941  1
  O2-  O220  1  0.08623439  0.95403334  0.39601713  1
  O2-  O221  1  0.08011021  0.96101210  0.73467879  1
  O2-  O222  1  0.58576394  0.45498374  0.06638497  1
  O2-  O223  1  0.57919767  0.45090995  0.39247506  1
  O2-  O224  1  0.58185312  0.45591050  0.73750050  1
  O2-  O225  1  0.58784914  0.95788889  0.06634871  1
  O2-  O226  1  0.58608149  0.95828090  0.39496531  1
  O2-  O227  1  0.58539765  0.96178332  0.73719992  1
  O2-  O228  1  0.20841541  0.33999042  0.06769515  1
  O2-  O229  1  0.20931008  0.33753267  0.39211594  1
  O2-  O230  1  0.20911376  0.33158814  0.73403030  1
  O2-  O231  1  0.20574182  0.82546084  0.06667869  1
  O2-  O232  1  0.19964755  0.82989135  0.39385503  1
  O2-  O233  1  0.19684224  0.82809840  0.73363246  1
  O2-  O234  1  0.70761458  0.33900418  0.06795677  1
  O2-  O235  1  0.70001037  0.33550064  0.39643637  1
  O2-  O236  1  0.70659810  0.32917674  0.73602095  1
  O2-  O237  1  0.69887060  0.82992626  0.06146883  1
  O2-  O238  1  0.70441139  0.83590940  0.39377005  1
  O2-  O239  1  0.71260433  0.83729413  0.73755173  1
  O2-  O240  1  0.45489724  0.41142572  0.26576289  1
  O2-  O241  1  0.46210877  0.41513011  0.59891400  1
  O2-  O242  1  0.46018367  0.41107673  0.93870024  1
  O2-  O243  1  0.45856066  0.92185364  0.26480690  1
  O2-  O244  1  0.45941407  0.92206065  0.60096880  1
  O2-  O245  1  0.46195750  0.91959454  0.93318422  1
  O2-  O246  1  0.95830804  0.41421388  0.26754526  1
  O2-  O247  1  0.95692748  0.42258442  0.59914581  1
  O2-  O248  1  0.95516121  0.41090879  0.93991344  1
  O2-  O249  1  0.95951832  0.91134384  0.27199766  1
  O2-  O250  1  0.95741667  0.91150348  0.60134257  1
  O2-  O251  1  0.95495919  0.92199302  0.93150197  1
  O2-  O252  1  0.33731937  0.29209354  0.26725074  1
  O2-  O253  1  0.33438531  0.29082862  0.59770875  1
  O2-  O254  1  0.33422174  0.29771944  0.94052706  1
  O2-  O255  1  0.32968132  0.79216845  0.26326586  1
  O2-  O256  1  0.32638483  0.79782153  0.60019911  1
  O2-  O257  1  0.33511316  0.78957162  0.93339152  1
  O2-  O258  1  0.83125835  0.30143577  0.27202741  1
  O2-  O259  1  0.82837815  0.30056441  0.59712573  1
  O2-  O260  1  0.83373437  0.29401041  0.94210981  1
  O2-  O261  1  0.83811651  0.79566918  0.27141737  1
  O2-  O262  1  0.83736438  0.79290000  0.60401618  1
  O2-  O263  1  0.82960551  0.79347752  0.93271375  1
  O2-  O264  1  0.42288918  0.04794323  0.06650749  1
  O2-  O265  1  0.42044143  0.04844169  0.39932616  1
  O2-  O266  1  0.42253885  0.05266304  0.73152346  1
  O2-  O267  1  0.41100254  0.53494708  0.06744796  1
  O2-  O268  1  0.41248509  0.54174510  0.39040251  1
  O2-  O269  1  0.41932862  0.54113641  0.73438509  1
  O2-  O270  1  0.91749513  0.04316629  0.06584572  1
  O2-  O271  1  0.91981192  0.03922086  0.40140245  1
  O2-  O272  1  0.91468018  0.04319652  0.72616740  1
  O2-  O273  1  0.91167690  0.53740962  0.06541390  1
  O2-  O274  1  0.91523443  0.53925472  0.40064071  1
  O2-  O275  1  0.91980107  0.54428572  0.73796324  1
  O2-  O276  1  0.29155373  0.17149010  0.07031091  1
  O2-  O277  1  0.28678073  0.16802263  0.39809965  1
  O2-  O278  1  0.28991448  0.16831846  0.73268932  1
  O2-  O279  1  0.29740423  0.66125555  0.06416233  1
  O2-  O280  1  0.29229015  0.66281138  0.39195624  1
  O2-  O281  1  0.29358174  0.66965839  0.73280440  1
  O2-  O282  1  0.78520533  0.16511278  0.06958418  1
  O2-  O283  1  0.79358182  0.16884639  0.40026522  1
  O2-  O284  1  0.80111571  0.16741763  0.72245471  1
  O2-  O285  1  0.79622004  0.66267060  0.06236603  1
  O2-  O286  1  0.79378551  0.66992179  0.39853098  1
  O2-  O287  1  0.79389999  0.67045342  0.73936321  1
