# generated using pymatgen
data_Ca2Al2SiO7
_symmetry_space_group_name_H-M   'P 1'
_cell_length_a   15.45298634
_cell_length_b   15.45287928
_cell_length_c   15.27964206
_cell_angle_alpha   90.00706856
_cell_angle_beta   89.99579688
_cell_angle_gamma   90.00056871
_symmetry_Int_Tables_number   1
_chemical_formula_structural   Ca2Al2SiO7
_chemical_formula_sum   'Ca48 Al48 Si24 O168'
_cell_volume   3648.67355381
_cell_formula_units_Z   24
loop_
 _symmetry_equiv_pos_site_id
 _symmetry_equiv_pos_as_xyz
  1  'x, y, z'
loop_
 _atom_type_symbol
 _atom_type_oxidation_number
  Ca2+  2.0
  Al0+  0.0
  Si0+  0.0
  O2-  -2.0
loop_
 _atom_site_type_symbol
 _atom_site_label
 _atom_site_symmetry_multiplicity
 _atom_site_fract_x
 _atom_site_fract_y
 _atom_site_fract_z
 _atom_site_occupancy
  Ca2+  Ca0  1  0.17623100  0.08409597  0.16708611  1
  Ca2+  Ca1  1  0.17111812  0.08341521  0.50312338  1
  Ca2+  Ca2  1  0.16806943  0.08137433  0.84498077  1
  Ca2+  Ca3  1  0.16216432  0.57115543  0.16922196  1
  Ca2+  Ca4  1  0.16630446  0.58083866  0.50613532  1
  Ca2+  Ca5  1  0.16630893  0.58151394  0.83301756  1
  Ca2+  Ca6  1  0.67338653  0.08291446  0.17697008  1
  Ca2+  Ca7  1  0.67585230  0.09202021  0.50391042  1
  Ca2+  Ca8  1  0.67302039  0.08892723  0.82987583  1
  Ca2+  Ca9  1  0.66540249  0.57160235  0.17167906  1
  Ca2+  Ca10  1  0.67413483  0.57146433  0.51010352  1
  Ca2+  Ca11  1  0.67103693  0.57291335  0.83656419  1
  Ca2+  Ca12  1  0.08250574  0.33167688  0.16131094  1
  Ca2+  Ca13  1  0.07098480  0.33404184  0.49525938  1
  Ca2+  Ca14  1  0.08437893  0.32314140  0.82614693  1
  Ca2+  Ca15  1  0.07360879  0.84146032  0.16140754  1
  Ca2+  Ca16  1  0.07863517  0.82446255  0.49713865  1
  Ca2+  Ca17  1  0.08200446  0.83143519  0.83028438  1
  Ca2+  Ca18  1  0.58961195  0.32905307  0.16616690  1
  Ca2+  Ca19  1  0.59285524  0.32637798  0.49632529  1
  Ca2+  Ca20  1  0.58745387  0.33208347  0.82735514  1
  Ca2+  Ca21  1  0.57111153  0.83674097  0.16232637  1
  Ca2+  Ca22  1  0.57217121  0.83439383  0.49518576  1
  Ca2+  Ca23  1  0.56865524  0.83507603  0.82783933  1
  Ca2+  Ca24  1  0.31816608  0.41164593  0.17173164  1
  Ca2+  Ca25  1  0.32551317  0.42234893  0.50474827  1
  Ca2+  Ca26  1  0.32835010  0.42383349  0.83909856  1
  Ca2+  Ca27  1  0.33342453  0.92219652  0.16879234  1
  Ca2+  Ca28  1  0.34013413  0.91865633  0.50228552  1
  Ca2+  Ca29  1  0.32803452  0.91985696  0.84250336  1
  Ca2+  Ca30  1  0.82489674  0.41094501  0.17387727  1
  Ca2+  Ca31  1  0.82762533  0.41083214  0.50762064  1
  Ca2+  Ca32  1  0.82845671  0.41358454  0.83008725  1
  Ca2+  Ca33  1  0.83889966  0.92131644  0.17500298  1
  Ca2+  Ca34  1  0.84008955  0.92869479  0.50283489  1
  Ca2+  Ca35  1  0.83843295  0.92285407  0.83746919  1
  Ca2+  Ca36  1  0.41967487  0.15889222  0.16511334  1
  Ca2+  Ca37  1  0.43051527  0.16322266  0.49302140  1
  Ca2+  Ca38  1  0.42114556  0.16702226  0.82757620  1
  Ca2+  Ca39  1  0.41406606  0.67816243  0.16280023  1
  Ca2+  Ca40  1  0.40992822  0.67570384  0.49792743  1
  Ca2+  Ca41  1  0.40796061  0.67701474  0.82607878  1
  Ca2+  Ca42  1  0.92145046  0.17015179  0.16467280  1
  Ca2+  Ca43  1  0.91267792  0.17466470  0.49792763  1
  Ca2+  Ca44  1  0.92929784  0.16943261  0.82356856  1
  Ca2+  Ca45  1  0.91496289  0.67938181  0.16283107  1
  Ca2+  Ca46  1  0.91885647  0.66460334  0.49706593  1
  Ca2+  Ca47  1  0.92056209  0.66971263  0.82655567  1
  Al0+  Al48  1  0.00100254  0.00150355  -0.00384586  1
  Al0+  Al49  1  0.00237737  0.00008724  0.33542443  1
  Al0+  Al50  1  0.00160378  -0.00027979  0.66742939  1
  Al0+  Al51  1  -0.00240533  0.50202702  0.00360289  1
  Al0+  Al52  1  -0.00128446  0.49866007  0.33116258  1
  Al0+  Al53  1  -0.00101144  0.50002567  0.66396322  1
  Al0+  Al54  1  0.50241660  -0.00003620  -0.00293515  1
  Al0+  Al55  1  0.50052445  -0.00034050  0.32829006  1
  Al0+  Al56  1  0.50011308  0.00098298  0.65954948  1
  Al0+  Al57  1  0.50170326  0.49923877  0.00552650  1
  Al0+  Al58  1  0.49831800  0.49880101  0.33760549  1
  Al0+  Al59  1  0.49809469  0.50205408  0.67533006  1
  Al0+  Al60  1  0.25253524  0.25080887  0.00297155  1
  Al0+  Al61  1  0.25092976  0.24910839  0.34506797  1
  Al0+  Al62  1  0.25183960  0.24900155  0.66262448  1
  Al0+  Al63  1  0.24803831  0.75115353  0.00138720  1
  Al0+  Al64  1  0.24895383  0.74937143  0.32625281  1
  Al0+  Al65  1  0.24746325  0.75083255  0.66126804  1
  Al0+  Al66  1  0.75072736  0.25053338  0.00314276  1
  Al0+  Al67  1  0.75108033  0.24868738  0.33096271  1
  Al0+  Al68  1  0.75068406  0.24759264  0.67018523  1
  Al0+  Al69  1  0.74920895  0.75051508  -0.00486976  1
  Al0+  Al70  1  0.74883739  0.74904871  0.32924709  1
  Al0+  Al71  1  0.74690436  0.75055061  0.67076204  1
  Al0+  Al72  1  0.07236217  0.18257431  0.98856748  1
  Al0+  Al73  1  0.17742612  0.92871447  0.01529363  1
  Al0+  Al74  1  0.42921060  0.82017781  0.31689767  1
  Al0+  Al75  1  0.07492057  0.17549793  0.64966391  1
  Al0+  Al76  1  0.92971406  0.31972378  0.31785194  1
  Al0+  Al77  1  0.82334704  0.57364552  0.68237555  1
  Al0+  Al78  1  0.92864258  0.82225415  0.98488061  1
  Al0+  Al79  1  0.68055636  0.42889844  0.01696380  1
  Al0+  Al80  1  0.32253352  0.06818835  0.34948924  1
  Al0+  Al81  1  0.42900998  0.81945594  0.65222789  1
  Al0+  Al82  1  0.67951756  0.42776986  0.68271560  1
  Al0+  Al83  1  0.93059387  0.31871358  0.65293164  1
  Al0+  Al84  1  0.56917605  0.18216782  0.65357298  1
  Al0+  Al85  1  0.67941881  0.42870171  0.34792127  1
  Al0+  Al86  1  0.17869376  0.42946336  0.01140548  1
  Al0+  Al87  1  0.92982288  0.82164087  0.32171948  1
  Al0+  Al88  1  0.82195881  0.06909287  0.34630694  1
  Al0+  Al89  1  0.82174076  0.06872463  0.68183550  1
  Al0+  Al90  1  0.06854581  0.67982225  0.65378264  1
  Al0+  Al91  1  0.32401545  0.07101971  0.01370021  1
  Al0+  Al92  1  0.31824321  0.57289119  0.67960759  1
  Al0+  Al93  1  0.42894234  0.82032315  0.98468924  1
  Al0+  Al94  1  0.17669899  0.42864829  0.34925947  1
  Al0+  Al95  1  0.57051777  0.18161586  0.31810109  1
  Si0+  Si96  1  0.82069909  0.57393519  0.34848537  1
  Si0+  Si97  1  0.17811696  0.42698339  0.68257391  1
  Si0+  Si98  1  0.18031755  0.92961784  0.68042662  1
  Si0+  Si99  1  0.67936231  0.92844586  0.01378301  1
  Si0+  Si100  1  0.32302851  0.07041607  0.68028580  1
  Si0+  Si101  1  0.42700057  0.32637922  0.65069533  1
  Si0+  Si102  1  0.92469914  0.82258334  0.65125853  1
  Si0+  Si103  1  0.32001415  0.57334529  0.34910833  1
  Si0+  Si104  1  0.57075258  0.67563408  0.98211677  1
  Si0+  Si105  1  0.07527703  0.17843977  0.31691821  1
  Si0+  Si106  1  0.07056627  0.67614562  0.98354653  1
  Si0+  Si107  1  0.42972358  0.32190436  0.98661185  1
  Si0+  Si108  1  0.32218303  0.57308871  0.01756338  1
  Si0+  Si109  1  0.67496217  0.92864654  0.68311235  1
  Si0+  Si110  1  0.92652567  0.32311955  0.98351431  1
  Si0+  Si111  1  0.57228630  0.67628145  0.65100510  1
  Si0+  Si112  1  0.57301490  0.17971216  0.98449876  1
  Si0+  Si113  1  0.07140746  0.67680315  0.31394430  1
  Si0+  Si114  1  0.82100439  0.06969330  0.01500051  1
  Si0+  Si115  1  0.57170107  0.67507865  0.31703626  1
  Si0+  Si116  1  0.67760848  0.92627568  0.34841669  1
  Si0+  Si117  1  0.82120916  0.57505422  0.01878482  1
  Si0+  Si118  1  0.17837565  0.92623175  0.35150740  1
  Si0+  Si119  1  0.42594080  0.32286677  0.31777441  1
  O2-  O120  1  0.25223481  -0.00134223  0.06392002  1
  O2-  O121  1  0.24917001  -0.00785530  0.39677810  1
  O2-  O122  1  0.24744518  0.00482558  0.72238718  1
  O2-  O123  1  0.25261852  0.50460686  0.06048682  1
  O2-  O124  1  0.25122435  0.50493144  0.39334732  1
  O2-  O125  1  0.24759180  0.49486458  0.72730291  1
  O2-  O126  1  0.75225600  -0.00346169  0.05739390  1
  O2-  O127  1  0.74921986  -0.00840511  0.39260612  1
  O2-  O128  1  0.74885848  -0.00859773  0.72845089  1
  O2-  O129  1  0.75505272  0.50399517  0.06323343  1
  O2-  O130  1  0.75316122  0.50467406  0.39295075  1
  O2-  O131  1  0.75090350  0.50144836  0.73188708  1
  O2-  O132  1  0.00762482  0.24780518  0.27173472  1
  O2-  O133  1  0.00326431  0.24812914  0.60099469  1
  O2-  O134  1  -0.00001644  0.25912890  0.94084803  1
  O2-  O135  1  0.00329954  0.74727297  0.27186129  1
  O2-  O136  1  -0.01183745  0.74899043  0.60736850  1
  O2-  O137  1  0.00335838  0.74685783  0.94014208  1
  O2-  O138  1  0.49507680  0.25576963  0.27096650  1
  O2-  O139  1  0.49754124  0.25969065  0.60670877  1
  O2-  O140  1  0.50113395  0.25091721  0.94417530  1
  O2-  O141  1  0.50392486  0.74436349  0.27161172  1
  O2-  O142  1  0.50376640  0.74456111  0.60558946  1
  O2-  O143  1  0.50030199  0.74246084  0.93740167  1
  O2-  O144  1  0.07033825  0.18296086  0.10179191  1
  O2-  O145  1  0.07362022  0.17851423  0.42227405  1
  O2-  O146  1  0.07590325  0.17653410  0.76382450  1
  O2-  O147  1  0.06807342  0.67338499  0.08907075  1
  O2-  O148  1  0.07239156  0.67724088  0.41966333  1
  O2-  O149  1  0.07140792  0.68408630  0.76687216  1
  O2-  O150  1  0.57494662  0.17940269  0.08947350  1
  O2-  O151  1  0.57098241  0.18235103  0.43104704  1
  O2-  O152  1  0.56647493  0.18070833  0.76740948  1
  O2-  O153  1  0.57012046  0.67698966  0.08800517  1
  O2-  O154  1  0.57192114  0.67605181  0.42242867  1
  O2-  O155  1  0.57096807  0.67835320  0.75665038  1
  O2-  O156  1  0.17826037  0.42935492  0.23555308  1
  O2-  O157  1  0.17947677  0.42899243  0.57701558  1
  O2-  O158  1  0.18186162  0.42999313  0.89841975  1
  O2-  O159  1  0.17698812  0.92808969  0.24611905  1
  O2-  O160  1  0.18164366  0.92783322  0.57524327  1
  O2-  O161  1  0.17854563  0.92933026  0.90114085  1
  O2-  O162  1  0.68104051  0.43023139  0.23444536  1
  O2-  O163  1  0.68095544  0.42808110  0.56913949  1
  O2-  O164  1  0.68053409  0.42777902  0.90445430  1
  O2-  O165  1  0.67758470  0.92833003  0.24220915  1
  O2-  O166  1  0.67295826  0.92981012  0.57763827  1
  O2-  O167  1  0.67763563  0.93108834  0.90878552  1
  O2-  O168  1  0.42920754  0.32217216  0.09159187  1
  O2-  O169  1  0.42706961  0.32293679  0.42326748  1
  O2-  O170  1  0.42409555  0.32332193  0.75682362  1
  O2-  O171  1  0.43238381  0.82039832  0.09771563  1
  O2-  O172  1  0.43005793  0.81858765  0.43010074  1
  O2-  O173  1  0.42857323  0.82060061  0.76541113  1
  O2-  O174  1  0.92435508  0.31955188  0.08925524  1
  O2-  O175  1  0.92833126  0.31922133  0.43045199  1
  O2-  O176  1  0.93274331  0.31698399  0.76707243  1
  O2-  O177  1  0.92841951  0.82175793  0.09829013  1
  O2-  O178  1  0.93174637  0.82015052  0.43467249  1
  O2-  O179  1  0.92922725  0.82403329  0.75695695  1
  O2-  O180  1  0.32183215  0.06759655  0.23645432  1
  O2-  O181  1  0.32514417  0.06659775  0.57534003  1
  O2-  O182  1  0.32452064  0.07063376  0.89957100  1
  O2-  O183  1  0.31965393  0.57316872  0.24333549  1
  O2-  O184  1  0.31531659  0.57293269  0.56646896  1
  O2-  O185  1  0.32223745  0.57249206  0.91183743  1
  O2-  O186  1  0.82082495  0.06764310  0.23246364  1
  O2-  O187  1  0.82004216  0.06860839  0.56875055  1
  O2-  O188  1  0.81892332  0.07031301  0.90993255  1
  O2-  O189  1  0.81839098  0.57596738  0.24268462  1
  O2-  O190  1  0.82052996  0.57520715  0.56865484  1
  O2-  O191  1  0.82067173  0.57598950  0.91354509  1
  O2-  O192  1  0.04922999  0.08446676  0.27206337  1
  O2-  O193  1  0.04737959  0.07626218  0.59849903  1
  O2-  O194  1  0.03991492  0.08744576  0.93288834  1
  O2-  O195  1  0.04343606  0.58429509  0.26710085  1
  O2-  O196  1  0.04388690  0.58261670  0.59848386  1
  O2-  O197  1  0.04292872  0.58352443  0.93558237  1
  O2-  O198  1  0.54107097  0.08467650  0.26356805  1
  O2-  O199  1  0.53691323  0.08756615  0.59675967  1
  O2-  O200  1  0.54703759  0.08819787  0.93591269  1
  O2-  O201  1  0.54386427  0.58159114  0.27084102  1
  O2-  O202  1  0.54631073  0.58208351  0.60679016  1
  O2-  O203  1  0.54709595  0.58059373  0.93809181  1
  O2-  O204  1  0.17017828  0.20483888  0.27424009  1
  O2-  O205  1  0.17451472  0.20085934  0.59754428  1
  O2-  O206  1  0.17026355  0.21094784  0.93498054  1
  O2-  O207  1  0.16469694  0.69983339  0.26627059  1
  O2-  O208  1  0.16093530  0.71637190  0.59499652  1
  O2-  O209  1  0.16534564  0.69972114  0.93926210  1
  O2-  O210  1  0.66597706  0.21247047  0.26204191  1
  O2-  O211  1  0.66693140  0.20970946  0.60157640  1
  O2-  O212  1  0.66457465  0.20997327  0.93735798  1
  O2-  O213  1  0.66491137  0.69863565  0.26855488  1
  O2-  O214  1  0.66601735  0.70150377  0.60464959  1
  O2-  O215  1  0.66370555  0.70236639  0.93575255  1
  O2-  O216  1  0.08140149  0.45852398  0.06628712  1
  O2-  O217  1  0.07978330  0.46071299  0.40147339  1
  O2-  O218  1  0.08500963  0.45327421  0.72777536  1
  O2-  O219  1  0.07968472  0.96128935  0.06764552  1
  O2-  O220  1  0.08644707  0.95343074  0.39999849  1
  O2-  O221  1  0.08769130  0.95239461  0.72859404  1
  O2-  O222  1  0.58355524  0.45819950  0.07213292  1
  O2-  O223  1  0.58106729  0.45496825  0.40085302  1
  O2-  O224  1  0.58046538  0.45448653  0.73650481  1
  O2-  O225  1  0.58936324  0.95965698  0.06279981  1
  O2-  O226  1  0.58500573  0.95472838  0.39395010  1
  O2-  O227  1  0.58361553  0.96247262  0.73025947  1
  O2-  O228  1  0.21276236  0.33556430  0.06847380  1
  O2-  O229  1  0.20783503  0.33442670  0.40634799  1
  O2-  O230  1  0.20524084  0.33256900  0.72701321  1
  O2-  O231  1  0.20095935  0.82910194  0.06832326  1
  O2-  O232  1  0.20206169  0.83016825  0.39358213  1
  O2-  O233  1  0.21212560  0.83957907  0.72827030  1
  O2-  O234  1  0.71233008  0.33215773  0.07122989  1
  O2-  O235  1  0.71324969  0.33244483  0.39897834  1
  O2-  O236  1  0.70996931  0.33062736  0.73727789  1
  O2-  O237  1  0.70237190  0.83472860  0.05963677  1
  O2-  O238  1  0.69811243  0.83065362  0.39243532  1
  O2-  O239  1  0.69181535  0.83335521  0.72929732  1
  O2-  O240  1  0.44798924  0.41778537  0.27221249  1
  O2-  O241  1  0.44868610  0.42206406  0.60777687  1
  O2-  O242  1  0.45782752  0.41435772  0.93993179  1
  O2-  O243  1  0.46280767  0.91495015  0.26160139  1
  O2-  O244  1  0.46240369  0.91438719  0.59660325  1
  O2-  O245  1  0.46450116  0.91578442  0.93046057  1
  O2-  O246  1  0.95626723  0.41769042  0.26345625  1
  O2-  O247  1  0.95476294  0.41783657  0.59965696  1
  O2-  O248  1  0.94570021  0.41994008  0.94235542  1
  O2-  O249  1  0.96258727  0.91785595  0.26691058  1
  O2-  O250  1  0.95719379  0.91356897  0.60450188  1
  O2-  O251  1  0.95993567  0.91796586  0.92994722  1
  O2-  O252  1  0.33173134  0.29434033  0.27421048  1
  O2-  O253  1  0.33486625  0.29981720  0.60245939  1
  O2-  O254  1  0.33909206  0.29468706  0.93688789  1
  O2-  O255  1  0.33260692  0.79021901  0.26191735  1
  O2-  O256  1  0.33381964  0.78822796  0.59644558  1
  O2-  O257  1  0.33001753  0.79261641  0.93360611  1
  O2-  O258  1  0.83568586  0.28431888  0.26192320  1
  O2-  O259  1  0.83268376  0.28658125  0.60173257  1
  O2-  O260  1  0.83472032  0.29152736  0.93709818  1
  O2-  O261  1  0.83209523  0.79404589  0.26655468  1
  O2-  O262  1  0.82782688  0.80525708  0.60920886  1
  O2-  O263  1  0.83124050  0.79419828  0.93058357  1
  O2-  O264  1  0.42324896  0.04186282  0.06546857  1
  O2-  O265  1  0.42008820  0.03567660  0.40117453  1
  O2-  O266  1  0.41359154  0.03867267  0.72782729  1
  O2-  O267  1  0.41552497  0.54773694  0.06399625  1
  O2-  O268  1  0.41333350  0.54932501  0.39640683  1
  O2-  O269  1  0.41456708  0.54835909  0.73730308  1
  O2-  O270  1  0.91317051  0.04321497  0.06115435  1
  O2-  O271  1  0.91871263  0.04007813  0.40089780  1
  O2-  O272  1  0.91903204  0.03860667  0.73606869  1
  O2-  O273  1  0.91536428  0.55349837  0.06541378  1
  O2-  O274  1  0.91551315  0.54995459  0.39153913  1
  O2-  O275  1  0.92218001  0.54551165  0.73514891  1
  O2-  O276  1  0.29733661  0.16917463  0.06780083  1
  O2-  O277  1  0.29464996  0.16394796  0.40615497  1
  O2-  O278  1  0.30215318  0.16532783  0.72509378  1
  O2-  O279  1  0.29652388  0.66648315  0.06359621  1
  O2-  O280  1  0.29297234  0.66733425  0.39397035  1
  O2-  O281  1  0.28211940  0.66839331  0.73317471  1
  O2-  O282  1  0.79082346  0.16052787  0.06288463  1
  O2-  O283  1  0.78657958  0.16397033  0.39925867  1
  O2-  O284  1  0.78758909  0.16240316  0.73868212  1
  O2-  O285  1  0.79192691  0.66853719  0.06435416  1
  O2-  O286  1  0.79523388  0.66743132  0.39541813  1
  O2-  O287  1  0.79539624  0.67264733  0.73631030  1
