# generated using pymatgen
data_Ca2Al2SiO7
_symmetry_space_group_name_H-M   'P 1'
_cell_length_a   15.47593571
_cell_length_b   15.47112805
_cell_length_c   15.29586801
_cell_angle_alpha   89.99412849
_cell_angle_beta   90.01008328
_cell_angle_gamma   89.98307924
_symmetry_Int_Tables_number   1
_chemical_formula_structural   Ca2Al2SiO7
_chemical_formula_sum   'Ca48 Al48 Si24 O168'
_cell_volume   3662.29224264
_cell_formula_units_Z   24
loop_
 _symmetry_equiv_pos_site_id
 _symmetry_equiv_pos_as_xyz
  1  'x, y, z'
loop_
 _atom_type_symbol
 _atom_type_oxidation_number
  Ca2+  2.0
  Al0+  0.0
  Si0+  0.0
  O2-  -2.0
loop_
 _atom_site_type_symbol
 _atom_site_label
 _atom_site_symmetry_multiplicity
 _atom_site_fract_x
 _atom_site_fract_y
 _atom_site_fract_z
 _atom_site_occupancy
  Ca2+  Ca0  1  0.17605935  0.08275111  0.16668428  1
  Ca2+  Ca1  1  0.17778908  0.08693387  0.50574359  1
  Ca2+  Ca2  1  0.17447511  0.08534847  0.84298552  1
  Ca2+  Ca3  1  0.16619268  0.57533062  0.17291645  1
  Ca2+  Ca4  1  0.17047826  0.57825347  0.50735278  1
  Ca2+  Ca5  1  0.16203253  0.57357865  0.83639529  1
  Ca2+  Ca6  1  0.66625374  0.08044465  0.17204520  1
  Ca2+  Ca7  1  0.66489197  0.08030130  0.50432406  1
  Ca2+  Ca8  1  0.66591101  0.09348610  0.83753863  1
  Ca2+  Ca9  1  0.66774745  0.57684894  0.17539604  1
  Ca2+  Ca10  1  0.66521204  0.57449733  0.50032583  1
  Ca2+  Ca11  1  0.67076431  0.58277307  0.83768255  1
  Ca2+  Ca12  1  0.09261553  0.33052873  0.16135284  1
  Ca2+  Ca13  1  0.09955108  0.33037964  0.50072402  1
  Ca2+  Ca14  1  0.09618833  0.32471710  0.83127373  1
  Ca2+  Ca15  1  0.08332608  0.82284585  0.15659054  1
  Ca2+  Ca16  1  0.08349721  0.81903143  0.49034796  1
  Ca2+  Ca17  1  0.09612860  0.82191771  0.83264544  1
  Ca2+  Ca18  1  0.56979170  0.33199824  0.16041096  1
  Ca2+  Ca19  1  0.56925705  0.33264738  0.49411270  1
  Ca2+  Ca20  1  0.56744874  0.32266209  0.82895695  1
  Ca2+  Ca21  1  0.57813266  0.83510625  0.16309920  1
  Ca2+  Ca22  1  0.58290188  0.83285026  0.49484065  1
  Ca2+  Ca23  1  0.57368874  0.83504016  0.83431019  1
  Ca2+  Ca24  1  0.32624275  0.41601124  0.17342763  1
  Ca2+  Ca25  1  0.32893857  0.42419073  0.50279780  1
  Ca2+  Ca26  1  0.32665796  0.41398325  0.83537713  1
  Ca2+  Ca27  1  0.33520723  0.92713204  0.16512586  1
  Ca2+  Ca28  1  0.33688957  0.93216560  0.50399445  1
  Ca2+  Ca29  1  0.33047697  0.92938549  0.84286768  1
  Ca2+  Ca30  1  0.82380154  0.41588176  0.17374113  1
  Ca2+  Ca31  1  0.82369886  0.41053668  0.50281562  1
  Ca2+  Ca32  1  0.83154066  0.41573066  0.83827230  1
  Ca2+  Ca33  1  0.83090214  0.90896434  0.17252492  1
  Ca2+  Ca34  1  0.82825790  0.90684209  0.49770865  1
  Ca2+  Ca35  1  0.83139115  0.91356263  0.84003766  1
  Ca2+  Ca36  1  0.41315577  0.17498094  0.15984170  1
  Ca2+  Ca37  1  0.40713273  0.17886234  0.49793017  1
  Ca2+  Ca38  1  0.41181072  0.17462648  0.82791698  1
  Ca2+  Ca39  1  0.41357988  0.67002782  0.16231347  1
  Ca2+  Ca40  1  0.41005426  0.66339684  0.49412085  1
  Ca2+  Ca41  1  0.40303548  0.67541736  0.83180825  1
  Ca2+  Ca42  1  0.92524777  0.16822939  0.16049177  1
  Ca2+  Ca43  1  0.92592281  0.16730208  0.50026635  1
  Ca2+  Ca44  1  0.93402529  0.16350304  0.83198396  1
  Ca2+  Ca45  1  0.92784323  0.67464129  0.16281766  1
  Ca2+  Ca46  1  0.93123097  0.66728564  0.49216502  1
  Ca2+  Ca47  1  0.93096757  0.67140283  0.83287010  1
  Al0+  Al48  1  -0.00197419  0.00023465  -0.00227210  1
  Al0+  Al49  1  -0.00087072  0.00082906  0.33064224  1
  Al0+  Al50  1  -0.00394788  0.00018395  0.66088991  1
  Al0+  Al51  1  -0.00170171  0.50175820  0.00261117  1
  Al0+  Al52  1  -0.00119036  0.49726629  0.33274101  1
  Al0+  Al53  1  -0.00252724  0.50148942  0.66664500  1
  Al0+  Al54  1  0.50318573  -0.00161556  -0.00251391  1
  Al0+  Al55  1  0.50274961  0.00002456  0.34261290  1
  Al0+  Al56  1  0.50121634  -0.00146725  0.66842035  1
  Al0+  Al57  1  0.50120102  0.49866022  -0.00488472  1
  Al0+  Al58  1  0.49919675  0.49884007  0.33530347  1
  Al0+  Al59  1  0.50067123  0.50157532  0.66925556  1
  Al0+  Al60  1  0.25018142  0.25182034  0.00080729  1
  Al0+  Al61  1  0.25182740  0.25064987  0.33502368  1
  Al0+  Al62  1  0.25069126  0.25102843  0.66479825  1
  Al0+  Al63  1  0.25115177  0.74997660  -0.00515108  1
  Al0+  Al64  1  0.25139134  0.75159901  0.32862624  1
  Al0+  Al65  1  0.24976337  0.75141470  0.66073175  1
  Al0+  Al66  1  0.74924390  0.25026650  0.00005184  1
  Al0+  Al67  1  0.75065989  0.24753278  0.33918319  1
  Al0+  Al68  1  0.74944667  0.24723625  0.66586965  1
  Al0+  Al69  1  0.75221831  0.74940870  -0.00186080  1
  Al0+  Al70  1  0.74979395  0.74928500  0.33526609  1
  Al0+  Al71  1  0.74771152  0.74978705  0.66824027  1
  Al0+  Al72  1  0.07395951  0.67674393  0.31630965  1
  Al0+  Al73  1  0.57131755  0.17749208  0.64902104  1
  Al0+  Al74  1  0.57217016  0.17816896  0.98779498  1
  Al0+  Al75  1  0.92860223  0.82166978  0.98385160  1
  Al0+  Al76  1  0.32050708  0.06969350  0.34715763  1
  Al0+  Al77  1  0.42988909  0.82047982  0.98710866  1
  Al0+  Al78  1  0.42721472  0.32132354  0.98416179  1
  Al0+  Al79  1  0.07042197  0.18077773  0.98931304  1
  Al0+  Al80  1  0.42985395  0.32072558  0.31773594  1
  Al0+  Al81  1  0.92877608  0.82048346  0.31838219  1
  Al0+  Al82  1  0.67801286  0.42732337  0.34690856  1
  Al0+  Al83  1  0.32022931  0.57362957  0.34510117  1
  Al0+  Al84  1  0.07057944  0.67970808  0.65085885  1
  Al0+  Al85  1  0.32265950  0.57440291  0.68317839  1
  Al0+  Al86  1  0.32294364  0.07150113  0.01474941  1
  Al0+  Al87  1  0.17751898  0.92752034  0.01385181  1
  Al0+  Al88  1  0.17832593  0.43132813  0.68316669  1
  Al0+  Al89  1  0.17726919  0.42912938  0.34846636  1
  Al0+  Al90  1  0.07116356  0.17976039  0.65265138  1
  Al0+  Al91  1  0.32007724  0.07024109  0.68111447  1
  Al0+  Al92  1  0.07240702  0.67783960  0.98351713  1
  Al0+  Al93  1  0.68139129  0.92905607  0.34733666  1
  Al0+  Al94  1  0.17911260  0.43068169  0.01422239  1
  Al0+  Al95  1  0.42856340  0.32256413  0.64856430  1
  Si0+  Si96  1  0.92663375  0.32245355  0.65120731  1
  Si0+  Si97  1  0.82064595  0.07227067  0.01494198  1
  Si0+  Si98  1  0.82482294  0.07264038  0.35260392  1
  Si0+  Si99  1  0.43037897  0.82010219  0.65006154  1
  Si0+  Si100  1  0.17608357  0.92863448  0.34815688  1
  Si0+  Si101  1  0.57289334  0.17687146  0.31842411  1
  Si0+  Si102  1  0.92474151  0.31939072  0.31926994  1
  Si0+  Si103  1  0.81867674  0.57138736  0.68242879  1
  Si0+  Si104  1  0.17523933  0.92971401  0.67915171  1
  Si0+  Si105  1  0.67920938  0.42714531  0.68381630  1
  Si0+  Si106  1  0.68014279  0.92795269  0.68502856  1
  Si0+  Si107  1  0.56982435  0.67874694  0.32023397  1
  Si0+  Si108  1  0.57376299  0.68009662  0.65115898  1
  Si0+  Si109  1  0.92609915  0.32268706  0.98600055  1
  Si0+  Si110  1  0.32443421  0.57202321  0.01509059  1
  Si0+  Si111  1  0.07153536  0.18096266  0.31846314  1
  Si0+  Si112  1  0.82111660  0.07118422  0.68402502  1
  Si0+  Si113  1  0.92419661  0.82076576  0.64869032  1
  Si0+  Si114  1  0.43095193  0.82478229  0.31955522  1
  Si0+  Si115  1  0.81973787  0.57189757  0.01683901  1
  Si0+  Si116  1  0.57304880  0.67716864  0.98418670  1
  Si0+  Si117  1  0.68110928  0.92687876  0.01500430  1
  Si0+  Si118  1  0.82032266  0.57024138  0.35064820  1
  Si0+  Si119  1  0.67955029  0.42909727  0.01465581  1
  O2-  O120  1  0.24972032  -0.00044835  0.06406404  1
  O2-  O121  1  0.24508166  -0.00443345  0.39424972  1
  O2-  O122  1  0.24039747  -0.00001712  0.72561284  1
  O2-  O123  1  0.25481371  0.50517473  0.05956043  1
  O2-  O124  1  0.24363735  0.50747580  0.39588160  1
  O2-  O125  1  0.25104295  0.50265812  0.73353050  1
  O2-  O126  1  0.75061050  -0.00028917  0.05632376  1
  O2-  O127  1  0.75762845  0.00142828  0.39527542  1
  O2-  O128  1  0.74962992  0.00044525  0.72632388  1
  O2-  O129  1  0.74862325  0.50091552  0.05867687  1
  O2-  O130  1  0.75431021  0.49949562  0.39606862  1
  O2-  O131  1  0.75095585  0.49772040  0.72636549  1
  O2-  O132  1  -0.00026005  0.25264454  0.27786252  1
  O2-  O133  1  -0.00047056  0.25872675  0.60660876  1
  O2-  O134  1  -0.00246499  0.25768986  0.94210933  1
  O2-  O135  1  0.00414562  0.75278485  0.26845602  1
  O2-  O136  1  -0.00301559  0.75676892  0.60578147  1
  O2-  O137  1  0.00578589  0.75598899  0.93375421  1
  O2-  O138  1  0.50553084  0.24525290  0.27330694  1
  O2-  O139  1  0.49942071  0.24837834  0.59851762  1
  O2-  O140  1  0.49549185  0.24385375  0.93712956  1
  O2-  O141  1  0.49802384  0.74879733  0.27851218  1
  O2-  O142  1  0.49772966  0.74490914  0.60848310  1
  O2-  O143  1  0.50175856  0.74245513  0.93966544  1
  O2-  O144  1  0.06749784  0.18172182  0.10273274  1
  O2-  O145  1  0.07022886  0.18056214  0.42363098  1
  O2-  O146  1  0.06842165  0.17721188  0.76551462  1
  O2-  O147  1  0.06843959  0.67538103  0.09657259  1
  O2-  O148  1  0.07112666  0.67765976  0.43023551  1
  O2-  O149  1  0.06861104  0.67953220  0.76354361  1
  O2-  O150  1  0.57736492  0.18200100  0.10134295  1
  O2-  O151  1  0.57276529  0.17766238  0.42366671  1
  O2-  O152  1  0.57347416  0.18082916  0.76228346  1
  O2-  O153  1  0.57540284  0.67733379  0.08995380  1
  O2-  O154  1  0.57171018  0.67980047  0.42544540  1
  O2-  O155  1  0.58222770  0.68508076  0.75573146  1
  O2-  O156  1  0.17980289  0.42702386  0.23482494  1
  O2-  O157  1  0.17772701  0.43384912  0.56986461  1
  O2-  O158  1  0.17708599  0.43047588  0.90164783  1
  O2-  O159  1  0.17617338  0.93129382  0.24289632  1
  O2-  O160  1  0.17848090  0.93061803  0.57327560  1
  O2-  O161  1  0.18072164  0.92899551  0.89989981  1
  O2-  O162  1  0.68009614  0.43051773  0.23357729  1
  O2-  O163  1  0.68090031  0.42878549  0.57861479  1
  O2-  O164  1  0.68320366  0.43066410  0.90953572  1
  O2-  O165  1  0.67991705  0.93000929  0.23422618  1
  O2-  O166  1  0.68222972  0.92421276  0.58005142  1
  O2-  O167  1  0.68291305  0.92303919  0.91000060  1
  O2-  O168  1  0.43088316  0.32451533  0.09789867  1
  O2-  O169  1  0.43035521  0.32198859  0.43031848  1
  O2-  O170  1  0.43011440  0.32181982  0.76193653  1
  O2-  O171  1  0.43488060  0.82094113  0.10052934  1
  O2-  O172  1  0.43441223  0.82602667  0.42475472  1
  O2-  O173  1  0.43344605  0.82096840  0.75504479  1
  O2-  O174  1  0.92079385  0.31943096  0.09161593  1
  O2-  O175  1  0.91849549  0.31605901  0.42387333  1
  O2-  O176  1  0.92187540  0.31954838  0.75666618  1
  O2-  O177  1  0.92273684  0.81579563  0.09666340  1
  O2-  O178  1  0.92808707  0.81625278  0.43222511  1
  O2-  O179  1  0.91899557  0.81846859  0.75370081  1
  O2-  O180  1  0.32139695  0.06894916  0.23441753  1
  O2-  O181  1  0.32031590  0.06798150  0.56768630  1
  O2-  O182  1  0.32140598  0.07076684  0.90118626  1
  O2-  O183  1  0.32414618  0.57202934  0.23163496  1
  O2-  O184  1  0.32144935  0.57515590  0.56976136  1
  O2-  O185  1  0.32496943  0.57049663  0.90980790  1
  O2-  O186  1  0.82367943  0.07698999  0.24711863  1
  O2-  O187  1  0.82186764  0.07125588  0.57915483  1
  O2-  O188  1  0.81877388  0.07465897  0.90994617  1
  O2-  O189  1  0.81611812  0.56984312  0.24494073  1
  O2-  O190  1  0.81501452  0.57208068  0.57760082  1
  O2-  O191  1  0.81764458  0.57129040  0.91140392  1
  O2-  O192  1  0.04316623  0.08952278  0.27100625  1
  O2-  O193  1  0.03490091  0.08527134  0.59634503  1
  O2-  O194  1  0.03679190  0.08634341  0.93347593  1
  O2-  O195  1  0.04096210  0.57813470  0.26601966  1
  O2-  O196  1  0.03397493  0.58435580  0.59798557  1
  O2-  O197  1  0.03345559  0.58208606  0.93095062  1
  O2-  O198  1  0.54800800  0.08184229  0.27517577  1
  O2-  O199  1  0.54847698  0.07547222  0.60112749  1
  O2-  O200  1  0.55666830  0.07679270  0.93705695  1
  O2-  O201  1  0.54417494  0.58737395  0.27156422  1
  O2-  O202  1  0.55348707  0.58560096  0.60694575  1
  O2-  O203  1  0.55352431  0.58310880  0.93698148  1
  O2-  O204  1  0.16244995  0.20979057  0.27126395  1
  O2-  O205  1  0.16692714  0.20865818  0.59724115  1
  O2-  O206  1  0.16599567  0.21068995  0.93489977  1
  O2-  O207  1  0.17270567  0.70358777  0.26333260  1
  O2-  O208  1  0.16626842  0.71089522  0.59528318  1
  O2-  O209  1  0.17149053  0.70104877  0.93023879  1
  O2-  O210  1  0.66862499  0.19973080  0.27523324  1
  O2-  O211  1  0.67143881  0.20415547  0.59780505  1
  O2-  O212  1  0.66848107  0.21287838  0.93254247  1
  O2-  O213  1  0.66106261  0.70754420  0.27230196  1
  O2-  O214  1  0.66213400  0.71395001  0.59986310  1
  O2-  O215  1  0.66482613  0.70687478  0.93664793  1
  O2-  O216  1  0.08039089  0.45842985  0.06732518  1
  O2-  O217  1  0.07441314  0.44517477  0.39789209  1
  O2-  O218  1  0.07712845  0.45721684  0.73335008  1
  O2-  O219  1  0.07743170  0.95423518  0.06436657  1
  O2-  O220  1  0.08220607  0.95365403  0.39419028  1
  O2-  O221  1  0.07869323  0.94929768  0.72118540  1
  O2-  O222  1  0.58751432  0.45694754  0.06104149  1
  O2-  O223  1  0.58501730  0.46333206  0.40303331  1
  O2-  O224  1  0.58935576  0.45758113  0.73205761  1
  O2-  O225  1  0.58932374  0.95197007  0.06283066  1
  O2-  O226  1  0.58765906  0.95940367  0.40692492  1
  O2-  O227  1  0.58800999  0.95311437  0.73221483  1
  O2-  O228  1  0.20947208  0.33450795  0.06864393  1
  O2-  O229  1  0.21233431  0.33312675  0.40144515  1
  O2-  O230  1  0.20686449  0.33149992  0.73239544  1
  O2-  O231  1  0.20724376  0.82823000  0.06465420  1
  O2-  O232  1  0.20171701  0.83428670  0.39191312  1
  O2-  O233  1  0.20491639  0.83677861  0.72325856  1
  O2-  O234  1  0.70989464  0.33887959  0.06344686  1
  O2-  O235  1  0.70910843  0.33162943  0.40239580  1
  O2-  O236  1  0.70949356  0.33562870  0.72993161  1
  O2-  O237  1  0.71038251  0.83540505  0.06319037  1
  O2-  O238  1  0.71031439  0.83187968  0.40340513  1
  O2-  O239  1  0.70976739  0.83686256  0.73355388  1
  O2-  O240  1  0.46391543  0.41684023  0.26463318  1
  O2-  O241  1  0.46148892  0.42199943  0.59937635  1
  O2-  O242  1  0.46160007  0.41733872  0.92933234  1
  O2-  O243  1  0.46704009  0.91389162  0.27251224  1
  O2-  O244  1  0.46507205  0.90933551  0.60216456  1
  O2-  O245  1  0.46599880  0.91364190  0.93000759  1
  O2-  O246  1  0.94489624  0.41299822  0.27252065  1
  O2-  O247  1  0.94305760  0.41832266  0.60699120  1
  O2-  O248  1  0.94581475  0.41808548  0.94236868  1
  O2-  O249  1  0.94730477  0.92266902  0.26901391  1
  O2-  O250  1  0.94197627  0.91630442  0.60388770  1
  O2-  O251  1  0.94483329  0.92322350  0.93379580  1
  O2-  O252  1  0.33387972  0.28691646  0.26478408  1
  O2-  O253  1  0.33064892  0.29398994  0.59581956  1
  O2-  O254  1  0.32899792  0.29556775  0.93179314  1
  O2-  O255  1  0.33854346  0.80384712  0.27136070  1
  O2-  O256  1  0.33837251  0.79844983  0.60087298  1
  O2-  O257  1  0.33480575  0.79321629  0.92927428  1
  O2-  O258  1  0.83473234  0.28734316  0.26934782  1
  O2-  O259  1  0.83564385  0.29015578  0.60287215  1
  O2-  O260  1  0.83454171  0.29443631  0.93712574  1
  O2-  O261  1  0.82998153  0.78868881  0.26699617  1
  O2-  O262  1  0.83189129  0.78906604  0.60226056  1
  O2-  O263  1  0.83233503  0.78616139  0.92861865  1
  O2-  O264  1  0.42217120  0.04008666  0.06539943  1
  O2-  O265  1  0.41543770  0.03759332  0.40347093  1
  O2-  O266  1  0.41602803  0.03447684  0.73329180  1
  O2-  O267  1  0.42002351  0.54793817  0.05912542  1
  O2-  O268  1  0.41770374  0.54312207  0.39951173  1
  O2-  O269  1  0.42446247  0.55378203  0.73396867  1
  O2-  O270  1  0.91209399  0.04720128  0.06354509  1
  O2-  O271  1  0.91896697  0.04891875  0.39875533  1
  O2-  O272  1  0.91278655  0.04209739  0.73135104  1
  O2-  O273  1  0.90984677  0.54401032  0.06615137  1
  O2-  O274  1  0.91406933  0.54560321  0.39550406  1
  O2-  O275  1  0.91006646  0.54629430  0.73097484  1
  O2-  O276  1  0.29299249  0.16932364  0.06709939  1
  O2-  O277  1  0.28683665  0.16477459  0.40115507  1
  O2-  O278  1  0.29183516  0.16801484  0.73173277  1
  O2-  O279  1  0.30254890  0.66751534  0.05808431  1
  O2-  O280  1  0.30173830  0.67605417  0.39516464  1
  O2-  O281  1  0.29387666  0.67526646  0.73138000  1
  O2-  O282  1  0.79162352  0.16341796  0.06431776  1
  O2-  O283  1  0.79709088  0.16374043  0.40265605  1
  O2-  O284  1  0.79354055  0.16273236  0.73224164  1
  O2-  O285  1  0.78928708  0.66253873  0.06465225  1
  O2-  O286  1  0.79086288  0.66173568  0.39818562  1
  O2-  O287  1  0.78502039  0.66108099  0.73106353  1
