# generated using pymatgen
data_Ca2Al2SiO7
_symmetry_space_group_name_H-M   'P 1'
_cell_length_a   15.45943610
_cell_length_b   15.45700161
_cell_length_c   15.28424544
_cell_angle_alpha   89.99238787
_cell_angle_beta   89.99250886
_cell_angle_gamma   89.99762244
_symmetry_Int_Tables_number   1
_chemical_formula_structural   Ca2Al2SiO7
_chemical_formula_sum   'Ca48 Al48 Si24 O168'
_cell_volume   3652.27016807
_cell_formula_units_Z   24
loop_
 _symmetry_equiv_pos_site_id
 _symmetry_equiv_pos_as_xyz
  1  'x, y, z'
loop_
 _atom_type_symbol
 _atom_type_oxidation_number
  Ca2+  2.0
  Al0+  0.0
  Si0+  0.0
  O2-  -2.0
loop_
 _atom_site_type_symbol
 _atom_site_label
 _atom_site_symmetry_multiplicity
 _atom_site_fract_x
 _atom_site_fract_y
 _atom_site_fract_z
 _atom_site_occupancy
  Ca2+  Ca0  1  0.17247050  0.08383778  0.17558347  1
  Ca2+  Ca1  1  0.15906194  0.07945868  0.49682666  1
  Ca2+  Ca2  1  0.17439562  0.08090162  0.84116642  1
  Ca2+  Ca3  1  0.16714502  0.57860520  0.17665833  1
  Ca2+  Ca4  1  0.16435631  0.58208138  0.50210287  1
  Ca2+  Ca5  1  0.17439766  0.58458316  0.83356576  1
  Ca2+  Ca6  1  0.67472243  0.08246120  0.17285378  1
  Ca2+  Ca7  1  0.67716084  0.08025721  0.50463240  1
  Ca2+  Ca8  1  0.67297354  0.08873388  0.83750706  1
  Ca2+  Ca9  1  0.66491058  0.58268645  0.16763669  1
  Ca2+  Ca10  1  0.67116131  0.57660817  0.50788996  1
  Ca2+  Ca11  1  0.67520785  0.57724615  0.84153334  1
  Ca2+  Ca12  1  0.07827848  0.33321186  0.17019481  1
  Ca2+  Ca13  1  0.07106275  0.33136257  0.48935284  1
  Ca2+  Ca14  1  0.07403766  0.32816946  0.82669062  1
  Ca2+  Ca15  1  0.08016412  0.83700269  0.17213382  1
  Ca2+  Ca16  1  0.07300426  0.82951148  0.49094243  1
  Ca2+  Ca17  1  0.07504637  0.83122652  0.82561162  1
  Ca2+  Ca18  1  0.57720593  0.32884478  0.15355792  1
  Ca2+  Ca19  1  0.59251026  0.32743225  0.50143055  1
  Ca2+  Ca20  1  0.59552372  0.32543133  0.83292545  1
  Ca2+  Ca21  1  0.59794167  0.82263927  0.16660345  1
  Ca2+  Ca22  1  0.58039187  0.82953985  0.49258458  1
  Ca2+  Ca23  1  0.58034815  0.82627178  0.82829028  1
  Ca2+  Ca24  1  0.32809378  0.41204881  0.17349485  1
  Ca2+  Ca25  1  0.32350984  0.42318437  0.50375067  1
  Ca2+  Ca26  1  0.33561390  0.41742074  0.83672445  1
  Ca2+  Ca27  1  0.32996652  0.92428373  0.17203344  1
  Ca2+  Ca28  1  0.32613582  0.90893297  0.50377373  1
  Ca2+  Ca29  1  0.33642975  0.92075235  0.83622640  1
  Ca2+  Ca30  1  0.82984134  0.41950001  0.16808305  1
  Ca2+  Ca31  1  0.83497090  0.42039606  0.51029460  1
  Ca2+  Ca32  1  0.82472949  0.42191323  0.83476382  1
  Ca2+  Ca33  1  0.83047890  0.92718766  0.17684695  1
  Ca2+  Ca34  1  0.83939272  0.92367920  0.50217168  1
  Ca2+  Ca35  1  0.83737354  0.92751041  0.83644189  1
  Ca2+  Ca36  1  0.42203307  0.17021160  0.15404404  1
  Ca2+  Ca37  1  0.42591952  0.16643594  0.49902282  1
  Ca2+  Ca38  1  0.42779650  0.16943253  0.83227763  1
  Ca2+  Ca39  1  0.43127785  0.66728466  0.16260704  1
  Ca2+  Ca40  1  0.42031570  0.66646123  0.49749186  1
  Ca2+  Ca41  1  0.42187949  0.66795783  0.82683307  1
  Ca2+  Ca42  1  0.91516497  0.16516140  0.16830436  1
  Ca2+  Ca43  1  0.91195267  0.17598864  0.49326863  1
  Ca2+  Ca44  1  0.90756278  0.17095691  0.82560716  1
  Ca2+  Ca45  1  0.91723760  0.67094502  0.16528476  1
  Ca2+  Ca46  1  0.91382918  0.67630183  0.49216797  1
  Ca2+  Ca47  1  0.91136539  0.66856562  0.82666487  1
  Al0+  Al48  1  -0.00016507  -0.00073207  0.00330530  1
  Al0+  Al49  1  0.00288148  0.00223859  0.33368427  1
  Al0+  Al50  1  0.00066253  -0.00177787  0.66878470  1
  Al0+  Al51  1  0.00113692  0.50093617  0.00116178  1
  Al0+  Al52  1  -0.00029274  0.49974026  0.32982277  1
  Al0+  Al53  1  0.00103297  0.49846729  0.66891694  1
  Al0+  Al54  1  0.49919216  -0.00058163  0.00180627  1
  Al0+  Al55  1  0.50099805  0.00074065  0.33639041  1
  Al0+  Al56  1  0.49923185  -0.00080146  0.65735939  1
  Al0+  Al57  1  0.49891774  0.50169568  -0.00481675  1
  Al0+  Al58  1  0.50022544  0.50055094  0.33100687  1
  Al0+  Al59  1  0.49745889  0.49715287  0.67383172  1
  Al0+  Al60  1  0.24926404  0.24891224  -0.00088592  1
  Al0+  Al61  1  0.24899398  0.25253171  0.33833048  1
  Al0+  Al62  1  0.25201839  0.24799804  0.66652384  1
  Al0+  Al63  1  0.24758849  0.74845397  0.00065627  1
  Al0+  Al64  1  0.25227285  0.75203352  0.33239020  1
  Al0+  Al65  1  0.24969852  0.74920874  0.66863660  1
  Al0+  Al66  1  0.75060971  0.25176930  0.00547964  1
  Al0+  Al67  1  0.74889197  0.25101075  0.33117105  1
  Al0+  Al68  1  0.75096942  0.24836551  0.66445844  1
  Al0+  Al69  1  0.75219631  0.75052323  -0.00347530  1
  Al0+  Al70  1  0.74865568  0.75004463  0.32891435  1
  Al0+  Al71  1  0.74882585  0.75087706  0.66480487  1
  Al0+  Al72  1  0.82093070  0.07192626  0.01464400  1
  Al0+  Al73  1  0.92751731  0.82106003  0.65365206  1
  Al0+  Al74  1  0.82114757  0.07204406  0.35008291  1
  Al0+  Al75  1  0.93069533  0.31946030  0.65499102  1
  Al0+  Al76  1  0.67896073  0.92689133  0.34935358  1
  Al0+  Al77  1  0.57110410  0.18037783  0.65140642  1
  Al0+  Al78  1  0.82245678  0.57277725  0.01721942  1
  Al0+  Al79  1  0.31887978  0.57066587  0.68044141  1
  Al0+  Al80  1  0.92580812  0.32218563  0.31572273  1
  Al0+  Al81  1  0.92867671  0.82247433  0.31691275  1
  Al0+  Al82  1  0.42611413  0.32125682  0.98455826  1
  Al0+  Al83  1  0.42862283  0.81966031  0.65280470  1
  Al0+  Al84  1  0.67790946  0.43107092  0.01692735  1
  Al0+  Al85  1  0.57287653  0.17838262  0.98585632  1
  Al0+  Al86  1  0.18139121  0.92926287  0.34825204  1
  Al0+  Al87  1  0.17746489  0.43040243  0.34742689  1
  Al0+  Al88  1  0.67926404  0.42714294  0.68108289  1
  Al0+  Al89  1  0.57227578  0.68052502  0.98367790  1
  Al0+  Al90  1  0.82203088  0.57371944  0.67971974  1
  Al0+  Al91  1  0.32105700  0.07012015  0.01236176  1
  Al0+  Al92  1  0.07249124  0.67914318  0.31872300  1
  Al0+  Al93  1  0.56998676  0.67883254  0.32062251  1
  Al0+  Al94  1  0.82038910  0.06777066  0.68014927  1
  Al0+  Al95  1  0.07199501  0.18047917  0.31828388  1
  Si0+  Si96  1  0.17800348  0.42535675  0.68472053  1
  Si0+  Si97  1  0.32358324  0.07075570  0.68136869  1
  Si0+  Si98  1  0.93044645  0.32183894  0.98462803  1
  Si0+  Si99  1  0.07531386  0.17666276  0.65172413  1
  Si0+  Si100  1  0.32283558  0.07427520  0.35271249  1
  Si0+  Si101  1  0.42853075  0.82449922  0.31532109  1
  Si0+  Si102  1  0.67755844  0.92760800  0.01395637  1
  Si0+  Si103  1  0.93133147  0.82169664  0.98410383  1
  Si0+  Si104  1  0.42444888  0.82049771  0.98444056  1
  Si0+  Si105  1  0.57072034  0.67557006  0.65085540  1
  Si0+  Si106  1  0.32027082  0.57262834  0.01591891  1
  Si0+  Si107  1  0.07164412  0.67723722  0.98301515  1
  Si0+  Si108  1  0.57025246  0.17858970  0.31784406  1
  Si0+  Si109  1  0.42504196  0.32286065  0.64747468  1
  Si0+  Si110  1  0.07001056  0.17736104  0.98519200  1
  Si0+  Si111  1  0.67647674  0.43017734  0.34743671  1
  Si0+  Si112  1  0.17999377  0.92943334  0.68257052  1
  Si0+  Si113  1  0.43008293  0.32045699  0.32128412  1
  Si0+  Si114  1  0.32363400  0.57133411  0.34801104  1
  Si0+  Si115  1  0.82052834  0.57033418  0.34653924  1
  Si0+  Si116  1  0.17749195  0.92703090  0.01714690  1
  Si0+  Si117  1  0.17980651  0.42892579  0.01449222  1
  Si0+  Si118  1  0.67447673  0.92789928  0.68270379  1
  Si0+  Si119  1  0.07168739  0.67849792  0.65226710  1
  O2-  O120  1  0.24776753  -0.00537543  0.05966582  1
  O2-  O121  1  0.25606908  0.00353848  0.39688801  1
  O2-  O122  1  0.25079742  0.00120839  0.72386012  1
  O2-  O123  1  0.25369872  0.49711135  0.05693885  1
  O2-  O124  1  0.24893492  0.50930465  0.39235321  1
  O2-  O125  1  0.24671608  0.49391051  0.72919136  1
  O2-  O126  1  0.74198417  0.00035832  0.05785359  1
  O2-  O127  1  0.75222912  -0.00319725  0.40019846  1
  O2-  O128  1  0.74589257  -0.00691845  0.72809540  1
  O2-  O129  1  0.74853284  0.50368372  0.06853735  1
  O2-  O130  1  0.75051584  0.49823524  0.38872472  1
  O2-  O131  1  0.74797872  0.50352745  0.72943932  1
  O2-  O132  1  -0.00250840  0.24872530  0.26640205  1
  O2-  O133  1  0.00791227  0.24681030  0.60945691  1
  O2-  O134  1  -0.00300425  0.24576368  0.94237897  1
  O2-  O135  1  0.00097764  0.75024533  0.26618721  1
  O2-  O136  1  -0.00324854  0.74014246  0.60911891  1
  O2-  O137  1  0.00018074  0.74802770  0.94186445  1
  O2-  O138  1  0.49722164  0.24765938  0.27693257  1
  O2-  O139  1  0.49732792  0.25732126  0.60449644  1
  O2-  O140  1  0.50213090  0.25248868  0.93565857  1
  O2-  O141  1  0.49933911  0.75759332  0.27235026  1
  O2-  O142  1  0.50290568  0.74492329  0.60600094  1
  O2-  O143  1  0.49539661  0.75476333  0.93953376  1
  O2-  O144  1  0.07214448  0.17808853  0.08959741  1
  O2-  O145  1  0.07364390  0.18421657  0.43200751  1
  O2-  O146  1  0.07777020  0.17732585  0.75800676  1
  O2-  O147  1  0.07494513  0.67649750  0.08742598  1
  O2-  O148  1  0.07040472  0.67943704  0.43262980  1
  O2-  O149  1  0.07516771  0.68259576  0.75839181  1
  O2-  O150  1  0.56929884  0.17879351  0.09984238  1
  O2-  O151  1  0.57022874  0.18015092  0.42307364  1
  O2-  O152  1  0.56955448  0.17889652  0.76422832  1
  O2-  O153  1  0.57072807  0.68213476  0.09699364  1
  O2-  O154  1  0.56548625  0.67393898  0.43349858  1
  O2-  O155  1  0.56931831  0.67845136  0.75646068  1
  O2-  O156  1  0.18265785  0.42916556  0.23385871  1
  O2-  O157  1  0.17830356  0.42590149  0.57940923  1
  O2-  O158  1  0.17840482  0.43091818  0.90922830  1
  O2-  O159  1  0.18591416  0.92999414  0.23493828  1
  O2-  O160  1  0.18006526  0.92880166  0.57790632  1
  O2-  O161  1  0.17628609  0.92769507  0.91106978  1
  O2-  O162  1  0.67224158  0.43229097  0.24281028  1
  O2-  O163  1  0.68138764  0.42903622  0.56658214  1
  O2-  O164  1  0.68288302  0.42992985  0.90366927  1
  O2-  O165  1  0.67876649  0.93030167  0.23531895  1
  O2-  O166  1  0.67360830  0.92971582  0.57751212  1
  O2-  O167  1  0.67893456  0.92617845  0.90816549  1
  O2-  O168  1  0.42327790  0.31767678  0.09892343  1
  O2-  O169  1  0.43276363  0.32136459  0.42634441  1
  O2-  O170  1  0.41781150  0.31853042  0.75227770  1
  O2-  O171  1  0.41932064  0.81725580  0.08960614  1
  O2-  O172  1  0.42705636  0.82179896  0.42098998  1
  O2-  O173  1  0.42941531  0.81993273  0.76628888  1
  O2-  O174  1  0.93396722  0.32393722  0.08926904  1
  O2-  O175  1  0.92617685  0.32338964  0.42950566  1
  O2-  O176  1  0.93219202  0.31738349  0.76878011  1
  O2-  O177  1  0.93364981  0.82350315  0.08861531  1
  O2-  O178  1  0.92956633  0.81971597  0.43067366  1
  O2-  O179  1  0.93352958  0.82432864  0.76723874  1
  O2-  O180  1  0.32272257  0.07457509  0.24689827  1
  O2-  O181  1  0.32301076  0.07135220  0.57655648  1
  O2-  O182  1  0.31869739  0.06825350  0.89881522  1
  O2-  O183  1  0.32651897  0.56651356  0.24228774  1
  O2-  O184  1  0.31592336  0.57067683  0.56724474  1
  O2-  O185  1  0.31546339  0.57654955  0.91090396  1
  O2-  O186  1  0.81677499  0.07237039  0.23618817  1
  O2-  O187  1  0.82161467  0.06845882  0.56785426  1
  O2-  O188  1  0.82412033  0.06922840  0.90123398  1
  O2-  O189  1  0.81943663  0.57011380  0.24155630  1
  O2-  O190  1  0.82165213  0.57325308  0.56567257  1
  O2-  O191  1  0.82382430  0.57134133  0.90371676  1
  O2-  O192  1  0.05084774  0.08080282  0.26562989  1
  O2-  O193  1  0.04876325  0.08283716  0.60795128  1
  O2-  O194  1  0.04582918  0.08385282  0.93855019  1
  O2-  O195  1  0.04539076  0.58116403  0.26495194  1
  O2-  O196  1  0.05571376  0.58138173  0.61087644  1
  O2-  O197  1  0.04570218  0.58535721  0.93436151  1
  O2-  O198  1  0.54396163  0.08597915  0.27160858  1
  O2-  O199  1  0.53705626  0.08613241  0.59469380  1
  O2-  O200  1  0.54341185  0.07912665  0.93430876  1
  O2-  O201  1  0.53438740  0.58452123  0.26349571  1
  O2-  O202  1  0.54287766  0.58118159  0.60777451  1
  O2-  O203  1  0.54060959  0.58505112  0.92931630  1
  O2-  O204  1  0.17093521  0.21278376  0.26641692  1
  O2-  O205  1  0.16957098  0.19876420  0.60529558  1
  O2-  O206  1  0.16024145  0.20772330  0.93560718  1
  O2-  O207  1  0.17242053  0.70617736  0.26660267  1
  O2-  O208  1  0.16226086  0.71065706  0.60473588  1
  O2-  O209  1  0.16277284  0.70723775  0.93392824  1
  O2-  O210  1  0.66043227  0.20833205  0.26985914  1
  O2-  O211  1  0.66637403  0.21155858  0.59556371  1
  O2-  O212  1  0.67255346  0.20765578  0.93472476  1
  O2-  O213  1  0.66578172  0.70614235  0.26357305  1
  O2-  O214  1  0.66426061  0.69988343  0.60463361  1
  O2-  O215  1  0.66852656  0.71228101  0.92909093  1
  O2-  O216  1  0.08990670  0.46023901  0.06281280  1
  O2-  O217  1  0.08024487  0.45919118  0.40089178  1
  O2-  O218  1  0.08552562  0.45078277  0.73319366  1
  O2-  O219  1  0.08568435  0.95478355  0.06448042  1
  O2-  O220  1  0.08547279  0.95991086  0.40302174  1
  O2-  O221  1  0.08978279  0.95768454  0.73310748  1
  O2-  O222  1  0.57667048  0.45772863  0.06578872  1
  O2-  O223  1  0.58624735  0.46077021  0.39691302  1
  O2-  O224  1  0.57812526  0.44551181  0.73221410  1
  O2-  O225  1  0.58214755  0.94488653  0.05964420  1
  O2-  O226  1  0.57981405  0.95536687  0.40195807  1
  O2-  O227  1  0.58079343  0.95594355  0.72759981  1
  O2-  O228  1  0.20467537  0.33623147  0.06112592  1
  O2-  O229  1  0.21217480  0.33705119  0.40524922  1
  O2-  O230  1  0.20439102  0.33111450  0.73015294  1
  O2-  O231  1  0.20144558  0.83257890  0.06212458  1
  O2-  O232  1  0.21282080  0.83254273  0.40315112  1
  O2-  O233  1  0.20868251  0.83862081  0.73170459  1
  O2-  O234  1  0.70662763  0.33337005  0.07101937  1
  O2-  O235  1  0.70136057  0.33697834  0.39270312  1
  O2-  O236  1  0.71357255  0.33071583  0.73370431  1
  O2-  O237  1  0.70994641  0.83636600  0.06049287  1
  O2-  O238  1  0.70151234  0.82572205  0.39939524  1
  O2-  O239  1  0.69618219  0.83269778  0.72695856  1
  O2-  O240  1  0.45866149  0.41090850  0.27168241  1
  O2-  O241  1  0.44608623  0.41872124  0.60452253  1
  O2-  O242  1  0.44663953  0.42208337  0.93421998  1
  O2-  O243  1  0.45127666  0.91990633  0.27139233  1
  O2-  O244  1  0.45480792  0.91517175  0.59517380  1
  O2-  O245  1  0.44756922  0.91551747  0.94051678  1
  O2-  O246  1  0.95768252  0.41884345  0.26170572  1
  O2-  O247  1  0.96047350  0.41697719  0.60146169  1
  O2-  O248  1  0.96435334  0.41179778  0.93673644  1
  O2-  O249  1  0.95999728  0.92048731  0.26554300  1
  O2-  O250  1  0.96615898  0.91519216  0.59992517  1
  O2-  O251  1  0.96367767  0.91240225  0.93561542  1
  O2-  O252  1  0.33681436  0.29572317  0.27601461  1
  O2-  O253  1  0.33310836  0.29280893  0.59869863  1
  O2-  O254  1  0.32858848  0.28986878  0.92989742  1
  O2-  O255  1  0.33626086  0.79829265  0.26752209  1
  O2-  O256  1  0.33174024  0.78694562  0.59990222  1
  O2-  O257  1  0.33144973  0.79273249  0.93650815  1
  O2-  O258  1  0.82708993  0.29504717  0.26237459  1
  O2-  O259  1  0.83626569  0.28747719  0.59925744  1
  O2-  O260  1  0.83722092  0.29664042  0.94020292  1
  O2-  O261  1  0.83068944  0.79423589  0.26367525  1
  O2-  O262  1  0.82906273  0.79815985  0.59998323  1
  O2-  O263  1  0.83961812  0.79721394  0.93561992  1
  O2-  O264  1  0.41681237  0.04097194  0.06927737  1
  O2-  O265  1  0.41707234  0.05000382  0.39774371  1
  O2-  O266  1  0.41434292  0.03900991  0.72789352  1
  O2-  O267  1  0.41402916  0.55046776  0.06059409  1
  O2-  O268  1  0.41354680  0.53775918  0.39730341  1
  O2-  O269  1  0.41457143  0.54273556  0.73722524  1
  O2-  O270  1  0.91677579  0.03764349  0.06840367  1
  O2-  O271  1  0.92210253  0.04942575  0.39903318  1
  O2-  O272  1  0.91774282  0.03828429  0.73546166  1
  O2-  O273  1  0.92158955  0.54304123  0.06844633  1
  O2-  O274  1  0.91268609  0.54427340  0.39311909  1
  O2-  O275  1  0.92119874  0.54600456  0.73284649  1
  O2-  O276  1  0.28753332  0.16581782  0.06666337  1
  O2-  O277  1  0.29595133  0.16669491  0.40026726  1
  O2-  O278  1  0.29731734  0.16279456  0.72948557  1
  O2-  O279  1  0.28743061  0.66214212  0.06525120  1
  O2-  O280  1  0.30562951  0.66758245  0.39052632  1
  O2-  O281  1  0.28515115  0.66563078  0.73751939  1
  O2-  O282  1  0.79580792  0.16899904  0.06889265  1
  O2-  O283  1  0.78745931  0.17061424  0.40077191  1
  O2-  O284  1  0.78785036  0.16390605  0.73311689  1
  O2-  O285  1  0.79668563  0.67342848  0.06648752  1
  O2-  O286  1  0.79134352  0.66208798  0.39254534  1
  O2-  O287  1  0.79537612  0.67320554  0.73250740  1
