# generated using pymatgen
data_Ca2Al2SiO7
_symmetry_space_group_name_H-M   'P 1'
_cell_length_a   15.45838772
_cell_length_b   15.45792749
_cell_length_c   15.28455110
_cell_angle_alpha   90.00095206
_cell_angle_beta   89.98712107
_cell_angle_gamma   89.99879867
_symmetry_Int_Tables_number   1
_chemical_formula_structural   Ca2Al2SiO7
_chemical_formula_sum   'Ca48 Al48 Si24 O168'
_cell_volume   3652.31425903
_cell_formula_units_Z   24
loop_
 _symmetry_equiv_pos_site_id
 _symmetry_equiv_pos_as_xyz
  1  'x, y, z'
loop_
 _atom_type_symbol
 _atom_type_oxidation_number
  Ca2+  2.0
  Al0+  0.0
  Si0+  0.0
  O2-  -2.0
loop_
 _atom_site_type_symbol
 _atom_site_label
 _atom_site_symmetry_multiplicity
 _atom_site_fract_x
 _atom_site_fract_y
 _atom_site_fract_z
 _atom_site_occupancy
  Ca2+  Ca0  1  0.16726673  0.07519144  0.17758814  1
  Ca2+  Ca1  1  0.17274749  0.07705522  0.50468159  1
  Ca2+  Ca2  1  0.17512795  0.07258477  0.83340159  1
  Ca2+  Ca3  1  0.17422281  0.58358160  0.17401899  1
  Ca2+  Ca4  1  0.16799783  0.57945114  0.50048573  1
  Ca2+  Ca5  1  0.17383439  0.57636234  0.83435278  1
  Ca2+  Ca6  1  0.66513969  0.08589725  0.16787887  1
  Ca2+  Ca7  1  0.67404005  0.08683216  0.50819484  1
  Ca2+  Ca8  1  0.66883529  0.09623358  0.83270150  1
  Ca2+  Ca9  1  0.67550426  0.57958174  0.17805990  1
  Ca2+  Ca10  1  0.67772707  0.58155939  0.50925991  1
  Ca2+  Ca11  1  0.66402217  0.57980146  0.82990583  1
  Ca2+  Ca12  1  0.07397125  0.33166829  0.16813785  1
  Ca2+  Ca13  1  0.08192782  0.32805372  0.49091003  1
  Ca2+  Ca14  1  0.07840332  0.33873458  0.82729693  1
  Ca2+  Ca15  1  0.08889771  0.83267362  0.17045976  1
  Ca2+  Ca16  1  0.08176303  0.83236450  0.49028937  1
  Ca2+  Ca17  1  0.08892029  0.83594313  0.82954799  1
  Ca2+  Ca18  1  0.57715700  0.32850231  0.16490706  1
  Ca2+  Ca19  1  0.57623505  0.33248989  0.50193194  1
  Ca2+  Ca20  1  0.57778828  0.32754283  0.82273834  1
  Ca2+  Ca21  1  0.57433764  0.83243059  0.16714518  1
  Ca2+  Ca22  1  0.57220275  0.83023748  0.49954439  1
  Ca2+  Ca23  1  0.57427699  0.82430394  0.81983985  1
  Ca2+  Ca24  1  0.33873814  0.42716783  0.17551341  1
  Ca2+  Ca25  1  0.33369657  0.41717412  0.50591944  1
  Ca2+  Ca26  1  0.33160001  0.41616182  0.83339534  1
  Ca2+  Ca27  1  0.32396532  0.92219692  0.17912120  1
  Ca2+  Ca28  1  0.32847542  0.92178522  0.50367998  1
  Ca2+  Ca29  1  0.32878901  0.91491318  0.83350031  1
  Ca2+  Ca30  1  0.83614571  0.41590041  0.17453750  1
  Ca2+  Ca31  1  0.83251080  0.42505828  0.50750548  1
  Ca2+  Ca32  1  0.82732099  0.41739702  0.83250482  1
  Ca2+  Ca33  1  0.83069053  0.91401396  0.17502769  1
  Ca2+  Ca34  1  0.83535659  0.92018211  0.50571619  1
  Ca2+  Ca35  1  0.83061516  0.92492950  0.83211101  1
  Ca2+  Ca36  1  0.41682261  0.16899906  0.16686672  1
  Ca2+  Ca37  1  0.40788066  0.17461960  0.49718973  1
  Ca2+  Ca38  1  0.42601378  0.16767492  0.82003463  1
  Ca2+  Ca39  1  0.40303714  0.67130614  0.16707260  1
  Ca2+  Ca40  1  0.41331829  0.67679382  0.49467188  1
  Ca2+  Ca41  1  0.41745014  0.67072896  0.82269397  1
  Ca2+  Ca42  1  0.92341307  0.17455748  0.16610489  1
  Ca2+  Ca43  1  0.92360082  0.17013160  0.49161309  1
  Ca2+  Ca44  1  0.91599174  0.17143083  0.82839956  1
  Ca2+  Ca45  1  0.92312232  0.66664266  0.17173644  1
  Ca2+  Ca46  1  0.92167862  0.66651640  0.48906660  1
  Ca2+  Ca47  1  0.91760841  0.66796180  0.82540549  1
  Al0+  Al48  1  -0.00128654  0.00029739  0.00337477  1
  Al0+  Al49  1  -0.00191515  -0.00037443  0.32841976  1
  Al0+  Al50  1  -0.00018681  0.00078750  0.67601752  1
  Al0+  Al51  1  0.00027484  0.50157541  -0.00447208  1
  Al0+  Al52  1  0.00011712  0.50134385  0.32865500  1
  Al0+  Al53  1  0.00079853  0.50170431  0.67424595  1
  Al0+  Al54  1  0.50104440  -0.00097573  -0.00457830  1
  Al0+  Al55  1  0.50011591  -0.00136800  0.33267424  1
  Al0+  Al56  1  0.50153083  -0.00074449  0.66161797  1
  Al0+  Al57  1  0.50200396  0.49999519  0.00508074  1
  Al0+  Al58  1  0.50129622  0.49916624  0.33463722  1
  Al0+  Al59  1  0.50296893  0.49967916  0.66324400  1
  Al0+  Al60  1  0.24821706  0.24955922  0.00046997  1
  Al0+  Al61  1  0.25086315  0.25004242  0.32412411  1
  Al0+  Al62  1  0.24873343  0.24842030  0.67373376  1
  Al0+  Al63  1  0.24832134  0.74984057  0.00522028  1
  Al0+  Al64  1  0.24960636  0.74963464  0.33326055  1
  Al0+  Al65  1  0.24766932  0.74881778  0.66547496  1
  Al0+  Al66  1  0.75047478  0.25157195  -0.00496965  1
  Al0+  Al67  1  0.74814832  0.24907815  0.33026368  1
  Al0+  Al68  1  0.75043337  0.25285477  0.66992682  1
  Al0+  Al69  1  0.75052051  0.75091280  -0.00008581  1
  Al0+  Al70  1  0.74973654  0.74888678  0.33461349  1
  Al0+  Al71  1  0.75175117  0.75220122  0.66799138  1
  Al0+  Al72  1  0.17688404  0.92985697  0.34932658  1
  Al0+  Al73  1  0.42611774  0.31966801  0.65243761  1
  Al0+  Al74  1  0.42923205  0.82044542  0.31835872  1
  Al0+  Al75  1  0.32100954  0.56785695  0.01264540  1
  Al0+  Al76  1  0.32243885  0.07296543  0.34772941  1
  Al0+  Al77  1  0.42893921  0.32210172  0.31914227  1
  Al0+  Al78  1  0.07236341  0.17778544  0.31907705  1
  Al0+  Al79  1  0.57380526  0.67788436  0.65094460  1
  Al0+  Al80  1  0.32189654  0.57070103  0.34874358  1
  Al0+  Al81  1  0.17932006  0.42747226  0.67843212  1
  Al0+  Al82  1  0.07206174  0.67900390  0.31800441  1
  Al0+  Al83  1  0.92760054  0.32140030  0.32126534  1
  Al0+  Al84  1  0.82187208  0.57343418  0.68310170  1
  Al0+  Al85  1  0.82017604  0.07198817  0.67964782  1
  Al0+  Al86  1  0.67830502  0.43022648  0.68233503  1
  Al0+  Al87  1  0.17954539  0.93055245  0.01674091  1
  Al0+  Al88  1  0.57371473  0.17902314  0.64988192  1
  Al0+  Al89  1  0.17921501  0.92729279  0.68182892  1
  Al0+  Al90  1  0.92692621  0.82133252  0.31932321  1
  Al0+  Al91  1  0.93150569  0.32148374  0.98323137  1
  Al0+  Al92  1  0.82145236  0.56937221  0.34622227  1
  Al0+  Al93  1  0.42589635  0.82028301  0.65047052  1
  Al0+  Al94  1  0.56841678  0.17948579  0.98562068  1
  Al0+  Al95  1  0.32341717  0.07068471  0.68190104  1
  Si0+  Si96  1  0.07157299  0.17547568  0.98074380  1
  Si0+  Si97  1  0.17829527  0.42829240  0.34678688  1
  Si0+  Si98  1  0.57217404  0.17697748  0.31629282  1
  Si0+  Si99  1  0.42782044  0.32454514  0.98440417  1
  Si0+  Si100  1  0.93078499  0.32267534  0.65265328  1
  Si0+  Si101  1  0.67869014  0.92755120  0.34840119  1
  Si0+  Si102  1  0.57169326  0.67832626  0.31643263  1
  Si0+  Si103  1  0.82159642  0.57289359  0.01612697  1
  Si0+  Si104  1  0.67818684  0.42540369  0.35054010  1
  Si0+  Si105  1  0.42863330  0.81782154  0.98594120  1
  Si0+  Si106  1  0.06928545  0.17815885  0.65460006  1
  Si0+  Si107  1  0.32211286  0.57092670  0.67996568  1
  Si0+  Si108  1  0.92667606  0.82179866  0.98305410  1
  Si0+  Si109  1  0.67900022  0.92746354  0.01497415  1
  Si0+  Si110  1  0.81852428  0.07209018  0.01652823  1
  Si0+  Si111  1  0.93107638  0.82333706  0.65455446  1
  Si0+  Si112  1  0.81918330  0.07137513  0.34592125  1
  Si0+  Si113  1  0.32502414  0.07167345  0.01617570  1
  Si0+  Si114  1  0.57381349  0.67872314  0.98670216  1
  Si0+  Si115  1  0.68121674  0.42909694  0.01695836  1
  Si0+  Si116  1  0.07095728  0.68165017  0.98280395  1
  Si0+  Si117  1  0.67824650  0.92826336  0.68329257  1
  Si0+  Si118  1  0.17547138  0.42720366  0.01783410  1
  Si0+  Si119  1  0.06924889  0.67781253  0.65261947  1
  O2-  O120  1  0.25265937  0.00766007  0.06107553  1
  O2-  O121  1  0.24871204  0.00258143  0.39729473  1
  O2-  O122  1  0.25558479  -0.00553491  0.73214090  1
  O2-  O123  1  0.25044879  0.48931777  0.06060259  1
  O2-  O124  1  0.24854455  0.49391488  0.39309589  1
  O2-  O125  1  0.25829362  0.49816403  0.72520743  1
  O2-  O126  1  0.74818941  -0.00006776  0.05846579  1
  O2-  O127  1  0.75052557  -0.00133156  0.38867778  1
  O2-  O128  1  0.74161033  0.00181474  0.72851457  1
  O2-  O129  1  0.75183733  0.50093288  0.05878918  1
  O2-  O130  1  0.74930905  0.49265413  0.39231908  1
  O2-  O131  1  0.74813779  0.50410105  0.73421504  1
  O2-  O132  1  -0.00040849  0.25023750  0.27002319  1
  O2-  O133  1  0.00094054  0.25123624  0.61100450  1
  O2-  O134  1  0.00822435  0.24891343  0.93554271  1
  O2-  O135  1  0.00100546  0.75260540  0.26750963  1
  O2-  O136  1  -0.00083821  0.75034796  0.61243773  1
  O2-  O137  1  -0.00089333  0.75238024  0.94057561  1
  O2-  O138  1  0.50201364  0.24481344  0.27324933  1
  O2-  O139  1  0.49649337  0.24599336  0.60146261  1
  O2-  O140  1  0.48950111  0.24999501  0.94034412  1
  O2-  O141  1  0.50053094  0.74282256  0.26918433  1
  O2-  O142  1  0.49798617  0.74651651  0.60238528  1
  O2-  O143  1  0.49959716  0.74627085  0.94436693  1
  O2-  O144  1  0.06767439  0.17429091  0.08588604  1
  O2-  O145  1  0.06942225  0.17850512  0.43325355  1
  O2-  O146  1  0.06575373  0.17837358  0.75992122  1
  O2-  O147  1  0.06971221  0.68060185  0.08732756  1
  O2-  O148  1  0.06883299  0.67643820  0.43175745  1
  O2-  O149  1  0.06912249  0.67774970  0.75827471  1
  O2-  O150  1  0.56990413  0.18076713  0.09898034  1
  O2-  O151  1  0.57867989  0.17772619  0.42076914  1
  O2-  O152  1  0.57334430  0.18395965  0.76390550  1
  O2-  O153  1  0.57837657  0.68189275  0.09139498  1
  O2-  O154  1  0.57364422  0.68188727  0.42117417  1
  O2-  O155  1  0.57156666  0.68072845  0.76597051  1
  O2-  O156  1  0.17813810  0.43121193  0.24082451  1
  O2-  O157  1  0.17475857  0.42986343  0.56577914  1
  O2-  O158  1  0.17382123  0.43049900  0.91212225  1
  O2-  O159  1  0.17989578  0.93152596  0.23523263  1
  O2-  O160  1  0.17325613  0.92973762  0.56941821  1
  O2-  O161  1  0.18210723  0.92854952  0.90372379  1
  O2-  O162  1  0.67849046  0.42638373  0.24398464  1
  O2-  O163  1  0.68391255  0.42803586  0.56906839  1
  O2-  O164  1  0.67984321  0.43072996  0.91246829  1
  O2-  O165  1  0.67884878  0.92781860  0.24246835  1
  O2-  O166  1  0.68379326  0.92524275  0.57785392  1
  O2-  O167  1  0.68124255  0.92393994  0.91056896  1
  O2-  O168  1  0.43270245  0.32707194  0.08985025  1
  O2-  O169  1  0.42973176  0.32295574  0.43147319  1
  O2-  O170  1  0.42675087  0.31968934  0.76678783  1
  O2-  O171  1  0.43091959  0.81834068  0.09088024  1
  O2-  O172  1  0.43205638  0.82082941  0.43059569  1
  O2-  O173  1  0.42642680  0.81641347  0.76555231  1
  O2-  O174  1  0.93035582  0.31973754  0.09613198  1
  O2-  O175  1  0.92797582  0.31944795  0.43498386  1
  O2-  O176  1  0.93238688  0.32178016  0.75810378  1
  O2-  O177  1  0.92161622  0.81957889  0.08740093  1
  O2-  O178  1  0.92523450  0.82074920  0.43306026  1
  O2-  O179  1  0.93184616  0.82304872  0.76021078  1
  O2-  O180  1  0.32398531  0.06994258  0.23330327  1
  O2-  O181  1  0.31703673  0.07413097  0.56910338  1
  O2-  O182  1  0.32663304  0.06824268  0.91097193  1
  O2-  O183  1  0.31994931  0.56870831  0.23507384  1
  O2-  O184  1  0.31760199  0.57252245  0.57493875  1
  O2-  O185  1  0.31957928  0.56891843  0.89930819  1
  O2-  O186  1  0.81551708  0.07250973  0.24045372  1
  O2-  O187  1  0.82338151  0.06847340  0.56644522  1
  O2-  O188  1  0.81813021  0.07095355  0.91149740  1
  O2-  O189  1  0.81824493  0.56933852  0.23221395  1
  O2-  O190  1  0.82551782  0.57082145  0.56986323  1
  O2-  O191  1  0.81964354  0.57510272  0.91146857  1
  O2-  O192  1  0.03967275  0.08225094  0.26285614  1
  O2-  O193  1  0.03682592  0.08730366  0.60856877  1
  O2-  O194  1  0.03918903  0.08353648  0.93455649  1
  O2-  O195  1  0.04116387  0.58303632  0.26069190  1
  O2-  O196  1  0.03913299  0.58667017  0.60565153  1
  O2-  O197  1  0.04368287  0.58998789  0.93444766  1
  O2-  O198  1  0.54836447  0.08319367  0.26929471  1
  O2-  O199  1  0.55740613  0.07701993  0.60113047  1
  O2-  O200  1  0.54556372  0.08052818  0.93145239  1
  O2-  O201  1  0.55158412  0.58284264  0.27189505  1
  O2-  O202  1  0.55453706  0.57793797  0.59954722  1
  O2-  O203  1  0.54895742  0.58480428  0.94234228  1
  O2-  O204  1  0.16807389  0.20510644  0.26048546  1
  O2-  O205  1  0.16157478  0.20418537  0.60943088  1
  O2-  O206  1  0.16843444  0.19510007  0.93815590  1
  O2-  O207  1  0.16962574  0.70664917  0.26318396  1
  O2-  O208  1  0.16089184  0.70260728  0.60480024  1
  O2-  O209  1  0.16244580  0.71151118  0.93556867  1
  O2-  O210  1  0.66380866  0.20489445  0.26566387  1
  O2-  O211  1  0.67202275  0.21218371  0.59836977  1
  O2-  O212  1  0.66434414  0.21347885  0.93279062  1
  O2-  O213  1  0.66350390  0.70851973  0.26819585  1
  O2-  O214  1  0.67194088  0.71119554  0.59977659  1
  O2-  O215  1  0.66387626  0.70971626  0.93715148  1
  O2-  O216  1  0.08389503  0.46089266  0.06350101  1
  O2-  O217  1  0.08520067  0.45568306  0.39256200  1
  O2-  O218  1  0.08715796  0.46488182  0.73818588  1
  O2-  O219  1  0.08032978  0.95765428  0.06784267  1
  O2-  O220  1  0.07580335  0.95571541  0.39801098  1
  O2-  O221  1  0.08395402  0.96069761  0.73986959  1
  O2-  O222  1  0.59001410  0.45617079  0.06651718  1
  O2-  O223  1  0.58610161  0.45297592  0.39679854  1
  O2-  O224  1  0.57936383  0.45669527  0.73704611  1
  O2-  O225  1  0.58631224  0.95450646  0.06168675  1
  O2-  O226  1  0.58802080  0.95620833  0.39582502  1
  O2-  O227  1  0.58265993  0.94629166  0.72730950  1
  O2-  O228  1  0.19171264  0.32992695  0.06012777  1
  O2-  O229  1  0.20086468  0.33284047  0.38871785  1
  O2-  O230  1  0.20347781  0.33201285  0.73794076  1
  O2-  O231  1  0.21085753  0.83421394  0.07013868  1
  O2-  O232  1  0.20454048  0.83062300  0.39893986  1
  O2-  O233  1  0.20390069  0.82701989  0.73478136  1
  O2-  O234  1  0.71145932  0.33754033  0.06363486  1
  O2-  O235  1  0.70148435  0.33076847  0.39467012  1
  O2-  O236  1  0.71158318  0.33467197  0.73878581  1
  O2-  O237  1  0.70907823  0.83696976  0.06484461  1
  O2-  O238  1  0.70650501  0.83675814  0.39661652  1
  O2-  O239  1  0.71020557  0.83819870  0.73383680  1
  O2-  O240  1  0.46438434  0.41748654  0.26360497  1
  O2-  O241  1  0.45460071  0.41839615  0.60089619  1
  O2-  O242  1  0.45988204  0.41642345  0.93806923  1
  O2-  O243  1  0.46498741  0.91516100  0.26226419  1
  O2-  O244  1  0.45543206  0.91769238  0.59776424  1
  O2-  O245  1  0.45739245  0.90889597  0.93806463  1
  O2-  O246  1  0.95608779  0.41804024  0.26503172  1
  O2-  O247  1  0.96024829  0.41522572  0.60840642  1
  O2-  O248  1  0.95971819  0.41931018  0.92930919  1
  O2-  O249  1  0.94927116  0.91984359  0.26383576  1
  O2-  O250  1  0.96045614  0.91508062  0.60831462  1
  O2-  O251  1  0.95276690  0.91537673  0.93816149  1
  O2-  O252  1  0.33388546  0.29598095  0.25981073  1
  O2-  O253  1  0.32554345  0.29302909  0.60243602  1
  O2-  O254  1  0.32971304  0.30745757  0.94411610  1
  O2-  O255  1  0.33294949  0.79033073  0.26410140  1
  O2-  O256  1  0.32752682  0.79080494  0.59824800  1
  O2-  O257  1  0.33666047  0.78852058  0.94007758  1
  O2-  O258  1  0.82996711  0.29162102  0.26580096  1
  O2-  O259  1  0.83890682  0.29583683  0.60721661  1
  O2-  O260  1  0.83568429  0.28816286  0.92950088  1
  O2-  O261  1  0.82911479  0.78991113  0.26459774  1
  O2-  O262  1  0.83808876  0.80057543  0.60838927  1
  O2-  O263  1  0.83561122  0.79241162  0.93381180  1
  O2-  O264  1  0.41815686  0.04265210  0.06191324  1
  O2-  O265  1  0.42135447  0.04393608  0.39878620  1
  O2-  O266  1  0.42450654  0.04565479  0.73137124  1
  O2-  O267  1  0.41906977  0.54331941  0.06818227  1
  O2-  O268  1  0.42000412  0.54282035  0.40032794  1
  O2-  O269  1  0.41790750  0.55210198  0.72352686  1
  O2-  O270  1  0.91005668  0.04423760  0.06369469  1
  O2-  O271  1  0.91154988  0.04606559  0.39209872  1
  O2-  O272  1  0.91239674  0.03675047  0.74014388  1
  O2-  O273  1  0.91498199  0.54562348  0.06021613  1
  O2-  O274  1  0.91930849  0.54162434  0.39834800  1
  O2-  O275  1  0.91799142  0.54240545  0.73974701  1
  O2-  O276  1  0.30432694  0.16858437  0.05867402  1
  O2-  O277  1  0.29522077  0.17375306  0.39536921  1
  O2-  O278  1  0.29035492  0.16557916  0.73980389  1
  O2-  O279  1  0.28547939  0.66266335  0.06708918  1
  O2-  O280  1  0.28991169  0.66663581  0.40141408  1
  O2-  O281  1  0.28996260  0.66157654  0.72897638  1
  O2-  O282  1  0.78828591  0.16370313  0.06283158  1
  O2-  O283  1  0.78956372  0.16225911  0.39426102  1
  O2-  O284  1  0.79322038  0.16873205  0.73534820  1
  O2-  O285  1  0.79241506  0.66466969  0.06326267  1
  O2-  O286  1  0.78902204  0.66543634  0.40009258  1
  O2-  O287  1  0.79677279  0.67329197  0.73588145  1
