# generated using pymatgen
data_Ca2Al2SiO7
_symmetry_space_group_name_H-M   'P 1'
_cell_length_a   15.45490608
_cell_length_b   15.45415610
_cell_length_c   15.28192066
_cell_angle_alpha   89.99997074
_cell_angle_beta   89.99457777
_cell_angle_gamma   89.99500984
_symmetry_Int_Tables_number   1
_chemical_formula_structural   Ca2Al2SiO7
_chemical_formula_sum   'Ca48 Al48 Si24 O168'
_cell_volume   3649.97257880
_cell_formula_units_Z   24
loop_
 _symmetry_equiv_pos_site_id
 _symmetry_equiv_pos_as_xyz
  1  'x, y, z'
loop_
 _atom_type_symbol
 _atom_type_oxidation_number
  Ca2+  2.0
  Al0+  0.0
  Si0+  0.0
  O2-  -2.0
loop_
 _atom_site_type_symbol
 _atom_site_label
 _atom_site_symmetry_multiplicity
 _atom_site_fract_x
 _atom_site_fract_y
 _atom_site_fract_z
 _atom_site_occupancy
  Ca2+  Ca0  1  0.16929301  0.08517429  0.16746947  1
  Ca2+  Ca1  1  0.16686952  0.07812313  0.50915742  1
  Ca2+  Ca2  1  0.15497392  0.07935797  0.83478759  1
  Ca2+  Ca3  1  0.17858164  0.57203497  0.17272062  1
  Ca2+  Ca4  1  0.17246530  0.58155919  0.50015297  1
  Ca2+  Ca5  1  0.17380557  0.57185004  0.84565345  1
  Ca2+  Ca6  1  0.67222815  0.08751322  0.17204454  1
  Ca2+  Ca7  1  0.66630638  0.07738046  0.51232922  1
  Ca2+  Ca8  1  0.67334181  0.08491589  0.83312723  1
  Ca2+  Ca9  1  0.66231943  0.58230855  0.16946324  1
  Ca2+  Ca10  1  0.66558021  0.57919199  0.50339723  1
  Ca2+  Ca11  1  0.67784634  0.58762323  0.83832092  1
  Ca2+  Ca12  1  0.09133346  0.33111470  0.15952842  1
  Ca2+  Ca13  1  0.07830112  0.33389430  0.50109191  1
  Ca2+  Ca14  1  0.08206119  0.32300099  0.82608849  1
  Ca2+  Ca15  1  0.07738312  0.83121834  0.16533658  1
  Ca2+  Ca16  1  0.07065154  0.84071164  0.49909646  1
  Ca2+  Ca17  1  0.07732340  0.83127663  0.82386835  1
  Ca2+  Ca18  1  0.58145482  0.33465312  0.16435670  1
  Ca2+  Ca19  1  0.58769271  0.32390899  0.49653755  1
  Ca2+  Ca20  1  0.57097152  0.33258545  0.82597284  1
  Ca2+  Ca21  1  0.57055517  0.81994269  0.16134391  1
  Ca2+  Ca22  1  0.58301819  0.82800635  0.49009370  1
  Ca2+  Ca23  1  0.58404013  0.83118901  0.83358066  1
  Ca2+  Ca24  1  0.33044399  0.42109581  0.17027985  1
  Ca2+  Ca25  1  0.33452491  0.41915084  0.50018421  1
  Ca2+  Ca26  1  0.33230728  0.41496978  0.84312745  1
  Ca2+  Ca27  1  0.33832444  0.91153879  0.17000441  1
  Ca2+  Ca28  1  0.33000779  0.91574754  0.50683021  1
  Ca2+  Ca29  1  0.32829489  0.91679996  0.83705487  1
  Ca2+  Ca30  1  0.82748679  0.42564804  0.17234142  1
  Ca2+  Ca31  1  0.82847065  0.42071318  0.50730010  1
  Ca2+  Ca32  1  0.83936555  0.42575074  0.83667379  1
  Ca2+  Ca33  1  0.83479692  0.92279312  0.16886559  1
  Ca2+  Ca34  1  0.82867902  0.91932000  0.51298632  1
  Ca2+  Ca35  1  0.83158008  0.92605005  0.83168032  1
  Ca2+  Ca36  1  0.42545861  0.17254151  0.16063582  1
  Ca2+  Ca37  1  0.42917145  0.16890058  0.49889615  1
  Ca2+  Ca38  1  0.41878576  0.18063168  0.82540000  1
  Ca2+  Ca39  1  0.42115778  0.66266965  0.16023715  1
  Ca2+  Ca40  1  0.42155768  0.67312872  0.48822876  1
  Ca2+  Ca41  1  0.42050322  0.66476384  0.83518901  1
  Ca2+  Ca42  1  0.92321398  0.17027682  0.15717694  1
  Ca2+  Ca43  1  0.91712943  0.16661050  0.50290677  1
  Ca2+  Ca44  1  0.92154930  0.16566176  0.82568057  1
  Ca2+  Ca45  1  0.91096868  0.67239341  0.16286443  1
  Ca2+  Ca46  1  0.90892341  0.67879494  0.49841688  1
  Ca2+  Ca47  1  0.91257777  0.66846680  0.82444667  1
  Al0+  Al48  1  -0.00121350  0.00011814  0.00240618  1
  Al0+  Al49  1  0.00090434  0.00172811  0.32818551  1
  Al0+  Al50  1  -0.00022921  -0.00189060  0.66628230  1
  Al0+  Al51  1  -0.00085702  0.50072146  0.01084936  1
  Al0+  Al52  1  0.00002726  0.50089179  0.33783050  1
  Al0+  Al53  1  0.00277449  0.49943893  0.66637881  1
  Al0+  Al54  1  0.49963124  -0.00223939  -0.00334392  1
  Al0+  Al55  1  0.50193128  0.00117383  0.32531141  1
  Al0+  Al56  1  0.49751246  -0.00043711  0.67039864  1
  Al0+  Al57  1  0.50165994  0.50025088  -0.00658538  1
  Al0+  Al58  1  0.50064434  0.49843024  0.33975674  1
  Al0+  Al59  1  0.49952850  0.50156221  0.66290064  1
  Al0+  Al60  1  0.25010096  0.24539227  -0.00492759  1
  Al0+  Al61  1  0.25008633  0.24847333  0.33944697  1
  Al0+  Al62  1  0.25058814  0.25084061  0.65680463  1
  Al0+  Al63  1  0.24837170  0.74962041  0.00044704  1
  Al0+  Al64  1  0.24608844  0.75098009  0.33532894  1
  Al0+  Al65  1  0.25062755  0.74924764  0.67200083  1
  Al0+  Al66  1  0.75222804  0.24994911  0.00426714  1
  Al0+  Al67  1  0.75323351  0.25179821  0.33244708  1
  Al0+  Al68  1  0.74943777  0.25072743  0.66534497  1
  Al0+  Al69  1  0.74849493  0.75206090  0.00140627  1
  Al0+  Al70  1  0.74923732  0.75330167  0.32282158  1
  Al0+  Al71  1  0.74927629  0.74968423  0.67020274  1
  Al0+  Al72  1  0.82084823  0.57322314  0.01508085  1
  Al0+  Al73  1  0.92928598  0.81804136  0.65527869  1
  Al0+  Al74  1  0.06934512  0.17732944  0.64966923  1
  Al0+  Al75  1  0.18005820  0.42459228  0.01323814  1
  Al0+  Al76  1  0.43072001  0.31901339  0.98885124  1
  Al0+  Al77  1  0.57381499  0.17988229  0.31850744  1
  Al0+  Al78  1  0.68016102  0.42884954  0.34768136  1
  Al0+  Al79  1  0.92921867  0.82251484  0.31795597  1
  Al0+  Al80  1  0.06978571  0.17933437  0.98660795  1
  Al0+  Al81  1  0.42600794  0.82134144  0.32047152  1
  Al0+  Al82  1  0.82075808  0.56932120  0.67811420  1
  Al0+  Al83  1  0.17801199  0.42642638  0.35229526  1
  Al0+  Al84  1  0.42573864  0.82113023  0.98143758  1
  Al0+  Al85  1  0.42854137  0.32429295  0.64772667  1
  Al0+  Al86  1  0.56974416  0.67613919  0.31867919  1
  Al0+  Al87  1  0.67522321  0.92720523  0.68173506  1
  Al0+  Al88  1  0.57076104  0.17797861  0.65365287  1
  Al0+  Al89  1  0.17942193  0.92955363  0.68022641  1
  Al0+  Al90  1  0.82046187  0.07257828  0.68037161  1
  Al0+  Al91  1  0.32244907  0.57052100  0.01410589  1
  Al0+  Al92  1  0.92858771  0.32416451  0.65220292  1
  Al0+  Al93  1  0.57159920  0.67845314  0.98162074  1
  Al0+  Al94  1  0.32130352  0.57214215  0.34974908  1
  Al0+  Al95  1  0.82059951  0.07041740  0.01553133  1
  Si0+  Si96  1  0.42768707  0.31957392  0.31721040  1
  Si0+  Si97  1  0.32215235  0.57113012  0.68318365  1
  Si0+  Si98  1  0.67848861  0.42808622  0.01473788  1
  Si0+  Si99  1  0.32332982  0.06944895  0.34750294  1
  Si0+  Si100  1  0.17794354  0.92880869  0.01639355  1
  Si0+  Si101  1  0.93021553  0.32284570  0.31743414  1
  Si0+  Si102  1  0.07133333  0.18020771  0.31748021  1
  Si0+  Si103  1  0.67615877  0.92908130  0.02028923  1
  Si0+  Si104  1  0.32188111  0.06921604  0.01410141  1
  Si0+  Si105  1  0.82066946  0.57565927  0.35001260  1
  Si0+  Si106  1  0.32083071  0.07337743  0.68357810  1
  Si0+  Si107  1  0.57128343  0.68146290  0.65122124  1
  Si0+  Si108  1  0.68044325  0.93189746  0.34525075  1
  Si0+  Si109  1  0.07060044  0.67679143  0.31601845  1
  Si0+  Si110  1  0.92755800  0.32417429  0.98617655  1
  Si0+  Si111  1  0.57558124  0.17703277  0.98366957  1
  Si0+  Si112  1  0.06920457  0.67795427  0.98695870  1
  Si0+  Si113  1  0.17726683  0.93058203  0.34752197  1
  Si0+  Si114  1  0.67657395  0.42806710  0.68374688  1
  Si0+  Si115  1  0.42658919  0.81980592  0.65320363  1
  Si0+  Si116  1  0.92984770  0.82091185  0.98410951  1
  Si0+  Si117  1  0.07498448  0.67725927  0.65102126  1
  Si0+  Si118  1  0.82329809  0.07103303  0.34832630  1
  Si0+  Si119  1  0.18062228  0.42836906  0.68208850  1
  O2-  O120  1  0.25308617  -0.00397639  0.05792162  1
  O2-  O121  1  0.25446891  -0.00470285  0.38848838  1
  O2-  O122  1  0.24982673  0.00733752  0.72869930  1
  O2-  O123  1  0.25261892  0.49594374  0.06314292  1
  O2-  O124  1  0.25028707  0.49914841  0.40107795  1
  O2-  O125  1  0.25338313  0.49744153  0.72435907  1
  O2-  O126  1  0.74262599  0.00043089  0.06452519  1
  O2-  O127  1  0.75099318  0.00176924  0.39007895  1
  O2-  O128  1  0.74547449  0.00267210  0.72954440  1
  O2-  O129  1  0.74646656  0.49750859  0.05964786  1
  O2-  O130  1  0.75122165  0.50793062  0.39383907  1
  O2-  O131  1  0.74947647  0.49256173  0.72755981  1
  O2-  O132  1  0.00503144  0.25541333  0.27535965  1
  O2-  O133  1  -0.00330014  0.24894318  0.59996810  1
  O2-  O134  1  -0.00284908  0.25660450  0.94216873  1
  O2-  O135  1  0.00037099  0.74420289  0.27130325  1
  O2-  O136  1  0.00407109  0.74387786  0.60685126  1
  O2-  O137  1  -0.00330622  0.74606483  0.94226410  1
  O2-  O138  1  0.49914209  0.25444258  0.27171364  1
  O2-  O139  1  0.50233758  0.25216332  0.60110829  1
  O2-  O140  1  0.50703230  0.24611456  0.94119056  1
  O2-  O141  1  0.49154418  0.74330164  0.27097400  1
  O2-  O142  1  0.50101639  0.75368530  0.60986488  1
  O2-  O143  1  0.49800535  0.74947652  0.93165855  1
  O2-  O144  1  0.06974374  0.17818910  0.10041562  1
  O2-  O145  1  0.06843191  0.17505131  0.42183057  1
  O2-  O146  1  0.06885651  0.17875385  0.76337308  1
  O2-  O147  1  0.06864895  0.68182776  0.09202495  1
  O2-  O148  1  0.07075837  0.67864367  0.42167343  1
  O2-  O149  1  0.07547063  0.67865792  0.75698611  1
  O2-  O150  1  0.57444890  0.17826566  0.08972654  1
  O2-  O151  1  0.57226455  0.17637769  0.43101319  1
  O2-  O152  1  0.56730355  0.18019617  0.76745922  1
  O2-  O153  1  0.57093488  0.67884603  0.09503002  1
  O2-  O154  1  0.57358693  0.68193898  0.43282347  1
  O2-  O155  1  0.57052493  0.67995171  0.75595642  1
  O2-  O156  1  0.18069280  0.42442223  0.23873515  1
  O2-  O157  1  0.17938278  0.43155858  0.57719067  1
  O2-  O158  1  0.17972251  0.42631008  0.89927127  1
  O2-  O159  1  0.17367001  0.93412611  0.24223435  1
  O2-  O160  1  0.18244112  0.92878095  0.56662595  1
  O2-  O161  1  0.17499487  0.93012209  0.91150700  1
  O2-  O162  1  0.68374789  0.42694786  0.23435275  1
  O2-  O163  1  0.67615021  0.43139853  0.57798096  1
  O2-  O164  1  0.68065691  0.42659105  0.90931253  1
  O2-  O165  1  0.68239262  0.93485600  0.24039773  1
  O2-  O166  1  0.67669326  0.92498946  0.56722520  1
  O2-  O167  1  0.67811508  0.92895264  0.91484190  1
  O2-  O168  1  0.43130890  0.31645684  0.10220522  1
  O2-  O169  1  0.42761567  0.31534565  0.42243636  1
  O2-  O170  1  0.42795029  0.32433047  0.76180503  1
  O2-  O171  1  0.42695107  0.82154563  0.09486862  1
  O2-  O172  1  0.43007459  0.82404856  0.43465748  1
  O2-  O173  1  0.42338252  0.81588657  0.75775525  1
  O2-  O174  1  0.92683014  0.32145544  0.09220583  1
  O2-  O175  1  0.92859117  0.32031655  0.42214809  1
  O2-  O176  1  0.93446321  0.32851425  0.76576973  1
  O2-  O177  1  0.93348695  0.82227186  0.08962808  1
  O2-  O178  1  0.92964490  0.82480846  0.43094212  1
  O2-  O179  1  0.93104421  0.81668209  0.76856201  1
  O2-  O180  1  0.32059863  0.07211574  0.24210830  1
  O2-  O181  1  0.32245619  0.06835432  0.57755879  1
  O2-  O182  1  0.32009664  0.06981801  0.90938811  1
  O2-  O183  1  0.32006311  0.57010963  0.23637474  1
  O2-  O184  1  0.32049748  0.57450721  0.57834485  1
  O2-  O185  1  0.31851768  0.56959120  0.89999250  1
  O2-  O186  1  0.82426620  0.06965474  0.24294781  1
  O2-  O187  1  0.82103144  0.06781499  0.56613128  1
  O2-  O188  1  0.82272752  0.06846802  0.90316468  1
  O2-  O189  1  0.82148523  0.57299409  0.24430143  1
  O2-  O190  1  0.81590363  0.57240016  0.56506959  1
  O2-  O191  1  0.82304827  0.57198936  0.90186669  1
  O2-  O192  1  0.04024411  0.09088550  0.26639415  1
  O2-  O193  1  0.04256757  0.07834328  0.59694442  1
  O2-  O194  1  0.03525973  0.08280065  0.93453450  1
  O2-  O195  1  0.04685350  0.58226884  0.27099063  1
  O2-  O196  1  0.05270566  0.58359363  0.60506936  1
  O2-  O197  1  0.04357556  0.58419813  0.94240555  1
  O2-  O198  1  0.54196832  0.08561722  0.26059300  1
  O2-  O199  1  0.53858603  0.07930665  0.60112747  1
  O2-  O200  1  0.55046337  0.08303917  0.93977457  1
  O2-  O201  1  0.54687871  0.57491860  0.26921792  1
  O2-  O202  1  0.54244932  0.59033596  0.60324650  1
  O2-  O203  1  0.54739836  0.58028641  0.92635931  1
  O2-  O204  1  0.16573061  0.20391574  0.27257938  1
  O2-  O205  1  0.16751305  0.20447354  0.59580052  1
  O2-  O206  1  0.16648860  0.20307562  0.93044778  1
  O2-  O207  1  0.16259225  0.70605047  0.26890492  1
  O2-  O208  1  0.16772042  0.70643780  0.60492395  1
  O2-  O209  1  0.15968281  0.70703367  0.93806146  1
  O2-  O210  1  0.67098093  0.21097992  0.26518660  1
  O2-  O211  1  0.67001580  0.20151778  0.60054574  1
  O2-  O212  1  0.67020410  0.20200091  0.93991058  1
  O2-  O213  1  0.66527147  0.70914372  0.26253102  1
  O2-  O214  1  0.66264188  0.70866289  0.60360601  1
  O2-  O215  1  0.67009198  0.71197778  0.93015720  1
  O2-  O216  1  0.08297663  0.45334081  0.06911389  1
  O2-  O217  1  0.07907188  0.45619704  0.40444946  1
  O2-  O218  1  0.08993382  0.45705175  0.73090238  1
  O2-  O219  1  0.08858017  0.96126756  0.06628534  1
  O2-  O220  1  0.08804791  0.96685962  0.39560295  1
  O2-  O221  1  0.08260987  0.95690677  0.73496101  1
  O2-  O222  1  0.58504821  0.45416707  0.06028388  1
  O2-  O223  1  0.58328344  0.45233343  0.40387328  1
  O2-  O224  1  0.58391811  0.45953767  0.72894816  1
  O2-  O225  1  0.58080045  0.95166265  0.06430934  1
  O2-  O226  1  0.58783167  0.95916953  0.39153386  1
  O2-  O227  1  0.57630746  0.95204246  0.73581789  1
  O2-  O228  1  0.20850013  0.32509979  0.06437863  1
  O2-  O229  1  0.20503849  0.32746377  0.40559981  1
  O2-  O230  1  0.20729238  0.33445765  0.72542181  1
  O2-  O231  1  0.20157782  0.83619377  0.06410643  1
  O2-  O232  1  0.19484358  0.83710681  0.39506995  1
  O2-  O233  1  0.21174787  0.83398143  0.73638499  1
  O2-  O234  1  0.70341745  0.33514572  0.06342032  1
  O2-  O235  1  0.71718611  0.33386429  0.40215058  1
  O2-  O236  1  0.69544644  0.33287482  0.72789221  1
  O2-  O237  1  0.70594080  0.83714425  0.06693411  1
  O2-  O238  1  0.70809939  0.83880307  0.39022387  1
  O2-  O239  1  0.70835366  0.83158067  0.73703299  1
  O2-  O240  1  0.45122365  0.41477860  0.27518999  1
  O2-  O241  1  0.45655175  0.42302475  0.59521315  1
  O2-  O242  1  0.45892888  0.41435711  0.93177668  1
  O2-  O243  1  0.45888728  0.91694717  0.26407240  1
  O2-  O244  1  0.44740052  0.91438823  0.60911437  1
  O2-  O245  1  0.45377669  0.92035663  0.92875593  1
  O2-  O246  1  0.95320305  0.41717682  0.27260861  1
  O2-  O247  1  0.96161423  0.42056442  0.59610176  1
  O2-  O248  1  0.95135169  0.41973220  0.94390480  1
  O2-  O249  1  0.96613886  0.91687345  0.26174184  1
  O2-  O250  1  0.96108582  0.91304938  0.59952341  1
  O2-  O251  1  0.96322483  0.91098908  0.93772342  1
  O2-  O252  1  0.33445984  0.28939657  0.27255533  1
  O2-  O253  1  0.33179309  0.29563726  0.59279164  1
  O2-  O254  1  0.33652959  0.28432538  0.93230125  1
  O2-  O255  1  0.32325110  0.80338374  0.27222644  1
  O2-  O256  1  0.33620996  0.78813814  0.60450874  1
  O2-  O257  1  0.32522487  0.79525244  0.93090040  1
  O2-  O258  1  0.84122141  0.29121678  0.26705252  1
  O2-  O259  1  0.82842460  0.30114807  0.60077092  1
  O2-  O260  1  0.83414474  0.29830999  0.94020267  1
  O2-  O261  1  0.83389043  0.79610178  0.25970319  1
  O2-  O262  1  0.83278604  0.78650034  0.60086944  1
  O2-  O263  1  0.83607698  0.79800965  0.94032612  1
  O2-  O264  1  0.41486340  0.04439010  0.06162172  1
  O2-  O265  1  0.41614950  0.04248274  0.39328735  1
  O2-  O266  1  0.41199366  0.04596900  0.73294892  1
  O2-  O267  1  0.42273827  0.54368083  0.06269569  1
  O2-  O268  1  0.41955725  0.54596827  0.40410399  1
  O2-  O269  1  0.41529539  0.54517997  0.72872308  1
  O2-  O270  1  0.91539563  0.03461554  0.07187669  1
  O2-  O271  1  0.91517638  0.04084199  0.39390958  1
  O2-  O272  1  0.91741044  0.03908287  0.73316845  1
  O2-  O273  1  0.91562332  0.54456720  0.07428626  1
  O2-  O274  1  0.91426749  0.55078778  0.39597228  1
  O2-  O275  1  0.91995853  0.54350185  0.73085810  1
  O2-  O276  1  0.29054787  0.15871628  0.06387049  1
  O2-  O277  1  0.29302582  0.15851807  0.39813159  1
  O2-  O278  1  0.29727059  0.16941161  0.72484955  1
  O2-  O279  1  0.29063247  0.66849887  0.06628172  1
  O2-  O280  1  0.28962232  0.67093659  0.40291309  1
  O2-  O281  1  0.29260357  0.66119057  0.73288323  1
  O2-  O282  1  0.79519510  0.16847571  0.07096595  1
  O2-  O283  1  0.79915561  0.16433492  0.39292982  1
  O2-  O284  1  0.79699315  0.17255153  0.73318246  1
  O2-  O285  1  0.79076717  0.67043962  0.06837914  1
  O2-  O286  1  0.79578017  0.67181749  0.39106160  1
  O2-  O287  1  0.78739137  0.66367510  0.73470724  1
