# generated using pymatgen
data_Ca2Al2SiO7
_symmetry_space_group_name_H-M   'P 1'
_cell_length_a   15.46391703
_cell_length_b   15.46502043
_cell_length_c   15.28755581
_cell_angle_alpha   90.01263693
_cell_angle_beta   90.01504796
_cell_angle_gamma   89.99892610
_symmetry_Int_Tables_number   1
_chemical_formula_structural   Ca2Al2SiO7
_chemical_formula_sum   'Ca48 Al48 Si24 O168'
_cell_volume   3656.01558911
_cell_formula_units_Z   24
loop_
 _symmetry_equiv_pos_site_id
 _symmetry_equiv_pos_as_xyz
  1  'x, y, z'
loop_
 _atom_type_symbol
 _atom_type_oxidation_number
  Ca2+  2.0
  Al0+  0.0
  Si0+  0.0
  O2-  -2.0
loop_
 _atom_site_type_symbol
 _atom_site_label
 _atom_site_symmetry_multiplicity
 _atom_site_fract_x
 _atom_site_fract_y
 _atom_site_fract_z
 _atom_site_occupancy
  Ca2+  Ca0  1  0.17553294  0.08448418  0.17167359  1
  Ca2+  Ca1  1  0.15805805  0.07674365  0.50740665  1
  Ca2+  Ca2  1  0.17118818  0.08053101  0.83516272  1
  Ca2+  Ca3  1  0.16741713  0.57418867  0.16326357  1
  Ca2+  Ca4  1  0.16649523  0.56828022  0.50646997  1
  Ca2+  Ca5  1  0.17226362  0.57391962  0.84296311  1
  Ca2+  Ca6  1  0.66605783  0.08754473  0.16695749  1
  Ca2+  Ca7  1  0.67636537  0.07809671  0.51441578  1
  Ca2+  Ca8  1  0.66684590  0.08574290  0.83693379  1
  Ca2+  Ca9  1  0.65556210  0.56979069  0.16436574  1
  Ca2+  Ca10  1  0.66617989  0.57652024  0.50769298  1
  Ca2+  Ca11  1  0.65924112  0.57669270  0.83672926  1
  Ca2+  Ca12  1  0.08284260  0.33580608  0.15990960  1
  Ca2+  Ca13  1  0.08708746  0.32276526  0.49707029  1
  Ca2+  Ca14  1  0.07568289  0.33545450  0.82306814  1
  Ca2+  Ca15  1  0.08710566  0.82792784  0.16199314  1
  Ca2+  Ca16  1  0.08750613  0.83752464  0.49586359  1
  Ca2+  Ca17  1  0.09221484  0.82540809  0.82935119  1
  Ca2+  Ca18  1  0.57926063  0.33200049  0.15369777  1
  Ca2+  Ca19  1  0.57853455  0.34465503  0.50107748  1
  Ca2+  Ca20  1  0.57234074  0.34014167  0.82918464  1
  Ca2+  Ca21  1  0.57463095  0.82364613  0.15123936  1
  Ca2+  Ca22  1  0.58331626  0.83270082  0.50210343  1
  Ca2+  Ca23  1  0.57325862  0.82416061  0.82466395  1
  Ca2+  Ca24  1  0.32832399  0.41836633  0.16443027  1
  Ca2+  Ca25  1  0.32352422  0.41171956  0.50734896  1
  Ca2+  Ca26  1  0.32514301  0.41262869  0.84164573  1
  Ca2+  Ca27  1  0.33336880  0.92100027  0.16581547  1
  Ca2+  Ca28  1  0.32413126  0.91792437  0.50837973  1
  Ca2+  Ca29  1  0.33776798  0.91829432  0.83771084  1
  Ca2+  Ca30  1  0.82324883  0.41052415  0.16469284  1
  Ca2+  Ca31  1  0.82269109  0.41126259  0.50763481  1
  Ca2+  Ca32  1  0.82381317  0.40475252  0.83745151  1
  Ca2+  Ca33  1  0.83180511  0.91876335  0.16936041  1
  Ca2+  Ca34  1  0.82926423  0.92534618  0.51417638  1
  Ca2+  Ca35  1  0.82827293  0.92355054  0.83132867  1
  Ca2+  Ca36  1  0.42219723  0.17209143  0.15390667  1
  Ca2+  Ca37  1  0.41533383  0.17369336  0.50270021  1
  Ca2+  Ca38  1  0.41648202  0.17466213  0.83465230  1
  Ca2+  Ca39  1  0.41625591  0.67136526  0.15327144  1
  Ca2+  Ca40  1  0.41969258  0.66982339  0.50511736  1
  Ca2+  Ca41  1  0.42027848  0.66968493  0.82952338  1
  Ca2+  Ca42  1  0.92692493  0.17324494  0.16165247  1
  Ca2+  Ca43  1  0.92447807  0.16653286  0.50363511  1
  Ca2+  Ca44  1  0.92116611  0.17641381  0.82608582  1
  Ca2+  Ca45  1  0.92460421  0.66684666  0.15899770  1
  Ca2+  Ca46  1  0.91713875  0.66908879  0.49995313  1
  Ca2+  Ca47  1  0.92523217  0.66278882  0.83232702  1
  Al0+  Al48  1  -0.00215427  0.00013767  0.00170044  1
  Al0+  Al49  1  0.00040416  0.00137270  0.33002780  1
  Al0+  Al50  1  0.00034203  -0.00083558  0.67474748  1
  Al0+  Al51  1  -0.00263858  0.50105253  -0.00381304  1
  Al0+  Al52  1  -0.00092761  0.50107463  0.33708880  1
  Al0+  Al53  1  -0.00192326  0.49954944  0.66342140  1
  Al0+  Al54  1  0.49994463  -0.00028757  -0.00131214  1
  Al0+  Al55  1  0.49957715  0.00051251  0.33350045  1
  Al0+  Al56  1  0.49834035  -0.00072518  0.66432657  1
  Al0+  Al57  1  0.49786532  0.49980077  0.00159745  1
  Al0+  Al58  1  0.49980038  0.50203943  0.33665404  1
  Al0+  Al59  1  0.50002148  0.50197673  0.65974189  1
  Al0+  Al60  1  0.25008309  0.24547169  0.00619980  1
  Al0+  Al61  1  0.25211408  0.25034630  0.33191645  1
  Al0+  Al62  1  0.24976128  0.24788258  0.66242834  1
  Al0+  Al63  1  0.24802635  0.74895198  -0.00387270  1
  Al0+  Al64  1  0.25105431  0.75143906  0.33602489  1
  Al0+  Al65  1  0.25117432  0.74911569  0.66389595  1
  Al0+  Al66  1  0.75309793  0.24782255  0.00004229  1
  Al0+  Al67  1  0.75041153  0.25002934  0.33871526  1
  Al0+  Al68  1  0.75098356  0.25053398  0.67078446  1
  Al0+  Al69  1  0.75058810  0.75059683  -0.00218833  1
  Al0+  Al70  1  0.75003350  0.74934251  0.33048904  1
  Al0+  Al71  1  0.75142184  0.74946504  0.66681999  1
  Al0+  Al72  1  0.17902174  0.42692564  0.67931034  1
  Al0+  Al73  1  0.67961651  0.42899859  0.01172152  1
  Al0+  Al74  1  0.92702715  0.32242716  0.64931045  1
  Al0+  Al75  1  0.18047533  0.93100796  0.34575014  1
  Al0+  Al76  1  0.57174449  0.67680857  0.98509363  1
  Al0+  Al77  1  0.17924323  0.42894025  0.34788493  1
  Al0+  Al78  1  0.42778940  0.82290050  0.64841324  1
  Al0+  Al79  1  0.17987640  0.92767044  0.68139614  1
  Al0+  Al80  1  0.32193346  0.06908674  0.01381003  1
  Al0+  Al81  1  0.57284327  0.67986229  0.64882273  1
  Al0+  Al82  1  0.42741999  0.32088935  0.98681912  1
  Al0+  Al83  1  0.82105248  0.07161792  0.68462147  1
  Al0+  Al84  1  0.07067146  0.17817011  0.65336904  1
  Al0+  Al85  1  0.07138706  0.17936564  0.31762865  1
  Al0+  Al86  1  0.17577116  0.42709706  0.01315636  1
  Al0+  Al87  1  0.67684517  0.92751380  0.68253781  1
  Al0+  Al88  1  0.32040987  0.57152505  0.01324950  1
  Al0+  Al89  1  0.93159383  0.32041327  0.98772868  1
  Al0+  Al90  1  0.67960244  0.42986970  0.34750256  1
  Al0+  Al91  1  0.42746844  0.82110379  0.98511736  1
  Al0+  Al92  1  0.67853227  0.43138397  0.68160272  1
  Al0+  Al93  1  0.42914519  0.32116280  0.65252419  1
  Al0+  Al94  1  0.57285270  0.17888188  0.98588473  1
  Al0+  Al95  1  0.06921973  0.68036126  0.98664317  1
  Si0+  Si96  1  0.32053200  0.57036440  0.68181454  1
  Si0+  Si97  1  0.07157721  0.67875400  0.31971681  1
  Si0+  Si98  1  0.92679479  0.32247268  0.31688151  1
  Si0+  Si99  1  0.67990948  0.92888140  0.01575659  1
  Si0+  Si100  1  0.07298676  0.17578598  0.98451065  1
  Si0+  Si101  1  0.32260377  0.07233246  0.68313955  1
  Si0+  Si102  1  0.67901137  0.92793515  0.34598786  1
  Si0+  Si103  1  0.82249602  0.57452745  0.35019696  1
  Si0+  Si104  1  0.82079570  0.06970029  0.34801241  1
  Si0+  Si105  1  0.07207790  0.67816517  0.64935343  1
  Si0+  Si106  1  0.17616065  0.92788047  0.01657802  1
  Si0+  Si107  1  0.92872153  0.82132639  0.31891000  1
  Si0+  Si108  1  0.43085467  0.32235417  0.31789686  1
  Si0+  Si109  1  0.57240754  0.17844804  0.65049534  1
  Si0+  Si110  1  0.82317157  0.57331175  0.68418893  1
  Si0+  Si111  1  0.57137989  0.68008452  0.31644199  1
  Si0+  Si112  1  0.32210067  0.57353889  0.35181855  1
  Si0+  Si113  1  0.92677585  0.82490226  0.98199537  1
  Si0+  Si114  1  0.82168773  0.57467309  0.01684822  1
  Si0+  Si115  1  0.93133703  0.82013330  0.65293255  1
  Si0+  Si116  1  0.32409183  0.07239060  0.35174788  1
  Si0+  Si117  1  0.42915849  0.82178671  0.31717054  1
  Si0+  Si118  1  0.57210384  0.17863218  0.32093166  1
  Si0+  Si119  1  0.82191983  0.07063504  0.01921522  1
  O2-  O120  1  0.24506780  -0.00405933  0.06090027  1
  O2-  O121  1  0.25228477  0.00672659  0.39504675  1
  O2-  O122  1  0.25610000  0.00073234  0.72614579  1
  O2-  O123  1  0.25002204  0.49741327  0.06344902  1
  O2-  O124  1  0.25409168  0.50365767  0.39489865  1
  O2-  O125  1  0.25446982  0.49986325  0.72606215  1
  O2-  O126  1  0.75013500  -0.00028606  0.06124794  1
  O2-  O127  1  0.74863517  -0.00073940  0.38929985  1
  O2-  O128  1  0.74373467  0.00384790  0.73330459  1
  O2-  O129  1  0.75106706  0.50726106  0.06007649  1
  O2-  O130  1  0.75525568  0.50435540  0.39311892  1
  O2-  O131  1  0.75511042  0.50435299  0.72748900  1
  O2-  O132  1  0.00002984  0.25850835  0.27237974  1
  O2-  O133  1  0.00170971  0.25225232  0.60077169  1
  O2-  O134  1  0.01134109  0.25089545  0.94206813  1
  O2-  O135  1  0.00017888  0.75040451  0.27772324  1
  O2-  O136  1  0.00243149  0.75103794  0.60731625  1
  O2-  O137  1  -0.00366750  0.75692985  0.93921117  1
  O2-  O138  1  0.50346635  0.25142067  0.27820059  1
  O2-  O139  1  0.50639247  0.24873179  0.60411484  1
  O2-  O140  1  0.50339526  0.25307243  0.93665668  1
  O2-  O141  1  0.50070595  0.75153284  0.27503140  1
  O2-  O142  1  0.50339822  0.75450111  0.59787467  1
  O2-  O143  1  0.49812563  0.74741925  0.93683627  1
  O2-  O144  1  0.06874679  0.17219197  0.09060148  1
  O2-  O145  1  0.06714538  0.17489798  0.43002601  1
  O2-  O146  1  0.07070456  0.17811964  0.76672601  1
  O2-  O147  1  0.06733677  0.68217165  0.10076720  1
  O2-  O148  1  0.06949160  0.67982944  0.42482499  1
  O2-  O149  1  0.07110019  0.67824326  0.75416368  1
  O2-  O150  1  0.57225819  0.18022826  0.10090937  1
  O2-  O151  1  0.57142246  0.17512291  0.42552197  1
  O2-  O152  1  0.57003530  0.17825666  0.75548794  1
  O2-  O153  1  0.57209293  0.68063500  0.09995185  1
  O2-  O154  1  0.57394734  0.68204338  0.42099367  1
  O2-  O155  1  0.57056143  0.67863946  0.76165037  1
  O2-  O156  1  0.17840074  0.43150599  0.23514138  1
  O2-  O157  1  0.18064555  0.42885730  0.56548651  1
  O2-  O158  1  0.17530307  0.42918033  0.89981833  1
  O2-  O159  1  0.18273742  0.92839140  0.23294310  1
  O2-  O160  1  0.17865945  0.92953833  0.56768253  1
  O2-  O161  1  0.17389197  0.92982283  0.91134333  1
  O2-  O162  1  0.67920284  0.42912501  0.23441476  1
  O2-  O163  1  0.67972027  0.43411101  0.56776664  1
  O2-  O164  1  0.68114112  0.42835613  0.89942259  1
  O2-  O165  1  0.68076270  0.92792526  0.24081980  1
  O2-  O166  1  0.68251029  0.92931313  0.56741634  1
  O2-  O167  1  0.68268471  0.92920804  0.91158907  1
  O2-  O168  1  0.42954291  0.31906766  0.10136161  1
  O2-  O169  1  0.43073133  0.32157617  0.42309403  1
  O2-  O170  1  0.42754128  0.32076582  0.76485019  1
  O2-  O171  1  0.43044323  0.82129188  0.10005473  1
  O2-  O172  1  0.43009949  0.82276598  0.42167221  1
  O2-  O173  1  0.42585768  0.81938304  0.76118257  1
  O2-  O174  1  0.92964046  0.31704176  0.10169617  1
  O2-  O175  1  0.92409591  0.31928490  0.42179991  1
  O2-  O176  1  0.92879875  0.32168362  0.76280337  1
  O2-  O177  1  0.92657056  0.82520996  0.08848003  1
  O2-  O178  1  0.92639743  0.82147783  0.42383214  1
  O2-  O179  1  0.93168470  0.81753095  0.75769921  1
  O2-  O180  1  0.32703319  0.06936564  0.24632288  1
  O2-  O181  1  0.32193275  0.07241122  0.57700476  1
  O2-  O182  1  0.32080041  0.06915987  0.90112873  1
  O2-  O183  1  0.32267824  0.57500905  0.24655922  1
  O2-  O184  1  0.31652242  0.57050819  0.57540315  1
  O2-  O185  1  0.31769176  0.57307889  0.90011912  1
  O2-  O186  1  0.81959904  0.06892272  0.24265187  1
  O2-  O187  1  0.82170188  0.06698265  0.56975501  1
  O2-  O188  1  0.82478784  0.06905856  0.91512491  1
  O2-  O189  1  0.82392242  0.57873399  0.24504069  1
  O2-  O190  1  0.82270875  0.57565949  0.57797789  1
  O2-  O191  1  0.82362824  0.57674396  0.91187747  1
  O2-  O192  1  0.03670178  0.08434030  0.26149820  1
  O2-  O193  1  0.03705127  0.07915478  0.60235400  1
  O2-  O194  1  0.03991946  0.08435014  0.93854167  1
  O2-  O195  1  0.04230601  0.58762838  0.27186229  1
  O2-  O196  1  0.04042493  0.58856697  0.59954429  1
  O2-  O197  1  0.03587925  0.58627654  0.93041477  1
  O2-  O198  1  0.54410186  0.08686573  0.27176360  1
  O2-  O199  1  0.54609971  0.08539652  0.60246113  1
  O2-  O200  1  0.54386962  0.08122885  0.93402479  1
  O2-  O201  1  0.54160068  0.58777731  0.27116251  1
  O2-  O202  1  0.53973907  0.58460694  0.59138963  1
  O2-  O203  1  0.54565411  0.57808944  0.93470555  1
  O2-  O204  1  0.17054587  0.20614396  0.26627773  1
  O2-  O205  1  0.16864019  0.20217687  0.59704968  1
  O2-  O206  1  0.16944337  0.19152756  0.94340246  1
  O2-  O207  1  0.16331145  0.70827412  0.27347671  1
  O2-  O208  1  0.16312463  0.70472114  0.60066087  1
  O2-  O209  1  0.16377396  0.70987237  0.92967235  1
  O2-  O210  1  0.66561416  0.20365451  0.27496715  1
  O2-  O211  1  0.66738745  0.20108257  0.60634811  1
  O2-  O212  1  0.67334147  0.20028342  0.93651387  1
  O2-  O213  1  0.66353226  0.70662464  0.26847004  1
  O2-  O214  1  0.67295591  0.70667092  0.59649952  1
  O2-  O215  1  0.67057240  0.70578214  0.93424722  1
  O2-  O216  1  0.07826797  0.46135280  0.06629250  1
  O2-  O217  1  0.08210352  0.45971802  0.40143196  1
  O2-  O218  1  0.08137804  0.45985909  0.72855931  1
  O2-  O219  1  0.08167194  0.95229053  0.06316436  1
  O2-  O220  1  0.08122471  0.95855060  0.39698503  1
  O2-  O221  1  0.08454301  0.95565389  0.73768008  1
  O2-  O222  1  0.58288797  0.45707521  0.06777103  1
  O2-  O223  1  0.58353040  0.46293711  0.40138683  1
  O2-  O224  1  0.58064838  0.46409889  0.73107757  1
  O2-  O225  1  0.58857476  0.95630038  0.06422759  1
  O2-  O226  1  0.58651551  0.95423106  0.39240287  1
  O2-  O227  1  0.57552694  0.94951648  0.73009406  1
  O2-  O228  1  0.20066032  0.32800579  0.06651028  1
  O2-  O229  1  0.21192795  0.33186019  0.39993833  1
  O2-  O230  1  0.20784178  0.32922745  0.73006981  1
  O2-  O231  1  0.20109386  0.83389741  0.06143270  1
  O2-  O232  1  0.21036672  0.83443829  0.40096982  1
  O2-  O233  1  0.20908583  0.82933959  0.73209988  1
  O2-  O234  1  0.71501225  0.33318897  0.06670375  1
  O2-  O235  1  0.70811511  0.33294408  0.40249647  1
  O2-  O236  1  0.70584961  0.33378538  0.73357794  1
  O2-  O237  1  0.70964377  0.83747702  0.06478662  1
  O2-  O238  1  0.70770171  0.83602160  0.39244283  1
  O2-  O239  1  0.71162065  0.83105290  0.73411663  1
  O2-  O240  1  0.45797241  0.41551829  0.27293816  1
  O2-  O241  1  0.45824229  0.41678396  0.59512432  1
  O2-  O242  1  0.45038177  0.42025627  0.93577139  1
  O2-  O243  1  0.45655659  0.91443662  0.27029159  1
  O2-  O244  1  0.45157859  0.92252963  0.59445526  1
  O2-  O245  1  0.45891626  0.91784652  0.93302624  1
  O2-  O246  1  0.94695524  0.41921398  0.27475099  1
  O2-  O247  1  0.94980565  0.42248027  0.59643660  1
  O2-  O248  1  0.95203328  0.41845181  0.93366882  1
  O2-  O249  1  0.95574462  0.91210915  0.26909003  1
  O2-  O250  1  0.95863095  0.91219323  0.60621450  1
  O2-  O251  1  0.95097291  0.91885710  0.93692635  1
  O2-  O252  1  0.33978167  0.29425780  0.27004957  1
  O2-  O253  1  0.33521731  0.28582534  0.59513562  1
  O2-  O254  1  0.32946853  0.28699947  0.93660011  1
  O2-  O255  1  0.33703898  0.79332699  0.27075356  1
  O2-  O256  1  0.33101106  0.78844322  0.59320744  1
  O2-  O257  1  0.32815662  0.79786919  0.93394889  1
  O2-  O258  1  0.83425269  0.29066958  0.27071340  1
  O2-  O259  1  0.82889680  0.29008639  0.59724663  1
  O2-  O260  1  0.83811857  0.28251230  0.93382337  1
  O2-  O261  1  0.83750001  0.79324591  0.26885924  1
  O2-  O262  1  0.84061080  0.79209117  0.60277537  1
  O2-  O263  1  0.83387733  0.79956818  0.93594656  1
  O2-  O264  1  0.41817432  0.03743889  0.07027933  1
  O2-  O265  1  0.41672288  0.04384007  0.39919144  1
  O2-  O266  1  0.41682820  0.04956612  0.72787272  1
  O2-  O267  1  0.41828403  0.54623446  0.06971477  1
  O2-  O268  1  0.41566913  0.54875162  0.39841203  1
  O2-  O269  1  0.41596737  0.54859553  0.72296785  1
  O2-  O270  1  0.91235906  0.03963151  0.06956428  1
  O2-  O271  1  0.91156528  0.03861545  0.39434654  1
  O2-  O272  1  0.91536715  0.03611678  0.74012552  1
  O2-  O273  1  0.91366707  0.54585562  0.06492405  1
  O2-  O274  1  0.91618291  0.55268611  0.39786993  1
  O2-  O275  1  0.91756160  0.54920668  0.72870378  1
  O2-  O276  1  0.29217935  0.16317778  0.07428721  1
  O2-  O277  1  0.30223322  0.16756675  0.39493897  1
  O2-  O278  1  0.29348864  0.16422985  0.72942102  1
  O2-  O279  1  0.28810858  0.66944205  0.06751953  1
  O2-  O280  1  0.29558490  0.66659956  0.39860920  1
  O2-  O281  1  0.29244753  0.66308455  0.72679729  1
  O2-  O282  1  0.79421205  0.16093955  0.06944623  1
  O2-  O283  1  0.79431650  0.16069081  0.39678228  1
  O2-  O284  1  0.79649239  0.17028319  0.73685323  1
  O2-  O285  1  0.80032205  0.66978814  0.06375932  1
  O2-  O286  1  0.79466103  0.66807411  0.39726480  1
  O2-  O287  1  0.80037686  0.66707174  0.73045150  1
