# generated using pymatgen
data_Ca2Al2SiO7
_symmetry_space_group_name_H-M   'P 1'
_cell_length_a   15.46770211
_cell_length_b   15.47039235
_cell_length_c   15.29312692
_cell_angle_alpha   89.98142519
_cell_angle_beta   90.00307591
_cell_angle_gamma   89.99656898
_symmetry_Int_Tables_number   1
_chemical_formula_structural   Ca2Al2SiO7
_chemical_formula_sum   'Ca48 Al48 Si24 O168'
_cell_volume   3659.51385929
_cell_formula_units_Z   24
loop_
 _symmetry_equiv_pos_site_id
 _symmetry_equiv_pos_as_xyz
  1  'x, y, z'
loop_
 _atom_type_symbol
 _atom_type_oxidation_number
  Ca2+  2.0
  Al0+  0.0
  Si0+  0.0
  O2-  -2.0
loop_
 _atom_site_type_symbol
 _atom_site_label
 _atom_site_symmetry_multiplicity
 _atom_site_fract_x
 _atom_site_fract_y
 _atom_site_fract_z
 _atom_site_occupancy
  Ca2+  Ca0  1  0.16876048  0.08661228  0.16999708  1
  Ca2+  Ca1  1  0.17098660  0.09630116  0.50013564  1
  Ca2+  Ca2  1  0.16396218  0.08251523  0.83935247  1
  Ca2+  Ca3  1  0.18068740  0.57375780  0.17540922  1
  Ca2+  Ca4  1  0.16918360  0.57235388  0.49986100  1
  Ca2+  Ca5  1  0.17728470  0.57622951  0.84268891  1
  Ca2+  Ca6  1  0.67432675  0.09387411  0.17099321  1
  Ca2+  Ca7  1  0.67484613  0.08986362  0.50907111  1
  Ca2+  Ca8  1  0.67356252  0.08820286  0.84011388  1
  Ca2+  Ca9  1  0.65938021  0.57451751  0.16513060  1
  Ca2+  Ca10  1  0.66484519  0.58064369  0.50656018  1
  Ca2+  Ca11  1  0.65677248  0.57812711  0.84102778  1
  Ca2+  Ca12  1  0.08377519  0.32477435  0.16561057  1
  Ca2+  Ca13  1  0.07289583  0.32536948  0.49352903  1
  Ca2+  Ca14  1  0.07658775  0.31904750  0.82606856  1
  Ca2+  Ca15  1  0.08418662  0.83704211  0.15902502  1
  Ca2+  Ca16  1  0.08200626  0.83210431  0.49594764  1
  Ca2+  Ca17  1  0.08368120  0.83604124  0.83132553  1
  Ca2+  Ca18  1  0.58058865  0.32356525  0.15902880  1
  Ca2+  Ca19  1  0.58103308  0.31980259  0.50136581  1
  Ca2+  Ca20  1  0.57868522  0.32746641  0.83505280  1
  Ca2+  Ca21  1  0.58452560  0.82645896  0.15772305  1
  Ca2+  Ca22  1  0.58438067  0.83415138  0.50280682  1
  Ca2+  Ca23  1  0.59207102  0.82534535  0.82719927  1
  Ca2+  Ca24  1  0.33693768  0.42348169  0.17304101  1
  Ca2+  Ca25  1  0.33281537  0.41466880  0.50293011  1
  Ca2+  Ca26  1  0.34653298  0.41985664  0.84079732  1
  Ca2+  Ca27  1  0.32797489  0.92392752  0.16938949  1
  Ca2+  Ca28  1  0.33524070  0.92214772  0.50140995  1
  Ca2+  Ca29  1  0.32842463  0.91423892  0.83607580  1
  Ca2+  Ca30  1  0.82672193  0.40765174  0.16882828  1
  Ca2+  Ca31  1  0.83766012  0.41114680  0.50402133  1
  Ca2+  Ca32  1  0.82731267  0.41413311  0.83682199  1
  Ca2+  Ca33  1  0.82561950  0.93091827  0.16575118  1
  Ca2+  Ca34  1  0.82658459  0.93189953  0.50753437  1
  Ca2+  Ca35  1  0.81982778  0.92810958  0.83664580  1
  Ca2+  Ca36  1  0.42500105  0.16845269  0.15973524  1
  Ca2+  Ca37  1  0.42775710  0.16155219  0.49432130  1
  Ca2+  Ca38  1  0.42833071  0.17469820  0.82632406  1
  Ca2+  Ca39  1  0.41600740  0.66361319  0.15900992  1
  Ca2+  Ca40  1  0.41683670  0.67223186  0.50151709  1
  Ca2+  Ca41  1  0.42510083  0.67183386  0.82945880  1
  Ca2+  Ca42  1  0.92289921  0.16231741  0.16497383  1
  Ca2+  Ca43  1  0.92126027  0.16761137  0.49288071  1
  Ca2+  Ca44  1  0.92248504  0.15942518  0.82848392  1
  Ca2+  Ca45  1  0.91930488  0.67078531  0.16205452  1
  Ca2+  Ca46  1  0.91667301  0.67121402  0.49486309  1
  Ca2+  Ca47  1  0.91764514  0.67029483  0.82860717  1
  Al0+  Al48  1  -0.00128963  -0.00121215  0.00312704  1
  Al0+  Al49  1  -0.00324194  -0.00098677  0.33320021  1
  Al0+  Al50  1  0.00047346  -0.00162930  0.66518565  1
  Al0+  Al51  1  0.00150072  0.50091797  -0.00036271  1
  Al0+  Al52  1  -0.00042684  0.50180300  0.33175088  1
  Al0+  Al53  1  0.00220752  0.49919070  0.66647621  1
  Al0+  Al54  1  0.49867270  -0.00200706  -0.00135406  1
  Al0+  Al55  1  0.49849028  -0.00426111  0.33059218  1
  Al0+  Al56  1  0.49835384  -0.00325530  0.66458309  1
  Al0+  Al57  1  0.50174320  0.50194317  0.00328221  1
  Al0+  Al58  1  0.50181425  0.50145252  0.34089804  1
  Al0+  Al59  1  0.50066941  0.50197924  0.65941936  1
  Al0+  Al60  1  0.24713824  0.25106944  -0.00845146  1
  Al0+  Al61  1  0.24910250  0.25060443  0.33832282  1
  Al0+  Al62  1  0.24765168  0.25115716  0.66395242  1
  Al0+  Al63  1  0.24941057  0.74836712  0.00761437  1
  Al0+  Al64  1  0.25083371  0.74901194  0.33693557  1
  Al0+  Al65  1  0.25216997  0.74823907  0.66367754  1
  Al0+  Al66  1  0.75111125  0.25287282  0.00569132  1
  Al0+  Al67  1  0.74957060  0.25065283  0.33214863  1
  Al0+  Al68  1  0.74999857  0.25415028  0.66780455  1
  Al0+  Al69  1  0.75185350  0.75187990  -0.00071992  1
  Al0+  Al70  1  0.74925017  0.74912583  0.33120461  1
  Al0+  Al71  1  0.75289411  0.74994242  0.66463888  1
  Al0+  Al72  1  0.56931111  0.17728165  0.31988784  1
  Al0+  Al73  1  0.42849148  0.32197891  0.65115922  1
  Al0+  Al74  1  0.81896955  0.07211116  0.01626459  1
  Al0+  Al75  1  0.42891131  0.32158344  0.98910142  1
  Al0+  Al76  1  0.67571212  0.92745038  0.01514389  1
  Al0+  Al77  1  0.06866285  0.17770530  0.98580556  1
  Al0+  Al78  1  0.17762496  0.42825437  0.34994375  1
  Al0+  Al79  1  0.32342721  0.57122966  0.35337838  1
  Al0+  Al80  1  0.68065332  0.43154315  0.01389857  1
  Al0+  Al81  1  0.92916747  0.32222228  0.65362680  1
  Al0+  Al82  1  0.06912262  0.17510988  0.65013602  1
  Al0+  Al83  1  0.67708410  0.92821117  0.68076104  1
  Al0+  Al84  1  0.32106149  0.56772731  0.01255701  1
  Al0+  Al85  1  0.82024486  0.07401980  0.68186074  1
  Al0+  Al86  1  0.17999094  0.93014406  0.01188477  1
  Al0+  Al87  1  0.92833172  0.32277778  0.31581602  1
  Al0+  Al88  1  0.32131636  0.07026532  0.34534502  1
  Al0+  Al89  1  0.57326106  0.68068942  0.65048218  1
  Al0+  Al90  1  0.81825153  0.07120359  0.34852161  1
  Al0+  Al91  1  0.57094718  0.68190043  0.98840681  1
  Al0+  Al92  1  0.42633629  0.82101040  0.65047314  1
  Al0+  Al93  1  0.07182830  0.17804522  0.31638472  1
  Al0+  Al94  1  0.57303031  0.17668320  0.98625430  1
  Al0+  Al95  1  0.57090802  0.17784746  0.65382118  1
  Si0+  Si96  1  0.93093474  0.81936448  0.65061533  1
  Si0+  Si97  1  0.68070473  0.42976162  0.35091598  1
  Si0+  Si98  1  0.32126779  0.07514898  0.01281019  1
  Si0+  Si99  1  0.32073999  0.56972915  0.68322427  1
  Si0+  Si100  1  0.07178376  0.68068914  0.31717337  1
  Si0+  Si101  1  0.42720298  0.81891395  0.31529273  1
  Si0+  Si102  1  0.42912484  0.32315888  0.31957804  1
  Si0+  Si103  1  0.67795311  0.43251688  0.68203770  1
  Si0+  Si104  1  0.17561126  0.42653042  0.01576790  1
  Si0+  Si105  1  0.17686949  0.92809435  0.34982393  1
  Si0+  Si106  1  0.32039483  0.07223937  0.68126241  1
  Si0+  Si107  1  0.92818268  0.81997825  0.31664847  1
  Si0+  Si108  1  0.82029250  0.57371750  0.34749401  1
  Si0+  Si109  1  0.07239289  0.67818273  0.65192376  1
  Si0+  Si110  1  0.17836485  0.42929524  0.68442157  1
  Si0+  Si111  1  0.82414630  0.57142362  0.68075908  1
  Si0+  Si112  1  0.57133677  0.67880261  0.31699577  1
  Si0+  Si113  1  0.92848497  0.32476285  0.98343194  1
  Si0+  Si114  1  0.17998131  0.92649296  0.67962058  1
  Si0+  Si115  1  0.82558389  0.57370964  0.01624176  1
  Si0+  Si116  1  0.67793729  0.92488073  0.34946848  1
  Si0+  Si117  1  0.07246484  0.67889208  0.98514669  1
  Si0+  Si118  1  0.93066584  0.82012709  0.98331801  1
  Si0+  Si119  1  0.42422420  0.82115055  0.98538526  1
  O2-  O120  1  0.25345470  0.00541760  0.05791797  1
  O2-  O121  1  0.24174886  -0.00010718  0.39359138  1
  O2-  O122  1  0.24821257  0.00009996  0.72140123  1
  O2-  O123  1  0.24925669  0.49029058  0.05890142  1
  O2-  O124  1  0.25326113  0.49658602  0.40170169  1
  O2-  O125  1  0.25480081  0.49478533  0.72675339  1
  O2-  O126  1  0.73911178  0.00702940  0.06540979  1
  O2-  O127  1  0.73995344  -0.00085974  0.39335843  1
  O2-  O128  1  0.74205245  0.00699412  0.73014556  1
  O2-  O129  1  0.75779832  0.50503621  0.06082114  1
  O2-  O130  1  0.75427524  0.49978702  0.39147288  1
  O2-  O131  1  0.75119342  0.50327740  0.72257699  1
  O2-  O132  1  0.00048162  0.25082916  0.26629076  1
  O2-  O133  1  -0.00613275  0.24477091  0.60274852  1
  O2-  O134  1  -0.00621948  0.25289141  0.94015132  1
  O2-  O135  1  0.00300834  0.75305847  0.27366551  1
  O2-  O136  1  0.00212023  0.74861972  0.60776868  1
  O2-  O137  1  0.00112216  0.74790911  0.94062545  1
  O2-  O138  1  0.49232225  0.25054405  0.27440656  1
  O2-  O139  1  0.49492385  0.24491225  0.60167105  1
  O2-  O140  1  0.49690596  0.24596982  0.93882369  1
  O2-  O141  1  0.49797552  0.74686550  0.27480539  1
  O2-  O142  1  0.50343020  0.75430541  0.60019134  1
  O2-  O143  1  0.49986694  0.75995657  0.94186042  1
  O2-  O144  1  0.07046922  0.17781479  0.09838582  1
  O2-  O145  1  0.06837334  0.17715341  0.42954821  1
  O2-  O146  1  0.06912914  0.17468709  0.76404769  1
  O2-  O147  1  0.07090343  0.68001678  0.09018908  1
  O2-  O148  1  0.06901429  0.68243432  0.42272341  1
  O2-  O149  1  0.07154403  0.67921489  0.75719315  1
  O2-  O150  1  0.57139277  0.18037917  0.10013131  1
  O2-  O151  1  0.57039016  0.17870036  0.43288532  1
  O2-  O152  1  0.57126013  0.18124874  0.76710836  1
  O2-  O153  1  0.56859277  0.68049393  0.10190762  1
  O2-  O154  1  0.57567541  0.68111067  0.42160977  1
  O2-  O155  1  0.57118656  0.67873155  0.76400983  1
  O2-  O156  1  0.17824220  0.43265081  0.23606145  1
  O2-  O157  1  0.17515922  0.43474493  0.57989167  1
  O2-  O158  1  0.17075163  0.43212460  0.91030422  1
  O2-  O159  1  0.17963336  0.92425869  0.24435641  1
  O2-  O160  1  0.18043351  0.92193274  0.57478035  1
  O2-  O161  1  0.18080590  0.92719980  0.89846785  1
  O2-  O162  1  0.67842842  0.43297395  0.24595897  1
  O2-  O163  1  0.67830363  0.43439538  0.57666404  1
  O2-  O164  1  0.68100630  0.43435007  0.90061604  1
  O2-  O165  1  0.68226648  0.91889529  0.24438142  1
  O2-  O166  1  0.68432536  0.92486194  0.56704582  1
  O2-  O167  1  0.68300487  0.92064936  0.90254083  1
  O2-  O168  1  0.42958436  0.32164826  0.10295376  1
  O2-  O169  1  0.43399695  0.32344401  0.42496843  1
  O2-  O170  1  0.43280189  0.32374394  0.76463031  1
  O2-  O171  1  0.42045354  0.81669727  0.09107914  1
  O2-  O172  1  0.42652032  0.81932433  0.42003355  1
  O2-  O173  1  0.41428510  0.81364506  0.76301843  1
  O2-  O174  1  0.93217921  0.32899747  0.08856823  1
  O2-  O175  1  0.92895622  0.32315338  0.42911483  1
  O2-  O176  1  0.93414857  0.32932608  0.76685140  1
  O2-  O177  1  0.93225771  0.81731814  0.08868680  1
  O2-  O178  1  0.92834195  0.81599765  0.42198705  1
  O2-  O179  1  0.93275737  0.81698753  0.75560661  1
  O2-  O180  1  0.32290940  0.06615410  0.23223207  1
  O2-  O181  1  0.31957536  0.07133642  0.57603984  1
  O2-  O182  1  0.31904760  0.07401078  0.90716869  1
  O2-  O183  1  0.32278519  0.57180666  0.23958938  1
  O2-  O184  1  0.31695412  0.57151857  0.57852335  1
  O2-  O185  1  0.31884134  0.57004243  0.89914148  1
  O2-  O186  1  0.81974013  0.06804641  0.23578251  1
  O2-  O187  1  0.82226463  0.07034649  0.56811537  1
  O2-  O188  1  0.82237735  0.06843837  0.90289664  1
  O2-  O189  1  0.81732509  0.57949471  0.24292656  1
  O2-  O190  1  0.82624381  0.57201113  0.57539846  1
  O2-  O191  1  0.82890913  0.57343611  0.91059542  1
  O2-  O192  1  0.04312392  0.07749149  0.26651588  1
  O2-  O193  1  0.04786946  0.07481309  0.59775028  1
  O2-  O194  1  0.03771077  0.08001748  0.93345535  1
  O2-  O195  1  0.04170349  0.59093398  0.26844249  1
  O2-  O196  1  0.04267758  0.58790786  0.60367060  1
  O2-  O197  1  0.04595159  0.58729511  0.93626644  1
  O2-  O198  1  0.54230374  0.07886078  0.26749228  1
  O2-  O199  1  0.54772845  0.07780318  0.60252473  1
  O2-  O200  1  0.54976738  0.07624464  0.93514064  1
  O2-  O201  1  0.54501553  0.58510364  0.27285433  1
  O2-  O202  1  0.54193904  0.58498903  0.59461066  1
  O2-  O203  1  0.53702575  0.58684192  0.93455618  1
  O2-  O204  1  0.17246429  0.20528198  0.26656038  1
  O2-  O205  1  0.16654496  0.20783230  0.59920182  1
  O2-  O206  1  0.16394839  0.20688996  0.92806531  1
  O2-  O207  1  0.16447516  0.70765131  0.27141642  1
  O2-  O208  1  0.16255454  0.70657588  0.60298687  1
  O2-  O209  1  0.16366931  0.70870400  0.93805813  1
  O2-  O210  1  0.66395078  0.21367582  0.26693273  1
  O2-  O211  1  0.66732428  0.21338005  0.60126328  1
  O2-  O212  1  0.67108036  0.21138902  0.93669832  1
  O2-  O213  1  0.66240756  0.70777693  0.26822200  1
  O2-  O214  1  0.67368938  0.70438839  0.59798152  1
  O2-  O215  1  0.67006972  0.70612379  0.93539235  1
  O2-  O216  1  0.08504530  0.45876987  0.06440524  1
  O2-  O217  1  0.08078028  0.46616137  0.40215953  1
  O2-  O218  1  0.08978101  0.46492268  0.73376425  1
  O2-  O219  1  0.08352394  0.95709635  0.06731850  1
  O2-  O220  1  0.08086396  0.94651324  0.39350252  1
  O2-  O221  1  0.08722358  0.95052139  0.72701976  1
  O2-  O222  1  0.58730476  0.46664333  0.07118852  1
  O2-  O223  1  0.59163487  0.46127352  0.40098519  1
  O2-  O224  1  0.58704948  0.46489416  0.72831970  1
  O2-  O225  1  0.57232147  0.94128701  0.06333508  1
  O2-  O226  1  0.58099551  0.94195209  0.39041502  1
  O2-  O227  1  0.57344035  0.94027158  0.72820197  1
  O2-  O228  1  0.19581324  0.33070610  0.05786722  1
  O2-  O229  1  0.19990046  0.32956551  0.40394243  1
  O2-  O230  1  0.19970823  0.33520903  0.72960424  1
  O2-  O231  1  0.20906730  0.83438741  0.06943335  1
  O2-  O232  1  0.20558728  0.83567699  0.39745950  1
  O2-  O233  1  0.20896162  0.83471590  0.72801364  1
  O2-  O234  1  0.71007992  0.33694946  0.07201551  1
  O2-  O235  1  0.70813278  0.33855268  0.39831189  1
  O2-  O236  1  0.70439207  0.34187033  0.73135016  1
  O2-  O237  1  0.71420638  0.83173669  0.07002951  1
  O2-  O238  1  0.71084790  0.83351912  0.39711330  1
  O2-  O239  1  0.71623027  0.83148814  0.73270747  1
  O2-  O240  1  0.46020746  0.41683262  0.27569761  1
  O2-  O241  1  0.45962250  0.41841220  0.59649287  1
  O2-  O242  1  0.46393110  0.41831160  0.93640210  1
  O2-  O243  1  0.45458858  0.90917462  0.26534763  1
  O2-  O244  1  0.44791508  0.92021898  0.59687573  1
  O2-  O245  1  0.43856064  0.91731170  0.94147167  1
  O2-  O246  1  0.95186052  0.42428486  0.26532346  1
  O2-  O247  1  0.96309019  0.41936317  0.59875712  1
  O2-  O248  1  0.95522717  0.41841537  0.93637411  1
  O2-  O249  1  0.95291342  0.91155147  0.26888039  1
  O2-  O250  1  0.96045902  0.90924514  0.60140171  1
  O2-  O251  1  0.96204797  0.90975069  0.93563486  1
  O2-  O252  1  0.33257631  0.30516108  0.27832323  1
  O2-  O253  1  0.32720431  0.30111355  0.60245368  1
  O2-  O254  1  0.32908899  0.30282581  0.93443846  1
  O2-  O255  1  0.33454809  0.79091035  0.26922514  1
  O2-  O256  1  0.33110853  0.78538417  0.59291243  1
  O2-  O257  1  0.33311254  0.78698113  0.93872295  1
  O2-  O258  1  0.82965073  0.29405606  0.26455420  1
  O2-  O259  1  0.82768071  0.30561132  0.60396385  1
  O2-  O260  1  0.83300267  0.30339979  0.94100477  1
  O2-  O261  1  0.83890551  0.78546430  0.26849739  1
  O2-  O262  1  0.84176593  0.78907695  0.60039312  1
  O2-  O263  1  0.84049709  0.79103810  0.93426388  1
  O2-  O264  1  0.41486656  0.05051266  0.05905364  1
  O2-  O265  1  0.41562313  0.03182399  0.40037014  1
  O2-  O266  1  0.41146179  0.04365479  0.72894278  1
  O2-  O267  1  0.41662252  0.54051485  0.06927630  1
  O2-  O268  1  0.42271452  0.54730197  0.40641137  1
  O2-  O269  1  0.41526023  0.54556515  0.72659782  1
  O2-  O270  1  0.91368722  0.03246226  0.06994016  1
  O2-  O271  1  0.91378533  0.03464800  0.40180506  1
  O2-  O272  1  0.91777654  0.03597825  0.73233670  1
  O2-  O273  1  0.91989921  0.55031961  0.06311300  1
  O2-  O274  1  0.91426397  0.55289827  0.39349730  1
  O2-  O275  1  0.91570166  0.54379343  0.72977633  1
  O2-  O276  1  0.29339692  0.16831900  0.05815727  1
  O2-  O277  1  0.29686944  0.16730943  0.40086044  1
  O2-  O278  1  0.29183238  0.16399703  0.72826475  1
  O2-  O279  1  0.28561367  0.66128586  0.06982931  1
  O2-  O280  1  0.28990220  0.66885401  0.40529314  1
  O2-  O281  1  0.28715568  0.65995695  0.73036988  1
  O2-  O282  1  0.80025510  0.17250844  0.06865319  1
  O2-  O283  1  0.78952464  0.16888304  0.40063636  1
  O2-  O284  1  0.79866475  0.17475460  0.73324259  1
  O2-  O285  1  0.80081091  0.66736211  0.06178453  1
  O2-  O286  1  0.78880887  0.66361532  0.39806750  1
  O2-  O287  1  0.80036414  0.66426818  0.72761853  1
