# generated using pymatgen
data_Ca2Al2SiO7
_symmetry_space_group_name_H-M   'P 1'
_cell_length_a   15.46577323
_cell_length_b   15.46591203
_cell_length_c   15.28854716
_cell_angle_alpha   90.01154813
_cell_angle_beta   89.98666521
_cell_angle_gamma   89.96802724
_symmetry_Int_Tables_number   1
_chemical_formula_structural   Ca2Al2SiO7
_chemical_formula_sum   'Ca48 Al48 Si24 O168'
_cell_volume   3656.90183506
_cell_formula_units_Z   24
loop_
 _symmetry_equiv_pos_site_id
 _symmetry_equiv_pos_as_xyz
  1  'x, y, z'
loop_
 _atom_type_symbol
 _atom_type_oxidation_number
  Ca2+  2.0
  Al0+  0.0
  Si0+  0.0
  O2-  -2.0
loop_
 _atom_site_type_symbol
 _atom_site_label
 _atom_site_symmetry_multiplicity
 _atom_site_fract_x
 _atom_site_fract_y
 _atom_site_fract_z
 _atom_site_occupancy
  Ca2+  Ca0  1  0.16480873  0.08395782  0.17048568  1
  Ca2+  Ca1  1  0.16892787  0.07354458  0.50681385  1
  Ca2+  Ca2  1  0.16100227  0.07631990  0.83829548  1
  Ca2+  Ca3  1  0.17558436  0.58314316  0.17648617  1
  Ca2+  Ca4  1  0.16581436  0.58847352  0.49802432  1
  Ca2+  Ca5  1  0.16994665  0.58884214  0.83631957  1
  Ca2+  Ca6  1  0.66703919  0.08086080  0.17118371  1
  Ca2+  Ca7  1  0.66292959  0.07769338  0.49684589  1
  Ca2+  Ca8  1  0.67471068  0.08183862  0.84399291  1
  Ca2+  Ca9  1  0.66542649  0.58007464  0.17118786  1
  Ca2+  Ca10  1  0.67449323  0.58910950  0.50336742  1
  Ca2+  Ca11  1  0.67570573  0.57648676  0.83862140  1
  Ca2+  Ca12  1  0.07513273  0.33379116  0.16328865  1
  Ca2+  Ca13  1  0.07387835  0.34051471  0.49249679  1
  Ca2+  Ca14  1  0.07458803  0.32933329  0.83050999  1
  Ca2+  Ca15  1  0.07611555  0.82956523  0.16434921  1
  Ca2+  Ca16  1  0.07649551  0.82486212  0.49797769  1
  Ca2+  Ca17  1  0.07362919  0.83001564  0.82551394  1
  Ca2+  Ca18  1  0.58676955  0.32473291  0.16076959  1
  Ca2+  Ca19  1  0.57637046  0.32605603  0.48860141  1
  Ca2+  Ca20  1  0.59559865  0.32773102  0.83672411  1
  Ca2+  Ca21  1  0.57705265  0.82991078  0.16939733  1
  Ca2+  Ca22  1  0.57546821  0.82980550  0.48800542  1
  Ca2+  Ca23  1  0.56936927  0.83740244  0.83033481  1
  Ca2+  Ca24  1  0.32840326  0.42646367  0.17931841  1
  Ca2+  Ca25  1  0.32988653  0.41990229  0.49738614  1
  Ca2+  Ca26  1  0.32890426  0.42670555  0.84515325  1
  Ca2+  Ca27  1  0.33859767  0.91491590  0.17169558  1
  Ca2+  Ca28  1  0.33033488  0.90953162  0.50565929  1
  Ca2+  Ca29  1  0.32697428  0.90683188  0.83549868  1
  Ca2+  Ca30  1  0.83060388  0.40825405  0.16906392  1
  Ca2+  Ca31  1  0.83784712  0.42176321  0.50578755  1
  Ca2+  Ca32  1  0.83682852  0.41915049  0.83785049  1
  Ca2+  Ca33  1  0.83489482  0.92118769  0.17451374  1
  Ca2+  Ca34  1  0.82863270  0.90640277  0.50193711  1
  Ca2+  Ca35  1  0.83953680  0.92077927  0.84287019  1
  Ca2+  Ca36  1  0.42784033  0.17163579  0.16655226  1
  Ca2+  Ca37  1  0.42187920  0.17252651  0.48873617  1
  Ca2+  Ca38  1  0.42485809  0.16630209  0.83312858  1
  Ca2+  Ca39  1  0.41118864  0.67174218  0.16444799  1
  Ca2+  Ca40  1  0.41943950  0.67586624  0.48978478  1
  Ca2+  Ca41  1  0.41390314  0.67309096  0.83234057  1
  Ca2+  Ca42  1  0.91825712  0.17490301  0.15762866  1
  Ca2+  Ca43  1  0.91522939  0.18027633  0.49584299  1
  Ca2+  Ca44  1  0.91426057  0.17500793  0.83745450  1
  Ca2+  Ca45  1  0.91894354  0.67809166  0.16682811  1
  Ca2+  Ca46  1  0.92584905  0.66861195  0.49408873  1
  Ca2+  Ca47  1  0.91925137  0.67490305  0.82225235  1
  Al0+  Al48  1  0.00040425  0.00000594  -0.00056353  1
  Al0+  Al49  1  -0.00038879  0.00287715  0.33590101  1
  Al0+  Al50  1  -0.00000953  0.00045020  0.66775741  1
  Al0+  Al51  1  0.00079721  0.50168333  -0.00160439  1
  Al0+  Al52  1  -0.00009112  0.50041895  0.32668183  1
  Al0+  Al53  1  0.00055801  0.49974337  0.66596341  1
  Al0+  Al54  1  0.49865033  0.00045653  -0.00842983  1
  Al0+  Al55  1  0.50164297  0.00020925  0.33169554  1
  Al0+  Al56  1  0.50002481  0.00118669  0.66404855  1
  Al0+  Al57  1  0.50060715  0.50105565  0.00747202  1
  Al0+  Al58  1  0.49960889  0.50039363  0.33436507  1
  Al0+  Al59  1  0.49994998  0.49783211  0.66906725  1
  Al0+  Al60  1  0.25076400  0.24817521  -0.00315478  1
  Al0+  Al61  1  0.24992711  0.25018476  0.33619230  1
  Al0+  Al62  1  0.25149752  0.24974215  0.66913582  1
  Al0+  Al63  1  0.24952181  0.75110827  0.00135001  1
  Al0+  Al64  1  0.24916479  0.75043819  0.33144242  1
  Al0+  Al65  1  0.24936712  0.75067104  0.66501849  1
  Al0+  Al66  1  0.75123121  0.24865359  -0.00013634  1
  Al0+  Al67  1  0.75130896  0.24863198  0.32950915  1
  Al0+  Al68  1  0.74985197  0.24747165  0.66160093  1
  Al0+  Al69  1  0.74714880  0.74946221  -0.00330760  1
  Al0+  Al70  1  0.74809892  0.75126249  0.33023803  1
  Al0+  Al71  1  0.74742055  0.74962850  0.67304228  1
  Al0+  Al72  1  0.68299069  0.42981448  0.01403464  1
  Al0+  Al73  1  0.32220673  0.57305829  0.35122675  1
  Al0+  Al74  1  0.82107299  0.06771362  0.01424836  1
  Al0+  Al75  1  0.42652864  0.32218067  0.31893445  1
  Al0+  Al76  1  0.92756023  0.82019476  0.98723640  1
  Al0+  Al77  1  0.92924245  0.32207546  0.98423727  1
  Al0+  Al78  1  0.82178380  0.57055274  0.67924795  1
  Al0+  Al79  1  0.31873913  0.57173412  0.01407305  1
  Al0+  Al80  1  0.07372727  0.17804851  0.98509972  1
  Al0+  Al81  1  0.42952008  0.81939421  0.98507046  1
  Al0+  Al82  1  0.57101178  0.17969343  0.31760412  1
  Al0+  Al83  1  0.68032453  0.92989947  0.34648175  1
  Al0+  Al84  1  0.43044519  0.81983734  0.65263181  1
  Al0+  Al85  1  0.17760838  0.42918096  0.34877691  1
  Al0+  Al86  1  0.42836492  0.82022002  0.31856587  1
  Al0+  Al87  1  0.57277280  0.67716961  0.31910996  1
  Al0+  Al88  1  0.07082912  0.67933167  0.31631882  1
  Al0+  Al89  1  0.07043829  0.67856883  0.65187577  1
  Al0+  Al90  1  0.18007498  0.92932501  0.68116585  1
  Al0+  Al91  1  0.93000874  0.32151163  0.31937280  1
  Al0+  Al92  1  0.57048563  0.18028053  0.98475566  1
  Al0+  Al93  1  0.92797745  0.82311496  0.31954440  1
  Al0+  Al94  1  0.92564702  0.82362048  0.65237938  1
  Al0+  Al95  1  0.93032401  0.31908268  0.65265844  1
  Si0+  Si96  1  0.42730206  0.32200346  0.65281000  1
  Si0+  Si97  1  0.57150310  0.67432708  0.98105428  1
  Si0+  Si98  1  0.32140187  0.56979165  0.68211264  1
  Si0+  Si99  1  0.82314567  0.07320280  0.35271505  1
  Si0+  Si100  1  0.67436849  0.92756606  0.01555468  1
  Si0+  Si101  1  0.57083455  0.67522266  0.65251714  1
  Si0+  Si102  1  0.18034897  0.93098004  0.01639813  1
  Si0+  Si103  1  0.17901802  0.42720668  0.68329308  1
  Si0+  Si104  1  0.57061564  0.18000601  0.65044649  1
  Si0+  Si105  1  0.32331264  0.07185565  0.01528770  1
  Si0+  Si106  1  0.32139630  0.06980789  0.34763347  1
  Si0+  Si107  1  0.81924475  0.07169543  0.68167655  1
  Si0+  Si108  1  0.67931116  0.42563481  0.34816885  1
  Si0+  Si109  1  0.42913317  0.32377027  0.98368394  1
  Si0+  Si110  1  0.81902343  0.57048589  0.34587657  1
  Si0+  Si111  1  0.67679207  0.92941707  0.68264168  1
  Si0+  Si112  1  0.07290984  0.17760403  0.32000390  1
  Si0+  Si113  1  0.17765915  0.42545270  0.01550768  1
  Si0+  Si114  1  0.07193600  0.68041129  0.98375657  1
  Si0+  Si115  1  0.82410690  0.57506020  0.01789271  1
  Si0+  Si116  1  0.07469525  0.17813996  0.64950463  1
  Si0+  Si117  1  0.67808212  0.42571306  0.68143714  1
  Si0+  Si118  1  0.32345920  0.07313527  0.68511766  1
  Si0+  Si119  1  0.17697066  0.92947077  0.34854307  1
  O2-  O120  1  0.25073383  0.00300480  0.05813848  1
  O2-  O121  1  0.25100777  -0.00160639  0.39001763  1
  O2-  O122  1  0.25464662  0.00474122  0.72935922  1
  O2-  O123  1  0.24629600  0.49419472  0.05859007  1
  O2-  O124  1  0.24952301  0.50073956  0.40094413  1
  O2-  O125  1  0.25013265  0.49879280  0.72477587  1
  O2-  O126  1  0.74813294  -0.00938480  0.05953813  1
  O2-  O127  1  0.75700319  0.00164351  0.39641739  1
  O2-  O128  1  0.75297926  -0.00448843  0.72371817  1
  O2-  O129  1  0.75829006  0.50345107  0.06193395  1
  O2-  O130  1  0.74825342  0.49894462  0.38967579  1
  O2-  O131  1  0.74695476  0.49448532  0.72458630  1
  O2-  O132  1  0.00595515  0.24716051  0.27590524  1
  O2-  O133  1  0.00758148  0.24754275  0.60479671  1
  O2-  O134  1  0.00388527  0.25205400  0.93513869  1
  O2-  O135  1  0.00098171  0.75391488  0.26783461  1
  O2-  O136  1  -0.00500732  0.74853685  0.60398750  1
  O2-  O137  1  -0.00280061  0.74176015  0.93928391  1
  O2-  O138  1  0.50281359  0.25549046  0.26836722  1
  O2-  O139  1  0.49833177  0.25077621  0.61093147  1
  O2-  O140  1  0.49819638  0.25697270  0.93619493  1
  O2-  O141  1  0.49580397  0.74391127  0.26913912  1
  O2-  O142  1  0.50495534  0.74538404  0.60723648  1
  O2-  O143  1  0.50452641  0.74533035  0.93748055  1
  O2-  O144  1  0.07392967  0.17822324  0.09868209  1
  O2-  O145  1  0.07133879  0.17550109  0.42576473  1
  O2-  O146  1  0.07527997  0.17965063  0.75484831  1
  O2-  O147  1  0.07393663  0.68394595  0.08884160  1
  O2-  O148  1  0.06876518  0.68000407  0.42987022  1
  O2-  O149  1  0.07113720  0.68019238  0.76596280  1
  O2-  O150  1  0.56831272  0.17901969  0.09695822  1
  O2-  O151  1  0.56854399  0.18013822  0.43210149  1
  O2-  O152  1  0.57222876  0.18024926  0.75553730  1
  O2-  O153  1  0.57188235  0.67376532  0.08611188  1
  O2-  O154  1  0.57541484  0.68185885  0.43328981  1
  O2-  O155  1  0.56781253  0.67353163  0.75809370  1
  O2-  O156  1  0.17868953  0.42851989  0.23517000  1
  O2-  O157  1  0.18060103  0.42345484  0.57882584  1
  O2-  O158  1  0.17964883  0.42573198  0.90922236  1
  O2-  O159  1  0.17468613  0.93309343  0.24334873  1
  O2-  O160  1  0.18261944  0.93166527  0.56795807  1
  O2-  O161  1  0.18162065  0.93000979  0.91117622  1
  O2-  O162  1  0.68247424  0.42300417  0.24328309  1
  O2-  O163  1  0.67585682  0.42490873  0.57604348  1
  O2-  O164  1  0.68396146  0.43153926  0.90017611  1
  O2-  O165  1  0.67954123  0.93231290  0.23361139  1
  O2-  O166  1  0.67374411  0.93170986  0.57779503  1
  O2-  O167  1  0.67314397  0.93150490  0.90927773  1
  O2-  O168  1  0.42924292  0.32057962  0.08856178  1
  O2-  O169  1  0.42816426  0.31717986  0.43363529  1
  O2-  O170  1  0.42637247  0.32249477  0.75780452  1
  O2-  O171  1  0.42954225  0.82061305  0.09733435  1
  O2-  O172  1  0.43085568  0.82182697  0.43237448  1
  O2-  O173  1  0.43083195  0.81859320  0.76593207  1
  O2-  O174  1  0.92992056  0.31935777  0.09754804  1
  O2-  O175  1  0.92897642  0.32048109  0.43297889  1
  O2-  O176  1  0.92925219  0.31692328  0.76529734  1
  O2-  O177  1  0.93091621  0.82142301  0.09993627  1
  O2-  O178  1  0.92846869  0.81976855  0.43294667  1
  O2-  O179  1  0.92861602  0.82343606  0.76625797  1
  O2-  O180  1  0.32038700  0.06990891  0.24241565  1
  O2-  O181  1  0.32361107  0.07494714  0.57948664  1
  O2-  O182  1  0.32458935  0.07107408  0.91014752  1
  O2-  O183  1  0.31887135  0.57297519  0.23763514  1
  O2-  O184  1  0.32428213  0.56760663  0.57772974  1
  O2-  O185  1  0.31630797  0.57139038  0.89975586  1
  O2-  O186  1  0.82404709  0.07354420  0.24738816  1
  O2-  O187  1  0.81521605  0.07687501  0.57699703  1
  O2-  O188  1  0.81866484  0.06752976  0.90024807  1
  O2-  O189  1  0.81734139  0.57021008  0.24085080  1
  O2-  O190  1  0.82003185  0.56950972  0.56582740  1
  O2-  O191  1  0.82239307  0.57533282  0.91204956  1
  O2-  O192  1  0.04701634  0.08515228  0.27229116  1
  O2-  O193  1  0.04787121  0.08482377  0.60454668  1
  O2-  O194  1  0.04218541  0.08101476  0.93145923  1
  O2-  O195  1  0.04094451  0.58317106  0.26127667  1
  O2-  O196  1  0.04590339  0.57936812  0.59983293  1
  O2-  O197  1  0.05525405  0.58399718  0.94003487  1
  O2-  O198  1  0.53856703  0.08368893  0.26441613  1
  O2-  O199  1  0.54209936  0.08888099  0.60257917  1
  O2-  O200  1  0.53702880  0.08634460  0.92678985  1
  O2-  O201  1  0.55332104  0.57594529  0.26986190  1
  O2-  O202  1  0.54621519  0.58110485  0.60663506  1
  O2-  O203  1  0.54306372  0.58160460  0.93452833  1
  O2-  O204  1  0.16720262  0.19954943  0.27485610  1
  O2-  O205  1  0.17008354  0.20107242  0.60536370  1
  O2-  O206  1  0.17313371  0.20133506  0.92990578  1
  O2-  O207  1  0.16871331  0.70797021  0.26421729  1
  O2-  O208  1  0.16747743  0.70984276  0.59898209  1
  O2-  O209  1  0.16254785  0.71319335  0.93588279  1
  O2-  O210  1  0.66991224  0.20443695  0.26591114  1
  O2-  O211  1  0.66075670  0.20740789  0.60046075  1
  O2-  O212  1  0.66659303  0.21128189  0.93004536  1
  O2-  O213  1  0.66719609  0.71040773  0.26185436  1
  O2-  O214  1  0.66549408  0.69986328  0.60955473  1
  O2-  O215  1  0.66546335  0.69766699  0.93428731  1
  O2-  O216  1  0.08325092  0.45035612  0.05975326  1
  O2-  O217  1  0.07792243  0.45918138  0.39947031  1
  O2-  O218  1  0.08773372  0.45509142  0.73098157  1
  O2-  O219  1  0.08926445  0.95915924  0.06420082  1
  O2-  O220  1  0.08734343  0.96072403  0.39899839  1
  O2-  O221  1  0.08313139  0.96069148  0.73565407  1
  O2-  O222  1  0.58605165  0.45818920  0.06841923  1
  O2-  O223  1  0.58617745  0.44843401  0.39516899  1
  O2-  O224  1  0.58469585  0.44991419  0.73008972  1
  O2-  O225  1  0.58229882  0.96017186  0.05993041  1
  O2-  O226  1  0.58483499  0.96476317  0.40241704  1
  O2-  O227  1  0.58688960  0.96428674  0.73089303  1
  O2-  O228  1  0.20254691  0.33099188  0.05973353  1
  O2-  O229  1  0.20513969  0.33005738  0.40337470  1
  O2-  O230  1  0.20798887  0.33579413  0.73218779  1
  O2-  O231  1  0.21007415  0.84035523  0.06418518  1
  O2-  O232  1  0.20322488  0.83751521  0.39498096  1
  O2-  O233  1  0.21264685  0.83331887  0.73617013  1
  O2-  O234  1  0.71262941  0.33283495  0.06728545  1
  O2-  O235  1  0.70967586  0.33463318  0.39678812  1
  O2-  O236  1  0.70538948  0.33160188  0.72631146  1
  O2-  O237  1  0.69222275  0.83055719  0.05669915  1
  O2-  O238  1  0.70887682  0.83273105  0.40164352  1
  O2-  O239  1  0.69497261  0.83601855  0.73101817  1
  O2-  O240  1  0.44798116  0.42264338  0.27057905  1
  O2-  O241  1  0.45578617  0.41330221  0.60510790  1
  O2-  O242  1  0.45369715  0.41848641  0.93954233  1
  O2-  O243  1  0.46079325  0.91734848  0.26621065  1
  O2-  O244  1  0.45882978  0.91809728  0.60072483  1
  O2-  O245  1  0.45846907  0.91520713  0.92800208  1
  O2-  O246  1  0.95730873  0.41656144  0.26262910  1
  O2-  O247  1  0.95952369  0.41599255  0.60007117  1
  O2-  O248  1  0.95453561  0.42244093  0.93265719  1
  O2-  O249  1  0.95514847  0.92358705  0.27054893  1
  O2-  O250  1  0.95436857  0.92220350  0.60045857  1
  O2-  O251  1  0.96299505  0.91501082  0.93346361  1
  O2-  O252  1  0.32985815  0.28906555  0.26637734  1
  O2-  O253  1  0.33584242  0.29398284  0.60506803  1
  O2-  O254  1  0.33625141  0.29672414  0.93629365  1
  O2-  O255  1  0.32864410  0.79884475  0.26665170  1
  O2-  O256  1  0.33420435  0.78959798  0.60001478  1
  O2-  O257  1  0.33256782  0.78682234  0.93187793  1
  O2-  O258  1  0.83505821  0.28817571  0.26534338  1
  O2-  O259  1  0.83442813  0.28615834  0.59776854  1
  O2-  O260  1  0.83289728  0.28885430  0.93049496  1
  O2-  O261  1  0.83119890  0.79371788  0.26582845  1
  O2-  O262  1  0.82361230  0.79853152  0.60617807  1
  O2-  O263  1  0.82835686  0.79671538  0.93423286  1
  O2-  O264  1  0.41433451  0.04047664  0.06179579  1
  O2-  O265  1  0.41297687  0.04282123  0.39582246  1
  O2-  O266  1  0.41781031  0.04724675  0.73010747  1
  O2-  O267  1  0.41611120  0.54573850  0.06745578  1
  O2-  O268  1  0.42169811  0.54622187  0.40446430  1
  O2-  O269  1  0.41271595  0.54087548  0.73146510  1
  O2-  O270  1  0.91837550  0.03962360  0.06822603  1
  O2-  O271  1  0.91764750  0.05290380  0.39988713  1
  O2-  O272  1  0.91303688  0.04991139  0.72756115  1
  O2-  O273  1  0.91984967  0.55428200  0.06131956  1
  O2-  O274  1  0.91094536  0.54142044  0.39171325  1
  O2-  O275  1  0.91793650  0.53965866  0.73440058  1
  O2-  O276  1  0.29798758  0.16456457  0.06231335  1
  O2-  O277  1  0.29381725  0.16056821  0.39788356  1
  O2-  O278  1  0.29995721  0.16716575  0.73238912  1
  O2-  O279  1  0.28532312  0.66734712  0.06794546  1
  O2-  O280  1  0.29238478  0.67249117  0.40276503  1
  O2-  O281  1  0.29235577  0.66155305  0.72869465  1
  O2-  O282  1  0.78896582  0.16390172  0.06693146  1
  O2-  O283  1  0.79199348  0.16551508  0.39964435  1
  O2-  O284  1  0.78466726  0.16128258  0.73051011  1
  O2-  O285  1  0.79414895  0.66790996  0.06356896  1
  O2-  O286  1  0.79011350  0.66168242  0.39375065  1
  O2-  O287  1  0.78969906  0.66558196  0.73726765  1
