# generated using pymatgen
data_Ca2Al2SiO7
_symmetry_space_group_name_H-M   'P 1'
_cell_length_a   15.46258892
_cell_length_b   15.46172408
_cell_length_c   15.28688396
_cell_angle_alpha   90.00804909
_cell_angle_beta   89.99817704
_cell_angle_gamma   89.97565130
_symmetry_Int_Tables_number   1
_chemical_formula_structural   Ca2Al2SiO7
_chemical_formula_sum   'Ca48 Al48 Si24 O168'
_cell_volume   3654.76160748
_cell_formula_units_Z   24
loop_
 _symmetry_equiv_pos_site_id
 _symmetry_equiv_pos_as_xyz
  1  'x, y, z'
loop_
 _atom_type_symbol
 _atom_type_oxidation_number
  Ca2+  2.0
  Al0+  0.0
  Si0+  0.0
  O2-  -2.0
loop_
 _atom_site_type_symbol
 _atom_site_label
 _atom_site_symmetry_multiplicity
 _atom_site_fract_x
 _atom_site_fract_y
 _atom_site_fract_z
 _atom_site_occupancy
  Ca2+  Ca0  1  0.15860531  0.08033089  0.17471366  1
  Ca2+  Ca1  1  0.16449792  0.07964046  0.49971277  1
  Ca2+  Ca2  1  0.16817109  0.08494509  0.83790240  1
  Ca2+  Ca3  1  0.17595586  0.57789134  0.17677057  1
  Ca2+  Ca4  1  0.17948755  0.57921284  0.51056101  1
  Ca2+  Ca5  1  0.17060355  0.58080449  0.82875688  1
  Ca2+  Ca6  1  0.66592648  0.08155703  0.17028638  1
  Ca2+  Ca7  1  0.67018963  0.08263666  0.50801885  1
  Ca2+  Ca8  1  0.65445395  0.07438107  0.83756711  1
  Ca2+  Ca9  1  0.67081488  0.57614153  0.17430981  1
  Ca2+  Ca10  1  0.66740242  0.59109187  0.50067337  1
  Ca2+  Ca11  1  0.66331044  0.57862212  0.83762492  1
  Ca2+  Ca12  1  0.07222177  0.32366792  0.16160792  1
  Ca2+  Ca13  1  0.08154661  0.33036336  0.49214961  1
  Ca2+  Ca14  1  0.08134259  0.33385905  0.83098784  1
  Ca2+  Ca15  1  0.08414436  0.83420074  0.16620722  1
  Ca2+  Ca16  1  0.08300973  0.83014883  0.49766791  1
  Ca2+  Ca17  1  0.07411305  0.82576124  0.82272860  1
  Ca2+  Ca18  1  0.57548973  0.33239138  0.15831963  1
  Ca2+  Ca19  1  0.57135547  0.33569291  0.49714795  1
  Ca2+  Ca20  1  0.57805113  0.32868619  0.82879019  1
  Ca2+  Ca21  1  0.58429888  0.82981020  0.16677836  1
  Ca2+  Ca22  1  0.57437078  0.82569154  0.49874321  1
  Ca2+  Ca23  1  0.58378036  0.83069734  0.82030118  1
  Ca2+  Ca24  1  0.33920838  0.41864713  0.17478865  1
  Ca2+  Ca25  1  0.33468023  0.42224519  0.50859111  1
  Ca2+  Ca26  1  0.33794669  0.41717346  0.83204365  1
  Ca2+  Ca27  1  0.32632920  0.91965056  0.17799452  1
  Ca2+  Ca28  1  0.33281071  0.90901188  0.50277068  1
  Ca2+  Ca29  1  0.33794638  0.91782155  0.83469663  1
  Ca2+  Ca30  1  0.83011993  0.41178671  0.17256092  1
  Ca2+  Ca31  1  0.83736258  0.42177312  0.50109896  1
  Ca2+  Ca32  1  0.82624652  0.41634655  0.84169158  1
  Ca2+  Ca33  1  0.82615233  0.92572314  0.17379611  1
  Ca2+  Ca34  1  0.82876064  0.92243056  0.50725992  1
  Ca2+  Ca35  1  0.82057558  0.91314075  0.83580979  1
  Ca2+  Ca36  1  0.41904801  0.18017148  0.15903797  1
  Ca2+  Ca37  1  0.42062995  0.17658189  0.49829120  1
  Ca2+  Ca38  1  0.42747642  0.17597811  0.82838097  1
  Ca2+  Ca39  1  0.41794686  0.66840188  0.17181051  1
  Ca2+  Ca40  1  0.42289935  0.66540995  0.49373073  1
  Ca2+  Ca41  1  0.42380022  0.67282968  0.82009652  1
  Ca2+  Ca42  1  0.92087613  0.16982632  0.16604463  1
  Ca2+  Ca43  1  0.92061647  0.17144727  0.48817794  1
  Ca2+  Ca44  1  0.91874839  0.17119816  0.83538973  1
  Ca2+  Ca45  1  0.91360895  0.66465530  0.16693624  1
  Ca2+  Ca46  1  0.91940932  0.66994406  0.49821378  1
  Ca2+  Ca47  1  0.92084058  0.67344503  0.82120424  1
  Al0+  Al48  1  -0.00108751  -0.00178315  -0.00431863  1
  Al0+  Al49  1  -0.00163486  -0.00170226  0.33911109  1
  Al0+  Al50  1  -0.00077975  0.00209553  0.66631518  1
  Al0+  Al51  1  0.00292207  0.50102273  -0.00264231  1
  Al0+  Al52  1  -0.00119395  0.50018601  0.33316579  1
  Al0+  Al53  1  0.00153406  0.50035496  0.66814639  1
  Al0+  Al54  1  0.49676591  -0.00024752  0.00574587  1
  Al0+  Al55  1  0.49746915  -0.00150801  0.33137257  1
  Al0+  Al56  1  0.50103418  0.00034818  0.66273006  1
  Al0+  Al57  1  0.50142097  0.50314035  0.00193494  1
  Al0+  Al58  1  0.50173914  0.50067276  0.32891871  1
  Al0+  Al59  1  0.50145136  0.50041809  0.66484466  1
  Al0+  Al60  1  0.24947082  0.25152243  -0.00607218  1
  Al0+  Al61  1  0.24987145  0.24724103  0.32554854  1
  Al0+  Al62  1  0.24919954  0.24940281  0.66834978  1
  Al0+  Al63  1  0.25016259  0.74988520  0.00071951  1
  Al0+  Al64  1  0.24988014  0.74926242  0.33708313  1
  Al0+  Al65  1  0.24841686  0.74953675  0.66797645  1
  Al0+  Al66  1  0.75057845  0.24841309  -0.00273566  1
  Al0+  Al67  1  0.74901469  0.24960545  0.33624616  1
  Al0+  Al68  1  0.75304823  0.25016697  0.66522806  1
  Al0+  Al69  1  0.74960409  0.75106173  0.00532452  1
  Al0+  Al70  1  0.75016523  0.74837142  0.33300385  1
  Al0+  Al71  1  0.75063025  0.75286946  0.66345116  1
  Al0+  Al72  1  0.67989538  0.42828650  0.01271326  1
  Al0+  Al73  1  0.17899599  0.92943702  0.34799097  1
  Al0+  Al74  1  0.92769830  0.32308985  0.31936875  1
  Al0+  Al75  1  0.68049469  0.93201990  0.67875596  1
  Al0+  Al76  1  0.07037547  0.67770402  0.65048468  1
  Al0+  Al77  1  0.57334629  0.17870359  0.65103395  1
  Al0+  Al78  1  0.42654532  0.82051482  0.31656403  1
  Al0+  Al79  1  0.81822271  0.07091515  0.34727577  1
  Al0+  Al80  1  0.67669353  0.92881089  0.01571647  1
  Al0+  Al81  1  0.92855245  0.32286277  0.98349914  1
  Al0+  Al82  1  0.57078863  0.17637851  0.98673280  1
  Al0+  Al83  1  0.92892313  0.82279161  0.65063078  1
  Al0+  Al84  1  0.17889775  0.42716382  0.68272911  1
  Al0+  Al85  1  0.42996771  0.32548779  0.98352305  1
  Al0+  Al86  1  0.06953070  0.17648176  0.31970678  1
  Al0+  Al87  1  0.07023325  0.17722993  0.98309395  1
  Al0+  Al88  1  0.42878639  0.32049144  0.65143009  1
  Al0+  Al89  1  0.82218035  0.57081182  0.34818933  1
  Al0+  Al90  1  0.57284717  0.67984807  0.31484462  1
  Al0+  Al91  1  0.32356043  0.57173920  0.68304882  1
  Al0+  Al92  1  0.57200521  0.67766221  0.65283263  1
  Al0+  Al93  1  0.42778383  0.82244873  0.65366770  1
  Al0+  Al94  1  0.32160635  0.56836640  0.34683511  1
  Al0+  Al95  1  0.42993343  0.32033902  0.31969520  1
  Si0+  Si96  1  0.82375423  0.06995243  0.01634016  1
  Si0+  Si97  1  0.07152436  0.17904520  0.65117078  1
  Si0+  Si98  1  0.57242381  0.17674869  0.31775833  1
  Si0+  Si99  1  0.07379350  0.67983814  0.98571018  1
  Si0+  Si100  1  0.82389080  0.57189221  0.01496429  1
  Si0+  Si101  1  0.32235550  0.07339785  0.35033285  1
  Si0+  Si102  1  0.17856915  0.42606207  0.34648924  1
  Si0+  Si103  1  0.92825435  0.81884954  0.98663437  1
  Si0+  Si104  1  0.32029683  0.57209041  0.01624197  1
  Si0+  Si105  1  0.67605165  0.92722120  0.35136578  1
  Si0+  Si106  1  0.92984644  0.32168349  0.65181306  1
  Si0+  Si107  1  0.82085567  0.57142617  0.68102243  1
  Si0+  Si108  1  0.17865785  0.92904703  0.01329019  1
  Si0+  Si109  1  0.68064936  0.42777054  0.68067766  1
  Si0+  Si110  1  0.67843067  0.42811471  0.35124871  1
  Si0+  Si111  1  0.57209018  0.68254267  0.98575235  1
  Si0+  Si112  1  0.17698358  0.92920310  0.68347781  1
  Si0+  Si113  1  0.32036233  0.07024224  0.68170566  1
  Si0+  Si114  1  0.92918230  0.82048952  0.31745787  1
  Si0+  Si115  1  0.17843366  0.42875824  0.01664653  1
  Si0+  Si116  1  0.82405018  0.07475007  0.68643583  1
  Si0+  Si117  1  0.42705108  0.81996351  0.98653940  1
  Si0+  Si118  1  0.07095479  0.67917091  0.31809838  1
  Si0+  Si119  1  0.31870772  0.07236785  0.01493598  1
  O2-  O120  1  0.24461879  0.00362035  0.05642948  1
  O2-  O121  1  0.25512283  0.00290366  0.39447781  1
  O2-  O122  1  0.25081641  -0.00266942  0.72565693  1
  O2-  O123  1  0.25299139  0.49684114  0.05817930  1
  O2-  O124  1  0.24960433  0.49077250  0.39200839  1
  O2-  O125  1  0.25289477  0.49773968  0.73328397  1
  O2-  O126  1  0.74971711  0.00631157  0.06029748  1
  O2-  O127  1  0.74067751  -0.00017455  0.39474389  1
  O2-  O128  1  0.75353028  0.00726946  0.72928305  1
  O2-  O129  1  0.75960772  0.49907491  0.05848892  1
  O2-  O130  1  0.74907164  0.49518093  0.39550022  1
  O2-  O131  1  0.74925990  0.50159873  0.72346204  1
  O2-  O132  1  -0.00097197  0.25003512  0.27048815  1
  O2-  O133  1  0.00127042  0.25099024  0.61041110  1
  O2-  O134  1  0.00105481  0.25150537  0.93233004  1
  O2-  O135  1  -0.00073419  0.74887689  0.27365060  1
  O2-  O136  1  0.00141689  0.75200334  0.59962510  1
  O2-  O137  1  -0.00219869  0.74622592  0.94508647  1
  O2-  O138  1  0.50327246  0.24433995  0.27313836  1
  O2-  O139  1  0.50288437  0.25140887  0.60071136  1
  O2-  O140  1  0.50327927  0.25286388  0.93678297  1
  O2-  O141  1  0.50107487  0.75241651  0.26449613  1
  O2-  O142  1  0.49450494  0.74508758  0.60521380  1
  O2-  O143  1  0.50246079  0.75464174  0.94393507  1
  O2-  O144  1  0.06730900  0.17439578  0.09615559  1
  O2-  O145  1  0.06901077  0.17768094  0.43362663  1
  O2-  O146  1  0.07026017  0.17697952  0.75622608  1
  O2-  O147  1  0.07674654  0.68224352  0.09098872  1
  O2-  O148  1  0.06987500  0.68025432  0.42243710  1
  O2-  O149  1  0.06681590  0.67993471  0.76518208  1
  O2-  O150  1  0.56609696  0.17567441  0.10048956  1
  O2-  O151  1  0.57177902  0.17821970  0.42314753  1
  O2-  O152  1  0.57054248  0.17876841  0.76458506  1
  O2-  O153  1  0.57238217  0.68270561  0.09038983  1
  O2-  O154  1  0.57320326  0.68139369  0.42787612  1
  O2-  O155  1  0.57397922  0.68000191  0.76746041  1
  O2-  O156  1  0.17826312  0.43018337  0.24040813  1
  O2-  O157  1  0.17748585  0.42674626  0.56900690  1
  O2-  O158  1  0.17545040  0.43217752  0.91199737  1
  O2-  O159  1  0.17807940  0.92982674  0.23387389  1
  O2-  O160  1  0.17432347  0.93189530  0.57874871  1
  O2-  O161  1  0.18073281  0.92619714  0.90833929  1
  O2-  O162  1  0.67915586  0.42871109  0.24536132  1
  O2-  O163  1  0.68408017  0.42533964  0.57591915  1
  O2-  O164  1  0.67916264  0.43370114  0.89924249  1
  O2-  O165  1  0.67934278  0.92796132  0.24508203  1
  O2-  O166  1  0.68301004  0.93365017  0.56611476  1
  O2-  O167  1  0.67882309  0.92453132  0.90280391  1
  O2-  O168  1  0.43013231  0.32417950  0.09738827  1
  O2-  O169  1  0.42966065  0.31984841  0.43239602  1
  O2-  O170  1  0.43094130  0.31874280  0.76485449  1
  O2-  O171  1  0.42203445  0.81645849  0.09100637  1
  O2-  O172  1  0.42634854  0.81835122  0.42943883  1
  O2-  O173  1  0.43165751  0.82362357  0.76843090  1
  O2-  O174  1  0.93094420  0.32372422  0.09658793  1
  O2-  O175  1  0.93119842  0.32322761  0.43341542  1
  O2-  O176  1  0.92846093  0.32097984  0.75681162  1
  O2-  O177  1  0.92983257  0.81957543  0.09190282  1
  O2-  O178  1  0.93046744  0.82016965  0.42196345  1
  O2-  O179  1  0.92940217  0.81954684  0.76532351  1
  O2-  O180  1  0.32098663  0.07282543  0.24447428  1
  O2-  O181  1  0.31671158  0.07188298  0.57687826  1
  O2-  O182  1  0.31985496  0.06803073  0.90967697  1
  O2-  O183  1  0.31780436  0.56850879  0.23268466  1
  O2-  O184  1  0.32247518  0.56976973  0.56962115  1
  O2-  O185  1  0.31804337  0.57694768  0.91181894  1
  O2-  O186  1  0.81862027  0.06782841  0.23377710  1
  O2-  O187  1  0.82569320  0.07470629  0.58092511  1
  O2-  O188  1  0.82875185  0.06418878  0.91109584  1
  O2-  O189  1  0.82141006  0.57085863  0.23472465  1
  O2-  O190  1  0.82240262  0.56930099  0.57617727  1
  O2-  O191  1  0.82163413  0.57604963  0.90927718  1
  O2-  O192  1  0.03762826  0.07800207  0.26830534  1
  O2-  O193  1  0.04314174  0.08780959  0.60358691  1
  O2-  O194  1  0.04183266  0.07833374  0.92910552  1
  O2-  O195  1  0.04342317  0.58774666  0.26944324  1
  O2-  O196  1  0.04024906  0.58009564  0.59820465  1
  O2-  O197  1  0.05169841  0.58726116  0.93847825  1
  O2-  O198  1  0.54944289  0.08205017  0.27298253  1
  O2-  O199  1  0.54298648  0.08236009  0.59686891  1
  O2-  O200  1  0.53519258  0.07874387  0.93488002  1
  O2-  O201  1  0.54369768  0.58207999  0.26111829  1
  O2-  O202  1  0.55102407  0.57839070  0.59964826  1
  O2-  O203  1  0.54296812  0.59134312  0.93887968  1
  O2-  O204  1  0.16772078  0.19993038  0.26442261  1
  O2-  O205  1  0.16341231  0.20457396  0.60416408  1
  O2-  O206  1  0.16898396  0.20378197  0.93046462  1
  O2-  O207  1  0.16144719  0.70911779  0.26953301  1
  O2-  O208  1  0.16932553  0.70456997  0.60034661  1
  O2-  O209  1  0.16253604  0.71389637  0.93617096  1
  O2-  O210  1  0.66591598  0.20220871  0.27206643  1
  O2-  O211  1  0.67353321  0.20468490  0.60087333  1
  O2-  O212  1  0.67173046  0.19460037  0.93630297  1
  O2-  O213  1  0.67181153  0.70810615  0.26150073  1
  O2-  O214  1  0.66830071  0.71010376  0.59941498  1
  O2-  O215  1  0.66511237  0.70841711  0.93953601  1
  O2-  O216  1  0.08803448  0.46067728  0.06534132  1
  O2-  O217  1  0.08575258  0.45395776  0.39225502  1
  O2-  O218  1  0.08126844  0.45962869  0.73757343  1
  O2-  O219  1  0.08476113  0.95228980  0.05932249  1
  O2-  O220  1  0.08364984  0.95953947  0.40430623  1
  O2-  O221  1  0.08625120  0.96110086  0.73206741  1
  O2-  O222  1  0.58542439  0.46453191  0.06855450  1
  O2-  O223  1  0.58609376  0.45812671  0.39651939  1
  O2-  O224  1  0.58861492  0.45353438  0.72790983  1
  O2-  O225  1  0.57927765  0.95572548  0.07062445  1
  O2-  O226  1  0.57972491  0.94730336  0.39322184  1
  O2-  O227  1  0.58276641  0.96093030  0.73312639  1
  O2-  O228  1  0.20214654  0.33460862  0.06099705  1
  O2-  O229  1  0.20003300  0.33003039  0.38859393  1
  O2-  O230  1  0.20420100  0.32789545  0.73657494  1
  O2-  O231  1  0.20972419  0.83850310  0.06246837  1
  O2-  O232  1  0.20818192  0.83298323  0.40222351  1
  O2-  O233  1  0.19970216  0.83657536  0.73161865  1
  O2-  O234  1  0.70564880  0.32953995  0.06518315  1
  O2-  O235  1  0.70014558  0.33417333  0.39781207  1
  O2-  O236  1  0.71257776  0.33755848  0.72962139  1
  O2-  O237  1  0.71217728  0.83424624  0.07201569  1
  O2-  O238  1  0.70720631  0.83500453  0.39515768  1
  O2-  O239  1  0.71359824  0.83540817  0.73387827  1
  O2-  O240  1  0.46225783  0.41542338  0.26436366  1
  O2-  O241  1  0.45701306  0.41890219  0.60001860  1
  O2-  O242  1  0.45837144  0.42491795  0.93296321  1
  O2-  O243  1  0.45003888  0.92105570  0.26415409  1
  O2-  O244  1  0.45802596  0.91817241  0.59803375  1
  O2-  O245  1  0.44907846  0.91441469  0.94326361  1
  O2-  O246  1  0.95519043  0.42126553  0.26516652  1
  O2-  O247  1  0.95702072  0.41375070  0.60576637  1
  O2-  O248  1  0.95711211  0.42239044  0.93110060  1
  O2-  O249  1  0.95953149  0.91108974  0.26966383  1
  O2-  O250  1  0.95665750  0.92215296  0.60018914  1
  O2-  O251  1  0.95696164  0.90849075  0.93666509  1
  O2-  O252  1  0.33386090  0.29116368  0.26337159  1
  O2-  O253  1  0.33025804  0.28937636  0.60077106  1
  O2-  O254  1  0.33118533  0.29790760  0.93213083  1
  O2-  O255  1  0.32813905  0.78888965  0.26379799  1
  O2-  O256  1  0.32584403  0.80273363  0.60642015  1
  O2-  O257  1  0.33683571  0.78894580  0.93694136  1
  O2-  O258  1  0.82829944  0.29432744  0.26915074  1
  O2-  O259  1  0.83917334  0.29454040  0.60276706  1
  O2-  O260  1  0.83062427  0.29445308  0.92983571  1
  O2-  O261  1  0.83797358  0.79271545  0.26914026  1
  O2-  O262  1  0.83260624  0.79355981  0.59649651  1
  O2-  O263  1  0.83618829  0.79073547  0.93978658  1
  O2-  O264  1  0.40733225  0.04207627  0.06652274  1
  O2-  O265  1  0.41686227  0.05014112  0.39565421  1
  O2-  O266  1  0.41226251  0.04222992  0.72862348  1
  O2-  O267  1  0.41348083  0.54914737  0.06291744  1
  O2-  O268  1  0.42015708  0.54094963  0.39703197  1
  O2-  O269  1  0.42345623  0.54538144  0.73543573  1
  O2-  O270  1  0.91490073  0.03627584  0.06426926  1
  O2-  O271  1  0.91254590  0.03657631  0.40321075  1
  O2-  O272  1  0.91741547  0.04759696  0.73299884  1
  O2-  O273  1  0.92039275  0.55284882  0.05855117  1
  O2-  O274  1  0.91922368  0.54190420  0.40311526  1
  O2-  O275  1  0.91183183  0.54298839  0.72997715  1
  O2-  O276  1  0.29373710  0.16608535  0.05980115  1
  O2-  O277  1  0.29385392  0.16629492  0.39650719  1
  O2-  O278  1  0.28974075  0.15992697  0.73173122  1
  O2-  O279  1  0.28628635  0.66200545  0.06534297  1
  O2-  O280  1  0.28788704  0.66336716  0.40025863  1
  O2-  O281  1  0.29211959  0.66996711  0.73726871  1
  O2-  O282  1  0.80501529  0.16592377  0.05908686  1
  O2-  O283  1  0.79223074  0.16818948  0.40295768  1
  O2-  O284  1  0.80111663  0.16939182  0.73184977  1
  O2-  O285  1  0.79465209  0.66343245  0.06394694  1
  O2-  O286  1  0.79203999  0.66795498  0.40171923  1
  O2-  O287  1  0.79462708  0.66410985  0.72753928  1
