# generated using pymatgen
data_Ca2Al2SiO7
_symmetry_space_group_name_H-M   'P 1'
_cell_length_a   15.45718889
_cell_length_b   15.45684112
_cell_length_c   15.28359313
_cell_angle_alpha   89.98891476
_cell_angle_beta   89.99408248
_cell_angle_gamma   89.99788059
_symmetry_Int_Tables_number   1
_chemical_formula_structural   Ca2Al2SiO7
_chemical_formula_sum   'Ca48 Al48 Si24 O168'
_cell_volume   3651.54547685
_cell_formula_units_Z   24
loop_
 _symmetry_equiv_pos_site_id
 _symmetry_equiv_pos_as_xyz
  1  'x, y, z'
loop_
 _atom_type_symbol
 _atom_type_oxidation_number
  Ca2+  2.0
  Al0+  0.0
  Si0+  0.0
  O2-  -2.0
loop_
 _atom_site_type_symbol
 _atom_site_label
 _atom_site_symmetry_multiplicity
 _atom_site_fract_x
 _atom_site_fract_y
 _atom_site_fract_z
 _atom_site_occupancy
  Ca2+  Ca0  1  0.16747626  0.08391782  0.17387021  1
  Ca2+  Ca1  1  0.17056956  0.08934127  0.50568327  1
  Ca2+  Ca2  1  0.17627818  0.08307557  0.83415155  1
  Ca2+  Ca3  1  0.16297432  0.58196329  0.17534523  1
  Ca2+  Ca4  1  0.16634739  0.57133389  0.50361307  1
  Ca2+  Ca5  1  0.16691360  0.58046743  0.83523318  1
  Ca2+  Ca6  1  0.67000750  0.08143947  0.17454730  1
  Ca2+  Ca7  1  0.67483251  0.08372384  0.49916146  1
  Ca2+  Ca8  1  0.67802755  0.08742139  0.84001337  1
  Ca2+  Ca9  1  0.67735723  0.59150038  0.17108539  1
  Ca2+  Ca10  1  0.67783972  0.57622879  0.50627075  1
  Ca2+  Ca11  1  0.67302638  0.58119788  0.83671047  1
  Ca2+  Ca12  1  0.07797091  0.33327450  0.17458751  1
  Ca2+  Ca13  1  0.08257794  0.33167972  0.48974842  1
  Ca2+  Ca14  1  0.08312507  0.33327463  0.82877139  1
  Ca2+  Ca15  1  0.07692506  0.82106247  0.16472448  1
  Ca2+  Ca16  1  0.06885774  0.82623121  0.49266244  1
  Ca2+  Ca17  1  0.07681591  0.82435150  0.82710614  1
  Ca2+  Ca18  1  0.58827962  0.32160022  0.16586063  1
  Ca2+  Ca19  1  0.57384359  0.33496774  0.49415767  1
  Ca2+  Ca20  1  0.58383982  0.33035827  0.82504524  1
  Ca2+  Ca21  1  0.58175541  0.83279726  0.16138983  1
  Ca2+  Ca22  1  0.58538919  0.83488693  0.49521939  1
  Ca2+  Ca23  1  0.58378335  0.82708219  0.83584555  1
  Ca2+  Ca24  1  0.32711517  0.41484383  0.17532845  1
  Ca2+  Ca25  1  0.32495751  0.41203563  0.50782722  1
  Ca2+  Ca26  1  0.33192622  0.41720929  0.82805781  1
  Ca2+  Ca27  1  0.33466594  0.91428653  0.17013604  1
  Ca2+  Ca28  1  0.32883250  0.92667214  0.50602294  1
  Ca2+  Ca29  1  0.33780404  0.91950812  0.83688222  1
  Ca2+  Ca30  1  0.83753176  0.42752079  0.17383962  1
  Ca2+  Ca31  1  0.83636120  0.42608380  0.50456651  1
  Ca2+  Ca32  1  0.82828362  0.42624589  0.83567974  1
  Ca2+  Ca33  1  0.82878845  0.92518669  0.17843788  1
  Ca2+  Ca34  1  0.83598270  0.92222731  0.50102096  1
  Ca2+  Ca35  1  0.83957562  0.92598850  0.83540960  1
  Ca2+  Ca36  1  0.43046297  0.17014438  0.16629561  1
  Ca2+  Ca37  1  0.41837433  0.17763264  0.49274574  1
  Ca2+  Ca38  1  0.42493254  0.17009990  0.82495170  1
  Ca2+  Ca39  1  0.42585981  0.67401817  0.15584234  1
  Ca2+  Ca40  1  0.41646661  0.66209169  0.49901193  1
  Ca2+  Ca41  1  0.41928496  0.66640363  0.83001675  1
  Ca2+  Ca42  1  0.91043713  0.16926133  0.16710249  1
  Ca2+  Ca43  1  0.91785929  0.17203817  0.48903817  1
  Ca2+  Ca44  1  0.91500800  0.16326243  0.82728553  1
  Ca2+  Ca45  1  0.92153415  0.66316722  0.16453458  1
  Ca2+  Ca46  1  0.91258811  0.67228026  0.49153328  1
  Ca2+  Ca47  1  0.91511012  0.66608511  0.82767288  1
  Al0+  Al48  1  0.00260119  0.00086216  0.00432217  1
  Al0+  Al49  1  0.00058310  -0.00145980  0.32963909  1
  Al0+  Al50  1  0.00056420  -0.00269857  0.66645565  1
  Al0+  Al51  1  -0.00040101  0.49880863  -0.00088411  1
  Al0+  Al52  1  0.00219109  0.49897561  0.33586813  1
  Al0+  Al53  1  0.00098854  0.49853176  0.67422775  1
  Al0+  Al54  1  0.50067465  0.00307220  -0.00813942  1
  Al0+  Al55  1  0.49969034  0.00047348  0.33496224  1
  Al0+  Al56  1  0.50151633  -0.00122448  0.66979936  1
  Al0+  Al57  1  0.49800927  0.49894222  -0.00180299  1
  Al0+  Al58  1  0.49956501  0.50267936  0.32722620  1
  Al0+  Al59  1  0.49872857  0.49851033  0.66875970  1
  Al0+  Al60  1  0.24899918  0.24933951  0.00178454  1
  Al0+  Al61  1  0.24967542  0.25130941  0.32819710  1
  Al0+  Al62  1  0.25189918  0.24883947  0.67348077  1
  Al0+  Al63  1  0.24781635  0.74984553  -0.00774680  1
  Al0+  Al64  1  0.25002416  0.75088119  0.33226595  1
  Al0+  Al65  1  0.24983919  0.74896847  0.66660326  1
  Al0+  Al66  1  0.75065797  0.25168266  -0.00078917  1
  Al0+  Al67  1  0.74882858  0.25120340  0.32972245  1
  Al0+  Al68  1  0.75154376  0.24840006  0.67227512  1
  Al0+  Al69  1  0.74957900  0.75172113  -0.00060783  1
  Al0+  Al70  1  0.74894702  0.75198533  0.33787698  1
  Al0+  Al71  1  0.74921795  0.75125619  0.66560659  1
  Al0+  Al72  1  0.32180880  0.07025006  0.68005312  1
  Al0+  Al73  1  0.57205218  0.18226665  0.98358236  1
  Al0+  Al74  1  0.82116388  0.56966395  0.34681538  1
  Al0+  Al75  1  0.17883416  0.42726023  0.68362598  1
  Al0+  Al76  1  0.07067509  0.67872620  0.32051447  1
  Al0+  Al77  1  0.81966087  0.57135364  0.01486907  1
  Al0+  Al78  1  0.07144550  0.17744344  0.31943231  1
  Al0+  Al79  1  0.57321966  0.67749345  0.98413121  1
  Al0+  Al80  1  0.32094304  0.57213581  0.68222918  1
  Al0+  Al81  1  0.92846120  0.82003900  0.65225434  1
  Al0+  Al82  1  0.82154122  0.06868892  0.67966671  1
  Al0+  Al83  1  0.82254277  0.07299677  0.34834501  1
  Al0+  Al84  1  0.43037257  0.31936299  0.65315482  1
  Al0+  Al85  1  0.42802228  0.32390470  0.31733854  1
  Al0+  Al86  1  0.42851604  0.82121673  0.98367242  1
  Al0+  Al87  1  0.67720143  0.92968399  0.34892408  1
  Al0+  Al88  1  0.18186204  0.42972389  0.34612876  1
  Al0+  Al89  1  0.57060252  0.17861395  0.31997727  1
  Al0+  Al90  1  0.82072208  0.57299512  0.68176560  1
  Al0+  Al91  1  0.92571265  0.82070257  0.31661696  1
  Al0+  Al92  1  0.92756204  0.32193536  0.32025609  1
  Al0+  Al93  1  0.82254601  0.07182982  0.01554645  1
  Al0+  Al94  1  0.67844464  0.42812044  0.67995202  1
  Al0+  Al95  1  0.06826880  0.67707036  0.98391524  1
  Si0+  Si96  1  0.17902063  0.42847206  0.01770584  1
  Si0+  Si97  1  0.92898470  0.32046463  0.65441259  1
  Si0+  Si98  1  0.57508433  0.17643564  0.64921128  1
  Si0+  Si99  1  0.67674467  0.92699289  0.68633423  1
  Si0+  Si100  1  0.57110836  0.67999987  0.32040489  1
  Si0+  Si101  1  0.07211956  0.17744646  0.98345144  1
  Si0+  Si102  1  0.42439867  0.32089620  0.98145693  1
  Si0+  Si103  1  0.32397506  0.57473846  0.34736524  1
  Si0+  Si104  1  0.32167311  0.07052064  0.01627163  1
  Si0+  Si105  1  0.42854674  0.82180484  0.32129065  1
  Si0+  Si106  1  0.56964378  0.67903551  0.65043370  1
  Si0+  Si107  1  0.07208293  0.67562425  0.64909489  1
  Si0+  Si108  1  0.93081733  0.32002924  0.98352916  1
  Si0+  Si109  1  0.17884494  0.92640928  0.34769748  1
  Si0+  Si110  1  0.42802908  0.82232743  0.64950269  1
  Si0+  Si111  1  0.67737342  0.93051771  0.01519823  1
  Si0+  Si112  1  0.92919681  0.82397553  0.98400254  1
  Si0+  Si113  1  0.67605178  0.42855028  0.01770402  1
  Si0+  Si114  1  0.07106677  0.17911688  0.65531871  1
  Si0+  Si115  1  0.67507105  0.42847700  0.34745667  1
  Si0+  Si116  1  0.31927354  0.07010900  0.34629935  1
  Si0+  Si117  1  0.18058661  0.92796047  0.01565216  1
  Si0+  Si118  1  0.17854419  0.92801911  0.68315450  1
  Si0+  Si119  1  0.31974195  0.57237454  0.01514320  1
  O2-  O120  1  0.25374710  -0.00313800  0.05893216  1
  O2-  O121  1  0.24497978  0.00263505  0.38932009  1
  O2-  O122  1  0.25009538  -0.00681085  0.72869595  1
  O2-  O123  1  0.25038776  0.50029749  0.05829707  1
  O2-  O124  1  0.25814148  0.50371248  0.39095204  1
  O2-  O125  1  0.24780206  0.50227648  0.73383560  1
  O2-  O126  1  0.74758205  -0.00321087  0.05997821  1
  O2-  O127  1  0.75094712  0.00026570  0.39822789  1
  O2-  O128  1  0.74568913  -0.00380348  0.72877087  1
  O2-  O129  1  0.74022780  0.50137857  0.06193969  1
  O2-  O130  1  0.74758424  0.49271009  0.39192916  1
  O2-  O131  1  0.74909102  0.50060238  0.73156800  1
  O2-  O132  1  -0.00540129  0.24462642  0.26926688  1
  O2-  O133  1  0.00067322  0.24976725  0.61299475  1
  O2-  O134  1  -0.00083514  0.24577494  0.94112820  1
  O2-  O135  1  -0.00346139  0.74696382  0.26770201  1
  O2-  O136  1  -0.00073715  0.74057962  0.60673372  1
  O2-  O137  1  -0.00797831  0.75067552  0.93811450  1
  O2-  O138  1  0.50263607  0.25418401  0.26853567  1
  O2-  O139  1  0.50592017  0.24532082  0.60637250  1
  O2-  O140  1  0.49769643  0.25752472  0.93732551  1
  O2-  O141  1  0.49889357  0.75074095  0.27959317  1
  O2-  O142  1  0.49804931  0.75048703  0.60748149  1
  O2-  O143  1  0.49879529  0.74748801  0.93361265  1
  O2-  O144  1  0.07580404  0.17791048  0.08783488  1
  O2-  O145  1  0.07572072  0.18076948  0.43348076  1
  O2-  O146  1  0.06979671  0.17871035  0.76101383  1
  O2-  O147  1  0.07035206  0.67791005  0.09669958  1
  O2-  O148  1  0.07363949  0.68155366  0.43380057  1
  O2-  O149  1  0.07326763  0.67881983  0.75504449  1
  O2-  O150  1  0.56977162  0.18060345  0.09640724  1
  O2-  O151  1  0.56621301  0.17685897  0.43344250  1
  O2-  O152  1  0.57392655  0.17744013  0.75517219  1
  O2-  O153  1  0.57155617  0.68073878  0.09821720  1
  O2-  O154  1  0.56860479  0.67781706  0.42557120  1
  O2-  O155  1  0.56937634  0.68125522  0.75534832  1
  O2-  O156  1  0.18254160  0.43097822  0.23248212  1
  O2-  O157  1  0.17914362  0.42475269  0.57039332  1
  O2-  O158  1  0.17986656  0.42632130  0.91283132  1
  O2-  O159  1  0.18474938  0.92312358  0.24250299  1
  O2-  O160  1  0.17948912  0.93053746  0.57747874  1
  O2-  O161  1  0.17936191  0.93153771  0.91051309  1
  O2-  O162  1  0.67317999  0.43286905  0.24181299  1
  O2-  O163  1  0.67922395  0.42990407  0.56622536  1
  O2-  O164  1  0.67922885  0.42697221  0.91215264  1
  O2-  O165  1  0.67313805  0.93007862  0.23520992  1
  O2-  O166  1  0.67390405  0.92749146  0.58109817  1
  O2-  O167  1  0.67806252  0.93153188  0.90948893  1
  O2-  O168  1  0.42087317  0.31776825  0.08674694  1
  O2-  O169  1  0.42695954  0.32173343  0.43104742  1
  O2-  O170  1  0.43062644  0.31589438  0.76646014  1
  O2-  O171  1  0.42826097  0.82045777  0.09797791  1
  O2-  O172  1  0.42683718  0.82211080  0.42642060  1
  O2-  O173  1  0.42859355  0.82320484  0.75422971  1
  O2-  O174  1  0.93292259  0.32143579  0.08829472  1
  O2-  O175  1  0.93089121  0.32315608  0.43426210  1
  O2-  O176  1  0.92973583  0.31837587  0.75999105  1
  O2-  O177  1  0.93289441  0.82507291  0.08905250  1
  O2-  O178  1  0.92836403  0.81968333  0.43041688  1
  O2-  O179  1  0.93305054  0.82258898  0.76579149  1
  O2-  O180  1  0.32056610  0.06605932  0.24089164  1
  O2-  O181  1  0.31865886  0.07027587  0.56666061  1
  O2-  O182  1  0.31850331  0.07137385  0.91114655  1
  O2-  O183  1  0.32328755  0.57776281  0.24159404  1
  O2-  O184  1  0.31951825  0.57301032  0.56852294  1
  O2-  O185  1  0.31858243  0.57179400  0.91035602  1
  O2-  O186  1  0.81940215  0.07088965  0.23460474  1
  O2-  O187  1  0.82308983  0.07018540  0.56746081  1
  O2-  O188  1  0.82378321  0.06949096  0.90196677  1
  O2-  O189  1  0.81929243  0.57022259  0.23343115  1
  O2-  O190  1  0.82015683  0.57166708  0.56820934  1
  O2-  O191  1  0.82051643  0.56795355  0.90202375  1
  O2-  O192  1  0.05324218  0.07695201  0.26692795  1
  O2-  O193  1  0.04636615  0.08652121  0.60854989  1
  O2-  O194  1  0.04759073  0.08446086  0.93637214  1
  O2-  O195  1  0.04558985  0.57994698  0.26810918  1
  O2-  O196  1  0.05074001  0.57904802  0.60813484  1
  O2-  O197  1  0.03974636  0.57976048  0.93028347  1
  O2-  O198  1  0.53529801  0.08216272  0.26554374  1
  O2-  O199  1  0.54926225  0.08139147  0.60664161  1
  O2-  O200  1  0.54066696  0.08721742  0.92733240  1
  O2-  O201  1  0.54529246  0.59032100  0.26807509  1
  O2-  O202  1  0.54076689  0.58762648  0.60354863  1
  O2-  O203  1  0.54536933  0.57793422  0.93304450  1
  O2-  O204  1  0.16697853  0.21015314  0.26213063  1
  O2-  O205  1  0.16368348  0.20639745  0.61007891  1
  O2-  O206  1  0.16341181  0.20852011  0.93548599  1
  O2-  O207  1  0.16858858  0.71109728  0.26594499  1
  O2-  O208  1  0.16494347  0.70463638  0.60317772  1
  O2-  O209  1  0.16316901  0.71023650  0.92814727  1
  O2-  O210  1  0.66851477  0.20348095  0.26483183  1
  O2-  O211  1  0.66947569  0.20175290  0.60551983  1
  O2-  O212  1  0.66907766  0.21304041  0.92982976  1
  O2-  O213  1  0.66130065  0.71030483  0.27271625  1
  O2-  O214  1  0.66070241  0.70815763  0.60251756  1
  O2-  O215  1  0.67031687  0.70905212  0.92949712  1
  O2-  O216  1  0.08701779  0.45642456  0.06331125  1
  O2-  O217  1  0.08689696  0.45996013  0.40268920  1
  O2-  O218  1  0.08105527  0.45274489  0.73967646  1
  O2-  O219  1  0.09106933  0.95861004  0.06542849  1
  O2-  O220  1  0.08568342  0.94861821  0.39341959  1
  O2-  O221  1  0.08741552  0.95681828  0.73190073  1
  O2-  O222  1  0.57917450  0.44625773  0.06064827  1
  O2-  O223  1  0.58254927  0.45976462  0.39383716  1
  O2-  O224  1  0.58060256  0.45499992  0.73403168  1
  O2-  O225  1  0.58313308  0.95855171  0.05923091  1
  O2-  O226  1  0.57858976  0.95812264  0.40382280  1
  O2-  O227  1  0.58312276  0.95039492  0.73374021  1
  O2-  O228  1  0.20761811  0.33620184  0.06459974  1
  O2-  O229  1  0.21191667  0.33209918  0.39897921  1
  O2-  O230  1  0.21043038  0.33105539  0.73999342  1
  O2-  O231  1  0.20735189  0.83511068  0.06146226  1
  O2-  O232  1  0.21307768  0.83826092  0.39878928  1
  O2-  O233  1  0.20182590  0.83354809  0.72795584  1
  O2-  O234  1  0.70792996  0.33694752  0.06411035  1
  O2-  O235  1  0.69300968  0.33269782  0.39066044  1
  O2-  O236  1  0.70779400  0.33098302  0.73536490  1
  O2-  O237  1  0.69867949  0.83562549  0.06036817  1
  O2-  O238  1  0.70278147  0.83170466  0.40418681  1
  O2-  O239  1  0.70252693  0.83354709  0.73182528  1
  O2-  O240  1  0.45150012  0.42349812  0.26364361  1
  O2-  O241  1  0.45684710  0.41739791  0.59977521  1
  O2-  O242  1  0.44348045  0.41718537  0.93885519  1
  O2-  O243  1  0.45569590  0.91275284  0.27226106  1
  O2-  O244  1  0.45708302  0.91438500  0.60235895  1
  O2-  O245  1  0.45686112  0.91919831  0.92978092  1
  O2-  O246  1  0.96419708  0.41690156  0.26506397  1
  O2-  O247  1  0.95625960  0.41335880  0.60922634  1
  O2-  O248  1  0.96296118  0.40939695  0.93427768  1
  O2-  O249  1  0.95646593  0.91779858  0.26344118  1
  O2-  O250  1  0.96556499  0.91467539  0.59737247  1
  O2-  O251  1  0.96266553  0.91595147  0.93768167  1
  O2-  O252  1  0.33261971  0.29106151  0.26191582  1
  O2-  O253  1  0.33315236  0.28460721  0.60197531  1
  O2-  O254  1  0.33233637  0.28932126  0.93491294  1
  O2-  O255  1  0.33779040  0.79492430  0.27117662  1
  O2-  O256  1  0.33508610  0.79684238  0.60243972  1
  O2-  O257  1  0.33015289  0.79525668  0.92961581  1
  O2-  O258  1  0.82802070  0.30223753  0.26571918  1
  O2-  O259  1  0.83748017  0.29214099  0.60753937  1
  O2-  O260  1  0.83836369  0.29523955  0.93646972  1
  O2-  O261  1  0.82566723  0.79536552  0.26628920  1
  O2-  O262  1  0.82978444  0.79560104  0.59960288  1
  O2-  O263  1  0.83317793  0.80578609  0.94060273  1
  O2-  O264  1  0.41498352  0.04445572  0.06087009  1
  O2-  O265  1  0.40824920  0.03858614  0.39623952  1
  O2-  O266  1  0.41843589  0.04027474  0.73453330  1
  O2-  O267  1  0.41303651  0.54735637  0.06194567  1
  O2-  O268  1  0.41897654  0.55246265  0.39218118  1
  O2-  O269  1  0.41809593  0.54234407  0.73625309  1
  O2-  O270  1  0.92079373  0.04433592  0.06788795  1
  O2-  O271  1  0.92318450  0.04597112  0.39801415  1
  O2-  O272  1  0.91820188  0.03628425  0.73448284  1
  O2-  O273  1  0.91573982  0.53459792  0.06695687  1
  O2-  O274  1  0.91742861  0.54001490  0.40097641  1
  O2-  O275  1  0.91872246  0.54519665  0.73519962  1
  O2-  O276  1  0.28939747  0.16085256  0.06397638  1
  O2-  O277  1  0.29296753  0.16282037  0.39148767  1
  O2-  O278  1  0.28811950  0.16252303  0.73955006  1
  O2-  O279  1  0.29109149  0.66512628  0.06026406  1
  O2-  O280  1  0.29794182  0.66791539  0.39500613  1
  O2-  O281  1  0.29566232  0.67214136  0.73468203  1
  O2-  O282  1  0.79213553  0.17000194  0.06565883  1
  O2-  O283  1  0.79459677  0.17305948  0.39895313  1
  O2-  O284  1  0.79363625  0.16467990  0.73669950  1
  O2-  O285  1  0.79338810  0.67065286  0.06630590  1
  O2-  O286  1  0.78725479  0.66497392  0.40056055  1
  O2-  O287  1  0.79113099  0.67141214  0.73374768  1
