# generated using pymatgen
data_Ca2Al2SiO7
_symmetry_space_group_name_H-M   'P 1'
_cell_length_a   15.46541503
_cell_length_b   15.46584313
_cell_length_c   15.28898790
_cell_angle_alpha   89.99819984
_cell_angle_beta   90.01242025
_cell_angle_gamma   89.97030200
_symmetry_Int_Tables_number   1
_chemical_formula_structural   Ca2Al2SiO7
_chemical_formula_sum   'Ca48 Al48 Si24 O168'
_cell_volume   3656.90642937
_cell_formula_units_Z   24
loop_
 _symmetry_equiv_pos_site_id
 _symmetry_equiv_pos_as_xyz
  1  'x, y, z'
loop_
 _atom_type_symbol
 _atom_type_oxidation_number
  Ca2+  2.0
  Al0+  0.0
  Si0+  0.0
  O2-  -2.0
loop_
 _atom_site_type_symbol
 _atom_site_label
 _atom_site_symmetry_multiplicity
 _atom_site_fract_x
 _atom_site_fract_y
 _atom_site_fract_z
 _atom_site_occupancy
  Ca2+  Ca0  1  0.16412410  0.08764036  0.16707310  1
  Ca2+  Ca1  1  0.17172091  0.08870738  0.50632891  1
  Ca2+  Ca2  1  0.17475784  0.08402628  0.84640630  1
  Ca2+  Ca3  1  0.16084340  0.57879245  0.17413717  1
  Ca2+  Ca4  1  0.15704853  0.57966105  0.50078805  1
  Ca2+  Ca5  1  0.16322257  0.58648704  0.83773822  1
  Ca2+  Ca6  1  0.66689684  0.07966779  0.17119352  1
  Ca2+  Ca7  1  0.66448912  0.07930001  0.50522372  1
  Ca2+  Ca8  1  0.66410330  0.08764919  0.83758000  1
  Ca2+  Ca9  1  0.67289955  0.57994273  0.17874244  1
  Ca2+  Ca10  1  0.67168208  0.57389511  0.49963872  1
  Ca2+  Ca11  1  0.66690145  0.57560613  0.83820933  1
  Ca2+  Ca12  1  0.07560373  0.33007093  0.16495806  1
  Ca2+  Ca13  1  0.07340017  0.33279925  0.48947237  1
  Ca2+  Ca14  1  0.07233497  0.33097113  0.83236526  1
  Ca2+  Ca15  1  0.08001027  0.82344758  0.15561547  1
  Ca2+  Ca16  1  0.07975376  0.82268249  0.49618551  1
  Ca2+  Ca17  1  0.07959687  0.83218616  0.83002038  1
  Ca2+  Ca18  1  0.57818612  0.33337404  0.15740874  1
  Ca2+  Ca19  1  0.58341053  0.33665379  0.50085566  1
  Ca2+  Ca20  1  0.57348534  0.32284100  0.82596791  1
  Ca2+  Ca21  1  0.59183461  0.82215944  0.16489898  1
  Ca2+  Ca22  1  0.58307317  0.82959182  0.48988313  1
  Ca2+  Ca23  1  0.58534885  0.82557939  0.83282228  1
  Ca2+  Ca24  1  0.32698306  0.41382344  0.17020467  1
  Ca2+  Ca25  1  0.32651673  0.41425984  0.50298042  1
  Ca2+  Ca26  1  0.33632771  0.41281246  0.83742366  1
  Ca2+  Ca27  1  0.32748330  0.92266529  0.16507819  1
  Ca2+  Ca28  1  0.33076421  0.92505596  0.50871706  1
  Ca2+  Ca29  1  0.32641804  0.92950143  0.84283184  1
  Ca2+  Ca30  1  0.83261075  0.42064455  0.17799491  1
  Ca2+  Ca31  1  0.83001107  0.41586991  0.50323761  1
  Ca2+  Ca32  1  0.82976691  0.40763447  0.83554499  1
  Ca2+  Ca33  1  0.83157193  0.91554201  0.17064116  1
  Ca2+  Ca34  1  0.82923266  0.91403594  0.50262850  1
  Ca2+  Ca35  1  0.83726543  0.91293364  0.83864763  1
  Ca2+  Ca36  1  0.42244254  0.17276713  0.15576137  1
  Ca2+  Ca37  1  0.41805608  0.16859871  0.50260835  1
  Ca2+  Ca38  1  0.41789786  0.16944865  0.82890131  1
  Ca2+  Ca39  1  0.43170242  0.66264993  0.16273752  1
  Ca2+  Ca40  1  0.42488612  0.66658946  0.49387576  1
  Ca2+  Ca41  1  0.42320339  0.66498071  0.83288131  1
  Ca2+  Ca42  1  0.92372517  0.17840962  0.16147043  1
  Ca2+  Ca43  1  0.91863845  0.17985290  0.49396802  1
  Ca2+  Ca44  1  0.91976909  0.17450030  0.83188918  1
  Ca2+  Ca45  1  0.92392929  0.66604646  0.16215725  1
  Ca2+  Ca46  1  0.92130823  0.66571376  0.49697584  1
  Ca2+  Ca47  1  0.92846404  0.67821920  0.83052079  1
  Al0+  Al48  1  -0.00108727  0.00040407  -0.00032142  1
  Al0+  Al49  1  0.00123541  0.00035878  0.33330563  1
  Al0+  Al50  1  -0.00174392  -0.00194221  0.66294011  1
  Al0+  Al51  1  -0.00131016  0.50182144  -0.00727411  1
  Al0+  Al52  1  -0.00024943  0.50129981  0.33478819  1
  Al0+  Al53  1  -0.00077906  0.50062121  0.66313398  1
  Al0+  Al54  1  0.50034089  -0.00210131  0.00367609  1
  Al0+  Al55  1  0.49826746  0.00116831  0.33681058  1
  Al0+  Al56  1  0.49961569  -0.00090547  0.66934497  1
  Al0+  Al57  1  0.50034954  0.49950571  -0.00669895  1
  Al0+  Al58  1  0.49977476  0.50122537  0.33294238  1
  Al0+  Al59  1  0.49968968  0.49811099  0.66730212  1
  Al0+  Al60  1  0.24968804  0.25259614  -0.00034143  1
  Al0+  Al61  1  0.25119500  0.25092312  0.33520787  1
  Al0+  Al62  1  0.25172415  0.25184803  0.66935940  1
  Al0+  Al63  1  0.25346196  0.74962728  0.00314850  1
  Al0+  Al64  1  0.25079257  0.75283150  0.33011950  1
  Al0+  Al65  1  0.25141914  0.74890198  0.66385141  1
  Al0+  Al66  1  0.74732475  0.24881443  -0.00310233  1
  Al0+  Al67  1  0.74856067  0.24879272  0.33383997  1
  Al0+  Al68  1  0.74885233  0.24750837  0.66365170  1
  Al0+  Al69  1  0.75183887  0.74722148  -0.00770285  1
  Al0+  Al70  1  0.74905708  0.75006066  0.33900345  1
  Al0+  Al71  1  0.75130523  0.74837826  0.66514097  1
  Al0+  Al72  1  0.92732236  0.32245029  0.98553790  1
  Al0+  Al73  1  0.67982981  0.42819589  0.68294117  1
  Al0+  Al74  1  0.57034024  0.17571955  0.98703413  1
  Al0+  Al75  1  0.92844468  0.31932857  0.65203972  1
  Al0+  Al76  1  0.18065509  0.43037065  0.34605635  1
  Al0+  Al77  1  0.17693234  0.92887547  0.01620270  1
  Al0+  Al78  1  0.92670871  0.32156110  0.31889593  1
  Al0+  Al79  1  0.07118339  0.68025431  0.31855638  1
  Al0+  Al80  1  0.82215234  0.57102420  0.34862822  1
  Al0+  Al81  1  0.57023395  0.68034825  0.32104301  1
  Al0+  Al82  1  0.07369882  0.17883025  0.31949059  1
  Al0+  Al83  1  0.42837028  0.32102634  0.98600485  1
  Al0+  Al84  1  0.67946882  0.93088241  0.34603473  1
  Al0+  Al85  1  0.31991316  0.07143828  0.68186211  1
  Al0+  Al86  1  0.67653506  0.42642082  0.34741199  1
  Al0+  Al87  1  0.07308673  0.68024953  0.64983980  1
  Al0+  Al88  1  0.42797269  0.32203604  0.64816603  1
  Al0+  Al89  1  0.56960806  0.17695367  0.64945443  1
  Al0+  Al90  1  0.32103956  0.07363221  0.01785140  1
  Al0+  Al91  1  0.92969591  0.82157538  0.98726382  1
  Al0+  Al92  1  0.92754692  0.82255891  0.64829129  1
  Al0+  Al93  1  0.07081373  0.17925317  0.98565477  1
  Al0+  Al94  1  0.07461721  0.67884771  0.98605185  1
  Al0+  Al95  1  0.57224531  0.67890980  0.98547943  1
  Si0+  Si96  1  0.17833352  0.92757791  0.34982558  1
  Si0+  Si97  1  0.43007288  0.32115460  0.31905109  1
  Si0+  Si98  1  0.17856651  0.92718116  0.68159926  1
  Si0+  Si99  1  0.82047770  0.06935669  0.68177576  1
  Si0+  Si100  1  0.81996467  0.57009497  0.01331783  1
  Si0+  Si101  1  0.42816268  0.82562168  0.31554040  1
  Si0+  Si102  1  0.57121545  0.67760580  0.65097464  1
  Si0+  Si103  1  0.42907357  0.82137934  0.98345713  1
  Si0+  Si104  1  0.67884313  0.92676572  0.68314553  1
  Si0+  Si105  1  0.92740579  0.82244940  0.31746807  1
  Si0+  Si106  1  0.82277459  0.57198345  0.68712415  1
  Si0+  Si107  1  0.56960331  0.17675721  0.31924996  1
  Si0+  Si108  1  0.17706119  0.43234759  0.01392624  1
  Si0+  Si109  1  0.32160685  0.57174380  0.68178835  1
  Si0+  Si110  1  0.43112175  0.81981979  0.65287693  1
  Si0+  Si111  1  0.17773066  0.43062516  0.68265052  1
  Si0+  Si112  1  0.68063035  0.92540734  0.01380150  1
  Si0+  Si113  1  0.67891180  0.42915999  0.01352867  1
  Si0+  Si114  1  0.32433879  0.57099499  0.01524802  1
  Si0+  Si115  1  0.81992869  0.07246408  0.01497719  1
  Si0+  Si116  1  0.82336967  0.07190014  0.35058683  1
  Si0+  Si117  1  0.31979709  0.07094200  0.35010014  1
  Si0+  Si118  1  0.32233140  0.57426037  0.34889508  1
  Si0+  Si119  1  0.07283280  0.17848613  0.65263749  1
  O2-  O120  1  0.24581244  0.00418097  0.06769239  1
  O2-  O121  1  0.24688059  0.00135524  0.39203646  1
  O2-  O122  1  0.24094421  0.00062508  0.72677138  1
  O2-  O123  1  0.24918321  0.50366365  0.05592860  1
  O2-  O124  1  0.25150918  0.50884724  0.39422061  1
  O2-  O125  1  0.24931769  0.50213738  0.72402701  1
  O2-  O126  1  0.74956088  -0.00116404  0.05535938  1
  O2-  O127  1  0.75422664  0.00362331  0.39552300  1
  O2-  O128  1  0.75079881  -0.00337085  0.72492720  1
  O2-  O129  1  0.75192169  0.49688121  0.05664320  1
  O2-  O130  1  0.75232710  0.49513501  0.39669589  1
  O2-  O131  1  0.75542896  0.50170766  0.73158479  1
  O2-  O132  1  -0.00066695  0.24905837  0.27107165  1
  O2-  O133  1  0.00528375  0.24649499  0.60653932  1
  O2-  O134  1  -0.00151116  0.24997081  0.93500629  1
  O2-  O135  1  -0.00349838  0.75501786  0.27279972  1
  O2-  O136  1  -0.00013127  0.75080012  0.59986799  1
  O2-  O137  1  0.00855162  0.75686165  0.93795550  1
  O2-  O138  1  0.50536011  0.25414262  0.27807446  1
  O2-  O139  1  0.50002558  0.25041143  0.59782168  1
  O2-  O140  1  0.49544502  0.24417241  0.93740397  1
  O2-  O141  1  0.49612082  0.75534450  0.27285244  1
  O2-  O142  1  0.50241646  0.75055793  0.60870114  1
  O2-  O143  1  0.49763812  0.75318104  0.93792709  1
  O2-  O144  1  0.06841067  0.18254344  0.09905125  1
  O2-  O145  1  0.07465109  0.18076981  0.43355748  1
  O2-  O146  1  0.07104486  0.17924581  0.75798812  1
  O2-  O147  1  0.06974244  0.67600104  0.09951456  1
  O2-  O148  1  0.07295743  0.68334786  0.43124902  1
  O2-  O149  1  0.07578172  0.68386532  0.76320819  1
  O2-  O150  1  0.57213239  0.17911012  0.10128721  1
  O2-  O151  1  0.56543781  0.17181394  0.42375782  1
  O2-  O152  1  0.56757408  0.17560720  0.76266916  1
  O2-  O153  1  0.57278590  0.67940831  0.09848704  1
  O2-  O154  1  0.56665493  0.68194757  0.43437977  1
  O2-  O155  1  0.56960970  0.67904682  0.75635378  1
  O2-  O156  1  0.18359503  0.42990866  0.23273324  1
  O2-  O157  1  0.17879944  0.43080599  0.57750867  1
  O2-  O158  1  0.17678718  0.43396721  0.90859421  1
  O2-  O159  1  0.18016996  0.92540083  0.24535344  1
  O2-  O160  1  0.18311608  0.92652201  0.57562782  1
  O2-  O161  1  0.18116157  0.92802214  0.90225158  1
  O2-  O162  1  0.67342329  0.42963839  0.23331757  1
  O2-  O163  1  0.67948567  0.43245876  0.57009693  1
  O2-  O164  1  0.67906641  0.43112675  0.90848454  1
  O2-  O165  1  0.67985207  0.93190631  0.23264635  1
  O2-  O166  1  0.67716998  0.92707804  0.57806622  1
  O2-  O167  1  0.68144649  0.92381453  0.90852424  1
  O2-  O168  1  0.43213234  0.32461526  0.10028520  1
  O2-  O169  1  0.42748221  0.31954977  0.42376767  1
  O2-  O170  1  0.42836038  0.32205897  0.76119330  1
  O2-  O171  1  0.43050400  0.82025419  0.08900391  1
  O2-  O172  1  0.42908909  0.82639021  0.42171573  1
  O2-  O173  1  0.43228265  0.81747686  0.75781652  1
  O2-  O174  1  0.92727330  0.32368558  0.09874568  1
  O2-  O175  1  0.92793895  0.31894585  0.43262397  1
  O2-  O176  1  0.92961576  0.31673790  0.76503279  1
  O2-  O177  1  0.92392269  0.81655249  0.10069419  1
  O2-  O178  1  0.92932646  0.82298667  0.42290631  1
  O2-  O179  1  0.92774161  0.82249403  0.76162262  1
  O2-  O180  1  0.32277063  0.07029910  0.24560100  1
  O2-  O181  1  0.31956046  0.06799996  0.56797308  1
  O2-  O182  1  0.32162663  0.06980902  0.90427045  1
  O2-  O183  1  0.32502103  0.57142715  0.24331448  1
  O2-  O184  1  0.32355994  0.57323986  0.57686883  1
  O2-  O185  1  0.32675816  0.57009849  0.90993525  1
  O2-  O186  1  0.82183964  0.07112402  0.24486757  1
  O2-  O187  1  0.81920928  0.06826245  0.57673674  1
  O2-  O188  1  0.81848198  0.07370264  0.90975492  1
  O2-  O189  1  0.81955468  0.57264530  0.23426183  1
  O2-  O190  1  0.82056256  0.57332809  0.58169561  1
  O2-  O191  1  0.81695539  0.57114076  0.90840883  1
  O2-  O192  1  0.04829057  0.07880099  0.26853735  1
  O2-  O193  1  0.04955943  0.08399688  0.60735760  1
  O2-  O194  1  0.04466184  0.08052235  0.93366690  1
  O2-  O195  1  0.04167577  0.58323414  0.26622560  1
  O2-  O196  1  0.04406473  0.58159116  0.59884122  1
  O2-  O197  1  0.04037869  0.58490679  0.92873483  1
  O2-  O198  1  0.53532479  0.08768488  0.27013400  1
  O2-  O199  1  0.53937207  0.07750764  0.59807053  1
  O2-  O200  1  0.54905965  0.07450532  0.93719777  1
  O2-  O201  1  0.53779541  0.58478674  0.26544882  1
  O2-  O202  1  0.53926725  0.58761567  0.60432949  1
  O2-  O203  1  0.53830232  0.58515550  0.92888762  1
  O2-  O204  1  0.17177967  0.20921130  0.26715556  1
  O2-  O205  1  0.16678710  0.20413239  0.60823754  1
  O2-  O206  1  0.16878736  0.20851724  0.93392038  1
  O2-  O207  1  0.16933965  0.70911908  0.26589224  1
  O2-  O208  1  0.17209681  0.70726975  0.59609140  1
  O2-  O209  1  0.17692792  0.69847764  0.93817886  1
  O2-  O210  1  0.66413568  0.19565446  0.27444179  1
  O2-  O211  1  0.66856241  0.20194015  0.59723346  1
  O2-  O212  1  0.66646494  0.20576204  0.93167637  1
  O2-  O213  1  0.66672828  0.71274305  0.26812361  1
  O2-  O214  1  0.66340532  0.70388275  0.60540827  1
  O2-  O215  1  0.66564581  0.71081783  0.92731904  1
  O2-  O216  1  0.08520457  0.46201525  0.06045207  1
  O2-  O217  1  0.08421394  0.45893014  0.40057964  1
  O2-  O218  1  0.08589599  0.45877757  0.72994755  1
  O2-  O219  1  0.07651143  0.95204176  0.06791635  1
  O2-  O220  1  0.08544141  0.95157508  0.39702180  1
  O2-  O221  1  0.08171866  0.94620763  0.72294938  1
  O2-  O222  1  0.58734738  0.46078917  0.05931316  1
  O2-  O223  1  0.57947908  0.46014700  0.40121670  1
  O2-  O224  1  0.58276187  0.46135154  0.73573211  1
  O2-  O225  1  0.58833836  0.94816307  0.06235572  1
  O2-  O226  1  0.58257658  0.96168817  0.40121536  1
  O2-  O227  1  0.58734727  0.95380533  0.73151099  1
  O2-  O228  1  0.20474619  0.34120184  0.06211134  1
  O2-  O229  1  0.21570798  0.33583977  0.40236395  1
  O2-  O230  1  0.20595985  0.33939844  0.73073252  1
  O2-  O231  1  0.21099908  0.83105172  0.06966331  1
  O2-  O232  1  0.21061263  0.83746649  0.39890366  1
  O2-  O233  1  0.21087546  0.83540581  0.72751663  1
  O2-  O234  1  0.70167156  0.33552639  0.05949902  1
  O2-  O235  1  0.69857848  0.32592077  0.39925625  1
  O2-  O236  1  0.70936569  0.32951008  0.73363785  1
  O2-  O237  1  0.71230764  0.83389334  0.06031358  1
  O2-  O238  1  0.70708155  0.83520472  0.40307666  1
  O2-  O239  1  0.70565960  0.83384930  0.72980723  1
  O2-  O240  1  0.45285888  0.41430783  0.27220655  1
  O2-  O241  1  0.45555810  0.42146385  0.59654981  1
  O2-  O242  1  0.46010433  0.41660185  0.92975077  1
  O2-  O243  1  0.45551872  0.91849854  0.26965778  1
  O2-  O244  1  0.45858530  0.91104074  0.60480635  1
  O2-  O245  1  0.45587508  0.91419131  0.93742752  1
  O2-  O246  1  0.95572868  0.42001183  0.26829143  1
  O2-  O247  1  0.95680004  0.41690402  0.60039999  1
  O2-  O248  1  0.95601269  0.41886835  0.92946357  1
  O2-  O249  1  0.95102590  0.91696161  0.27263077  1
  O2-  O250  1  0.95294273  0.92127800  0.59399654  1
  O2-  O251  1  0.94889270  0.92186265  0.93522463  1
  O2-  O252  1  0.34042336  0.28874033  0.27085545  1
  O2-  O253  1  0.32863956  0.29318925  0.59670373  1
  O2-  O254  1  0.32853580  0.30036929  0.93436296  1
  O2-  O255  1  0.33489198  0.80173342  0.26922037  1
  O2-  O256  1  0.34053946  0.79177439  0.60333922  1
  O2-  O257  1  0.33671577  0.79476190  0.93644682  1
  O2-  O258  1  0.82755575  0.29330786  0.26655084  1
  O2-  O259  1  0.83366415  0.28556283  0.59787533  1
  O2-  O260  1  0.82955938  0.29187187  0.93336365  1
  O2-  O261  1  0.83267209  0.79763048  0.27444700  1
  O2-  O262  1  0.82829568  0.79322640  0.59689680  1
  O2-  O263  1  0.83571395  0.78678835  0.92893950  1
  O2-  O264  1  0.41912360  0.04029521  0.07107160  1
  O2-  O265  1  0.40977112  0.03999741  0.39991523  1
  O2-  O266  1  0.41496292  0.03494111  0.73529867  1
  O2-  O267  1  0.41509237  0.53824403  0.06311401  1
  O2-  O268  1  0.41407440  0.54541173  0.39717853  1
  O2-  O269  1  0.41264385  0.54332599  0.73086772  1
  O2-  O270  1  0.91130459  0.04666941  0.06346513  1
  O2-  O271  1  0.91691928  0.04675123  0.39739364  1
  O2-  O272  1  0.91340896  0.04300556  0.72866789  1
  O2-  O273  1  0.91325901  0.54464316  0.05896254  1
  O2-  O274  1  0.92033941  0.54619488  0.40288182  1
  O2-  O275  1  0.91784429  0.54810074  0.73063425  1
  O2-  O276  1  0.29639511  0.17424844  0.06872316  1
  O2-  O277  1  0.29350630  0.16264643  0.39839466  1
  O2-  O278  1  0.29402734  0.16959232  0.73465862  1
  O2-  O279  1  0.30505714  0.66404463  0.06353139  1
  O2-  O280  1  0.30188861  0.67036616  0.39265201  1
  O2-  O281  1  0.29565072  0.66424347  0.73002337  1
  O2-  O282  1  0.78824696  0.16245825  0.06450934  1
  O2-  O283  1  0.79627913  0.16464355  0.39723077  1
  O2-  O284  1  0.79098383  0.15991384  0.73012523  1
  O2-  O285  1  0.78876353  0.66110030  0.06039360  1
  O2-  O286  1  0.78988539  0.66719497  0.40418442  1
  O2-  O287  1  0.79367937  0.66542589  0.73262040  1
