# generated using pymatgen
data_Ca2Al2SiO7
_symmetry_space_group_name_H-M   'P 1'
_cell_length_a   15.46611184
_cell_length_b   15.46447819
_cell_length_c   15.28938295
_cell_angle_alpha   90.00226262
_cell_angle_beta   90.00085482
_cell_angle_gamma   89.98594807
_symmetry_Int_Tables_number   1
_chemical_formula_structural   Ca2Al2SiO7
_chemical_formula_sum   'Ca48 Al48 Si24 O168'
_cell_volume   3656.84339315
_cell_formula_units_Z   24
loop_
 _symmetry_equiv_pos_site_id
 _symmetry_equiv_pos_as_xyz
  1  'x, y, z'
loop_
 _atom_type_symbol
 _atom_type_oxidation_number
  Ca2+  2.0
  Al0+  0.0
  Si0+  0.0
  O2-  -2.0
loop_
 _atom_site_type_symbol
 _atom_site_label
 _atom_site_symmetry_multiplicity
 _atom_site_fract_x
 _atom_site_fract_y
 _atom_site_fract_z
 _atom_site_occupancy
  Ca2+  Ca0  1  0.16794002  0.08470005  0.16510967  1
  Ca2+  Ca1  1  0.16954497  0.08600371  0.50534750  1
  Ca2+  Ca2  1  0.17452973  0.08685184  0.84098827  1
  Ca2+  Ca3  1  0.16810463  0.56999734  0.17625798  1
  Ca2+  Ca4  1  0.17567138  0.57947056  0.49942115  1
  Ca2+  Ca5  1  0.17489016  0.57434537  0.83830818  1
  Ca2+  Ca6  1  0.66651082  0.08964338  0.16756973  1
  Ca2+  Ca7  1  0.66257995  0.08638020  0.50211592  1
  Ca2+  Ca8  1  0.67394940  0.08165482  0.84873905  1
  Ca2+  Ca9  1  0.66702759  0.57645234  0.16588646  1
  Ca2+  Ca10  1  0.66583437  0.58455251  0.50666201  1
  Ca2+  Ca11  1  0.66414787  0.57836619  0.83908127  1
  Ca2+  Ca12  1  0.09287779  0.32544969  0.16064011  1
  Ca2+  Ca13  1  0.08764772  0.32381888  0.49563250  1
  Ca2+  Ca14  1  0.08614975  0.32192055  0.83039596  1
  Ca2+  Ca15  1  0.08452765  0.82745374  0.15742829  1
  Ca2+  Ca16  1  0.08739672  0.82369836  0.49185079  1
  Ca2+  Ca17  1  0.07864659  0.84510725  0.83638464  1
  Ca2+  Ca18  1  0.57257150  0.32882755  0.15874109  1
  Ca2+  Ca19  1  0.56821214  0.32926775  0.49432823  1
  Ca2+  Ca20  1  0.57521202  0.33045075  0.83377292  1
  Ca2+  Ca21  1  0.57950504  0.83435317  0.16373368  1
  Ca2+  Ca22  1  0.56935370  0.82779519  0.49913006  1
  Ca2+  Ca23  1  0.58050270  0.83045952  0.82756184  1
  Ca2+  Ca24  1  0.32672796  0.41428031  0.17245485  1
  Ca2+  Ca25  1  0.33477446  0.42004497  0.50265348  1
  Ca2+  Ca26  1  0.33736559  0.41907406  0.83914729  1
  Ca2+  Ca27  1  0.33501204  0.92374971  0.16720979  1
  Ca2+  Ca28  1  0.33842747  0.92242375  0.50747225  1
  Ca2+  Ca29  1  0.33333662  0.93024076  0.83927124  1
  Ca2+  Ca30  1  0.82250532  0.40589252  0.16745392  1
  Ca2+  Ca31  1  0.83201002  0.41298698  0.50567401  1
  Ca2+  Ca32  1  0.82631990  0.41148540  0.83958609  1
  Ca2+  Ca33  1  0.83153253  0.91943566  0.16120713  1
  Ca2+  Ca34  1  0.82937128  0.91841362  0.50428158  1
  Ca2+  Ca35  1  0.82713459  0.92195056  0.84817497  1
  Ca2+  Ca36  1  0.42022676  0.17752291  0.15803534  1
  Ca2+  Ca37  1  0.41280936  0.17794936  0.49477707  1
  Ca2+  Ca38  1  0.40787302  0.17610323  0.83268870  1
  Ca2+  Ca39  1  0.40623187  0.67252214  0.16723055  1
  Ca2+  Ca40  1  0.40471007  0.67489785  0.49761012  1
  Ca2+  Ca41  1  0.42165830  0.67303754  0.82128922  1
  Ca2+  Ca42  1  0.92884139  0.16097117  0.15987453  1
  Ca2+  Ca43  1  0.92866565  0.17111838  0.49892506  1
  Ca2+  Ca44  1  0.92764168  0.16488013  0.83085340  1
  Ca2+  Ca45  1  0.92355525  0.67144368  0.16181453  1
  Ca2+  Ca46  1  0.92643459  0.66691960  0.49309324  1
  Ca2+  Ca47  1  0.91621174  0.67407275  0.83333879  1
  Al0+  Al48  1  -0.00050590  -0.00156142  -0.00101560  1
  Al0+  Al49  1  -0.00250878  0.00101928  0.33308519  1
  Al0+  Al50  1  -0.00181259  0.00020451  0.66145834  1
  Al0+  Al51  1  0.00199397  0.50148314  0.00209233  1
  Al0+  Al52  1  -0.00156269  0.49941015  0.33353564  1
  Al0+  Al53  1  -0.00250127  0.50135954  0.66601781  1
  Al0+  Al54  1  0.50144986  -0.00014862  0.00453838  1
  Al0+  Al55  1  0.50123980  -0.00295229  0.32885064  1
  Al0+  Al56  1  0.49986680  -0.00148672  0.66954201  1
  Al0+  Al57  1  0.50200468  0.50174174  0.00214583  1
  Al0+  Al58  1  0.50079388  0.50211267  0.33463130  1
  Al0+  Al59  1  0.50191328  0.49886170  0.66376983  1
  Al0+  Al60  1  0.25067511  0.25202074  -0.00134141  1
  Al0+  Al61  1  0.24927995  0.24862458  0.33001029  1
  Al0+  Al62  1  0.24963995  0.24896373  0.66211311  1
  Al0+  Al63  1  0.25079889  0.75024769  -0.00162432  1
  Al0+  Al64  1  0.24777251  0.74923657  0.32601996  1
  Al0+  Al65  1  0.24799900  0.74930332  0.66938212  1
  Al0+  Al66  1  0.75008681  0.25057715  0.00693862  1
  Al0+  Al67  1  0.75147092  0.24851676  0.33617396  1
  Al0+  Al68  1  0.75156452  0.24973344  0.66485104  1
  Al0+  Al69  1  0.75179741  0.75082702  0.00074430  1
  Al0+  Al70  1  0.74803124  0.75122150  0.33576820  1
  Al0+  Al71  1  0.75008472  0.74921400  0.66334535  1
  Al0+  Al72  1  0.17984547  0.43020801  0.01162401  1
  Al0+  Al73  1  0.67941509  0.42959750  0.01388014  1
  Al0+  Al74  1  0.17930711  0.92896745  0.01455597  1
  Al0+  Al75  1  0.32098435  0.57225473  0.34816540  1
  Al0+  Al76  1  0.82155744  0.07203269  0.01598789  1
  Al0+  Al77  1  0.06956413  0.67824577  0.31871735  1
  Al0+  Al78  1  0.17829492  0.42574264  0.35027692  1
  Al0+  Al79  1  0.07011550  0.17877553  0.31750247  1
  Al0+  Al80  1  0.67829800  0.92739695  0.01624222  1
  Al0+  Al81  1  0.93093652  0.81879858  0.98632748  1
  Al0+  Al82  1  0.42957607  0.32228790  0.98386413  1
  Al0+  Al83  1  0.32161062  0.57044749  0.68090817  1
  Al0+  Al84  1  0.92738457  0.32224416  0.65304582  1
  Al0+  Al85  1  0.42868552  0.32303346  0.31752767  1
  Al0+  Al86  1  0.07103445  0.17874220  0.65066801  1
  Al0+  Al87  1  0.32057458  0.07145829  0.67864681  1
  Al0+  Al88  1  0.32140221  0.07278046  0.01646982  1
  Al0+  Al89  1  0.42927599  0.32062406  0.65290632  1
  Al0+  Al90  1  0.57247758  0.17800983  0.98501707  1
  Al0+  Al91  1  0.57177459  0.17855811  0.31959843  1
  Al0+  Al92  1  0.42813539  0.81912329  0.31783301  1
  Al0+  Al93  1  0.07034719  0.17962155  0.98621763  1
  Al0+  Al94  1  0.42699958  0.82132360  0.65364441  1
  Al0+  Al95  1  0.57141146  0.67841317  0.65226139  1
  Si0+  Si96  1  0.17510440  0.92698344  0.68111087  1
  Si0+  Si97  1  0.42803678  0.82171385  0.98415199  1
  Si0+  Si98  1  0.92853152  0.82054909  0.65085416  1
  Si0+  Si99  1  0.57365361  0.17720368  0.65316295  1
  Si0+  Si100  1  0.81922070  0.57265696  0.34927701  1
  Si0+  Si101  1  0.82157689  0.57305987  0.68244538  1
  Si0+  Si102  1  0.32190460  0.06796301  0.34744000  1
  Si0+  Si103  1  0.68003453  0.42835612  0.35070881  1
  Si0+  Si104  1  0.07027235  0.67807174  0.65209974  1
  Si0+  Si105  1  0.92773703  0.32214830  0.31631379  1
  Si0+  Si106  1  0.07407919  0.67639166  0.98029579  1
  Si0+  Si107  1  0.82060140  0.07018151  0.68127123  1
  Si0+  Si108  1  0.32391521  0.57271380  0.01533458  1
  Si0+  Si109  1  0.17686138  0.92950005  0.34665650  1
  Si0+  Si110  1  0.17680010  0.42842872  0.68247934  1
  Si0+  Si111  1  0.57168252  0.68063580  0.98649665  1
  Si0+  Si112  1  0.68053360  0.42846148  0.68109362  1
  Si0+  Si113  1  0.67818454  0.92792668  0.35246883  1
  Si0+  Si114  1  0.68067840  0.92799202  0.68100407  1
  Si0+  Si115  1  0.57487330  0.67869874  0.31505625  1
  Si0+  Si116  1  0.92605083  0.82181844  0.31721215  1
  Si0+  Si117  1  0.92778901  0.32464337  0.98611258  1
  Si0+  Si118  1  0.82274601  0.57272749  0.01670650  1
  Si0+  Si119  1  0.82145839  0.07040128  0.35267326  1
  O2-  O120  1  0.24994780  0.00000114  0.06722568  1
  O2-  O121  1  0.24870357  -0.00143543  0.39029602  1
  O2-  O122  1  0.24476942  -0.00431229  0.72261026  1
  O2-  O123  1  0.25472092  0.50457739  0.05808592  1
  O2-  O124  1  0.25299064  0.49634199  0.39888606  1
  O2-  O125  1  0.24892156  0.49359314  0.72723453  1
  O2-  O126  1  0.74549423  0.00398681  0.06660406  1
  O2-  O127  1  0.74760067  0.00125200  0.39443893  1
  O2-  O128  1  0.74847046  0.00114567  0.72369384  1
  O2-  O129  1  0.75845566  0.50033846  0.06126587  1
  O2-  O130  1  0.74969962  0.50119352  0.39321711  1
  O2-  O131  1  0.75171116  0.50054341  0.72323682  1
  O2-  O132  1  -0.00063288  0.25775082  0.27185778  1
  O2-  O133  1  0.00199483  0.25451445  0.60169189  1
  O2-  O134  1  -0.00487044  0.25545894  0.94131838  1
  O2-  O135  1  -0.00447107  0.75438910  0.27355153  1
  O2-  O136  1  0.00183365  0.75221671  0.60932271  1
  O2-  O137  1  0.00717197  0.74716534  0.93612806  1
  O2-  O138  1  0.50120784  0.25075344  0.26928623  1
  O2-  O139  1  0.50186930  0.24219555  0.60888238  1
  O2-  O140  1  0.49894498  0.24723811  0.93355265  1
  O2-  O141  1  0.50104275  0.74170621  0.27162146  1
  O2-  O142  1  0.49482314  0.74542659  0.60248286  1
  O2-  O143  1  0.50059923  0.75103197  0.94398661  1
  O2-  O144  1  0.06898895  0.18043665  0.09923955  1
  O2-  O145  1  0.06694823  0.17552068  0.43051003  1
  O2-  O146  1  0.06868281  0.17637827  0.76396953  1
  O2-  O147  1  0.07145128  0.67596576  0.08575279  1
  O2-  O148  1  0.06771184  0.68122380  0.43262490  1
  O2-  O149  1  0.06713397  0.67578950  0.75682852  1
  O2-  O150  1  0.57163601  0.18303194  0.09830587  1
  O2-  O151  1  0.56998679  0.18010828  0.43411521  1
  O2-  O152  1  0.57948318  0.17991405  0.75788993  1
  O2-  O153  1  0.57230402  0.68032381  0.09156626  1
  O2-  O154  1  0.58207083  0.68326470  0.42015301  1
  O2-  O155  1  0.57500307  0.68184599  0.76612099  1
  O2-  O156  1  0.17732074  0.42820015  0.23681839  1
  O2-  O157  1  0.17515425  0.43133687  0.57708095  1
  O2-  O158  1  0.17804777  0.43264354  0.89822382  1
  O2-  O159  1  0.17522317  0.93062470  0.24212208  1
  O2-  O160  1  0.17315626  0.92547493  0.57508954  1
  O2-  O161  1  0.18171296  0.92939153  0.90054871  1
  O2-  O162  1  0.68289413  0.42904718  0.24577927  1
  O2-  O163  1  0.68356702  0.42884566  0.57577668  1
  O2-  O164  1  0.67946757  0.43305426  0.90042961  1
  O2-  O165  1  0.68061909  0.92304215  0.24830056  1
  O2-  O166  1  0.68314590  0.92777211  0.57552250  1
  O2-  O167  1  0.68270804  0.92346296  0.90207263  1
  O2-  O168  1  0.43088899  0.32501195  0.09698361  1
  O2-  O169  1  0.43009006  0.32130371  0.43172357  1
  O2-  O170  1  0.43117453  0.32293711  0.76542939  1
  O2-  O171  1  0.42641107  0.81841814  0.08929750  1
  O2-  O172  1  0.42963193  0.82140578  0.43094537  1
  O2-  O173  1  0.43148099  0.82205342  0.76708928  1
  O2-  O174  1  0.92954599  0.32578410  0.09170378  1
  O2-  O175  1  0.92532962  0.31970490  0.42197533  1
  O2-  O176  1  0.92381062  0.31988320  0.76629178  1
  O2-  O177  1  0.92950275  0.81416788  0.09925130  1
  O2-  O178  1  0.92608042  0.82028027  0.42364934  1
  O2-  O179  1  0.92652036  0.82025698  0.75554402  1
  O2-  O180  1  0.32202277  0.06626635  0.24285591  1
  O2-  O181  1  0.32074506  0.06976307  0.56489447  1
  O2-  O182  1  0.31944088  0.07159164  0.90247473  1
  O2-  O183  1  0.31679227  0.57378638  0.23466827  1
  O2-  O184  1  0.31689387  0.57300811  0.56842474  1
  O2-  O185  1  0.32424473  0.57277703  0.90936155  1
  O2-  O186  1  0.82401424  0.06954391  0.24838677  1
  O2-  O187  1  0.82046730  0.06741124  0.57582613  1
  O2-  O188  1  0.82188327  0.06885256  0.90160224  1
  O2-  O189  1  0.81678732  0.57568660  0.24451796  1
  O2-  O190  1  0.82144670  0.57569430  0.57718576  1
  O2-  O191  1  0.82026450  0.57440929  0.91085836  1
  O2-  O192  1  0.03415787  0.08285998  0.26519006  1
  O2-  O193  1  0.03823861  0.08165382  0.59555496  1
  O2-  O194  1  0.03917577  0.08324785  0.93278905  1
  O2-  O195  1  0.03526498  0.58273310  0.26517070  1
  O2-  O196  1  0.03824847  0.58895073  0.60236357  1
  O2-  O197  1  0.04475441  0.58425146  0.93308949  1
  O2-  O198  1  0.54925803  0.07857647  0.26914467  1
  O2-  O199  1  0.55214589  0.08166035  0.60954843  1
  O2-  O200  1  0.55130570  0.07592937  0.93649728  1
  O2-  O201  1  0.55634883  0.58266987  0.27248851  1
  O2-  O202  1  0.55190825  0.57846161  0.60057263  1
  O2-  O203  1  0.54452575  0.58934736  0.93807341  1
  O2-  O204  1  0.16757477  0.20412710  0.26447335  1
  O2-  O205  1  0.16856720  0.20496581  0.59590991  1
  O2-  O206  1  0.16561654  0.21257902  0.93171287  1
  O2-  O207  1  0.16318572  0.70899569  0.26125958  1
  O2-  O208  1  0.16169874  0.70522809  0.60453112  1
  O2-  O209  1  0.16834410  0.70010353  0.93493392  1
  O2-  O210  1  0.67245952  0.20488190  0.27096523  1
  O2-  O211  1  0.66549483  0.20509363  0.60373391  1
  O2-  O212  1  0.67238183  0.20857759  0.93518016  1
  O2-  O213  1  0.66617477  0.71052182  0.26698070  1
  O2-  O214  1  0.66845033  0.71080782  0.59682321  1
  O2-  O215  1  0.66368546  0.70730092  0.93899596  1
  O2-  O216  1  0.08370064  0.46063737  0.06757470  1
  O2-  O217  1  0.07848501  0.45617862  0.40106041  1
  O2-  O218  1  0.08375283  0.45815515  0.72814921  1
  O2-  O219  1  0.07966527  0.95236662  0.06576330  1
  O2-  O220  1  0.08462088  0.95617010  0.39541299  1
  O2-  O221  1  0.08050348  0.95388666  0.72563822  1
  O2-  O222  1  0.58649655  0.46732787  0.07069424  1
  O2-  O223  1  0.58824053  0.45553140  0.39789532  1
  O2-  O224  1  0.58949569  0.45584496  0.72893428  1
  O2-  O225  1  0.57896298  0.94769970  0.06911829  1
  O2-  O226  1  0.58584979  0.95477425  0.39961637  1
  O2-  O227  1  0.58792181  0.95019452  0.72786449  1
  O2-  O228  1  0.21014269  0.33484709  0.06609088  1
  O2-  O229  1  0.20546792  0.32593051  0.40158895  1
  O2-  O230  1  0.19923724  0.33281206  0.72443547  1
  O2-  O231  1  0.20672759  0.82876091  0.06541305  1
  O2-  O232  1  0.20344395  0.83632045  0.39166766  1
  O2-  O233  1  0.19589842  0.83322473  0.72848406  1
  O2-  O234  1  0.70819960  0.33508988  0.07212078  1
  O2-  O235  1  0.71076533  0.33767821  0.39921456  1
  O2-  O236  1  0.71040277  0.33720087  0.72858733  1
  O2-  O237  1  0.71387560  0.83118618  0.07062417  1
  O2-  O238  1  0.70995880  0.83784237  0.40255519  1
  O2-  O239  1  0.71260313  0.83687028  0.72740530  1
  O2-  O240  1  0.45697179  0.42276352  0.26784849  1
  O2-  O241  1  0.46412249  0.41473163  0.59710428  1
  O2-  O242  1  0.46283588  0.42120424  0.93307837  1
  O2-  O243  1  0.46352038  0.91294846  0.26256778  1
  O2-  O244  1  0.46076227  0.91808129  0.59931959  1
  O2-  O245  1  0.45551787  0.91395567  0.93893267  1
  O2-  O246  1  0.94403126  0.41818718  0.27261626  1
  O2-  O247  1  0.94771782  0.42371536  0.60193381  1
  O2-  O248  1  0.95136860  0.41920186  0.94014956  1
  O2-  O249  1  0.94956788  0.91586358  0.27340555  1
  O2-  O250  1  0.95204294  0.91241876  0.60157445  1
  O2-  O251  1  0.95909435  0.91469483  0.92986390  1
  O2-  O252  1  0.33085390  0.29340289  0.26609418  1
  O2-  O253  1  0.33306301  0.29198024  0.59799206  1
  O2-  O254  1  0.33122056  0.29583382  0.93026363  1
  O2-  O255  1  0.33216824  0.79119025  0.26189328  1
  O2-  O256  1  0.32652304  0.79642603  0.60248800  1
  O2-  O257  1  0.33730677  0.79337871  0.93499405  1
  O2-  O258  1  0.83518814  0.29164989  0.27107066  1
  O2-  O259  1  0.83121408  0.29004497  0.59610540  1
  O2-  O260  1  0.83289022  0.30085961  0.94292053  1
  O2-  O261  1  0.83285994  0.79379356  0.27261133  1
  O2-  O262  1  0.83881286  0.78956808  0.60100158  1
  O2-  O263  1  0.83550984  0.78446617  0.93052214  1
  O2-  O264  1  0.41922675  0.04360920  0.06910699  1
  O2-  O265  1  0.41329502  0.03708623  0.39427727  1
  O2-  O266  1  0.41695340  0.04095732  0.73393723  1
  O2-  O267  1  0.41741574  0.55051391  0.06228959  1
  O2-  O268  1  0.42306596  0.55331400  0.39895339  1
  O2-  O269  1  0.42084927  0.54276391  0.73171853  1
  O2-  O270  1  0.91700306  0.03543530  0.06920484  1
  O2-  O271  1  0.91122124  0.03798839  0.40265981  1
  O2-  O272  1  0.91223135  0.03988365  0.72728150  1
  O2-  O273  1  0.91787531  0.55295591  0.06130927  1
  O2-  O274  1  0.91101473  0.54575600  0.39723277  1
  O2-  O275  1  0.91354856  0.54913277  0.73127648  1
  O2-  O276  1  0.29218251  0.17102940  0.06755508  1
  O2-  O277  1  0.29437031  0.16048446  0.39310673  1
  O2-  O278  1  0.28888088  0.16800987  0.73227190  1
  O2-  O279  1  0.29777593  0.66652553  0.05981178  1
  O2-  O280  1  0.28520796  0.67049486  0.39934542  1
  O2-  O281  1  0.28916180  0.66670607  0.73618200  1
  O2-  O282  1  0.80015625  0.17094437  0.07050560  1
  O2-  O283  1  0.79543588  0.16246808  0.40135708  1
  O2-  O284  1  0.79532962  0.16285535  0.72724935  1
  O2-  O285  1  0.79179545  0.66324997  0.06524799  1
  O2-  O286  1  0.79131499  0.66429497  0.39868953  1
  O2-  O287  1  0.79163338  0.66447140  0.73037424  1
