# generated using pymatgen
data_Ca2Al2SiO7
_symmetry_space_group_name_H-M   'P 1'
_cell_length_a   15.45973424
_cell_length_b   15.46151082
_cell_length_c   15.28588866
_cell_angle_alpha   89.99734235
_cell_angle_beta   90.00037045
_cell_angle_gamma   90.00223759
_symmetry_Int_Tables_number   1
_chemical_formula_structural   Ca2Al2SiO7
_chemical_formula_sum   'Ca48 Al48 Si24 O168'
_cell_volume   3653.79892683
_cell_formula_units_Z   24
loop_
 _symmetry_equiv_pos_site_id
 _symmetry_equiv_pos_as_xyz
  1  'x, y, z'
loop_
 _atom_type_symbol
 _atom_type_oxidation_number
  Ca2+  2.0
  Al0+  0.0
  Si0+  0.0
  O2-  -2.0
loop_
 _atom_site_type_symbol
 _atom_site_label
 _atom_site_symmetry_multiplicity
 _atom_site_fract_x
 _atom_site_fract_y
 _atom_site_fract_z
 _atom_site_occupancy
  Ca2+  Ca0  1  0.17019910  0.07039142  0.16648927  1
  Ca2+  Ca1  1  0.16945153  0.07963935  0.50707162  1
  Ca2+  Ca2  1  0.17681511  0.08318261  0.84047636  1
  Ca2+  Ca3  1  0.16939752  0.58725088  0.16150706  1
  Ca2+  Ca4  1  0.17045289  0.57965194  0.50453417  1
  Ca2+  Ca5  1  0.17272882  0.57854715  0.84862538  1
  Ca2+  Ca6  1  0.66683931  0.06795001  0.16963463  1
  Ca2+  Ca7  1  0.65964780  0.07648101  0.50308607  1
  Ca2+  Ca8  1  0.66155906  0.07782000  0.84130567  1
  Ca2+  Ca9  1  0.67567647  0.58977031  0.17296038  1
  Ca2+  Ca10  1  0.67385218  0.58962741  0.50129978  1
  Ca2+  Ca11  1  0.67382086  0.59260430  0.83698844  1
  Ca2+  Ca12  1  0.07784125  0.33552459  0.15637679  1
  Ca2+  Ca13  1  0.08505311  0.32425225  0.49921410  1
  Ca2+  Ca14  1  0.08094672  0.33483497  0.83337175  1
  Ca2+  Ca15  1  0.07457790  0.83351586  0.15738681  1
  Ca2+  Ca16  1  0.07591476  0.83474604  0.48940435  1
  Ca2+  Ca17  1  0.08368847  0.83264350  0.83759811  1
  Ca2+  Ca18  1  0.58076053  0.33773072  0.16583432  1
  Ca2+  Ca19  1  0.57379533  0.33447152  0.49334698  1
  Ca2+  Ca20  1  0.57436329  0.32455595  0.82308689  1
  Ca2+  Ca21  1  0.58623195  0.82592551  0.15769103  1
  Ca2+  Ca22  1  0.58746171  0.82387398  0.49378633  1
  Ca2+  Ca23  1  0.58246770  0.82600568  0.83744425  1
  Ca2+  Ca24  1  0.33194246  0.42100689  0.16591835  1
  Ca2+  Ca25  1  0.33873023  0.41107419  0.50198687  1
  Ca2+  Ca26  1  0.32909517  0.41919971  0.84152877  1
  Ca2+  Ca27  1  0.32329186  0.90770011  0.16546480  1
  Ca2+  Ca28  1  0.32652071  0.92115388  0.50573837  1
  Ca2+  Ca29  1  0.33344327  0.92756517  0.84680301  1
  Ca2+  Ca30  1  0.82960324  0.42818410  0.17129971  1
  Ca2+  Ca31  1  0.82557058  0.42903934  0.50441814  1
  Ca2+  Ca32  1  0.83477318  0.42742315  0.84244892  1
  Ca2+  Ca33  1  0.82498489  0.90291914  0.16908322  1
  Ca2+  Ca34  1  0.82849147  0.91074241  0.49702638  1
  Ca2+  Ca35  1  0.82731378  0.91617475  0.84192099  1
  Ca2+  Ca36  1  0.41329792  0.16928674  0.16430660  1
  Ca2+  Ca37  1  0.41565945  0.17436017  0.50196169  1
  Ca2+  Ca38  1  0.41532242  0.16716581  0.82483311  1
  Ca2+  Ca39  1  0.42988951  0.66976354  0.15499622  1
  Ca2+  Ca40  1  0.43252986  0.66264156  0.49343066  1
  Ca2+  Ca41  1  0.42527198  0.66614607  0.83237536  1
  Ca2+  Ca42  1  0.91662385  0.17554698  0.15840531  1
  Ca2+  Ca43  1  0.92504510  0.16228467  0.49694333  1
  Ca2+  Ca44  1  0.92283166  0.17507216  0.82994326  1
  Ca2+  Ca45  1  0.91626975  0.67209274  0.15736669  1
  Ca2+  Ca46  1  0.91252594  0.66826022  0.49421570  1
  Ca2+  Ca47  1  0.91667387  0.66681256  0.83743029  1
  Al0+  Al48  1  0.00076736  0.00282955  -0.00228795  1
  Al0+  Al49  1  0.00117558  -0.00129483  0.33159613  1
  Al0+  Al50  1  -0.00302870  -0.00055421  0.66337749  1
  Al0+  Al51  1  -0.00108505  0.50038199  -0.00005950  1
  Al0+  Al52  1  0.00230687  0.49897269  0.33941833  1
  Al0+  Al53  1  -0.00097501  0.50205267  0.66928637  1
  Al0+  Al54  1  0.50170950  0.00030319  0.00676622  1
  Al0+  Al55  1  0.49880959  0.00153022  0.33898343  1
  Al0+  Al56  1  0.49725939  -0.00087540  0.66689447  1
  Al0+  Al57  1  0.50089649  0.49800823  -0.00310776  1
  Al0+  Al58  1  0.50000622  0.49868985  0.32640013  1
  Al0+  Al59  1  0.50098720  0.50086941  0.65942057  1
  Al0+  Al60  1  0.25002127  0.24996668  0.00865810  1
  Al0+  Al61  1  0.25091332  0.24982180  0.32852184  1
  Al0+  Al62  1  0.24755161  0.24850216  0.66273883  1
  Al0+  Al63  1  0.25093477  0.75105457  -0.00009331  1
  Al0+  Al64  1  0.25036456  0.74899057  0.34131718  1
  Al0+  Al65  1  0.24763216  0.74865796  0.66654950  1
  Al0+  Al66  1  0.75031677  0.25077025  -0.00539115  1
  Al0+  Al67  1  0.75034081  0.24979858  0.33733853  1
  Al0+  Al68  1  0.74942345  0.24983572  0.66258656  1
  Al0+  Al69  1  0.75088024  0.75022910  -0.00155636  1
  Al0+  Al70  1  0.75129559  0.75117059  0.33502515  1
  Al0+  Al71  1  0.75031835  0.75079259  0.66798973  1
  Al0+  Al72  1  0.57242633  0.17523103  0.65148337  1
  Al0+  Al73  1  0.17916640  0.92882129  0.34845283  1
  Al0+  Al74  1  0.68216717  0.92999929  0.01254823  1
  Al0+  Al75  1  0.81945991  0.57113884  0.68427403  1
  Al0+  Al76  1  0.67692456  0.42779624  0.34867070  1
  Al0+  Al77  1  0.42883384  0.82315029  0.98686201  1
  Al0+  Al78  1  0.07153501  0.67922268  0.98582196  1
  Al0+  Al79  1  0.32346233  0.07171694  0.01730907  1
  Al0+  Al80  1  0.17748556  0.92828572  0.01394213  1
  Al0+  Al81  1  0.92824575  0.32204302  0.98705105  1
  Al0+  Al82  1  0.93166884  0.81889126  0.31971516  1
  Al0+  Al83  1  0.92865814  0.82314514  0.98329912  1
  Al0+  Al84  1  0.67909084  0.92990537  0.34801486  1
  Al0+  Al85  1  0.42983888  0.31954629  0.31520479  1
  Al0+  Al86  1  0.17877000  0.42996736  0.01492124  1
  Al0+  Al87  1  0.57054138  0.68157560  0.31865812  1
  Al0+  Al88  1  0.42888000  0.32038764  0.65277337  1
  Al0+  Al89  1  0.81868841  0.57016084  0.01326210  1
  Al0+  Al90  1  0.32468663  0.57219992  0.01394284  1
  Al0+  Al91  1  0.82147481  0.57125945  0.34883807  1
  Al0+  Al92  1  0.06791922  0.17966078  0.65365137  1
  Al0+  Al93  1  0.31801534  0.06921288  0.67980327  1
  Al0+  Al94  1  0.57187842  0.67713659  0.98418516  1
  Al0+  Al95  1  0.57086834  0.68252144  0.65126158  1
  Si0+  Si96  1  0.42766598  0.31957633  0.98528865  1
  Si0+  Si97  1  0.67961045  0.93077659  0.68177210  1
  Si0+  Si98  1  0.07341576  0.17976677  0.98410062  1
  Si0+  Si99  1  0.07194247  0.67758384  0.65083615  1
  Si0+  Si100  1  0.92985895  0.81985337  0.65059344  1
  Si0+  Si101  1  0.32248873  0.57109974  0.67973250  1
  Si0+  Si102  1  0.57057136  0.17917620  0.98757966  1
  Si0+  Si103  1  0.67637126  0.42728767  0.68326288  1
  Si0+  Si104  1  0.17943153  0.42947024  0.68013402  1
  Si0+  Si105  1  0.07524521  0.67499804  0.31858687  1
  Si0+  Si106  1  0.82298600  0.07312617  0.34975829  1
  Si0+  Si107  1  0.31999477  0.07442472  0.35319531  1
  Si0+  Si108  1  0.17436383  0.92660557  0.68360000  1
  Si0+  Si109  1  0.92786721  0.32542934  0.64841111  1
  Si0+  Si110  1  0.17961706  0.42679165  0.35048812  1
  Si0+  Si111  1  0.67797296  0.42422219  0.01397725  1
  Si0+  Si112  1  0.32132663  0.56928624  0.34877182  1
  Si0+  Si113  1  0.82240168  0.07525254  0.01404637  1
  Si0+  Si114  1  0.42466557  0.82162588  0.64971386  1
  Si0+  Si115  1  0.42621630  0.82365700  0.31952573  1
  Si0+  Si116  1  0.07060338  0.17892280  0.31640013  1
  Si0+  Si117  1  0.92969283  0.32156620  0.32055754  1
  Si0+  Si118  1  0.57369133  0.17594515  0.31530304  1
  Si0+  Si119  1  0.82265405  0.07241564  0.68090123  1
  O2-  O120  1  0.25318754  -0.00347379  0.06460874  1
  O2-  O121  1  0.25417650  0.00235525  0.39652392  1
  O2-  O122  1  0.24578743  -0.00762962  0.72656528  1
  O2-  O123  1  0.25031043  0.50250920  0.06497076  1
  O2-  O124  1  0.25015418  0.49828150  0.39259282  1
  O2-  O125  1  0.25177373  0.49943190  0.72101266  1
  O2-  O126  1  0.76004297  0.00200769  0.05921719  1
  O2-  O127  1  0.75204302  0.00700226  0.39473017  1
  O2-  O128  1  0.74519377  0.00821874  0.72222317  1
  O2-  O129  1  0.74180636  0.49706783  0.05801075  1
  O2-  O130  1  0.74775296  0.50074295  0.39932931  1
  O2-  O131  1  0.74622677  0.49365045  0.72906462  1
  O2-  O132  1  -0.00129319  0.24967353  0.27606186  1
  O2-  O133  1  -0.00734252  0.25294111  0.60376002  1
  O2-  O134  1  0.00439150  0.24854261  0.94049557  1
  O2-  O135  1  0.00612037  0.74306803  0.27580261  1
  O2-  O136  1  0.00288447  0.75036129  0.60900319  1
  O2-  O137  1  0.00224983  0.75280832  0.93293941  1
  O2-  O138  1  0.50688699  0.24599216  0.27008142  1
  O2-  O139  1  0.50368148  0.25092072  0.60242260  1
  O2-  O140  1  0.49816573  0.24804441  0.94424445  1
  O2-  O141  1  0.49712107  0.75852114  0.27455764  1
  O2-  O142  1  0.49301945  0.75373504  0.60385974  1
  O2-  O143  1  0.49623820  0.74704092  0.93587540  1
  O2-  O144  1  0.07085962  0.18001806  0.09001210  1
  O2-  O145  1  0.07040768  0.17956494  0.42202091  1
  O2-  O146  1  0.06693493  0.18158370  0.76617675  1
  O2-  O147  1  0.06821122  0.67826677  0.09955538  1
  O2-  O148  1  0.07587582  0.67541583  0.42501779  1
  O2-  O149  1  0.07459862  0.67602033  0.75496899  1
  O2-  O150  1  0.57348876  0.18184154  0.09244050  1
  O2-  O151  1  0.57149248  0.17513536  0.42073607  1
  O2-  O152  1  0.57058878  0.17555423  0.76554151  1
  O2-  O153  1  0.57378152  0.67927339  0.09765007  1
  O2-  O154  1  0.56961382  0.68268491  0.43239224  1
  O2-  O155  1  0.57117697  0.68411238  0.76376659  1
  O2-  O156  1  0.17699327  0.42577430  0.24619053  1
  O2-  O157  1  0.17811547  0.43124412  0.57451142  1
  O2-  O158  1  0.18219911  0.42728741  0.90060773  1
  O2-  O159  1  0.17822103  0.92959162  0.23622942  1
  O2-  O160  1  0.17420818  0.92758679  0.57757978  1
  O2-  O161  1  0.17632494  0.93412484  0.90010697  1
  O2-  O162  1  0.68098485  0.42655542  0.23507416  1
  O2-  O163  1  0.67749999  0.42889097  0.57785016  1
  O2-  O164  1  0.68036124  0.41906851  0.90847255  1
  O2-  O165  1  0.68065129  0.93017249  0.23538120  1
  O2-  O166  1  0.68280796  0.92894945  0.57650225  1
  O2-  O167  1  0.68120087  0.93366784  0.89883899  1
  O2-  O168  1  0.42894074  0.31991567  0.09027560  1
  O2-  O169  1  0.42705029  0.31656614  0.42823467  1
  O2-  O170  1  0.42758185  0.31952620  0.76655655  1
  O2-  O171  1  0.43284527  0.82258844  0.10074365  1
  O2-  O172  1  0.42557228  0.82014586  0.42562756  1
  O2-  O173  1  0.42433616  0.82096946  0.75475277  1
  O2-  O174  1  0.92736097  0.31871611  0.10065912  1
  O2-  O175  1  0.93360815  0.31998972  0.42575789  1
  O2-  O176  1  0.93076130  0.32572328  0.75390664  1
  O2-  O177  1  0.92801569  0.82044769  0.09667446  1
  O2-  O178  1  0.93291859  0.81910210  0.43377704  1
  O2-  O179  1  0.92931083  0.82174996  0.75505338  1
  O2-  O180  1  0.31789778  0.07668364  0.24813296  1
  O2-  O181  1  0.31465059  0.06853773  0.56657689  1
  O2-  O182  1  0.32139123  0.07475307  0.90331280  1
  O2-  O183  1  0.31922382  0.56992126  0.24440212  1
  O2-  O184  1  0.31974036  0.57169829  0.57423273  1
  O2-  O185  1  0.32541420  0.56619152  0.89958036  1
  O2-  O186  1  0.82344812  0.07609779  0.24440351  1
  O2-  O187  1  0.82782821  0.06798960  0.57602987  1
  O2-  O188  1  0.81797115  0.07793627  0.90817361  1
  O2-  O189  1  0.82365629  0.56945598  0.23571556  1
  O2-  O190  1  0.82035057  0.57166378  0.57124310  1
  O2-  O191  1  0.81780389  0.56883356  0.89977200  1
  O2-  O192  1  0.04240478  0.08771082  0.26920994  1
  O2-  O193  1  0.03611625  0.08340475  0.59753186  1
  O2-  O194  1  0.04878705  0.08767976  0.93547575  1
  O2-  O195  1  0.05256573  0.57957267  0.27557273  1
  O2-  O196  1  0.04244800  0.58632276  0.60231294  1
  O2-  O197  1  0.04143273  0.58153150  0.93168284  1
  O2-  O198  1  0.54479862  0.08244442  0.27006787  1
  O2-  O199  1  0.54037877  0.07789495  0.59782742  1
  O2-  O200  1  0.54444706  0.08712681  0.94081131  1
  O2-  O201  1  0.53960365  0.58558712  0.26531676  1
  O2-  O202  1  0.54239506  0.58570388  0.59639719  1
  O2-  O203  1  0.54715318  0.57738447  0.93066373  1
  O2-  O204  1  0.16127772  0.20832142  0.26942245  1
  O2-  O205  1  0.16174792  0.21238081  0.59538142  1
  O2-  O206  1  0.16711228  0.20789777  0.93980253  1
  O2-  O207  1  0.16974805  0.70097539  0.27545491  1
  O2-  O208  1  0.16436128  0.70211410  0.60133063  1
  O2-  O209  1  0.17130296  0.70305985  0.93278940  1
  O2-  O210  1  0.66950652  0.19819405  0.27231591  1
  O2-  O211  1  0.67355916  0.19561736  0.59959252  1
  O2-  O212  1  0.66099342  0.20680891  0.93665763  1
  O2-  O213  1  0.66769822  0.71271202  0.26789892  1
  O2-  O214  1  0.66682303  0.71789590  0.59819404  1
  O2-  O215  1  0.66736238  0.71251293  0.93020938  1
  O2-  O216  1  0.08029746  0.45691845  0.06753833  1
  O2-  O217  1  0.08920603  0.45303812  0.40213995  1
  O2-  O218  1  0.08826105  0.45844761  0.72762770  1
  O2-  O219  1  0.07986458  0.96170385  0.06728105  1
  O2-  O220  1  0.08296527  0.96260438  0.40265426  1
  O2-  O221  1  0.08061094  0.95442237  0.72715970  1
  O2-  O222  1  0.58245543  0.44437864  0.05723890  1
  O2-  O223  1  0.57633170  0.45425035  0.39783262  1
  O2-  O224  1  0.58199372  0.45378385  0.72730145  1
  O2-  O225  1  0.58890369  0.96334662  0.07010850  1
  O2-  O226  1  0.58187082  0.95821651  0.40369894  1
  O2-  O227  1  0.58556028  0.95268510  0.72674848  1
  O2-  O228  1  0.20661979  0.33326981  0.07122083  1
  O2-  O229  1  0.20963389  0.33476798  0.39706773  1
  O2-  O230  1  0.20515787  0.33705225  0.72592676  1
  O2-  O231  1  0.20111808  0.82925549  0.06705607  1
  O2-  O232  1  0.20695401  0.83207380  0.40564619  1
  O2-  O233  1  0.19599944  0.83070845  0.72652189  1
  O2-  O234  1  0.70794117  0.33275480  0.06252350  1
  O2-  O235  1  0.70487261  0.32913937  0.40288944  1
  O2-  O236  1  0.69862201  0.33108849  0.72658458  1
  O2-  O237  1  0.71246600  0.83397073  0.06636542  1
  O2-  O238  1  0.71464396  0.83612447  0.40440470  1
  O2-  O239  1  0.71492413  0.84228332  0.72985680  1
  O2-  O240  1  0.45797595  0.41578296  0.25987667  1
  O2-  O241  1  0.45466691  0.41863202  0.59724154  1
  O2-  O242  1  0.45460777  0.41024565  0.93563670  1
  O2-  O243  1  0.44593836  0.92016270  0.27828863  1
  O2-  O244  1  0.44978080  0.91513020  0.60358199  1
  O2-  O245  1  0.46313825  0.92098975  0.93473097  1
  O2-  O246  1  0.96080947  0.41292472  0.27451101  1
  O2-  O247  1  0.95908900  0.41730636  0.60181933  1
  O2-  O248  1  0.95981488  0.41651645  0.93091701  1
  O2-  O249  1  0.96099631  0.91604626  0.26627606  1
  O2-  O250  1  0.95509858  0.91157639  0.60113318  1
  O2-  O251  1  0.95303952  0.92392110  0.93156462  1
  O2-  O252  1  0.33310451  0.28794972  0.26128773  1
  O2-  O253  1  0.33127498  0.29013855  0.59826009  1
  O2-  O254  1  0.33478523  0.29175134  0.94042057  1
  O2-  O255  1  0.33261535  0.79402874  0.27576276  1
  O2-  O256  1  0.33001915  0.79673315  0.60376252  1
  O2-  O257  1  0.32866608  0.80353981  0.93467818  1
  O2-  O258  1  0.83698069  0.29553132  0.27460139  1
  O2-  O259  1  0.83276325  0.30410632  0.60444416  1
  O2-  O260  1  0.83414560  0.28893550  0.92848987  1
  O2-  O261  1  0.83494122  0.78912084  0.26755825  1
  O2-  O262  1  0.83898636  0.78914649  0.60316355  1
  O2-  O263  1  0.83200454  0.79187887  0.92887553  1
  O2-  O264  1  0.42205644  0.04855247  0.07122771  1
  O2-  O265  1  0.41481130  0.05319983  0.39853664  1
  O2-  O266  1  0.41581974  0.04172054  0.73351509  1
  O2-  O267  1  0.42198759  0.53924652  0.06706854  1
  O2-  O268  1  0.41265764  0.53853866  0.39494130  1
  O2-  O269  1  0.41523472  0.54464241  0.72487300  1
  O2-  O270  1  0.91856784  0.05851153  0.05699775  1
  O2-  O271  1  0.91569154  0.04318092  0.39600544  1
  O2-  O272  1  0.91146443  0.03862078  0.73095529  1
  O2-  O273  1  0.91410576  0.53775859  0.06678999  1
  O2-  O274  1  0.92017897  0.54176300  0.40340233  1
  O2-  O275  1  0.91764170  0.54168325  0.73629394  1
  O2-  O276  1  0.29143720  0.16746839  0.07313324  1
  O2-  O277  1  0.28827571  0.16672453  0.39891601  1
  O2-  O278  1  0.28438793  0.16598571  0.73206922  1
  O2-  O279  1  0.30002289  0.67121839  0.06606507  1
  O2-  O280  1  0.29522656  0.65968210  0.40075966  1
  O2-  O281  1  0.29374352  0.66271654  0.72680375  1
  O2-  O282  1  0.79125371  0.16659860  0.06217556  1
  O2-  O283  1  0.80225186  0.16670998  0.39837344  1
  O2-  O284  1  0.80350490  0.16790133  0.72510214  1
  O2-  O285  1  0.78980090  0.66699971  0.06623628  1
  O2-  O286  1  0.79220561  0.66894293  0.40286683  1
  O2-  O287  1  0.78686609  0.66804395  0.73630128  1
