# generated using pymatgen
data_Ca2Al2SiO7
_symmetry_space_group_name_H-M   'P 1'
_cell_length_a   15.45937258
_cell_length_b   15.45968079
_cell_length_c   15.28442739
_cell_angle_alpha   89.99183955
_cell_angle_beta   90.00446775
_cell_angle_gamma   90.00213908
_symmetry_Int_Tables_number   1
_chemical_formula_structural   Ca2Al2SiO7
_chemical_formula_sum   'Ca48 Al48 Si24 O168'
_cell_volume   3652.93171204
_cell_formula_units_Z   24
loop_
 _symmetry_equiv_pos_site_id
 _symmetry_equiv_pos_as_xyz
  1  'x, y, z'
loop_
 _atom_type_symbol
 _atom_type_oxidation_number
  Ca2+  2.0
  Al0+  0.0
  Si0+  0.0
  O2-  -2.0
loop_
 _atom_site_type_symbol
 _atom_site_label
 _atom_site_symmetry_multiplicity
 _atom_site_fract_x
 _atom_site_fract_y
 _atom_site_fract_z
 _atom_site_occupancy
  Ca2+  Ca0  1  0.17160834  0.07817329  0.17427989  1
  Ca2+  Ca1  1  0.17145351  0.08429469  0.49839193  1
  Ca2+  Ca2  1  0.17185408  0.07397903  0.84272686  1
  Ca2+  Ca3  1  0.17633864  0.58638260  0.17242691  1
  Ca2+  Ca4  1  0.16900144  0.59557236  0.50014373  1
  Ca2+  Ca5  1  0.17414228  0.58238845  0.84182518  1
  Ca2+  Ca6  1  0.65733446  0.07718915  0.17014253  1
  Ca2+  Ca7  1  0.66985346  0.08368316  0.50316823  1
  Ca2+  Ca8  1  0.66971305  0.07822763  0.83973161  1
  Ca2+  Ca9  1  0.66254661  0.57641449  0.17711229  1
  Ca2+  Ca10  1  0.67300349  0.58143516  0.50178832  1
  Ca2+  Ca11  1  0.66252433  0.57456706  0.83982644  1
  Ca2+  Ca12  1  0.08915289  0.33003435  0.16383610  1
  Ca2+  Ca13  1  0.07917777  0.32622854  0.49092477  1
  Ca2+  Ca14  1  0.08431183  0.33582336  0.82994228  1
  Ca2+  Ca15  1  0.07329154  0.83220379  0.16455011  1
  Ca2+  Ca16  1  0.07294878  0.82121744  0.49176814  1
  Ca2+  Ca17  1  0.08125273  0.82925871  0.83077905  1
  Ca2+  Ca18  1  0.59358338  0.32459295  0.16092076  1
  Ca2+  Ca19  1  0.58637555  0.33359040  0.49664146  1
  Ca2+  Ca20  1  0.58439934  0.33480880  0.83070139  1
  Ca2+  Ca21  1  0.58119576  0.82000232  0.16165418  1
  Ca2+  Ca22  1  0.57496174  0.82815198  0.49107038  1
  Ca2+  Ca23  1  0.58154759  0.82793272  0.83364557  1
  Ca2+  Ca24  1  0.33243368  0.42935168  0.16793295  1
  Ca2+  Ca25  1  0.33676110  0.42343456  0.50091598  1
  Ca2+  Ca26  1  0.33001509  0.42074600  0.84145417  1
  Ca2+  Ca27  1  0.32993814  0.91787728  0.17542223  1
  Ca2+  Ca28  1  0.34287860  0.91985904  0.50061169  1
  Ca2+  Ca29  1  0.32786997  0.91073915  0.83938530  1
  Ca2+  Ca30  1  0.82214412  0.42505877  0.17425421  1
  Ca2+  Ca31  1  0.82249629  0.42618817  0.50365323  1
  Ca2+  Ca32  1  0.82363441  0.42433670  0.83513892  1
  Ca2+  Ca33  1  0.82942120  0.90761616  0.16787261  1
  Ca2+  Ca34  1  0.83635125  0.92094650  0.50199354  1
  Ca2+  Ca35  1  0.83228054  0.92151317  0.84117543  1
  Ca2+  Ca36  1  0.42560073  0.16497814  0.16595238  1
  Ca2+  Ca37  1  0.42115673  0.17480339  0.49054584  1
  Ca2+  Ca38  1  0.42406432  0.17434923  0.82875891  1
  Ca2+  Ca39  1  0.42359140  0.65834289  0.16603045  1
  Ca2+  Ca40  1  0.41895586  0.67764234  0.49012960  1
  Ca2+  Ca41  1  0.42062495  0.66614955  0.83120889  1
  Ca2+  Ca42  1  0.92298222  0.16759509  0.16443066  1
  Ca2+  Ca43  1  0.91941171  0.16570849  0.49290114  1
  Ca2+  Ca44  1  0.91555206  0.16689529  0.82931242  1
  Ca2+  Ca45  1  0.91252330  0.67421797  0.16488540  1
  Ca2+  Ca46  1  0.92176631  0.66046372  0.49150961  1
  Ca2+  Ca47  1  0.92138495  0.66827948  0.82788516  1
  Al0+  Al48  1  0.00153273  0.00064432  -0.00077606  1
  Al0+  Al49  1  0.00009157  0.00021934  0.32617478  1
  Al0+  Al50  1  0.00177941  -0.00083929  0.67131496  1
  Al0+  Al51  1  -0.00020733  0.49881517  0.00267337  1
  Al0+  Al52  1  -0.00071995  0.49841210  0.33089005  1
  Al0+  Al53  1  -0.00009096  0.49829902  0.66525961  1
  Al0+  Al54  1  0.50249839  0.00044551  -0.00281678  1
  Al0+  Al55  1  0.49845255  0.00214042  0.33241398  1
  Al0+  Al56  1  0.50055504  0.00195328  0.66538929  1
  Al0+  Al57  1  0.50014254  0.49833471  0.00309058  1
  Al0+  Al58  1  0.49536652  0.49916306  0.34067812  1
  Al0+  Al59  1  0.49894936  0.49950851  0.66600400  1
  Al0+  Al60  1  0.25085383  0.24974786  0.00177435  1
  Al0+  Al61  1  0.25073623  0.24807692  0.33283190  1
  Al0+  Al62  1  0.25247744  0.24946834  0.66337341  1
  Al0+  Al63  1  0.24924818  0.75111856  0.00993330  1
  Al0+  Al64  1  0.24593929  0.75159430  0.33218568  1
  Al0+  Al65  1  0.24944204  0.75109683  0.65978486  1
  Al0+  Al66  1  0.75302387  0.25012573  -0.00255433  1
  Al0+  Al67  1  0.74982832  0.24899718  0.33281330  1
  Al0+  Al68  1  0.75161132  0.24945318  0.67450828  1
  Al0+  Al69  1  0.74985474  0.75258436  -0.00806326  1
  Al0+  Al70  1  0.74812304  0.74952685  0.33308416  1
  Al0+  Al71  1  0.75107369  0.75179290  0.67018136  1
  Al0+  Al72  1  0.82403311  0.57280395  0.68303418  1
  Al0+  Al73  1  0.68045306  0.42911730  0.01432209  1
  Al0+  Al74  1  0.67968720  0.92923966  0.01385548  1
  Al0+  Al75  1  0.32125981  0.57119909  0.01458645  1
  Al0+  Al76  1  0.42855355  0.32163888  0.65235392  1
  Al0+  Al77  1  0.56846159  0.67752006  0.32051417  1
  Al0+  Al78  1  0.06877507  0.67832230  0.65436884  1
  Al0+  Al79  1  0.67769630  0.43104977  0.68400051  1
  Al0+  Al80  1  0.32116577  0.06964770  0.34827447  1
  Al0+  Al81  1  0.57292232  0.17796563  0.98400861  1
  Al0+  Al82  1  0.56976857  0.67681731  0.98588808  1
  Al0+  Al83  1  0.42825805  0.82320061  0.31747307  1
  Al0+  Al84  1  0.07163808  0.17984873  0.31920014  1
  Al0+  Al85  1  0.67700944  0.42625945  0.34908818  1
  Al0+  Al86  1  0.42978713  0.82088741  0.65413183  1
  Al0+  Al87  1  0.82254326  0.06897989  0.68016549  1
  Al0+  Al88  1  0.17667132  0.42726357  0.01456505  1
  Al0+  Al89  1  0.92708135  0.82102964  0.31857794  1
  Al0+  Al90  1  0.17853436  0.92939382  0.01506666  1
  Al0+  Al91  1  0.82030562  0.57269733  0.34708438  1
  Al0+  Al92  1  0.31784471  0.57297811  0.35070971  1
  Al0+  Al93  1  0.92987662  0.82125135  0.98292911  1
  Al0+  Al94  1  0.57199536  0.18163884  0.32074291  1
  Al0+  Al95  1  0.07012624  0.67577812  0.31552750  1
  Si0+  Si96  1  0.42856333  0.32047749  0.98400210  1
  Si0+  Si97  1  0.57348681  0.67751998  0.65096734  1
  Si0+  Si98  1  0.17988511  0.42604418  0.67870491  1
  Si0+  Si99  1  0.07184956  0.17720419  0.65307440  1
  Si0+  Si100  1  0.92996706  0.32165272  0.98299318  1
  Si0+  Si101  1  0.42680970  0.82194990  0.98538700  1
  Si0+  Si102  1  0.67794592  0.92945739  0.34741121  1
  Si0+  Si103  1  0.17519666  0.92993294  0.35241727  1
  Si0+  Si104  1  0.42687704  0.32215626  0.31557505  1
  Si0+  Si105  1  0.82195002  0.07016182  0.34531138  1
  Si0+  Si106  1  0.92745492  0.32072633  0.31581997  1
  Si0+  Si107  1  0.32212688  0.07306467  0.68234427  1
  Si0+  Si108  1  0.07275721  0.67769412  0.98437229  1
  Si0+  Si109  1  0.92927963  0.31894107  0.65205401  1
  Si0+  Si110  1  0.18192715  0.92981304  0.68076309  1
  Si0+  Si111  1  0.92798926  0.82407890  0.65176324  1
  Si0+  Si112  1  0.57357963  0.18004625  0.65045850  1
  Si0+  Si113  1  0.17826297  0.42669662  0.35071544  1
  Si0+  Si114  1  0.67519451  0.92907052  0.68328802  1
  Si0+  Si115  1  0.82259836  0.07199141  0.01822052  1
  Si0+  Si116  1  0.32315398  0.07171158  0.01543504  1
  Si0+  Si117  1  0.07244679  0.18019702  0.98310723  1
  Si0+  Si118  1  0.31825554  0.57274402  0.67981494  1
  Si0+  Si119  1  0.82171539  0.57373710  0.01509127  1
  O2-  O120  1  0.25628498  0.00170768  0.05961500  1
  O2-  O121  1  0.24834887  -0.00610036  0.39762056  1
  O2-  O122  1  0.25411494  -0.00059338  0.72466126  1
  O2-  O123  1  0.24571921  0.50157446  0.06341920  1
  O2-  O124  1  0.24067889  0.49948865  0.39762143  1
  O2-  O125  1  0.24903861  0.49892377  0.72104527  1
  O2-  O126  1  0.75356692  0.00437800  0.06253878  1
  O2-  O127  1  0.75145937  -0.00067222  0.38851268  1
  O2-  O128  1  0.74826997  -0.00587713  0.72637145  1
  O2-  O129  1  0.75073111  0.50797609  0.05967807  1
  O2-  O130  1  0.74699193  0.50152032  0.39687859  1
  O2-  O131  1  0.74644773  0.50694762  0.73350754  1
  O2-  O132  1  -0.00057369  0.25560569  0.27087124  1
  O2-  O133  1  0.00013176  0.24692998  0.61019783  1
  O2-  O134  1  0.00419314  0.25313103  0.93985425  1
  O2-  O135  1  -0.00433310  0.74623602  0.26779140  1
  O2-  O136  1  -0.01169679  0.74798429  0.60869637  1
  O2-  O137  1  0.00437961  0.74531937  0.93753594  1
  O2-  O138  1  0.50131373  0.25921709  0.27245366  1
  O2-  O139  1  0.50628991  0.24966947  0.60646444  1
  O2-  O140  1  0.49823591  0.25321130  0.93846651  1
  O2-  O141  1  0.49572778  0.74751450  0.26766942  1
  O2-  O142  1  0.50703319  0.74906236  0.60801385  1
  O2-  O143  1  0.49330158  0.75148298  0.94041456  1
  O2-  O144  1  0.07135778  0.17999516  0.08791713  1
  O2-  O145  1  0.06837523  0.18014475  0.43322999  1
  O2-  O146  1  0.07282493  0.17836124  0.75832906  1
  O2-  O147  1  0.07087571  0.67826174  0.08917073  1
  O2-  O148  1  0.06820460  0.67906779  0.42984749  1
  O2-  O149  1  0.07322855  0.68157373  0.76768944  1
  O2-  O150  1  0.57099613  0.17823188  0.09696764  1
  O2-  O151  1  0.57201833  0.18033821  0.43416563  1
  O2-  O152  1  0.57106803  0.17843700  0.75604369  1
  O2-  O153  1  0.57018789  0.67608055  0.09837764  1
  O2-  O154  1  0.56951475  0.68191572  0.43454937  1
  O2-  O155  1  0.57010302  0.67712501  0.75686053  1
  O2-  O156  1  0.18276560  0.42453243  0.24546691  1
  O2-  O157  1  0.18045980  0.42177895  0.57414339  1
  O2-  O158  1  0.17881469  0.42674369  0.89991141  1
  O2-  O159  1  0.17382837  0.93500963  0.24693481  1
  O2-  O160  1  0.17961013  0.93339018  0.57635113  1
  O2-  O161  1  0.18025416  0.93055178  0.90068269  1
  O2-  O162  1  0.68169397  0.42378947  0.23544575  1
  O2-  O163  1  0.68056870  0.42845993  0.57097076  1
  O2-  O164  1  0.68179858  0.42921839  0.90122283  1
  O2-  O165  1  0.67741471  0.93048934  0.24250220  1
  O2-  O166  1  0.67318380  0.93190690  0.57752316  1
  O2-  O167  1  0.68077879  0.93145458  0.90035486  1
  O2-  O168  1  0.42665458  0.31838393  0.08914983  1
  O2-  O169  1  0.42429931  0.31798064  0.42151722  1
  O2-  O170  1  0.42302041  0.31768742  0.76534196  1
  O2-  O171  1  0.42899796  0.82468850  0.09017961  1
  O2-  O172  1  0.43391156  0.82397966  0.43166811  1
  O2-  O173  1  0.42631856  0.81786858  0.76740243  1
  O2-  O174  1  0.92872657  0.31812476  0.08775442  1
  O2-  O175  1  0.92790778  0.31675721  0.42191844  1
  O2-  O176  1  0.93239578  0.31850842  0.75732018  1
  O2-  O177  1  0.92999961  0.82114188  0.09543414  1
  O2-  O178  1  0.93015411  0.82698557  0.43247483  1
  O2-  O179  1  0.93391385  0.82860918  0.75701937  1
  O2-  O180  1  0.31956150  0.06954764  0.23517448  1
  O2-  O181  1  0.32021182  0.07455931  0.57764680  1
  O2-  O182  1  0.31950244  0.07290745  0.90904269  1
  O2-  O183  1  0.31948022  0.56939555  0.23814258  1
  O2-  O184  1  0.31606254  0.57369173  0.57513558  1
  O2-  O185  1  0.31983650  0.57080677  0.89970145  1
  O2-  O186  1  0.82227631  0.07152382  0.24065717  1
  O2-  O187  1  0.82445112  0.06839706  0.56667399  1
  O2-  O188  1  0.82298131  0.07073904  0.91210983  1
  O2-  O189  1  0.81897444  0.57119388  0.23329101  1
  O2-  O190  1  0.82580088  0.56822484  0.56999638  1
  O2-  O191  1  0.82409572  0.56946417  0.90938821  1
  O2-  O192  1  0.03878691  0.08609270  0.26240823  1
  O2-  O193  1  0.04436350  0.08505371  0.60650178  1
  O2-  O194  1  0.04223324  0.08965798  0.93420401  1
  O2-  O195  1  0.04911976  0.57489927  0.26486908  1
  O2-  O196  1  0.04505272  0.57962615  0.60067925  1
  O2-  O197  1  0.04867510  0.58254543  0.93935553  1
  O2-  O198  1  0.53663444  0.08693646  0.26654348  1
  O2-  O199  1  0.54712507  0.08688190  0.60402189  1
  O2-  O200  1  0.54150850  0.08233365  0.92747284  1
  O2-  O201  1  0.53940574  0.57751592  0.27127658  1
  O2-  O202  1  0.54637263  0.58478219  0.60550932  1
  O2-  O203  1  0.53746494  0.58027319  0.93160049  1
  O2-  O204  1  0.16811764  0.20905714  0.26478442  1
  O2-  O205  1  0.16290576  0.20561977  0.60489396  1
  O2-  O206  1  0.16551228  0.20505428  0.93563921  1
  O2-  O207  1  0.16724944  0.70769312  0.26366630  1
  O2-  O208  1  0.16188873  0.71548283  0.59769231  1
  O2-  O209  1  0.16727882  0.70537810  0.94036557  1
  O2-  O210  1  0.66954046  0.20605991  0.26529822  1
  O2-  O211  1  0.66903324  0.20381926  0.60742848  1
  O2-  O212  1  0.67068398  0.20764967  0.93136023  1
  O2-  O213  1  0.66623545  0.70623643  0.26773360  1
  O2-  O214  1  0.66903194  0.70109238  0.60778342  1
  O2-  O215  1  0.66430709  0.70982825  0.92887843  1
  O2-  O216  1  0.07674997  0.44842891  0.06710072  1
  O2-  O217  1  0.08115664  0.44384793  0.39281009  1
  O2-  O218  1  0.08725964  0.45052486  0.72564955  1
  O2-  O219  1  0.08402016  0.96602696  0.06837009  1
  O2-  O220  1  0.08351840  0.96350993  0.39849412  1
  O2-  O221  1  0.09174807  0.95893775  0.73132195  1
  O2-  O222  1  0.58231899  0.45247950  0.06671067  1
  O2-  O223  1  0.57712074  0.44865401  0.40070410  1
  O2-  O224  1  0.57692959  0.45571772  0.73572052  1
  O2-  O225  1  0.58286606  0.96040450  0.06675412  1
  O2-  O226  1  0.58846848  0.96216379  0.39625383  1
  O2-  O227  1  0.58371327  0.95930783  0.73198306  1
  O2-  O228  1  0.20615074  0.32882750  0.06721211  1
  O2-  O229  1  0.20773747  0.33414707  0.39779959  1
  O2-  O230  1  0.20919402  0.33485743  0.72801407  1
  O2-  O231  1  0.20361352  0.83397818  0.07194779  1
  O2-  O232  1  0.19424542  0.83459133  0.39626822  1
  O2-  O233  1  0.21097165  0.83802141  0.72775991  1
  O2-  O234  1  0.71688243  0.33295347  0.06553805  1
  O2-  O235  1  0.71083672  0.32870940  0.40255509  1
  O2-  O236  1  0.71000225  0.33334517  0.73714099  1
  O2-  O237  1  0.71146869  0.83209854  0.06546504  1
  O2-  O238  1  0.70401481  0.83854933  0.39680128  1
  O2-  O239  1  0.69545086  0.83398895  0.72819639  1
  O2-  O240  1  0.44491187  0.41830942  0.27420211  1
  O2-  O241  1  0.45467040  0.41943099  0.59867817  1
  O2-  O242  1  0.45326093  0.41385115  0.93759444  1
  O2-  O243  1  0.45827691  0.92074160  0.26519492  1
  O2-  O244  1  0.45752212  0.91974207  0.60192861  1
  O2-  O245  1  0.45340003  0.91466506  0.93678193  1
  O2-  O246  1  0.94891062  0.41436167  0.26951526  1
  O2-  O247  1  0.95824511  0.40899949  0.60271772  1
  O2-  O248  1  0.95566736  0.41414887  0.93516540  1
  O2-  O249  1  0.95789174  0.91765921  0.26278626  1
  O2-  O250  1  0.96228820  0.91499408  0.60423085  1
  O2-  O251  1  0.96342067  0.91868968  0.93033619  1
  O2-  O252  1  0.33645085  0.28918438  0.26817970  1
  O2-  O253  1  0.33416254  0.28674560  0.59550006  1
  O2-  O254  1  0.33500446  0.29296748  0.93651996  1
  O2-  O255  1  0.32599296  0.80316725  0.27167480  1
  O2-  O256  1  0.33492166  0.79032646  0.59709171  1
  O2-  O257  1  0.33110504  0.79802884  0.94185618  1
  O2-  O258  1  0.83660705  0.28931656  0.26837480  1
  O2-  O259  1  0.83765732  0.28898582  0.60630916  1
  O2-  O260  1  0.84126484  0.28966137  0.93191488  1
  O2-  O261  1  0.82766997  0.79608987  0.26674122  1
  O2-  O262  1  0.83029399  0.81043923  0.61017058  1
  O2-  O263  1  0.83394828  0.79431270  0.92595709  1
  O2-  O264  1  0.41783447  0.04867775  0.05857629  1
  O2-  O265  1  0.41771370  0.04091391  0.40454331  1
  O2-  O266  1  0.41544686  0.04907396  0.72851132  1
  O2-  O267  1  0.41660511  0.53690489  0.06905230  1
  O2-  O268  1  0.41229710  0.54083293  0.40828085  1
  O2-  O269  1  0.41081637  0.54682474  0.72612912  1
  O2-  O270  1  0.91702258  0.04703713  0.06214475  1
  O2-  O271  1  0.91400595  0.04260138  0.39316248  1
  O2-  O272  1  0.91927854  0.04007717  0.73695542  1
  O2-  O273  1  0.91420495  0.54564263  0.06182333  1
  O2-  O274  1  0.91938002  0.54126800  0.39835539  1
  O2-  O275  1  0.92090304  0.53718287  0.73663994  1
  O2-  O276  1  0.29553881  0.16396609  0.06224015  1
  O2-  O277  1  0.28694931  0.16543597  0.40312422  1
  O2-  O278  1  0.28992017  0.16297123  0.73130458  1
  O2-  O279  1  0.29723854  0.66903058  0.06925945  1
  O2-  O280  1  0.28706126  0.67093823  0.40340267  1
  O2-  O281  1  0.28716378  0.66360616  0.72734607  1
  O2-  O282  1  0.79992753  0.16664840  0.06198863  1
  O2-  O283  1  0.79452677  0.16098269  0.39499717  1
  O2-  O284  1  0.79388584  0.16450580  0.73731100  1
  O2-  O285  1  0.79925549  0.66953503  0.05534010  1
  O2-  O286  1  0.79412783  0.67137829  0.40176684  1
  O2-  O287  1  0.80557381  0.67531910  0.73201816  1
