# generated using pymatgen
data_Ca2Al2SiO7
_symmetry_space_group_name_H-M   'P 1'
_cell_length_a   15.46648201
_cell_length_b   15.46541782
_cell_length_c   15.29046824
_cell_angle_alpha   90.00448228
_cell_angle_beta   90.00533248
_cell_angle_gamma   89.98755309
_symmetry_Int_Tables_number   1
_chemical_formula_structural   Ca2Al2SiO7
_chemical_formula_sum   'Ca48 Al48 Si24 O168'
_cell_volume   3657.41271032
_cell_formula_units_Z   24
loop_
 _symmetry_equiv_pos_site_id
 _symmetry_equiv_pos_as_xyz
  1  'x, y, z'
loop_
 _atom_type_symbol
 _atom_type_oxidation_number
  Ca2+  2.0
  Al0+  0.0
  Si0+  0.0
  O2-  -2.0
loop_
 _atom_site_type_symbol
 _atom_site_label
 _atom_site_symmetry_multiplicity
 _atom_site_fract_x
 _atom_site_fract_y
 _atom_site_fract_z
 _atom_site_occupancy
  Ca2+  Ca0  1  0.17320065  0.08495922  0.17057340  1
  Ca2+  Ca1  1  0.16788857  0.07831283  0.50632648  1
  Ca2+  Ca2  1  0.17436480  0.07402404  0.83475588  1
  Ca2+  Ca3  1  0.16079675  0.57982763  0.16751110  1
  Ca2+  Ca4  1  0.17770011  0.57690092  0.51401627  1
  Ca2+  Ca5  1  0.16936945  0.57677840  0.83616246  1
  Ca2+  Ca6  1  0.66813297  0.08169423  0.17462807  1
  Ca2+  Ca7  1  0.66726281  0.08016702  0.51123337  1
  Ca2+  Ca8  1  0.66497767  0.07792469  0.82911324  1
  Ca2+  Ca9  1  0.66029458  0.58267672  0.17352451  1
  Ca2+  Ca10  1  0.66135393  0.57829990  0.50833509  1
  Ca2+  Ca11  1  0.66395661  0.58740517  0.83131328  1
  Ca2+  Ca12  1  0.08872656  0.32890479  0.16196339  1
  Ca2+  Ca13  1  0.08486946  0.32820297  0.49674698  1
  Ca2+  Ca14  1  0.08983774  0.33548423  0.82789373  1
  Ca2+  Ca15  1  0.07139812  0.82640539  0.15983917  1
  Ca2+  Ca16  1  0.07227762  0.83887217  0.49802370  1
  Ca2+  Ca17  1  0.07497042  0.83556614  0.82635305  1
  Ca2+  Ca18  1  0.58021529  0.33430761  0.17011370  1
  Ca2+  Ca19  1  0.57942505  0.33378999  0.49559701  1
  Ca2+  Ca20  1  0.57758941  0.32682739  0.81829650  1
  Ca2+  Ca21  1  0.58316321  0.82061644  0.16356065  1
  Ca2+  Ca22  1  0.57798416  0.82574710  0.49942989  1
  Ca2+  Ca23  1  0.57880080  0.82493441  0.82194961  1
  Ca2+  Ca24  1  0.33145410  0.41665315  0.17034024  1
  Ca2+  Ca25  1  0.33529019  0.41772558  0.50929115  1
  Ca2+  Ca26  1  0.33045641  0.42065877  0.83061644  1
  Ca2+  Ca27  1  0.33821802  0.92112781  0.17171421  1
  Ca2+  Ca28  1  0.32962217  0.91007224  0.50976317  1
  Ca2+  Ca29  1  0.33382282  0.91780776  0.83484192  1
  Ca2+  Ca30  1  0.82439034  0.42361498  0.17622797  1
  Ca2+  Ca31  1  0.81874267  0.42360176  0.51009530  1
  Ca2+  Ca32  1  0.82736854  0.42487591  0.82933967  1
  Ca2+  Ca33  1  0.83703033  0.91236954  0.16996723  1
  Ca2+  Ca34  1  0.82859796  0.91937286  0.51162448  1
  Ca2+  Ca35  1  0.83085544  0.91180408  0.82812472  1
  Ca2+  Ca36  1  0.41868227  0.16960964  0.16635692  1
  Ca2+  Ca37  1  0.42993466  0.17708981  0.49782535  1
  Ca2+  Ca38  1  0.41845393  0.17080575  0.82381226  1
  Ca2+  Ca39  1  0.42734673  0.66755610  0.16729562  1
  Ca2+  Ca40  1  0.42198530  0.67127744  0.49998533  1
  Ca2+  Ca41  1  0.42473502  0.66628301  0.82270322  1
  Ca2+  Ca42  1  0.92463718  0.16814367  0.16665911  1
  Ca2+  Ca43  1  0.92115204  0.16284262  0.49749527  1
  Ca2+  Ca44  1  0.91743827  0.16638178  0.82511662  1
  Ca2+  Ca45  1  0.91738064  0.67792230  0.15788613  1
  Ca2+  Ca46  1  0.90639439  0.67783287  0.50221240  1
  Ca2+  Ca47  1  0.92062164  0.67338274  0.82731479  1
  Al0+  Al48  1  -0.00005447  0.00229028  -0.00242421  1
  Al0+  Al49  1  0.00175089  0.00025899  0.32361863  1
  Al0+  Al50  1  0.00116241  -0.00002666  0.67083557  1
  Al0+  Al51  1  -0.00224533  0.49981110  0.00301395  1
  Al0+  Al52  1  -0.00078520  0.50042844  0.33687108  1
  Al0+  Al53  1  -0.00151298  0.49844878  0.67170083  1
  Al0+  Al54  1  0.50225172  0.00039530  0.00669618  1
  Al0+  Al55  1  0.50042053  0.00235228  0.32973868  1
  Al0+  Al56  1  0.50015940  0.00027394  0.66370970  1
  Al0+  Al57  1  0.49839461  0.49792460  -0.00291457  1
  Al0+  Al58  1  0.49800502  0.49961179  0.32979736  1
  Al0+  Al59  1  0.49814320  0.49900486  0.66866749  1
  Al0+  Al60  1  0.25050032  0.24944828  0.00733260  1
  Al0+  Al61  1  0.25044170  0.24859136  0.32712395  1
  Al0+  Al62  1  0.25033760  0.24804035  0.66548869  1
  Al0+  Al63  1  0.25013124  0.74911957  0.00023600  1
  Al0+  Al64  1  0.24865170  0.75034260  0.32947618  1
  Al0+  Al65  1  0.24812703  0.74811764  0.67414116  1
  Al0+  Al66  1  0.75035465  0.24921700  0.00219377  1
  Al0+  Al67  1  0.75173658  0.25104473  0.33399466  1
  Al0+  Al68  1  0.75324713  0.25020411  0.67102178  1
  Al0+  Al69  1  0.74928985  0.75042989  -0.00644406  1
  Al0+  Al70  1  0.75018682  0.75207735  0.32590579  1
  Al0+  Al71  1  0.75099893  0.75107851  0.66661208  1
  Al0+  Al72  1  0.07163071  0.67600932  0.98415695  1
  Al0+  Al73  1  0.32128557  0.06867616  0.01503490  1
  Al0+  Al74  1  0.07021414  0.18045863  0.31930365  1
  Al0+  Al75  1  0.82233640  0.07131433  0.68082918  1
  Al0+  Al76  1  0.67872699  0.43092338  0.34664358  1
  Al0+  Al77  1  0.93001185  0.81998358  0.32003513  1
  Al0+  Al78  1  0.93180541  0.82110848  0.65174233  1
  Al0+  Al79  1  0.17906728  0.43156301  0.01584654  1
  Al0+  Al80  1  0.67679036  0.42934310  0.68213083  1
  Al0+  Al81  1  0.42544693  0.82249977  0.31836487  1
  Al0+  Al82  1  0.32168956  0.57158392  0.68189811  1
  Al0+  Al83  1  0.17864074  0.92765633  0.67876984  1
  Al0+  Al84  1  0.93008329  0.82286431  0.98079765  1
  Al0+  Al85  1  0.57466782  0.17961668  0.31745636  1
  Al0+  Al86  1  0.56979051  0.67995060  0.31932903  1
  Al0+  Al87  1  0.82019968  0.57331755  0.68220919  1
  Al0+  Al88  1  0.57467366  0.17870030  0.65335869  1
  Al0+  Al89  1  0.17887168  0.42594470  0.67945279  1
  Al0+  Al90  1  0.42909808  0.32093013  0.31616983  1
  Al0+  Al91  1  0.56806424  0.67795889  0.98437050  1
  Al0+  Al92  1  0.42812597  0.32028293  0.65317350  1
  Al0+  Al93  1  0.67674446  0.92905662  0.68037627  1
  Al0+  Al94  1  0.57169098  0.67877362  0.65192212  1
  Al0+  Al95  1  0.42536970  0.82148858  0.65458110  1
  Si0+  Si96  1  0.92881435  0.32417165  0.31729403  1
  Si0+  Si97  1  0.17613520  0.92751829  0.01861350  1
  Si0+  Si98  1  0.92937157  0.32262778  0.65194514  1
  Si0+  Si99  1  0.17805541  0.42702869  0.34809021  1
  Si0+  Si100  1  0.42944789  0.82500639  0.98516312  1
  Si0+  Si101  1  0.67781053  0.42715778  0.01574480  1
  Si0+  Si102  1  0.67914820  0.92931506  0.34674222  1
  Si0+  Si103  1  0.82363127  0.06944084  0.34568155  1
  Si0+  Si104  1  0.57301866  0.17824833  0.98531464  1
  Si0+  Si105  1  0.17963714  0.93042934  0.34631113  1
  Si0+  Si106  1  0.32196016  0.07220979  0.35017475  1
  Si0+  Si107  1  0.82211503  0.07345369  0.01796803  1
  Si0+  Si108  1  0.32442715  0.57218196  0.01942630  1
  Si0+  Si109  1  0.81773557  0.57093375  0.01573871  1
  Si0+  Si110  1  0.07215169  0.18189349  0.98326378  1
  Si0+  Si111  1  0.31849464  0.57107421  0.34695403  1
  Si0+  Si112  1  0.07055652  0.17898195  0.65340112  1
  Si0+  Si113  1  0.07277059  0.67607332  0.31904717  1
  Si0+  Si114  1  0.32172704  0.07060013  0.68003605  1
  Si0+  Si115  1  0.68176036  0.92928870  0.01680308  1
  Si0+  Si116  1  0.42862942  0.31778271  0.98441888  1
  Si0+  Si117  1  0.92719291  0.32004579  0.98540363  1
  Si0+  Si118  1  0.82261454  0.57523387  0.34910405  1
  Si0+  Si119  1  0.07096701  0.67479922  0.65046816  1
  O2-  O120  1  0.24888714  -0.00831259  0.06361194  1
  O2-  O121  1  0.25435979  -0.00324744  0.39044462  1
  O2-  O122  1  0.25894912  -0.00335509  0.72451463  1
  O2-  O123  1  0.25072553  0.50845473  0.06441449  1
  O2-  O124  1  0.24680710  0.49984428  0.38878449  1
  O2-  O125  1  0.24871039  0.49891709  0.73001627  1
  O2-  O126  1  0.75410324  -0.00044936  0.05973262  1
  O2-  O127  1  0.74911436  0.00267485  0.38731901  1
  O2-  O128  1  0.74840834  0.00179052  0.73133619  1
  O2-  O129  1  0.74511178  0.50162880  0.05856198  1
  O2-  O130  1  0.75307704  0.50693288  0.39142766  1
  O2-  O131  1  0.74441290  0.50527508  0.73316496  1
  O2-  O132  1  -0.00057290  0.25848844  0.27098395  1
  O2-  O133  1  0.00086287  0.25109448  0.61098600  1
  O2-  O134  1  0.00038968  0.25185700  0.94130080  1
  O2-  O135  1  0.00049642  0.74090916  0.27502778  1
  O2-  O136  1  0.00450729  0.74464950  0.60415297  1
  O2-  O137  1  0.00562176  0.75305287  0.93358832  1
  O2-  O138  1  0.50233540  0.25013610  0.26534274  1
  O2-  O139  1  0.50632978  0.25440835  0.60426478  1
  O2-  O140  1  0.50150923  0.24826908  0.94353184  1
  O2-  O141  1  0.49975311  0.75342427  0.26802049  1
  O2-  O142  1  0.49849814  0.75105503  0.60426763  1
  O2-  O143  1  0.49094224  0.75101459  0.94058878  1
  O2-  O144  1  0.07040118  0.18221331  0.08865917  1
  O2-  O145  1  0.06861935  0.17854954  0.43236542  1
  O2-  O146  1  0.07097310  0.17961347  0.75866086  1
  O2-  O147  1  0.06494825  0.67576706  0.09863294  1
  O2-  O148  1  0.07670850  0.67720831  0.42394262  1
  O2-  O149  1  0.06833382  0.67468692  0.75582979  1
  O2-  O150  1  0.57481968  0.17995433  0.09034070  1
  O2-  O151  1  0.57495020  0.17914397  0.43012508  1
  O2-  O152  1  0.57006732  0.17850189  0.76789901  1
  O2-  O153  1  0.56871225  0.67866164  0.09774379  1
  O2-  O154  1  0.57004767  0.68021288  0.43183577  1
  O2-  O155  1  0.56932958  0.68129281  0.76577378  1
  O2-  O156  1  0.17699837  0.42848762  0.24278102  1
  O2-  O157  1  0.17897245  0.42565573  0.56529415  1
  O2-  O158  1  0.18188081  0.42817054  0.90366338  1
  O2-  O159  1  0.17874854  0.93353168  0.24119205  1
  O2-  O160  1  0.17535371  0.93293686  0.56514018  1
  O2-  O161  1  0.17494337  0.93204170  0.91333133  1
  O2-  O162  1  0.68195912  0.43210645  0.23248506  1
  O2-  O163  1  0.68032249  0.42823000  0.56844543  1
  O2-  O164  1  0.68017871  0.42312253  0.91157018  1
  O2-  O165  1  0.68211027  0.92900975  0.24100794  1
  O2-  O166  1  0.67910472  0.92961209  0.56626994  1
  O2-  O167  1  0.67927090  0.93173367  0.91245227  1
  O2-  O168  1  0.42972238  0.31819059  0.08960561  1
  O2-  O169  1  0.42680041  0.31963171  0.42890354  1
  O2-  O170  1  0.42470906  0.31459796  0.76734961  1
  O2-  O171  1  0.43446699  0.82682451  0.09081127  1
  O2-  O172  1  0.42206270  0.81922516  0.43108524  1
  O2-  O173  1  0.42705007  0.82198404  0.76855325  1
  O2-  O174  1  0.92655063  0.31654068  0.09078227  1
  O2-  O175  1  0.93030245  0.32321033  0.42245813  1
  O2-  O176  1  0.92977556  0.32183167  0.75736994  1
  O2-  O177  1  0.92994242  0.82121036  0.09515919  1
  O2-  O178  1  0.93079750  0.82364486  0.43253799  1
  O2-  O179  1  0.93482997  0.82237938  0.76418228  1
  O2-  O180  1  0.31911496  0.07265116  0.24465038  1
  O2-  O181  1  0.31696952  0.07412888  0.57462982  1
  O2-  O182  1  0.31967334  0.06922124  0.90198874  1
  O2-  O183  1  0.31623103  0.57041820  0.24153823  1
  O2-  O184  1  0.31909293  0.57206884  0.56758040  1
  O2-  O185  1  0.32770679  0.56758586  0.91479086  1
  O2-  O186  1  0.82452836  0.06772719  0.24000335  1
  O2-  O187  1  0.82661528  0.06865573  0.56671322  1
  O2-  O188  1  0.82098603  0.07912640  0.91400189  1
  O2-  O189  1  0.82499219  0.57274096  0.24297379  1
  O2-  O190  1  0.82243224  0.56932906  0.56834128  1
  O2-  O191  1  0.81843356  0.56881241  0.91140608  1
  O2-  O192  1  0.03671798  0.08754237  0.25946915  1
  O2-  O193  1  0.04042622  0.08872863  0.60492232  1
  O2-  O194  1  0.04528028  0.08976303  0.93694369  1
  O2-  O195  1  0.04995190  0.58070557  0.27418095  1
  O2-  O196  1  0.04486187  0.58093835  0.60486106  1
  O2-  O197  1  0.03844450  0.57826670  0.93321495  1
  O2-  O198  1  0.54610953  0.08172085  0.26305289  1
  O2-  O199  1  0.54396154  0.08228073  0.59874213  1
  O2-  O200  1  0.54568003  0.08511932  0.94138212  1
  O2-  O201  1  0.53811804  0.58351015  0.26404321  1
  O2-  O202  1  0.54309439  0.57967882  0.60206236  1
  O2-  O203  1  0.54038054  0.57969781  0.93250330  1
  O2-  O204  1  0.16554024  0.20929564  0.26222217  1
  O2-  O205  1  0.16146507  0.20498872  0.60375155  1
  O2-  O206  1  0.16420919  0.21119157  0.93838466  1
  O2-  O207  1  0.16302344  0.70451948  0.26787384  1
  O2-  O208  1  0.16570956  0.69913896  0.60765133  1
  O2-  O209  1  0.17447011  0.69519324  0.93709886  1
  O2-  O210  1  0.67399314  0.20699960  0.26417241  1
  O2-  O211  1  0.67600100  0.20128891  0.60474163  1
  O2-  O212  1  0.66515889  0.20625910  0.93918775  1
  O2-  O213  1  0.66759351  0.70765176  0.26320219  1
  O2-  O214  1  0.67033064  0.70586344  0.59985584  1
  O2-  O215  1  0.66404091  0.71009152  0.93201895  1
  O2-  O216  1  0.08021441  0.45738920  0.07047014  1
  O2-  O217  1  0.08454375  0.45000391  0.39506054  1
  O2-  O218  1  0.08046283  0.45116654  0.73323759  1
  O2-  O219  1  0.08381238  0.95978533  0.06470726  1
  O2-  O220  1  0.08861592  0.96439964  0.39203663  1
  O2-  O221  1  0.08790456  0.96763642  0.73730521  1
  O2-  O222  1  0.58430612  0.45263115  0.06115300  1
  O2-  O223  1  0.58034306  0.45915734  0.39714729  1
  O2-  O224  1  0.57771367  0.45085957  0.73514035  1
  O2-  O225  1  0.59172129  0.95847532  0.06735316  1
  O2-  O226  1  0.58632405  0.95534874  0.39207959  1
  O2-  O227  1  0.57878457  0.95797029  0.73500976  1
  O2-  O228  1  0.21227212  0.33560283  0.07110875  1
  O2-  O229  1  0.20652646  0.33414122  0.39221574  1
  O2-  O230  1  0.20724642  0.32747336  0.73315514  1
  O2-  O231  1  0.19504232  0.83109022  0.06209637  1
  O2-  O232  1  0.20126552  0.83639168  0.39178377  1
  O2-  O233  1  0.20053491  0.83130083  0.73592594  1
  O2-  O234  1  0.70993906  0.33689199  0.06510074  1
  O2-  O235  1  0.71199027  0.33445110  0.39934258  1
  O2-  O236  1  0.71193208  0.33336218  0.73643234  1
  O2-  O237  1  0.71049348  0.83677714  0.06307518  1
  O2-  O238  1  0.70939602  0.83776964  0.39229259  1
  O2-  O239  1  0.70804338  0.83261869  0.73448120  1
  O2-  O240  1  0.45614097  0.41863024  0.26100040  1
  O2-  O241  1  0.45032576  0.41991162  0.60216873  1
  O2-  O242  1  0.45430472  0.40981744  0.93773875  1
  O2-  O243  1  0.45128879  0.92226343  0.26766205  1
  O2-  O244  1  0.45006658  0.92034747  0.60115339  1
  O2-  O245  1  0.46069298  0.91725852  0.93966576  1
  O2-  O246  1  0.95130576  0.41914389  0.27152613  1
  O2-  O247  1  0.95714887  0.41329639  0.60282392  1
  O2-  O248  1  0.95144026  0.41314120  0.94093142  1
  O2-  O249  1  0.96504951  0.91314865  0.26149352  1
  O2-  O250  1  0.96655694  0.91769187  0.59931136  1
  O2-  O251  1  0.95487690  0.92394541  0.93175197  1
  O2-  O252  1  0.33207470  0.28978655  0.26107667  1
  O2-  O253  1  0.33178019  0.28676410  0.59817097  1
  O2-  O254  1  0.33697476  0.28624067  0.94013983  1
  O2-  O255  1  0.32804264  0.79357801  0.26220894  1
  O2-  O256  1  0.32550254  0.79313202  0.60399853  1
  O2-  O257  1  0.33151170  0.80870916  0.94572895  1
  O2-  O258  1  0.83722446  0.29586459  0.26891294  1
  O2-  O259  1  0.83896799  0.29348508  0.60354098  1
  O2-  O260  1  0.83663527  0.28872107  0.93783151  1
  O2-  O261  1  0.83456139  0.79296415  0.26183016  1
  O2-  O262  1  0.83461964  0.79278924  0.59836735  1
  O2-  O263  1  0.83218871  0.79233561  0.93015927  1
  O2-  O264  1  0.41855748  0.04161378  0.07131304  1
  O2-  O265  1  0.41612370  0.05067058  0.39464378  1
  O2-  O266  1  0.41612625  0.05128856  0.72592488  1
  O2-  O267  1  0.41552382  0.53818837  0.06741924  1
  O2-  O268  1  0.40995785  0.54247725  0.39283092  1
  O2-  O269  1  0.41763307  0.54146330  0.73755077  1
  O2-  O270  1  0.91592529  0.04824681  0.06391411  1
  O2-  O271  1  0.91535531  0.03830654  0.39107938  1
  O2-  O272  1  0.91894466  0.04115754  0.73682667  1
  O2-  O273  1  0.90782019  0.54079753  0.06576404  1
  O2-  O274  1  0.91625747  0.55082034  0.39622390  1
  O2-  O275  1  0.91551833  0.53781438  0.73759174  1
  O2-  O276  1  0.28615127  0.16285347  0.07183591  1
  O2-  O277  1  0.28729011  0.16241533  0.39579908  1
  O2-  O278  1  0.28832585  0.16016826  0.72988995  1
  O2-  O279  1  0.30580875  0.66881694  0.06303062  1
  O2-  O280  1  0.29008249  0.66316590  0.39326160  1
  O2-  O281  1  0.29345129  0.66749229  0.73948511  1
  O2-  O282  1  0.79168233  0.16366107  0.06870415  1
  O2-  O283  1  0.80316183  0.16373142  0.39078320  1
  O2-  O284  1  0.80005755  0.16993166  0.73615045  1
  O2-  O285  1  0.79061042  0.66412236  0.06143104  1
  O2-  O286  1  0.79727989  0.67011430  0.39169907  1
  O2-  O287  1  0.79814115  0.67246425  0.73483611  1
