# generated using pymatgen
data_Ca2Al2SiO7
_symmetry_space_group_name_H-M   'P 1'
_cell_length_a   15.46696008
_cell_length_b   15.46464299
_cell_length_c   15.28888839
_cell_angle_alpha   89.99875618
_cell_angle_beta   89.98934223
_cell_angle_gamma   90.01627274
_symmetry_Int_Tables_number   1
_chemical_formula_structural   Ca2Al2SiO7
_chemical_formula_sum   'Ca48 Al48 Si24 O168'
_cell_volume   3656.96453000
_cell_formula_units_Z   24
loop_
 _symmetry_equiv_pos_site_id
 _symmetry_equiv_pos_as_xyz
  1  'x, y, z'
loop_
 _atom_type_symbol
 _atom_type_oxidation_number
  Ca2+  2.0
  Al0+  0.0
  Si0+  0.0
  O2-  -2.0
loop_
 _atom_site_type_symbol
 _atom_site_label
 _atom_site_symmetry_multiplicity
 _atom_site_fract_x
 _atom_site_fract_y
 _atom_site_fract_z
 _atom_site_occupancy
  Ca2+  Ca0  1  0.17353878  0.08343424  0.17165939  1
  Ca2+  Ca1  1  0.16621770  0.07122800  0.50843801  1
  Ca2+  Ca2  1  0.17283194  0.07952347  0.83431895  1
  Ca2+  Ca3  1  0.16219614  0.57800968  0.16913980  1
  Ca2+  Ca4  1  0.16663360  0.58045885  0.50709096  1
  Ca2+  Ca5  1  0.16731595  0.59189135  0.83561205  1
  Ca2+  Ca6  1  0.67536275  0.08563516  0.16838115  1
  Ca2+  Ca7  1  0.67786053  0.07640604  0.50133073  1
  Ca2+  Ca8  1  0.67545307  0.08610995  0.83825107  1
  Ca2+  Ca9  1  0.67329321  0.57666925  0.16453754  1
  Ca2+  Ca10  1  0.67366845  0.57689893  0.51362103  1
  Ca2+  Ca11  1  0.67738652  0.57665700  0.83519560  1
  Ca2+  Ca12  1  0.07399287  0.33533392  0.16363320  1
  Ca2+  Ca13  1  0.07089666  0.33546829  0.49425958  1
  Ca2+  Ca14  1  0.06744631  0.33175002  0.82823604  1
  Ca2+  Ca15  1  0.08107740  0.83139088  0.16496846  1
  Ca2+  Ca16  1  0.07730265  0.83630892  0.49965675  1
  Ca2+  Ca17  1  0.07970905  0.82407669  0.82384596  1
  Ca2+  Ca18  1  0.57815615  0.32704418  0.15229803  1
  Ca2+  Ca19  1  0.58460154  0.33410841  0.49946160  1
  Ca2+  Ca20  1  0.58636234  0.33455742  0.83311951  1
  Ca2+  Ca21  1  0.58529749  0.83753240  0.16478468  1
  Ca2+  Ca22  1  0.58969373  0.82685176  0.49655362  1
  Ca2+  Ca23  1  0.58199027  0.82535850  0.82413642  1
  Ca2+  Ca24  1  0.32679902  0.41345252  0.17015738  1
  Ca2+  Ca25  1  0.32299517  0.42034285  0.50606539  1
  Ca2+  Ca26  1  0.33353405  0.41994472  0.83592412  1
  Ca2+  Ca27  1  0.32750862  0.92300865  0.17102658  1
  Ca2+  Ca28  1  0.31925643  0.91848296  0.50932503  1
  Ca2+  Ca29  1  0.32855318  0.92403971  0.83441981  1
  Ca2+  Ca30  1  0.83784063  0.41721713  0.16511323  1
  Ca2+  Ca31  1  0.83243451  0.42038647  0.51109010  1
  Ca2+  Ca32  1  0.82995130  0.42131938  0.83844765  1
  Ca2+  Ca33  1  0.83251212  0.92939701  0.17737358  1
  Ca2+  Ca34  1  0.84247434  0.92439958  0.50486998  1
  Ca2+  Ca35  1  0.84184430  0.92688688  0.83497785  1
  Ca2+  Ca36  1  0.42341241  0.17005062  0.15143531  1
  Ca2+  Ca37  1  0.41722965  0.16164469  0.49875312  1
  Ca2+  Ca38  1  0.41819379  0.16547126  0.83231839  1
  Ca2+  Ca39  1  0.41943125  0.66980899  0.16175243  1
  Ca2+  Ca40  1  0.42185646  0.65979103  0.50362324  1
  Ca2+  Ca41  1  0.42325210  0.66280088  0.82278462  1
  Ca2+  Ca42  1  0.90820356  0.17464621  0.16234227  1
  Ca2+  Ca43  1  0.90514402  0.17612711  0.49726411  1
  Ca2+  Ca44  1  0.90166158  0.17645894  0.83019808  1
  Ca2+  Ca45  1  0.92075306  0.67298893  0.15898492  1
  Ca2+  Ca46  1  0.91521410  0.67807465  0.50053212  1
  Ca2+  Ca47  1  0.92284692  0.66574377  0.82363029  1
  Al0+  Al48  1  0.00044151  -0.00042969  0.00621385  1
  Al0+  Al49  1  0.00244401  0.00266374  0.33612583  1
  Al0+  Al50  1  0.00117512  0.00086430  0.67481992  1
  Al0+  Al51  1  0.00108238  0.50094755  -0.00401594  1
  Al0+  Al52  1  0.00074341  0.49997573  0.33356888  1
  Al0+  Al53  1  -0.00064617  0.49894878  0.66120922  1
  Al0+  Al54  1  0.49823547  0.00034950  -0.00128729  1
  Al0+  Al55  1  0.50277045  -0.00110705  0.33492365  1
  Al0+  Al56  1  0.49978483  0.00022607  0.66716631  1
  Al0+  Al57  1  0.49919731  0.50055163  0.00166841  1
  Al0+  Al58  1  0.50128005  0.50030056  0.33020791  1
  Al0+  Al59  1  0.49752721  0.49810504  0.66763982  1
  Al0+  Al60  1  0.24983462  0.25028637  -0.00002864  1
  Al0+  Al61  1  0.24950873  0.25312354  0.33839015  1
  Al0+  Al62  1  0.25010167  0.25009689  0.66860703  1
  Al0+  Al63  1  0.25019704  0.74994859  -0.00126178  1
  Al0+  Al64  1  0.25377970  0.75065817  0.33564817  1
  Al0+  Al65  1  0.25039304  0.74884082  0.67019333  1
  Al0+  Al66  1  0.74717502  0.24919116  0.00036403  1
  Al0+  Al67  1  0.74783158  0.25107441  0.33132230  1
  Al0+  Al68  1  0.74606432  0.24785846  0.66701785  1
  Al0+  Al69  1  0.75005305  0.74963991  0.00273854  1
  Al0+  Al70  1  0.75077474  0.74896389  0.32848718  1
  Al0+  Al71  1  0.74995164  0.74879827  0.66140675  1
  Al0+  Al72  1  0.82265246  0.57179673  0.67982673  1
  Al0+  Al73  1  0.57014695  0.67761614  0.65315107  1
  Al0+  Al74  1  0.07308701  0.67810291  0.64988060  1
  Al0+  Al75  1  0.92819862  0.32120270  0.31855337  1
  Al0+  Al76  1  0.17830403  0.43043411  0.34719721  1
  Al0+  Al77  1  0.82444811  0.57165268  0.01610587  1
  Al0+  Al78  1  0.92686400  0.31812907  0.65297636  1
  Al0+  Al79  1  0.31998700  0.07116937  0.01444748  1
  Al0+  Al80  1  0.81987334  0.06948165  0.68084875  1
  Al0+  Al81  1  0.92944231  0.31884797  0.98636343  1
  Al0+  Al82  1  0.07032971  0.68050987  0.98735645  1
  Al0+  Al83  1  0.56983097  0.17817408  0.98264783  1
  Al0+  Al84  1  0.67777828  0.42745825  0.68098043  1
  Al0+  Al85  1  0.42655699  0.32264961  0.98348552  1
  Al0+  Al86  1  0.17784903  0.92794233  0.68458230  1
  Al0+  Al87  1  0.92949909  0.82333154  0.65305171  1
  Al0+  Al88  1  0.67931421  0.92676320  0.34840252  1
  Al0+  Al89  1  0.18013689  0.92881518  0.34689584  1
  Al0+  Al90  1  0.82098485  0.07286821  0.34907192  1
  Al0+  Al91  1  0.32284954  0.07236180  0.68212461  1
  Al0+  Al92  1  0.82049009  0.07038394  0.01468192  1
  Al0+  Al93  1  0.67895637  0.42995357  0.01633406  1
  Al0+  Al94  1  0.93004868  0.82336288  0.31842281  1
  Al0+  Al95  1  0.31852053  0.56905278  0.67995129  1
  Si0+  Si96  1  0.56970359  0.17711310  0.64835105  1
  Si0+  Si97  1  0.56861346  0.17874225  0.31819664  1
  Si0+  Si98  1  0.32468057  0.57152509  0.34921631  1
  Si0+  Si99  1  0.57176554  0.67710882  0.31542930  1
  Si0+  Si100  1  0.07280740  0.17552569  0.98452584  1
  Si0+  Si101  1  0.32100068  0.57232031  0.01586170  1
  Si0+  Si102  1  0.57112706  0.67920819  0.98538759  1
  Si0+  Si103  1  0.07415528  0.67959334  0.31728916  1
  Si0+  Si104  1  0.17617740  0.42748978  0.68461980  1
  Si0+  Si105  1  0.92698110  0.82339473  0.98516817  1
  Si0+  Si106  1  0.43023770  0.82078813  0.31808001  1
  Si0+  Si107  1  0.82157566  0.57061582  0.34752809  1
  Si0+  Si108  1  0.67786373  0.43068440  0.34727571  1
  Si0+  Si109  1  0.07381967  0.17941718  0.65107572  1
  Si0+  Si110  1  0.67644267  0.92649562  0.01448490  1
  Si0+  Si111  1  0.42858186  0.32170067  0.31937910  1
  Si0+  Si112  1  0.42925359  0.82257793  0.64928654  1
  Si0+  Si113  1  0.07481325  0.17987450  0.31765895  1
  Si0+  Si114  1  0.18015135  0.92626152  0.01876643  1
  Si0+  Si115  1  0.32304551  0.07271099  0.34854853  1
  Si0+  Si116  1  0.67767152  0.92623095  0.68213047  1
  Si0+  Si117  1  0.42743368  0.32037448  0.64932183  1
  Si0+  Si118  1  0.17884232  0.42930810  0.01360433  1
  Si0+  Si119  1  0.42891141  0.82044191  0.98494795  1
  O2-  O120  1  0.24467013  -0.00116545  0.06331710  1
  O2-  O121  1  0.25339823  0.00581523  0.39246928  1
  O2-  O122  1  0.25084268  0.00078003  0.73177176  1
  O2-  O123  1  0.25105911  0.49997768  0.05661494  1
  O2-  O124  1  0.25306001  0.50589031  0.39212946  1
  O2-  O125  1  0.24072439  0.49970351  0.72954424  1
  O2-  O126  1  0.74664807  -0.00666756  0.05872840  1
  O2-  O127  1  0.75522505  -0.00578020  0.39823588  1
  O2-  O128  1  0.74870051  -0.00897745  0.72738146  1
  O2-  O129  1  0.75405227  0.49824681  0.06769291  1
  O2-  O130  1  0.75082731  0.49889260  0.38924076  1
  O2-  O131  1  0.75215163  0.49782885  0.72880681  1
  O2-  O132  1  0.00277848  0.24510503  0.27327576  1
  O2-  O133  1  0.00268394  0.24461195  0.60541987  1
  O2-  O134  1  0.00059478  0.24015673  0.94013012  1
  O2-  O135  1  0.00658489  0.74913910  0.27273441  1
  O2-  O136  1  0.00098936  0.75082935  0.60155081  1
  O2-  O137  1  -0.00650006  0.75273171  0.94180040  1
  O2-  O138  1  0.49477844  0.24726554  0.27679506  1
  O2-  O139  1  0.49709686  0.24779191  0.60673426  1
  O2-  O140  1  0.49870330  0.25154256  0.93280688  1
  O2-  O141  1  0.50237410  0.75099582  0.27459267  1
  O2-  O142  1  0.49800179  0.75432432  0.60401142  1
  O2-  O143  1  0.50219819  0.75209356  0.94331942  1
  O2-  O144  1  0.07544913  0.17799201  0.09038262  1
  O2-  O145  1  0.07948251  0.18302665  0.42277609  1
  O2-  O146  1  0.07699439  0.18386043  0.75660435  1
  O2-  O147  1  0.07332415  0.68254491  0.10106489  1
  O2-  O148  1  0.07476484  0.67881472  0.42217883  1
  O2-  O149  1  0.07259163  0.68012659  0.76361169  1
  O2-  O150  1  0.56686692  0.17828416  0.09716224  1
  O2-  O151  1  0.56782673  0.17950094  0.42344978  1
  O2-  O152  1  0.57006167  0.17571686  0.75282164  1
  O2-  O153  1  0.56825542  0.68007038  0.09105244  1
  O2-  O154  1  0.56913357  0.67265449  0.42007111  1
  O2-  O155  1  0.56742698  0.67977725  0.76647474  1
  O2-  O156  1  0.18056265  0.43118720  0.23361834  1
  O2-  O157  1  0.18036106  0.42640773  0.57873220  1
  O2-  O158  1  0.17929600  0.43012358  0.90889583  1
  O2-  O159  1  0.18503038  0.92766218  0.23360634  1
  O2-  O160  1  0.17988245  0.92973456  0.57054411  1
  O2-  O161  1  0.18313832  0.92403560  0.91389803  1
  O2-  O162  1  0.67361758  0.43288005  0.24272579  1
  O2-  O163  1  0.67781634  0.42873383  0.56614472  1
  O2-  O164  1  0.67751245  0.43420505  0.90346803  1
  O2-  O165  1  0.67579880  0.93091854  0.23477771  1
  O2-  O166  1  0.67492535  0.92964274  0.57672338  1
  O2-  O167  1  0.67540570  0.92388922  0.90911730  1
  O2-  O168  1  0.42619565  0.32107514  0.09817309  1
  O2-  O169  1  0.43086819  0.32382050  0.42440776  1
  O2-  O170  1  0.42664543  0.32166227  0.75381797  1
  O2-  O171  1  0.42777031  0.81832142  0.09066172  1
  O2-  O172  1  0.42908400  0.81978017  0.42257828  1
  O2-  O173  1  0.43216198  0.82278189  0.75524366  1
  O2-  O174  1  0.93347974  0.31939564  0.09982864  1
  O2-  O175  1  0.92748232  0.32152868  0.43146024  1
  O2-  O176  1  0.92719746  0.31709256  0.76605961  1
  O2-  O177  1  0.92941102  0.82336522  0.09106711  1
  O2-  O178  1  0.92994913  0.82107404  0.43090064  1
  O2-  O179  1  0.93041905  0.82295804  0.76679603  1
  O2-  O180  1  0.32315210  0.07196600  0.24280494  1
  O2-  O181  1  0.32217938  0.07032026  0.56781849  1
  O2-  O182  1  0.31936599  0.06801950  0.90216014  1
  O2-  O183  1  0.32731988  0.57088810  0.24332281  1
  O2-  O184  1  0.32113719  0.56424321  0.56657666  1
  O2-  O185  1  0.32142363  0.57455576  0.91123383  1
  O2-  O186  1  0.81614315  0.07463953  0.23543195  1
  O2-  O187  1  0.81673784  0.07170490  0.56790224  1
  O2-  O188  1  0.81935671  0.06873579  0.90172839  1
  O2-  O189  1  0.82058799  0.57002374  0.24241098  1
  O2-  O190  1  0.81941309  0.57107577  0.56538806  1
  O2-  O191  1  0.82255840  0.57333406  0.90320208  1
  O2-  O192  1  0.05510265  0.08493163  0.27236769  1
  O2-  O193  1  0.05061603  0.08376548  0.60986127  1
  O2-  O194  1  0.05219792  0.07936866  0.94204320  1
  O2-  O195  1  0.04620736  0.58635338  0.27115999  1
  O2-  O196  1  0.04725459  0.57912233  0.59684305  1
  O2-  O197  1  0.04578200  0.58351981  0.93235565  1
  O2-  O198  1  0.54388813  0.08599624  0.27092233  1
  O2-  O199  1  0.54125429  0.08558209  0.59958108  1
  O2-  O200  1  0.54042373  0.07956815  0.93033623  1
  O2-  O201  1  0.53902131  0.58757852  0.26498947  1
  O2-  O202  1  0.53416633  0.58231593  0.59826519  1
  O2-  O203  1  0.53918402  0.58917048  0.93892676  1
  O2-  O204  1  0.16767530  0.21010953  0.26984406  1
  O2-  O205  1  0.16670932  0.20594197  0.60285123  1
  O2-  O206  1  0.16465354  0.20467855  0.93745214  1
  O2-  O207  1  0.16975641  0.70302344  0.27245509  1
  O2-  O208  1  0.17360466  0.70413958  0.59919003  1
  O2-  O209  1  0.16728032  0.71211801  0.93360853  1
  O2-  O210  1  0.65837061  0.21036426  0.26973708  1
  O2-  O211  1  0.65919236  0.20757930  0.59832761  1
  O2-  O212  1  0.66787426  0.20608735  0.93041165  1
  O2-  O213  1  0.66314502  0.70187565  0.26622424  1
  O2-  O214  1  0.66548509  0.70601506  0.59579951  1
  O2-  O215  1  0.66379636  0.70488354  0.93929477  1
  O2-  O216  1  0.08895249  0.46005136  0.06263696  1
  O2-  O217  1  0.08245748  0.46077636  0.40219290  1
  O2-  O218  1  0.08088904  0.44845860  0.72713874  1
  O2-  O219  1  0.08550956  0.94777770  0.06402269  1
  O2-  O220  1  0.08462273  0.95864891  0.40186161  1
  O2-  O221  1  0.08242541  0.95743103  0.74150974  1
  O2-  O222  1  0.58081657  0.46242433  0.07040852  1
  O2-  O223  1  0.58659315  0.46082956  0.39546423  1
  O2-  O224  1  0.57970198  0.45645747  0.73228958  1
  O2-  O225  1  0.58273405  0.95259637  0.06067914  1
  O2-  O226  1  0.58174057  0.95708688  0.40302366  1
  O2-  O227  1  0.58475605  0.95387704  0.72856181  1
  O2-  O228  1  0.20581916  0.33815227  0.06290285  1
  O2-  O229  1  0.21019013  0.33580513  0.40457001  1
  O2-  O230  1  0.20663509  0.33598597  0.73109602  1
  O2-  O231  1  0.21267656  0.83498329  0.06658653  1
  O2-  O232  1  0.21470353  0.83343555  0.40097266  1
  O2-  O233  1  0.20876024  0.83054590  0.73686021  1
  O2-  O234  1  0.70269575  0.33016078  0.06768645  1
  O2-  O235  1  0.70143525  0.33753612  0.39296486  1
  O2-  O236  1  0.70225054  0.32851120  0.73240392  1
  O2-  O237  1  0.69833787  0.83274624  0.06253834  1
  O2-  O238  1  0.70038545  0.82439996  0.39554637  1
  O2-  O239  1  0.69792871  0.83073976  0.72532961  1
  O2-  O240  1  0.45875244  0.41227719  0.27027575  1
  O2-  O241  1  0.45696011  0.41061067  0.59973986  1
  O2-  O242  1  0.45317684  0.42304021  0.93376898  1
  O2-  O243  1  0.45776416  0.91295643  0.26999572  1
  O2-  O244  1  0.45344998  0.91639349  0.60274350  1
  O2-  O245  1  0.45381930  0.91221010  0.93738798  1
  O2-  O246  1  0.96234975  0.41757052  0.26500077  1
  O2-  O247  1  0.95692039  0.41414479  0.59754290  1
  O2-  O248  1  0.96340141  0.41419702  0.93260042  1
  O2-  O249  1  0.96043779  0.92149051  0.26642404  1
  O2-  O250  1  0.96041557  0.92281466  0.60246633  1
  O2-  O251  1  0.95485087  0.91713445  0.94070016  1
  O2-  O252  1  0.33451871  0.29873358  0.27411963  1
  O2-  O253  1  0.33521255  0.29323383  0.60115662  1
  O2-  O254  1  0.32780648  0.29511482  0.93141731  1
  O2-  O255  1  0.34004008  0.79093484  0.26743710  1
  O2-  O256  1  0.33603676  0.79453950  0.60489267  1
  O2-  O257  1  0.33889660  0.78954200  0.93700400  1
  O2-  O258  1  0.83042707  0.29223609  0.26511546  1
  O2-  O259  1  0.82998343  0.28600976  0.59933353  1
  O2-  O260  1  0.83174320  0.29025062  0.93519315  1
  O2-  O261  1  0.83372031  0.79153922  0.26335879  1
  O2-  O262  1  0.83087388  0.79740345  0.59846550  1
  O2-  O263  1  0.83159883  0.80192128  0.94159532  1
  O2-  O264  1  0.41601468  0.03775636  0.06881288  1
  O2-  O265  1  0.41629702  0.04563910  0.39369264  1
  O2-  O266  1  0.42110992  0.04318433  0.73472889  1
  O2-  O267  1  0.41215345  0.54638376  0.06547841  1
  O2-  O268  1  0.41713745  0.54132294  0.39544159  1
  O2-  O269  1  0.41294931  0.53429732  0.73531400  1
  O2-  O270  1  0.91808943  0.04382761  0.07004076  1
  O2-  O271  1  0.92233951  0.05358602  0.39842452  1
  O2-  O272  1  0.91682144  0.04614386  0.73669894  1
  O2-  O273  1  0.92362021  0.54366665  0.06836904  1
  O2-  O274  1  0.91336557  0.54418011  0.39408372  1
  O2-  O275  1  0.92191182  0.54419848  0.73016144  1
  O2-  O276  1  0.29116734  0.16862551  0.06866348  1
  O2-  O277  1  0.30110030  0.16736299  0.39377000  1
  O2-  O278  1  0.29574784  0.17122978  0.73411714  1
  O2-  O279  1  0.29196082  0.66355653  0.06494636  1
  O2-  O280  1  0.30446628  0.66613700  0.39436191  1
  O2-  O281  1  0.29682655  0.66692651  0.73496898  1
  O2-  O282  1  0.78638262  0.16556022  0.06886295  1
  O2-  O283  1  0.78332204  0.16944126  0.40106823  1
  O2-  O284  1  0.78143600  0.16327011  0.73435538  1
  O2-  O285  1  0.79285984  0.66965880  0.07012693  1
  O2-  O286  1  0.79186151  0.66222480  0.39287055  1
  O2-  O287  1  0.79234196  0.67010148  0.73128965  1
