# generated using pymatgen
data_Ca2Al2SiO7
_symmetry_space_group_name_H-M   'P 1'
_cell_length_a   15.45069848
_cell_length_b   15.45136568
_cell_length_c   15.27867463
_cell_angle_alpha   90.00064103
_cell_angle_beta   90.00274255
_cell_angle_gamma   90.00532333
_symmetry_Int_Tables_number   1
_chemical_formula_structural   Ca2Al2SiO7
_chemical_formula_sum   'Ca48 Al48 Si24 O168'
_cell_volume   3647.54508241
_cell_formula_units_Z   24
loop_
 _symmetry_equiv_pos_site_id
 _symmetry_equiv_pos_as_xyz
  1  'x, y, z'
loop_
 _atom_type_symbol
 _atom_type_oxidation_number
  Ca2+  2.0
  Al0+  0.0
  Si0+  0.0
  O2-  -2.0
loop_
 _atom_site_type_symbol
 _atom_site_label
 _atom_site_symmetry_multiplicity
 _atom_site_fract_x
 _atom_site_fract_y
 _atom_site_fract_z
 _atom_site_occupancy
  Ca2+  Ca0  1  0.16743086  0.08140114  0.16896847  1
  Ca2+  Ca1  1  0.17228243  0.07233258  0.50689829  1
  Ca2+  Ca2  1  0.17161035  0.08195039  0.83825928  1
  Ca2+  Ca3  1  0.17646968  0.58541197  0.17517669  1
  Ca2+  Ca4  1  0.16751135  0.57881492  0.49979459  1
  Ca2+  Ca5  1  0.16795804  0.57762672  0.84104442  1
  Ca2+  Ca6  1  0.67101940  0.07105907  0.16887738  1
  Ca2+  Ca7  1  0.66356082  0.07883715  0.50458653  1
  Ca2+  Ca8  1  0.67157154  0.07967679  0.84247354  1
  Ca2+  Ca9  1  0.67180591  0.59526937  0.16815056  1
  Ca2+  Ca10  1  0.66467641  0.57735333  0.50343281  1
  Ca2+  Ca11  1  0.67245258  0.57925632  0.84157441  1
  Ca2+  Ca12  1  0.08888531  0.32728126  0.16018772  1
  Ca2+  Ca13  1  0.08560231  0.33958568  0.49888805  1
  Ca2+  Ca14  1  0.08043850  0.32875908  0.82884306  1
  Ca2+  Ca15  1  0.08687478  0.82520827  0.16440473  1
  Ca2+  Ca16  1  0.07665891  0.83700349  0.49073622  1
  Ca2+  Ca17  1  0.08133086  0.82853431  0.82730067  1
  Ca2+  Ca18  1  0.56598669  0.33644730  0.16074582  1
  Ca2+  Ca19  1  0.57980881  0.32749724  0.49571138  1
  Ca2+  Ca20  1  0.57746479  0.32929659  0.82617304  1
  Ca2+  Ca21  1  0.59002773  0.82694595  0.16299776  1
  Ca2+  Ca22  1  0.58092320  0.82657517  0.48926636  1
  Ca2+  Ca23  1  0.58746375  0.83058445  0.83474337  1
  Ca2+  Ca24  1  0.33265581  0.42319996  0.17382823  1
  Ca2+  Ca25  1  0.32570123  0.41776780  0.49814749  1
  Ca2+  Ca26  1  0.32915805  0.41792257  0.83917914  1
  Ca2+  Ca27  1  0.32838471  0.92384804  0.17156644  1
  Ca2+  Ca28  1  0.31833987  0.91533830  0.50770351  1
  Ca2+  Ca29  1  0.33058644  0.92903435  0.83591429  1
  Ca2+  Ca30  1  0.83410534  0.42572792  0.16713774  1
  Ca2+  Ca31  1  0.82891786  0.41848326  0.51100824  1
  Ca2+  Ca32  1  0.82819368  0.41582556  0.83628029  1
  Ca2+  Ca33  1  0.82678298  0.91344079  0.16863069  1
  Ca2+  Ca34  1  0.83283796  0.90999954  0.50013209  1
  Ca2+  Ca35  1  0.82958537  0.91954956  0.84126617  1
  Ca2+  Ca36  1  0.40634033  0.18017516  0.15968081  1
  Ca2+  Ca37  1  0.41674251  0.16825804  0.49923142  1
  Ca2+  Ca38  1  0.41723381  0.16565975  0.82957533  1
  Ca2+  Ca39  1  0.42516337  0.65885965  0.15986854  1
  Ca2+  Ca40  1  0.42201632  0.66226748  0.49132081  1
  Ca2+  Ca41  1  0.42036609  0.66287977  0.83736968  1
  Ca2+  Ca42  1  0.92310845  0.16474212  0.15922259  1
  Ca2+  Ca43  1  0.91623423  0.17587816  0.49948749  1
  Ca2+  Ca44  1  0.92087611  0.16612901  0.82903857  1
  Ca2+  Ca45  1  0.92874406  0.66855271  0.16157112  1
  Ca2+  Ca46  1  0.92497332  0.67883162  0.49172031  1
  Ca2+  Ca47  1  0.91905213  0.66956392  0.83086516  1
  Al0+  Al48  1  -0.00047474  0.00006157  -0.00154696  1
  Al0+  Al49  1  -0.00173023  0.00306124  0.33368667  1
  Al0+  Al50  1  -0.00054755  -0.00084857  0.66537381  1
  Al0+  Al51  1  -0.00191229  0.49943360  -0.00037071  1
  Al0+  Al52  1  -0.00064156  0.50132447  0.33345442  1
  Al0+  Al53  1  0.00055876  0.50082377  0.66681095  1
  Al0+  Al54  1  0.49780170  0.00074812  0.01028422  1
  Al0+  Al55  1  0.50315771  0.00027877  0.33733970  1
  Al0+  Al56  1  0.50003161  -0.00147926  0.66493259  1
  Al0+  Al57  1  0.49820207  0.49973888  -0.00843676  1
  Al0+  Al58  1  0.50104442  0.49879645  0.32941467  1
  Al0+  Al59  1  0.50083800  0.49813999  0.67046552  1
  Al0+  Al60  1  0.24792034  0.24927192  -0.00749255  1
  Al0+  Al61  1  0.24996192  0.25130983  0.33438126  1
  Al0+  Al62  1  0.25081056  0.25172732  0.67273032  1
  Al0+  Al63  1  0.25121712  0.74870173  -0.00292424  1
  Al0+  Al64  1  0.25160905  0.75156173  0.33956984  1
  Al0+  Al65  1  0.25162959  0.74925075  0.67137410  1
  Al0+  Al66  1  0.74818514  0.24975100  0.00742950  1
  Al0+  Al67  1  0.75071630  0.24937646  0.33068645  1
  Al0+  Al68  1  0.74871029  0.24943703  0.66199661  1
  Al0+  Al69  1  0.75001548  0.74783421  0.00175863  1
  Al0+  Al70  1  0.75075156  0.75159603  0.33223388  1
  Al0+  Al71  1  0.75159472  0.74913149  0.66192954  1
  Al0+  Al72  1  0.06905026  0.17808004  0.98552999  1
  Al0+  Al73  1  0.32396649  0.57112359  0.34800233  1
  Al0+  Al74  1  0.68114858  0.92884658  0.35021465  1
  Al0+  Al75  1  0.92988393  0.82118631  0.65293514  1
  Al0+  Al76  1  0.17890357  0.93020445  0.34530152  1
  Al0+  Al77  1  0.17766937  0.43115526  0.68258784  1
  Al0+  Al78  1  0.17770258  0.42830027  0.34725163  1
  Al0+  Al79  1  0.32205078  0.06984817  0.68133024  1
  Al0+  Al80  1  0.57006213  0.17797514  0.65396181  1
  Al0+  Al81  1  0.67891375  0.92834635  0.01449435  1
  Al0+  Al82  1  0.67939590  0.42714874  0.67949378  1
  Al0+  Al83  1  0.92976219  0.32072031  0.65418214  1
  Al0+  Al84  1  0.82327781  0.07290306  0.01478608  1
  Al0+  Al85  1  0.82098531  0.56945586  0.01364756  1
  Al0+  Al86  1  0.92975483  0.82350123  0.31528457  1
  Al0+  Al87  1  0.56892259  0.67951746  0.32034971  1
  Al0+  Al88  1  0.42864138  0.32054223  0.98348713  1
  Al0+  Al89  1  0.17565890  0.92782351  0.68365509  1
  Al0+  Al90  1  0.57161219  0.68104326  0.98437215  1
  Al0+  Al91  1  0.32058552  0.57008777  0.01289951  1
  Al0+  Al92  1  0.07321330  0.67787498  0.98515773  1
  Al0+  Al93  1  0.31871444  0.07260608  0.01489957  1
  Al0+  Al94  1  0.07313378  0.67891728  0.31841836  1
  Al0+  Al95  1  0.42998191  0.31733663  0.32081975  1
  Si0+  Si96  1  0.82026669  0.57257832  0.68210007  1
  Si0+  Si97  1  0.57138994  0.17717307  0.98622525  1
  Si0+  Si98  1  0.57424032  0.17573242  0.31369936  1
  Si0+  Si99  1  0.07445041  0.67817069  0.64993085  1
  Si0+  Si100  1  0.06966140  0.18149759  0.32082938  1
  Si0+  Si101  1  0.92881144  0.82002482  0.98318808  1
  Si0+  Si102  1  0.67613611  0.42792389  0.01731371  1
  Si0+  Si103  1  0.17739841  0.42844844  0.01508727  1
  Si0+  Si104  1  0.42764577  0.82507855  0.98341789  1
  Si0+  Si105  1  0.82175826  0.07418817  0.35347245  1
  Si0+  Si106  1  0.57073531  0.67827261  0.65226468  1
  Si0+  Si107  1  0.32422298  0.57217428  0.68567950  1
  Si0+  Si108  1  0.92517589  0.32216586  0.98449932  1
  Si0+  Si109  1  0.42971142  0.82034107  0.65213636  1
  Si0+  Si110  1  0.17783532  0.92713118  0.01567708  1
  Si0+  Si111  1  0.68014669  0.42811674  0.34670287  1
  Si0+  Si112  1  0.92647279  0.32285930  0.31782723  1
  Si0+  Si113  1  0.82080792  0.57094916  0.34920415  1
  Si0+  Si114  1  0.42722838  0.32325994  0.64851817  1
  Si0+  Si115  1  0.81943219  0.07141711  0.67916324  1
  Si0+  Si116  1  0.07358191  0.17891131  0.64876381  1
  Si0+  Si117  1  0.67960824  0.92689333  0.68004535  1
  Si0+  Si118  1  0.42732190  0.82470357  0.31800343  1
  Si0+  Si119  1  0.32205769  0.07381658  0.34975160  1
  O2-  O120  1  0.24519669  -0.00331039  0.06089768  1
  O2-  O121  1  0.25745476  0.00092692  0.39275883  1
  O2-  O122  1  0.24620510  0.00205755  0.73189125  1
  O2-  O123  1  0.24350975  0.49867716  0.05997881  1
  O2-  O124  1  0.24792345  0.50268630  0.39689990  1
  O2-  O125  1  0.25298819  0.50536933  0.72845681  1
  O2-  O126  1  0.75196430  -0.00001367  0.06378104  1
  O2-  O127  1  0.75379553  0.00501964  0.39818549  1
  O2-  O128  1  0.75084061  -0.00214647  0.72133069  1
  O2-  O129  1  0.74507663  0.49627662  0.06196051  1
  O2-  O130  1  0.75103085  0.49830291  0.39099085  1
  O2-  O131  1  0.75361884  0.50196215  0.72640109  1
  O2-  O132  1  0.00085620  0.25473540  0.27784447  1
  O2-  O133  1  0.00653657  0.24944601  0.60419599  1
  O2-  O134  1  -0.00906095  0.25058539  0.94078691  1
  O2-  O135  1  0.00380246  0.75296400  0.26692501  1
  O2-  O136  1  0.00928406  0.75092259  0.60684859  1
  O2-  O137  1  -0.00072961  0.75352501  0.93831098  1
  O2-  O138  1  0.50230920  0.24147977  0.27097472  1
  O2-  O139  1  0.49459286  0.25200322  0.60623432  1
  O2-  O140  1  0.50430504  0.24543418  0.93912859  1
  O2-  O141  1  0.49332434  0.75346641  0.27370154  1
  O2-  O142  1  0.49861722  0.74726006  0.60938730  1
  O2-  O143  1  0.49794736  0.75741982  0.93850997  1
  O2-  O144  1  0.07024743  0.18092060  0.09937394  1
  O2-  O145  1  0.06799393  0.18129941  0.42592331  1
  O2-  O146  1  0.07031681  0.17838397  0.75425538  1
  O2-  O147  1  0.07390544  0.67890292  0.09796156  1
  O2-  O148  1  0.06840136  0.67760282  0.43218908  1
  O2-  O149  1  0.07144512  0.67751355  0.75577752  1
  O2-  O150  1  0.57050456  0.17997207  0.09174003  1
  O2-  O151  1  0.57599379  0.17776696  0.41969248  1
  O2-  O152  1  0.57193259  0.17801520  0.76700951  1
  O2-  O153  1  0.57088162  0.68119528  0.09731824  1
  O2-  O154  1  0.56879182  0.67899091  0.43441777  1
  O2-  O155  1  0.57257845  0.68034904  0.75713619  1
  O2-  O156  1  0.17999526  0.42336710  0.23400547  1
  O2-  O157  1  0.17868348  0.43288452  0.56955528  1
  O2-  O158  1  0.17775081  0.42997996  0.90920754  1
  O2-  O159  1  0.18003394  0.93354277  0.23204392  1
  O2-  O160  1  0.17696651  0.92905351  0.56974949  1
  O2-  O161  1  0.17873290  0.92834402  0.91011666  1
  O2-  O162  1  0.68216740  0.42752668  0.24183783  1
  O2-  O163  1  0.67933701  0.42994876  0.56575808  1
  O2-  O164  1  0.67894210  0.42710361  0.91141568  1
  O2-  O165  1  0.68218692  0.92984086  0.23765049  1
  O2-  O166  1  0.67994533  0.92651493  0.57508292  1
  O2-  O167  1  0.68053557  0.92942628  0.89987579  1
  O2-  O168  1  0.42844518  0.32062960  0.09697406  1
  O2-  O169  1  0.43207778  0.31598369  0.43410142  1
  O2-  O170  1  0.42983937  0.32474281  0.75397928  1
  O2-  O171  1  0.42588347  0.82457057  0.08883013  1
  O2-  O172  1  0.43051228  0.82482895  0.42418015  1
  O2-  O173  1  0.43245618  0.82183284  0.75708091  1
  O2-  O174  1  0.92770325  0.32385476  0.09045165  1
  O2-  O175  1  0.92245530  0.32120498  0.42294715  1
  O2-  O176  1  0.92810055  0.31699909  0.76702693  1
  O2-  O177  1  0.92934535  0.81913137  0.08848572  1
  O2-  O178  1  0.93026715  0.82078203  0.42938107  1
  O2-  O179  1  0.92448714  0.81787744  0.76589080  1
  O2-  O180  1  0.31805934  0.07601590  0.24407339  1
  O2-  O181  1  0.32161411  0.06619493  0.56733465  1
  O2-  O182  1  0.31957689  0.07057213  0.90204811  1
  O2-  O183  1  0.32599396  0.56761270  0.23449848  1
  O2-  O184  1  0.32731202  0.57224887  0.58021995  1
  O2-  O185  1  0.31956891  0.56781749  0.89958311  1
  O2-  O186  1  0.82096391  0.07717987  0.24828555  1
  O2-  O187  1  0.81786067  0.07277830  0.57407407  1
  O2-  O188  1  0.82122314  0.07268364  0.90040724  1
  O2-  O189  1  0.82076345  0.56899418  0.24406588  1
  O2-  O190  1  0.81703777  0.57290169  0.57621655  1
  O2-  O191  1  0.81951837  0.56815271  0.90018205  1
  O2-  O192  1  0.03947319  0.09185508  0.27093333  1
  O2-  O193  1  0.04523992  0.08585522  0.60291327  1
  O2-  O194  1  0.04100733  0.08116452  0.92996820  1
  O2-  O195  1  0.04185290  0.58071105  0.26545944  1
  O2-  O196  1  0.04472111  0.58623226  0.60313057  1
  O2-  O197  1  0.03898132  0.58145857  0.93211039  1
  O2-  O198  1  0.55248356  0.08016200  0.27101696  1
  O2-  O199  1  0.54001076  0.08137375  0.59781748  1
  O2-  O200  1  0.54525246  0.08260047  0.94261356  1
  O2-  O201  1  0.54334359  0.58257004  0.26494105  1
  O2-  O202  1  0.54367817  0.58511284  0.60647795  1
  O2-  O203  1  0.53921020  0.58586069  0.92805436  1
  O2-  O204  1  0.16184525  0.20707861  0.27302992  1
  O2-  O205  1  0.16831369  0.20425560  0.60519255  1
  O2-  O206  1  0.16219053  0.21173845  0.92723924  1
  O2-  O207  1  0.17398610  0.70605758  0.26992218  1
  O2-  O208  1  0.17086770  0.69854896  0.60743476  1
  O2-  O209  1  0.16934822  0.70723588  0.92910554  1
  O2-  O210  1  0.66713790  0.20419591  0.26777537  1
  O2-  O211  1  0.66427177  0.21018115  0.59572239  1
  O2-  O212  1  0.66653010  0.20174071  0.94184634  1
  O2-  O213  1  0.66535881  0.71238747  0.26799510  1
  O2-  O214  1  0.66171009  0.70626537  0.60307120  1
  O2-  O215  1  0.66855051  0.71064156  0.92947449  1
  O2-  O216  1  0.08226326  0.44878398  0.05947232  1
  O2-  O217  1  0.07771449  0.45403449  0.39971250  1
  O2-  O218  1  0.08052040  0.46052274  0.73690910  1
  O2-  O219  1  0.08386949  0.95183931  0.06043509  1
  O2-  O220  1  0.08332392  0.96567250  0.39916238  1
  O2-  O221  1  0.07627127  0.95439716  0.73542615  1
  O2-  O222  1  0.58195070  0.45590165  0.05919438  1
  O2-  O223  1  0.58921213  0.45694943  0.39450978  1
  O2-  O224  1  0.58376866  0.45728631  0.73530828  1
  O2-  O225  1  0.58162495  0.95488981  0.07039378  1
  O2-  O226  1  0.58361970  0.95768484  0.40537778  1
  O2-  O227  1  0.58796412  0.95402972  0.72702305  1
  O2-  O228  1  0.20550685  0.33470504  0.05822838  1
  O2-  O229  1  0.20942969  0.33146553  0.40321415  1
  O2-  O230  1  0.20641677  0.33423651  0.73685170  1
  O2-  O231  1  0.20575998  0.83395892  0.06064340  1
  O2-  O232  1  0.20620661  0.83467686  0.40336125  1
  O2-  O233  1  0.20620019  0.82965012  0.73573349  1
  O2-  O234  1  0.69878901  0.33516786  0.06633878  1
  O2-  O235  1  0.70775706  0.33561208  0.39373850  1
  O2-  O236  1  0.71153444  0.33104814  0.73302835  1
  O2-  O237  1  0.70867561  0.83048733  0.06699807  1
  O2-  O238  1  0.71255917  0.83211007  0.40462527  1
  O2-  O239  1  0.70840989  0.83477281  0.72656682  1
  O2-  O240  1  0.46384912  0.41223053  0.26530071  1
  O2-  O241  1  0.45634841  0.41631862  0.60280042  1
  O2-  O242  1  0.46003049  0.41484921  0.92583311  1
  O2-  O243  1  0.45495378  0.91854917  0.27280802  1
  O2-  O244  1  0.45903412  0.90994831  0.60178670  1
  O2-  O245  1  0.45431190  0.91945142  0.93878059  1
  O2-  O246  1  0.95028102  0.41579468  0.27148421  1
  O2-  O247  1  0.95676971  0.41896743  0.60043637  1
  O2-  O248  1  0.95212167  0.41414887  0.93617228  1
  O2-  O249  1  0.95289749  0.92473393  0.26618779  1
  O2-  O250  1  0.95471789  0.91932048  0.59812960  1
  O2-  O251  1  0.95155587  0.91455188  0.93752176  1
  O2-  O252  1  0.33296513  0.28809407  0.26604458  1
  O2-  O253  1  0.33243076  0.29874921  0.60456192  1
  O2-  O254  1  0.33319045  0.28924258  0.92854440  1
  O2-  O255  1  0.33223118  0.80435020  0.27428411  1
  O2-  O256  1  0.33659739  0.79371563  0.60601487  1
  O2-  O257  1  0.33594546  0.79744093  0.93435767  1
  O2-  O258  1  0.83669617  0.29235139  0.26750668  1
  O2-  O259  1  0.83518610  0.28730077  0.59678159  1
  O2-  O260  1  0.82897972  0.29970137  0.94210798  1
  O2-  O261  1  0.83212429  0.79136462  0.26441171  1
  O2-  O262  1  0.83497641  0.78627964  0.59569690  1
  O2-  O263  1  0.83607020  0.79123596  0.93719700  1
  O2-  O264  1  0.41398337  0.04540169  0.07284613  1
  O2-  O265  1  0.41829555  0.05413837  0.39242763  1
  O2-  O266  1  0.41934567  0.03610778  0.73455699  1
  O2-  O267  1  0.41800911  0.53701233  0.06346662  1
  O2-  O268  1  0.42136156  0.53709679  0.40137071  1
  O2-  O269  1  0.41686029  0.54409173  0.73289451  1
  O2-  O270  1  0.92189393  0.04483851  0.06759966  1
  O2-  O271  1  0.91540388  0.05054204  0.40003643  1
  O2-  O272  1  0.91216807  0.04617869  0.72564637  1
  O2-  O273  1  0.91622200  0.53673295  0.06995371  1
  O2-  O274  1  0.91182825  0.54358161  0.39792970  1
  O2-  O275  1  0.91477632  0.54989397  0.72640890  1
  O2-  O276  1  0.28318265  0.16892622  0.06645903  1
  O2-  O277  1  0.29160089  0.16455433  0.39837852  1
  O2-  O278  1  0.29982642  0.17001512  0.73253711  1
  O2-  O279  1  0.29499520  0.66881259  0.06497539  1
  O2-  O280  1  0.30165658  0.67057121  0.40187344  1
  O2-  O281  1  0.30280681  0.66652689  0.73189266  1
  O2-  O282  1  0.79659689  0.17058739  0.07107809  1
  O2-  O283  1  0.79415585  0.16828939  0.39943184  1
  O2-  O284  1  0.78920779  0.16164141  0.72713699  1
  O2-  O285  1  0.79012844  0.66475604  0.06898630  1
  O2-  O286  1  0.79088865  0.66194639  0.39624218  1
  O2-  O287  1  0.79064853  0.66476791  0.72920144  1
