# generated using pymatgen
data_Ca2Al2SiO7
_symmetry_space_group_name_H-M   'P 1'
_cell_length_a   15.46291387
_cell_length_b   15.46173755
_cell_length_c   15.28631170
_cell_angle_alpha   90.01054351
_cell_angle_beta   90.01829998
_cell_angle_gamma   89.98565919
_symmetry_Int_Tables_number   1
_chemical_formula_structural   Ca2Al2SiO7
_chemical_formula_sum   'Ca48 Al48 Si24 O168'
_cell_volume   3654.70478480
_cell_formula_units_Z   24
loop_
 _symmetry_equiv_pos_site_id
 _symmetry_equiv_pos_as_xyz
  1  'x, y, z'
loop_
 _atom_type_symbol
 _atom_type_oxidation_number
  Ca2+  2.0
  Al0+  0.0
  Si0+  0.0
  O2-  -2.0
loop_
 _atom_site_type_symbol
 _atom_site_label
 _atom_site_symmetry_multiplicity
 _atom_site_fract_x
 _atom_site_fract_y
 _atom_site_fract_z
 _atom_site_occupancy
  Ca2+  Ca0  1  0.15873025  0.07216718  0.16845494  1
  Ca2+  Ca1  1  0.17127019  0.07471777  0.51285442  1
  Ca2+  Ca2  1  0.16391136  0.07718185  0.83797107  1
  Ca2+  Ca3  1  0.16447515  0.57840460  0.16987112  1
  Ca2+  Ca4  1  0.16359271  0.58089359  0.50923915  1
  Ca2+  Ca5  1  0.15951544  0.57166485  0.83510514  1
  Ca2+  Ca6  1  0.67176432  0.08021079  0.16336107  1
  Ca2+  Ca7  1  0.66767208  0.08772048  0.50824639  1
  Ca2+  Ca8  1  0.67237554  0.08228926  0.84213693  1
  Ca2+  Ca9  1  0.66248763  0.58321880  0.16749831  1
  Ca2+  Ca10  1  0.66465186  0.57995184  0.50765690  1
  Ca2+  Ca11  1  0.65882480  0.57531242  0.83716156  1
  Ca2+  Ca12  1  0.07193732  0.32829251  0.15369677  1
  Ca2+  Ca13  1  0.07597246  0.33463401  0.49815274  1
  Ca2+  Ca14  1  0.07749628  0.32704763  0.82641265  1
  Ca2+  Ca15  1  0.09415475  0.82999508  0.16361002  1
  Ca2+  Ca16  1  0.09650998  0.82502644  0.49892571  1
  Ca2+  Ca17  1  0.08971977  0.83083341  0.82658634  1
  Ca2+  Ca18  1  0.57592990  0.33892712  0.16151126  1
  Ca2+  Ca19  1  0.57973259  0.33088291  0.49936309  1
  Ca2+  Ca20  1  0.58854040  0.33035803  0.82584448  1
  Ca2+  Ca21  1  0.58089500  0.82429226  0.15211540  1
  Ca2+  Ca22  1  0.57617932  0.82416406  0.49694343  1
  Ca2+  Ca23  1  0.57519717  0.83225960  0.82567303  1
  Ca2+  Ca24  1  0.32752547  0.41444710  0.17018039  1
  Ca2+  Ca25  1  0.32871693  0.41707589  0.50792487  1
  Ca2+  Ca26  1  0.31792487  0.41402951  0.83717813  1
  Ca2+  Ca27  1  0.32679686  0.91269330  0.16646781  1
  Ca2+  Ca28  1  0.32644809  0.91921030  0.51024109  1
  Ca2+  Ca29  1  0.33000612  0.91581620  0.83424212  1
  Ca2+  Ca30  1  0.83047550  0.41044862  0.16640169  1
  Ca2+  Ca31  1  0.83191453  0.41407654  0.50817481  1
  Ca2+  Ca32  1  0.82606726  0.40928670  0.83724869  1
  Ca2+  Ca33  1  0.83184171  0.92226356  0.16499945  1
  Ca2+  Ca34  1  0.83046710  0.91855818  0.50452164  1
  Ca2+  Ca35  1  0.82694516  0.92516033  0.84464554  1
  Ca2+  Ca36  1  0.41481229  0.17252849  0.16579572  1
  Ca2+  Ca37  1  0.41719876  0.16817063  0.50284118  1
  Ca2+  Ca38  1  0.42355357  0.16187349  0.82504560  1
  Ca2+  Ca39  1  0.42705273  0.67208298  0.15770476  1
  Ca2+  Ca40  1  0.42461282  0.66746945  0.49942566  1
  Ca2+  Ca41  1  0.42491258  0.67810875  0.82958294  1
  Ca2+  Ca42  1  0.91907735  0.17378875  0.15674040  1
  Ca2+  Ca43  1  0.92192497  0.17834993  0.50085375  1
  Ca2+  Ca44  1  0.92446800  0.17156835  0.83088795  1
  Ca2+  Ca45  1  0.92342678  0.66807680  0.16639164  1
  Ca2+  Ca46  1  0.92991984  0.66608382  0.49925998  1
  Ca2+  Ca47  1  0.92143429  0.67002263  0.82848287  1
  Al0+  Al48  1  0.00073806  -0.00027059  0.00632122  1
  Al0+  Al49  1  -0.00197119  -0.00085207  0.34139325  1
  Al0+  Al50  1  -0.00086348  0.00145492  0.66615952  1
  Al0+  Al51  1  -0.00231884  0.49948681  0.00147689  1
  Al0+  Al52  1  -0.00210430  0.50097661  0.32558553  1
  Al0+  Al53  1  -0.00177998  0.50270738  0.66452386  1
  Al0+  Al54  1  0.49809515  0.00048883  0.00268071  1
  Al0+  Al55  1  0.49976142  0.00004855  0.33321841  1
  Al0+  Al56  1  0.49977164  0.00030710  0.65947400  1
  Al0+  Al57  1  0.49877638  0.50076963  -0.00021082  1
  Al0+  Al58  1  0.49916784  0.49925636  0.32665509  1
  Al0+  Al59  1  0.50009775  0.50026917  0.66888391  1
  Al0+  Al60  1  0.24860715  0.24921160  0.00243117  1
  Al0+  Al61  1  0.24986828  0.24840241  0.33042523  1
  Al0+  Al62  1  0.25064028  0.24887883  0.67132954  1
  Al0+  Al63  1  0.25332714  0.74947546  -0.00074801  1
  Al0+  Al64  1  0.25198294  0.74773604  0.33286889  1
  Al0+  Al65  1  0.25146083  0.75030367  0.66316400  1
  Al0+  Al66  1  0.74877571  0.25210511  0.00716927  1
  Al0+  Al67  1  0.74950116  0.24916781  0.33068050  1
  Al0+  Al68  1  0.74967451  0.25080481  0.66236592  1
  Al0+  Al69  1  0.75193680  0.74652324  -0.00005417  1
  Al0+  Al70  1  0.75200300  0.74861768  0.33158214  1
  Al0+  Al71  1  0.75083544  0.74942907  0.66312983  1
  Al0+  Al72  1  0.42941917  0.82182439  0.64883597  1
  Al0+  Al73  1  0.17722273  0.42994058  0.67849819  1
  Al0+  Al74  1  0.92911226  0.32034610  0.31759741  1
  Al0+  Al75  1  0.92958401  0.32106442  0.65206093  1
  Al0+  Al76  1  0.17713586  0.42830959  0.01509350  1
  Al0+  Al77  1  0.07036260  0.68110035  0.65574141  1
  Al0+  Al78  1  0.17864052  0.92857883  0.68284012  1
  Al0+  Al79  1  0.92692584  0.32143331  0.98320491  1
  Al0+  Al80  1  0.18092355  0.92826880  0.01396736  1
  Al0+  Al81  1  0.42935265  0.82282702  0.98370551  1
  Al0+  Al82  1  0.82115222  0.07143333  0.01522594  1
  Al0+  Al83  1  0.57363276  0.67760289  0.98271132  1
  Al0+  Al84  1  0.57197103  0.67981414  0.31805396  1
  Al0+  Al85  1  0.42871355  0.31980867  0.32040086  1
  Al0+  Al86  1  0.07376611  0.17765436  0.65113867  1
  Al0+  Al87  1  0.07156178  0.17664589  0.98546145  1
  Al0+  Al88  1  0.07235031  0.68106012  0.31849943  1
  Al0+  Al89  1  0.67975003  0.42978493  0.67820613  1
  Al0+  Al90  1  0.67742877  0.92730642  0.01276257  1
  Al0+  Al91  1  0.67822055  0.43095401  0.01494335  1
  Al0+  Al92  1  0.32303556  0.07110360  0.68230557  1
  Al0+  Al93  1  0.57232836  0.67720687  0.65077338  1
  Al0+  Al94  1  0.18051698  0.92838979  0.34878304  1
  Al0+  Al95  1  0.57124735  0.17991010  0.65521101  1
  Si0+  Si96  1  0.32312185  0.57238853  0.68382876  1
  Si0+  Si97  1  0.81973246  0.07188930  0.68041079  1
  Si0+  Si98  1  0.82185264  0.57385560  0.68310889  1
  Si0+  Si99  1  0.82180285  0.57101565  0.34952599  1
  Si0+  Si100  1  0.17727140  0.42936130  0.34664682  1
  Si0+  Si101  1  0.92680219  0.82430441  0.65099625  1
  Si0+  Si102  1  0.07190089  0.67952348  0.98587971  1
  Si0+  Si103  1  0.56891151  0.18111827  0.98772321  1
  Si0+  Si104  1  0.32160989  0.56797260  0.34790041  1
  Si0+  Si105  1  0.31980872  0.56993494  0.01740984  1
  Si0+  Si106  1  0.42943599  0.82226519  0.31539039  1
  Si0+  Si107  1  0.42673907  0.32287927  0.65362828  1
  Si0+  Si108  1  0.32328688  0.07386217  0.35141158  1
  Si0+  Si109  1  0.42702950  0.32198481  0.98446245  1
  Si0+  Si110  1  0.57254863  0.17657677  0.31438906  1
  Si0+  Si111  1  0.32339033  0.07364328  0.01908792  1
  Si0+  Si112  1  0.67936386  0.92758612  0.34835547  1
  Si0+  Si113  1  0.92797790  0.82344233  0.31650284  1
  Si0+  Si114  1  0.81870279  0.07217983  0.35177372  1
  Si0+  Si115  1  0.07099332  0.17632422  0.31787386  1
  Si0+  Si116  1  0.82395139  0.57311587  0.01935546  1
  Si0+  Si117  1  0.67822936  0.42972372  0.34828398  1
  Si0+  Si118  1  0.92961113  0.82109654  0.98715700  1
  Si0+  Si119  1  0.68013954  0.92821998  0.67820114  1
  O2-  O120  1  0.25339491  0.00503855  0.06140872  1
  O2-  O121  1  0.25445028  0.00462769  0.39373629  1
  O2-  O122  1  0.24860338  0.00224753  0.73307690  1
  O2-  O123  1  0.25146471  0.50209257  0.06424798  1
  O2-  O124  1  0.24911911  0.49852945  0.39071784  1
  O2-  O125  1  0.25257594  0.50427356  0.72623246  1
  O2-  O126  1  0.74984558  -0.00220474  0.06523943  1
  O2-  O127  1  0.74690372  0.00097606  0.39325994  1
  O2-  O128  1  0.75111201  -0.00181227  0.72152173  1
  O2-  O129  1  0.75254098  0.50589788  0.06198093  1
  O2-  O130  1  0.75019026  0.49973039  0.39083539  1
  O2-  O131  1  0.75194610  0.50621284  0.72604677  1
  O2-  O132  1  0.00515359  0.24679473  0.27237777  1
  O2-  O133  1  0.00546328  0.25348152  0.60110966  1
  O2-  O134  1  0.00150846  0.25095469  0.93610745  1
  O2-  O135  1  0.00164963  0.75997994  0.27222532  1
  O2-  O136  1  -0.00018420  0.75949316  0.60799290  1
  O2-  O137  1  0.00255982  0.75241243  0.94438367  1
  O2-  O138  1  0.50277478  0.24493473  0.27190878  1
  O2-  O139  1  0.49570217  0.25420387  0.60951219  1
  O2-  O140  1  0.49791912  0.25071601  0.94332570  1
  O2-  O141  1  0.50205518  0.75829528  0.27096597  1
  O2-  O142  1  0.50050625  0.74814521  0.59962721  1
  O2-  O143  1  0.50742845  0.75610313  0.93562370  1
  O2-  O144  1  0.06939870  0.17723730  0.09983803  1
  O2-  O145  1  0.07015088  0.17833810  0.42323636  1
  O2-  O146  1  0.06953830  0.17587844  0.76420180  1
  O2-  O147  1  0.07112542  0.68034079  0.09129370  1
  O2-  O148  1  0.07020902  0.67875990  0.43136952  1
  O2-  O149  1  0.06640987  0.67970804  0.76901814  1
  O2-  O150  1  0.56675448  0.18239973  0.09312344  1
  O2-  O151  1  0.57467467  0.17728765  0.41994267  1
  O2-  O152  1  0.57394993  0.18044420  0.76843040  1
  O2-  O153  1  0.56950951  0.67776430  0.09687369  1
  O2-  O154  1  0.56998802  0.67888490  0.43085810  1
  O2-  O155  1  0.57227660  0.67939210  0.76362415  1
  O2-  O156  1  0.17897173  0.43153392  0.24172746  1
  O2-  O157  1  0.17877190  0.43231940  0.56445394  1
  O2-  O158  1  0.17730312  0.43045994  0.90202495  1
  O2-  O159  1  0.18216596  0.92905469  0.23542339  1
  O2-  O160  1  0.18110097  0.92851399  0.56895786  1
  O2-  O161  1  0.18047383  0.92612847  0.90175272  1
  O2-  O162  1  0.67832271  0.43108136  0.24332640  1
  O2-  O163  1  0.68058385  0.42964078  0.56443118  1
  O2-  O164  1  0.67855824  0.42913759  0.90204921  1
  O2-  O165  1  0.68161391  0.92819858  0.24369385  1
  O2-  O166  1  0.68366982  0.92887807  0.57245603  1
  O2-  O167  1  0.67972686  0.93115577  0.89879437  1
  O2-  O168  1  0.42836649  0.32113907  0.09008701  1
  O2-  O169  1  0.43031596  0.32127018  0.43334447  1
  O2-  O170  1  0.42832366  0.32378154  0.75916988  1
  O2-  O171  1  0.42787748  0.81882321  0.09788359  1
  O2-  O172  1  0.43042993  0.82077219  0.42061430  1
  O2-  O173  1  0.43190961  0.82236789  0.76212135  1
  O2-  O174  1  0.92830175  0.31949898  0.09732666  1
  O2-  O175  1  0.92870206  0.32065694  0.43057229  1
  O2-  O176  1  0.92662107  0.31791995  0.76487906  1
  O2-  O177  1  0.92929939  0.81911652  0.09235576  1
  O2-  O178  1  0.92337540  0.82080140  0.42189173  1
  O2-  O179  1  0.92233005  0.82255716  0.75654596  1
  O2-  O180  1  0.32475462  0.07496535  0.24588737  1
  O2-  O181  1  0.32315066  0.06939818  0.56819307  1
  O2-  O182  1  0.32717094  0.07485684  0.91424096  1
  O2-  O183  1  0.32105635  0.56678370  0.24296671  1
  O2-  O184  1  0.32425212  0.56923020  0.57748279  1
  O2-  O185  1  0.31768205  0.56807548  0.91207629  1
  O2-  O186  1  0.81871159  0.07176699  0.24707674  1
  O2-  O187  1  0.81723245  0.07114291  0.57469642  1
  O2-  O188  1  0.81878732  0.07018582  0.90130588  1
  O2-  O189  1  0.82232613  0.57251615  0.24477601  1
  O2-  O190  1  0.82276213  0.57408295  0.57706811  1
  O2-  O191  1  0.82842206  0.57514275  0.91425094  1
  O2-  O192  1  0.04092283  0.08237404  0.27487864  1
  O2-  O193  1  0.04030190  0.08088358  0.59671843  1
  O2-  O194  1  0.04130986  0.07772167  0.93502058  1
  O2-  O195  1  0.03667832  0.58717674  0.26219756  1
  O2-  O196  1  0.03588782  0.58754798  0.59753857  1
  O2-  O197  1  0.04072955  0.58845482  0.93994188  1
  O2-  O198  1  0.54764877  0.08232697  0.26890489  1
  O2-  O199  1  0.54288065  0.08542542  0.59599093  1
  O2-  O200  1  0.54328585  0.08859028  0.94132204  1
  O2-  O201  1  0.53810967  0.58468994  0.26367028  1
  O2-  O202  1  0.54254492  0.57836695  0.59846684  1
  O2-  O203  1  0.53746909  0.58107361  0.93097889  1
  O2-  O204  1  0.16593828  0.19656785  0.27264740  1
  O2-  O205  1  0.17424990  0.20218309  0.60109195  1
  O2-  O206  1  0.17157274  0.20236661  0.93544923  1
  O2-  O207  1  0.17025633  0.70696192  0.26432188  1
  O2-  O208  1  0.16739763  0.70567236  0.59979521  1
  O2-  O209  1  0.16407516  0.70473682  0.93969640  1
  O2-  O210  1  0.66526637  0.20302534  0.26775271  1
  O2-  O211  1  0.66465496  0.21269597  0.59594696  1
  O2-  O212  1  0.66101906  0.20964140  0.94263445  1
  O2-  O213  1  0.67063842  0.70636453  0.26624939  1
  O2-  O214  1  0.67108075  0.70508607  0.59733245  1
  O2-  O215  1  0.67598093  0.69517926  0.93471831  1
  O2-  O216  1  0.08111354  0.46105991  0.06907752  1
  O2-  O217  1  0.08499211  0.45984726  0.39135531  1
  O2-  O218  1  0.08150396  0.46415680  0.73207329  1
  O2-  O219  1  0.08427338  0.95531915  0.07071320  1
  O2-  O220  1  0.08163304  0.95333317  0.40175313  1
  O2-  O221  1  0.07709395  0.95279801  0.73204223  1
  O2-  O222  1  0.58060775  0.46124036  0.06891728  1
  O2-  O223  1  0.58572579  0.45831042  0.39367620  1
  O2-  O224  1  0.58235021  0.45602183  0.73321121  1
  O2-  O225  1  0.58033633  0.95721045  0.06808005  1
  O2-  O226  1  0.58572811  0.95233051  0.39395531  1
  O2-  O227  1  0.58819159  0.95685521  0.72222945  1
  O2-  O228  1  0.20854253  0.33218647  0.06990237  1
  O2-  O229  1  0.20345007  0.33576672  0.39121421  1
  O2-  O230  1  0.20760531  0.33437367  0.73376943  1
  O2-  O231  1  0.21474330  0.83174277  0.06821286  1
  O2-  O232  1  0.21282164  0.83041289  0.39980293  1
  O2-  O233  1  0.20763521  0.82879316  0.73271529  1
  O2-  O234  1  0.70686606  0.33573244  0.07313479  1
  O2-  O235  1  0.70453633  0.33587463  0.39294157  1
  O2-  O236  1  0.71228063  0.33317540  0.73162840  1
  O2-  O237  1  0.70714381  0.82843852  0.06430703  1
  O2-  O238  1  0.71083327  0.83666423  0.39592762  1
  O2-  O239  1  0.70739079  0.83627885  0.72514219  1
  O2-  O240  1  0.46017077  0.41411166  0.26223016  1
  O2-  O241  1  0.45259831  0.41575979  0.60625712  1
  O2-  O242  1  0.45380664  0.41365914  0.93819502  1
  O2-  O243  1  0.44944711  0.91831837  0.27161697  1
  O2-  O244  1  0.46051257  0.91761141  0.59234291  1
  O2-  O245  1  0.45218491  0.92376015  0.93406119  1
  O2-  O246  1  0.95648863  0.41695324  0.26277293  1
  O2-  O247  1  0.95350311  0.42100245  0.59990000  1
  O2-  O248  1  0.95238065  0.42181581  0.93368646  1
  O2-  O249  1  0.94816214  0.91967282  0.27411481  1
  O2-  O250  1  0.94636389  0.91878354  0.60474025  1
  O2-  O251  1  0.95424005  0.91387889  0.94166174  1
  O2-  O252  1  0.33205547  0.29031861  0.26404938  1
  O2-  O253  1  0.33413518  0.29781231  0.60585227  1
  O2-  O254  1  0.33468539  0.29515516  0.93902804  1
  O2-  O255  1  0.33779529  0.79075959  0.26942024  1
  O2-  O256  1  0.33184264  0.79267715  0.59528225  1
  O2-  O257  1  0.33363648  0.78711874  0.92969360  1
  O2-  O258  1  0.83198936  0.28823785  0.26527734  1
  O2-  O259  1  0.83396680  0.28735079  0.59583562  1
  O2-  O260  1  0.82702982  0.29125435  0.93504577  1
  O2-  O261  1  0.83736632  0.79201759  0.26761607  1
  O2-  O262  1  0.83621349  0.79437566  0.60021264  1
  O2-  O263  1  0.83945303  0.79164238  0.93750684  1
  O2-  O264  1  0.41554492  0.04764991  0.06899784  1
  O2-  O265  1  0.41848358  0.05003920  0.39621061  1
  O2-  O266  1  0.42272843  0.04061000  0.73259731  1
  O2-  O267  1  0.41282330  0.54312946  0.06431461  1
  O2-  O268  1  0.41291165  0.53734737  0.39525087  1
  O2-  O269  1  0.41542613  0.54631861  0.73168802  1
  O2-  O270  1  0.91723130  0.04122645  0.07198826  1
  O2-  O271  1  0.90931621  0.04429299  0.40155669  1
  O2-  O272  1  0.91153054  0.04646655  0.72767560  1
  O2-  O273  1  0.91558401  0.54518432  0.06898188  1
  O2-  O274  1  0.91386499  0.54148086  0.39612693  1
  O2-  O275  1  0.91461866  0.54865418  0.73029145  1
  O2-  O276  1  0.29848584  0.16711243  0.06646793  1
  O2-  O277  1  0.29812032  0.16803813  0.39718245  1
  O2-  O278  1  0.30314615  0.17124944  0.73491221  1
  O2-  O279  1  0.29432731  0.66308077  0.06450773  1
  O2-  O280  1  0.29581632  0.66008868  0.39535616  1
  O2-  O281  1  0.29798079  0.66619995  0.72770831  1
  O2-  O282  1  0.78827655  0.16688955  0.07148317  1
  O2-  O283  1  0.78843651  0.16372399  0.39915177  1
  O2-  O284  1  0.78744194  0.16184522  0.72707924  1
  O2-  O285  1  0.80083455  0.66647756  0.06798690  1
  O2-  O286  1  0.79556762  0.66327584  0.39745818  1
  O2-  O287  1  0.79847054  0.66845243  0.72893586  1
