# generated using pymatgen
data_Ca2Al2SiO7
_symmetry_space_group_name_H-M   'P 1'
_cell_length_a   15.45587848
_cell_length_b   15.45616951
_cell_length_c   15.28261169
_cell_angle_alpha   89.99387329
_cell_angle_beta   90.00031178
_cell_angle_gamma   89.99044907
_symmetry_Int_Tables_number   1
_chemical_formula_structural   Ca2Al2SiO7
_chemical_formula_sum   'Ca48 Al48 Si24 O168'
_cell_volume   3650.84282461
_cell_formula_units_Z   24
loop_
 _symmetry_equiv_pos_site_id
 _symmetry_equiv_pos_as_xyz
  1  'x, y, z'
loop_
 _atom_type_symbol
 _atom_type_oxidation_number
  Ca2+  2.0
  Al0+  0.0
  Si0+  0.0
  O2-  -2.0
loop_
 _atom_site_type_symbol
 _atom_site_label
 _atom_site_symmetry_multiplicity
 _atom_site_fract_x
 _atom_site_fract_y
 _atom_site_fract_z
 _atom_site_occupancy
  Ca2+  Ca0  1  0.17861247  0.08639627  0.17455652  1
  Ca2+  Ca1  1  0.17301750  0.08995822  0.49996751  1
  Ca2+  Ca2  1  0.17558448  0.08022375  0.84020113  1
  Ca2+  Ca3  1  0.16280142  0.57185885  0.17371521  1
  Ca2+  Ca4  1  0.17018386  0.57653310  0.50854612  1
  Ca2+  Ca5  1  0.16839755  0.57698363  0.83362902  1
  Ca2+  Ca6  1  0.67136588  0.08597417  0.17661336  1
  Ca2+  Ca7  1  0.67201140  0.08501598  0.50776267  1
  Ca2+  Ca8  1  0.66533467  0.08027317  0.83053476  1
  Ca2+  Ca9  1  0.66683425  0.58304103  0.16255794  1
  Ca2+  Ca10  1  0.66478745  0.58428974  0.50736049  1
  Ca2+  Ca11  1  0.66719523  0.58202697  0.84378033  1
  Ca2+  Ca12  1  0.08439204  0.33223346  0.16381736  1
  Ca2+  Ca13  1  0.08630003  0.33235276  0.49333817  1
  Ca2+  Ca14  1  0.08033853  0.34243151  0.83311171  1
  Ca2+  Ca15  1  0.08423525  0.82569752  0.16574320  1
  Ca2+  Ca16  1  0.08491903  0.82141069  0.49691746  1
  Ca2+  Ca17  1  0.07546940  0.82504489  0.82126746  1
  Ca2+  Ca18  1  0.58132857  0.32930370  0.16514907  1
  Ca2+  Ca19  1  0.57036486  0.32520193  0.49583751  1
  Ca2+  Ca20  1  0.57997164  0.32971950  0.82271541  1
  Ca2+  Ca21  1  0.57226707  0.83219782  0.16076229  1
  Ca2+  Ca22  1  0.58293507  0.83118956  0.49965748  1
  Ca2+  Ca23  1  0.58287849  0.82385331  0.82893719  1
  Ca2+  Ca24  1  0.32304679  0.41259635  0.17464672  1
  Ca2+  Ca25  1  0.32625779  0.41355773  0.50743589  1
  Ca2+  Ca26  1  0.32661482  0.41849952  0.83351109  1
  Ca2+  Ca27  1  0.34251957  0.92425622  0.17128511  1
  Ca2+  Ca28  1  0.33931439  0.92028855  0.49823195  1
  Ca2+  Ca29  1  0.33982540  0.92346527  0.84023155  1
  Ca2+  Ca30  1  0.83008921  0.41576329  0.16204902  1
  Ca2+  Ca31  1  0.83003313  0.41745391  0.50333956  1
  Ca2+  Ca32  1  0.82630119  0.42314237  0.84637569  1
  Ca2+  Ca33  1  0.82872731  0.92325914  0.17567867  1
  Ca2+  Ca34  1  0.83064053  0.92757789  0.51133808  1
  Ca2+  Ca35  1  0.82952184  0.91568913  0.82979634  1
  Ca2+  Ca36  1  0.41423850  0.16708188  0.16779338  1
  Ca2+  Ca37  1  0.42332733  0.17292270  0.49157515  1
  Ca2+  Ca38  1  0.42054815  0.17322153  0.82549961  1
  Ca2+  Ca39  1  0.41833872  0.68055084  0.15893046  1
  Ca2+  Ca40  1  0.41741438  0.66884892  0.49760905  1
  Ca2+  Ca41  1  0.42574846  0.66329455  0.82732824  1
  Ca2+  Ca42  1  0.92188908  0.16997723  0.16420930  1
  Ca2+  Ca43  1  0.92006652  0.16236330  0.49337946  1
  Ca2+  Ca44  1  0.91371670  0.17398750  0.82872377  1
  Ca2+  Ca45  1  0.92169074  0.65853356  0.16352414  1
  Ca2+  Ca46  1  0.92775139  0.67087900  0.49911079  1
  Ca2+  Ca47  1  0.91907007  0.66855634  0.82465816  1
  Al0+  Al48  1  0.00195474  -0.00093219  -0.00016400  1
  Al0+  Al49  1  0.00020703  -0.00092187  0.33231197  1
  Al0+  Al50  1  -0.00043390  0.00236495  0.66919195  1
  Al0+  Al51  1  -0.00064338  0.49847287  0.00311873  1
  Al0+  Al52  1  -0.00107031  0.50016879  0.33462486  1
  Al0+  Al53  1  -0.00039171  0.49916307  0.66527514  1
  Al0+  Al54  1  0.50120247  0.00108076  0.00036181  1
  Al0+  Al55  1  0.50105241  -0.00107493  0.33151042  1
  Al0+  Al56  1  0.50278440  -0.00082447  0.66834362  1
  Al0+  Al57  1  0.49883862  0.49912377  0.00270082  1
  Al0+  Al58  1  0.49968436  0.49959716  0.32910937  1
  Al0+  Al59  1  0.49794686  0.50054859  0.66129097  1
  Al0+  Al60  1  0.25100856  0.24796234  0.00640853  1
  Al0+  Al61  1  0.24869061  0.24896488  0.33473204  1
  Al0+  Al62  1  0.24757286  0.25089843  0.67031643  1
  Al0+  Al63  1  0.24847464  0.75178528  -0.00548184  1
  Al0+  Al64  1  0.25008579  0.74901301  0.32346002  1
  Al0+  Al65  1  0.25107214  0.74909611  0.66774379  1
  Al0+  Al66  1  0.75136656  0.25080409  -0.00070519  1
  Al0+  Al67  1  0.74966190  0.25136566  0.33523917  1
  Al0+  Al68  1  0.75117028  0.25022878  0.66655668  1
  Al0+  Al69  1  0.75071367  0.75071457  0.00340008  1
  Al0+  Al70  1  0.75089085  0.74935338  0.33438167  1
  Al0+  Al71  1  0.74952704  0.75275680  0.66109939  1
  Al0+  Al72  1  0.32251299  0.57253693  0.68153572  1
  Al0+  Al73  1  0.43065205  0.81954684  0.32011865  1
  Al0+  Al74  1  0.32162735  0.06864750  0.01422970  1
  Al0+  Al75  1  0.57181216  0.17956293  0.31786367  1
  Al0+  Al76  1  0.17943490  0.42991530  0.34815345  1
  Al0+  Al77  1  0.82280888  0.07319650  0.68471078  1
  Al0+  Al78  1  0.93069532  0.31924630  0.98621609  1
  Al0+  Al79  1  0.57022878  0.67901385  0.98559101  1
  Al0+  Al80  1  0.18043565  0.43109654  0.01569503  1
  Al0+  Al81  1  0.67585111  0.42672511  0.01502173  1
  Al0+  Al82  1  0.67846909  0.92814197  0.68337722  1
  Al0+  Al83  1  0.07203838  0.67753607  0.65192527  1
  Al0+  Al84  1  0.57185971  0.17804962  0.65202318  1
  Al0+  Al85  1  0.06964669  0.67827317  0.31806228  1
  Al0+  Al86  1  0.42646007  0.32060443  0.65268702  1
  Al0+  Al87  1  0.42726830  0.32073762  0.31639036  1
  Al0+  Al88  1  0.42872896  0.82346141  0.98239503  1
  Al0+  Al89  1  0.06999355  0.17803500  0.32033500  1
  Al0+  Al90  1  0.32094611  0.06916124  0.34894823  1
  Al0+  Al91  1  0.57073068  0.67886832  0.65308990  1
  Al0+  Al92  1  0.82042534  0.57255046  0.01466432  1
  Al0+  Al93  1  0.17743026  0.42791554  0.68351568  1
  Al0+  Al94  1  0.82151871  0.07136897  0.34635120  1
  Al0+  Al95  1  0.92873814  0.82318093  0.65100702  1
  Si0+  Si96  1  0.32220854  0.57445783  0.01741291  1
  Si0+  Si97  1  0.82035731  0.57129336  0.35098592  1
  Si0+  Si98  1  0.57284877  0.18022752  0.98484098  1
  Si0+  Si99  1  0.32233455  0.57372601  0.34747390  1
  Si0+  Si100  1  0.92780298  0.82105979  0.31577754  1
  Si0+  Si101  1  0.17825354  0.92530941  0.34940257  1
  Si0+  Si102  1  0.07079258  0.17912265  0.65361831  1
  Si0+  Si103  1  0.92694988  0.32317328  0.31666165  1
  Si0+  Si104  1  0.92889791  0.82323960  0.98574396  1
  Si0+  Si105  1  0.17592395  0.92663005  0.01707001  1
  Si0+  Si106  1  0.81989506  0.57089467  0.67855125  1
  Si0+  Si107  1  0.68100096  0.93018324  0.01621497  1
  Si0+  Si108  1  0.42667662  0.31988896  0.98597920  1
  Si0+  Si109  1  0.42735050  0.82340656  0.65033321  1
  Si0+  Si110  1  0.67854798  0.92696324  0.35011746  1
  Si0+  Si111  1  0.06891612  0.67777779  0.98450433  1
  Si0+  Si112  1  0.82280770  0.07163310  0.01518525  1
  Si0+  Si113  1  0.57534002  0.67625804  0.31523857  1
  Si0+  Si114  1  0.92879366  0.32137360  0.65171766  1
  Si0+  Si115  1  0.67886612  0.43027088  0.67868771  1
  Si0+  Si116  1  0.17878603  0.92842566  0.68010014  1
  Si0+  Si117  1  0.67743632  0.42967418  0.35023326  1
  Si0+  Si118  1  0.07350757  0.17754198  0.98292302  1
  Si0+  Si119  1  0.32081135  0.07021651  0.68054715  1
  O2-  O120  1  0.24761693  -0.00769442  0.06013706  1
  O2-  O121  1  0.24537390  -0.00540976  0.39553122  1
  O2-  O122  1  0.25236311  -0.00333225  0.72310300  1
  O2-  O123  1  0.25430616  0.50602586  0.06322371  1
  O2-  O124  1  0.25641733  0.50308768  0.39268306  1
  O2-  O125  1  0.24965729  0.50087041  0.73148124  1
  O2-  O126  1  0.75229230  0.00105832  0.05847716  1
  O2-  O127  1  0.74678394  -0.00321050  0.39258458  1
  O2-  O128  1  0.75023780  0.00108349  0.73380503  1
  O2-  O129  1  0.74637957  0.50161488  0.06391179  1
  O2-  O130  1  0.74653515  0.50305694  0.39292579  1
  O2-  O131  1  0.74690062  0.50325860  0.72207961  1
  O2-  O132  1  -0.00494951  0.25289532  0.27424644  1
  O2-  O133  1  -0.00044415  0.24982583  0.61120815  1
  O2-  O134  1  0.00486689  0.24507810  0.93709645  1
  O2-  O135  1  -0.00533847  0.75206784  0.26921822  1
  O2-  O136  1  0.00238598  0.75231339  0.60210843  1
  O2-  O137  1  -0.00112738  0.75087896  0.94404274  1
  O2-  O138  1  0.49944289  0.24930686  0.26502509  1
  O2-  O139  1  0.49689858  0.24691790  0.60317384  1
  O2-  O140  1  0.50260864  0.25319246  0.94428733  1
  O2-  O141  1  0.50538902  0.74453147  0.27359955  1
  O2-  O142  1  0.49494630  0.75304178  0.60734942  1
  O2-  O143  1  0.49651239  0.74759178  0.93293150  1
  O2-  O144  1  0.07140623  0.17685433  0.08836878  1
  O2-  O145  1  0.06879494  0.17932613  0.43388132  1
  O2-  O146  1  0.07171551  0.17827823  0.75878841  1
  O2-  O147  1  0.06803238  0.67871793  0.08982740  1
  O2-  O148  1  0.06880205  0.67937198  0.43065266  1
  O2-  O149  1  0.06785360  0.67811823  0.76604725  1
  O2-  O150  1  0.57437761  0.17894433  0.08964001  1
  O2-  O151  1  0.57231959  0.18174965  0.43102666  1
  O2-  O152  1  0.57021528  0.18089065  0.76650310  1
  O2-  O153  1  0.57025880  0.68379945  0.09937131  1
  O2-  O154  1  0.57703198  0.67666493  0.42086088  1
  O2-  O155  1  0.57248383  0.67778896  0.76580588  1
  O2-  O156  1  0.17801129  0.43172607  0.23477065  1
  O2-  O157  1  0.17657982  0.42726495  0.57009404  1
  O2-  O158  1  0.18033601  0.43265797  0.90291661  1
  O2-  O159  1  0.17836703  0.92587431  0.24369940  1
  O2-  O160  1  0.17852991  0.92966068  0.57518605  1
  O2-  O161  1  0.17146043  0.92959454  0.91131843  1
  O2-  O162  1  0.67905405  0.42893314  0.24544138  1
  O2-  O163  1  0.68249502  0.43068165  0.57326518  1
  O2-  O164  1  0.67846760  0.42498597  0.90089050  1
  O2-  O165  1  0.68146363  0.92558711  0.24385797  1
  O2-  O166  1  0.67916613  0.92842993  0.56980208  1
  O2-  O167  1  0.68207733  0.92968743  0.91163674  1
  O2-  O168  1  0.42484628  0.31664226  0.09065969  1
  O2-  O169  1  0.42889556  0.32025926  0.42972588  1
  O2-  O170  1  0.42804754  0.31844859  0.76718858  1
  O2-  O171  1  0.43211205  0.82429766  0.09603097  1
  O2-  O172  1  0.43081374  0.81810954  0.43332817  1
  O2-  O173  1  0.42808385  0.82516731  0.75565158  1
  O2-  O174  1  0.93020779  0.31611247  0.09919871  1
  O2-  O175  1  0.92643903  0.32468098  0.42267540  1
  O2-  O176  1  0.92779867  0.32263584  0.75669386  1
  O2-  O177  1  0.93090291  0.82656125  0.09084092  1
  O2-  O178  1  0.92820644  0.81959856  0.42074802  1
  O2-  O179  1  0.93054951  0.82002892  0.76551351  1
  O2-  O180  1  0.31987372  0.06727193  0.23590602  1
  O2-  O181  1  0.31899011  0.07043907  0.57567351  1
  O2-  O182  1  0.31959062  0.06945817  0.90031118  1
  O2-  O183  1  0.31947876  0.57424336  0.24171985  1
  O2-  O184  1  0.32127453  0.57348240  0.56776546  1
  O2-  O185  1  0.32154422  0.57282839  0.91199671  1
  O2-  O186  1  0.82066757  0.06905602  0.23235317  1
  O2-  O187  1  0.82341045  0.07338986  0.57112884  1
  O2-  O188  1  0.82266982  0.07113794  0.91061818  1
  O2-  O189  1  0.82097080  0.57148891  0.24619053  1
  O2-  O190  1  0.82005560  0.56664313  0.57303973  1
  O2-  O191  1  0.82123022  0.57191297  0.90057477  1
  O2-  O192  1  0.04131992  0.08111208  0.26494648  1
  O2-  O193  1  0.04453310  0.08780413  0.60520435  1
  O2-  O194  1  0.04894369  0.08287419  0.93751973  1
  O2-  O195  1  0.03440003  0.58266640  0.26435702  1
  O2-  O196  1  0.03928109  0.58077841  0.59812093  1
  O2-  O197  1  0.03890842  0.58690706  0.93799605  1
  O2-  O198  1  0.54737785  0.07978956  0.26640544  1
  O2-  O199  1  0.54721553  0.07817971  0.60149468  1
  O2-  O200  1  0.54326507  0.08898153  0.93774454  1
  O2-  O201  1  0.55210416  0.58252378  0.26931815  1
  O2-  O202  1  0.54172777  0.58345966  0.59587913  1
  O2-  O203  1  0.54603625  0.57763658  0.93580642  1
  O2-  O204  1  0.16549250  0.20929556  0.26571838  1
  O2-  O205  1  0.16201174  0.20730096  0.60563040  1
  O2-  O206  1  0.16774952  0.20341204  0.93856584  1
  O2-  O207  1  0.16415618  0.70855896  0.26022006  1
  O2-  O208  1  0.17091593  0.70583386  0.60022645  1
  O2-  O209  1  0.16075130  0.70397612  0.93657567  1
  O2-  O210  1  0.67024358  0.21095268  0.26522066  1
  O2-  O211  1  0.67008266  0.20904184  0.60054172  1
  O2-  O212  1  0.66469425  0.20608871  0.93678211  1
  O2-  O213  1  0.66928089  0.70269334  0.26969786  1
  O2-  O214  1  0.66589749  0.70978889  0.59619846  1
  O2-  O215  1  0.67009908  0.70932582  0.93580761  1
  O2-  O216  1  0.08385437  0.46110203  0.06967526  1
  O2-  O217  1  0.08180606  0.46070604  0.40070175  1
  O2-  O218  1  0.07813862  0.45801280  0.73524473  1
  O2-  O219  1  0.08349853  0.95376971  0.06602504  1
  O2-  O220  1  0.08373946  0.94841798  0.39424486  1
  O2-  O221  1  0.08904724  0.95937055  0.73005289  1
  O2-  O222  1  0.57728481  0.45155328  0.06961147  1
  O2-  O223  1  0.58462242  0.45637170  0.39650210  1
  O2-  O224  1  0.58572670  0.45462316  0.72365614  1
  O2-  O225  1  0.58984704  0.96003416  0.06347883  1
  O2-  O226  1  0.58483024  0.95050167  0.39512543  1
  O2-  O227  1  0.58045403  0.95589444  0.73891561  1
  O2-  O228  1  0.21002894  0.33348428  0.06815700  1
  O2-  O229  1  0.20742056  0.33255089  0.40105275  1
  O2-  O230  1  0.20435672  0.32970529  0.73905805  1
  O2-  O231  1  0.19750063  0.83107103  0.06084081  1
  O2-  O232  1  0.20699054  0.83152700  0.39356165  1
  O2-  O233  1  0.20243291  0.83606566  0.72841267  1
  O2-  O234  1  0.71080599  0.33020078  0.06920826  1
  O2-  O235  1  0.70871115  0.33985781  0.39938971  1
  O2-  O236  1  0.70906235  0.33973080  0.72672266  1
  O2-  O237  1  0.70911935  0.83979316  0.06604895  1
  O2-  O238  1  0.70437020  0.83291391  0.39597491  1
  O2-  O239  1  0.71039673  0.82979635  0.73589020  1
  O2-  O240  1  0.45430638  0.42003893  0.26371551  1
  O2-  O241  1  0.45514203  0.41728815  0.59781573  1
  O2-  O242  1  0.44830126  0.41418740  0.94138474  1
  O2-  O243  1  0.46302684  0.91472083  0.26443998  1
  O2-  O244  1  0.45508780  0.91617555  0.60377559  1
  O2-  O245  1  0.46227639  0.92105162  0.93053007  1
  O2-  O246  1  0.95365055  0.41594609  0.27031433  1
  O2-  O247  1  0.95574549  0.41220245  0.60186627  1
  O2-  O248  1  0.96112086  0.41651419  0.93289319  1
  O2-  O249  1  0.95376909  0.91398442  0.26843387  1
  O2-  O250  1  0.95679196  0.92299505  0.60151875  1
  O2-  O251  1  0.95774268  0.91417517  0.93639116  1
  O2-  O252  1  0.32934408  0.28976475  0.26491849  1
  O2-  O253  1  0.32701591  0.29199807  0.60251754  1
  O2-  O254  1  0.33692774  0.28596095  0.93788502  1
  O2-  O255  1  0.33522745  0.79158434  0.26190651  1
  O2-  O256  1  0.33322816  0.80031826  0.60456113  1
  O2-  O257  1  0.32685885  0.80352237  0.93253635  1
  O2-  O258  1  0.83348910  0.29805920  0.27093946  1
  O2-  O259  1  0.83759720  0.29439155  0.60255937  1
  O2-  O260  1  0.83419540  0.28886531  0.93093015  1
  O2-  O261  1  0.83343710  0.79587646  0.27005095  1
  O2-  O262  1  0.83221948  0.79504740  0.59585871  1
  O2-  O263  1  0.83663854  0.79642268  0.93983188  1
  O2-  O264  1  0.41893661  0.03980290  0.06823419  1
  O2-  O265  1  0.41794043  0.03670076  0.40141868  1
  O2-  O266  1  0.41318582  0.04480021  0.72785036  1
  O2-  O267  1  0.41589532  0.55141508  0.06379536  1
  O2-  O268  1  0.41858232  0.55277150  0.39065375  1
  O2-  O269  1  0.42088949  0.54170616  0.73418391  1
  O2-  O270  1  0.91559321  0.04360973  0.06138621  1
  O2-  O271  1  0.91836544  0.03971813  0.39974499  1
  O2-  O272  1  0.92141235  0.04592576  0.73904107  1
  O2-  O273  1  0.91639720  0.53901845  0.06959859  1
  O2-  O274  1  0.91039046  0.54002730  0.39958726  1
  O2-  O275  1  0.91043542  0.54071808  0.72657202  1
  O2-  O276  1  0.28872692  0.16286654  0.07103151  1
  O2-  O277  1  0.28763603  0.16455010  0.40309092  1
  O2-  O278  1  0.28923641  0.15992276  0.72996504  1
  O2-  O279  1  0.29535248  0.66977002  0.05995500  1
  O2-  O280  1  0.29384099  0.66711582  0.39225050  1
  O2-  O281  1  0.29644531  0.67136986  0.73614823  1
  O2-  O282  1  0.79487760  0.16309694  0.06224628  1
  O2-  O283  1  0.79405175  0.16924454  0.39963789  1
  O2-  O284  1  0.79346305  0.17227231  0.73711915  1
  O2-  O285  1  0.79583583  0.67112622  0.07062850  1
  O2-  O286  1  0.79548362  0.66428100  0.39819418  1
  O2-  O287  1  0.79633309  0.66469930  0.72234993  1
