# generated using pymatgen
data_Ca2Al2SiO7
_symmetry_space_group_name_H-M   'P 1'
_cell_length_a   15.46147229
_cell_length_b   15.46127166
_cell_length_c   15.28686328
_cell_angle_alpha   89.99710094
_cell_angle_beta   89.99439043
_cell_angle_gamma   89.99189529
_symmetry_Int_Tables_number   1
_chemical_formula_structural   Ca2Al2SiO7
_chemical_formula_sum   'Ca48 Al48 Si24 O168'
_cell_volume   3654.38611272
_cell_formula_units_Z   24
loop_
 _symmetry_equiv_pos_site_id
 _symmetry_equiv_pos_as_xyz
  1  'x, y, z'
loop_
 _atom_type_symbol
 _atom_type_oxidation_number
  Ca2+  2.0
  Al0+  0.0
  Si0+  0.0
  O2-  -2.0
loop_
 _atom_site_type_symbol
 _atom_site_label
 _atom_site_symmetry_multiplicity
 _atom_site_fract_x
 _atom_site_fract_y
 _atom_site_fract_z
 _atom_site_occupancy
  Ca2+  Ca0  1  0.16699212  0.08742492  0.17269376  1
  Ca2+  Ca1  1  0.16792071  0.08834616  0.50909657  1
  Ca2+  Ca2  1  0.17204914  0.09634511  0.83226586  1
  Ca2+  Ca3  1  0.16354981  0.57876023  0.17023606  1
  Ca2+  Ca4  1  0.16814767  0.58718331  0.50807485  1
  Ca2+  Ca5  1  0.17102731  0.58033965  0.83517566  1
  Ca2+  Ca6  1  0.66645329  0.07677572  0.17747477  1
  Ca2+  Ca7  1  0.66496338  0.07618082  0.50755873  1
  Ca2+  Ca8  1  0.66563032  0.08208411  0.82787764  1
  Ca2+  Ca9  1  0.67495955  0.57144573  0.17431189  1
  Ca2+  Ca10  1  0.67722818  0.58228477  0.50046660  1
  Ca2+  Ca11  1  0.67768855  0.57602707  0.83934503  1
  Ca2+  Ca12  1  0.07119860  0.33731293  0.16560980  1
  Ca2+  Ca13  1  0.07588410  0.32268855  0.49529178  1
  Ca2+  Ca14  1  0.07854229  0.33663432  0.83061566  1
  Ca2+  Ca15  1  0.06923331  0.82556490  0.16563105  1
  Ca2+  Ca16  1  0.07554582  0.82166265  0.49247035  1
  Ca2+  Ca17  1  0.07571182  0.82540047  0.82730785  1
  Ca2+  Ca18  1  0.58748176  0.33347080  0.16139148  1
  Ca2+  Ca19  1  0.58414079  0.32476037  0.49468372  1
  Ca2+  Ca20  1  0.57442767  0.33596481  0.82668112  1
  Ca2+  Ca21  1  0.59642040  0.82314220  0.17023921  1
  Ca2+  Ca22  1  0.58925859  0.83075074  0.49280622  1
  Ca2+  Ca23  1  0.58478626  0.83278843  0.82763382  1
  Ca2+  Ca24  1  0.32728689  0.40844836  0.16605768  1
  Ca2+  Ca25  1  0.33198747  0.42085497  0.50847507  1
  Ca2+  Ca26  1  0.33133694  0.41431538  0.83801004  1
  Ca2+  Ca27  1  0.32880895  0.91842215  0.17299180  1
  Ca2+  Ca28  1  0.32975091  0.92523366  0.50864747  1
  Ca2+  Ca29  1  0.33073312  0.92565712  0.83313059  1
  Ca2+  Ca30  1  0.83217411  0.42141002  0.17504740  1
  Ca2+  Ca31  1  0.83499493  0.42281721  0.50001983  1
  Ca2+  Ca32  1  0.83360227  0.42642408  0.84325443  1
  Ca2+  Ca33  1  0.83490125  0.91486211  0.17413762  1
  Ca2+  Ca34  1  0.82477895  0.91805075  0.50506050  1
  Ca2+  Ca35  1  0.83432482  0.92241425  0.83251141  1
  Ca2+  Ca36  1  0.42694762  0.17269634  0.16378023  1
  Ca2+  Ca37  1  0.42480330  0.16753519  0.50148971  1
  Ca2+  Ca38  1  0.42091522  0.17815426  0.82286165  1
  Ca2+  Ca39  1  0.42631727  0.66388715  0.16731296  1
  Ca2+  Ca40  1  0.42293870  0.66581290  0.49523027  1
  Ca2+  Ca41  1  0.41671173  0.66598523  0.82553568  1
  Ca2+  Ca42  1  0.91446994  0.18214844  0.16521833  1
  Ca2+  Ca43  1  0.92228895  0.16546580  0.49349932  1
  Ca2+  Ca44  1  0.91809145  0.17462113  0.82496276  1
  Ca2+  Ca45  1  0.90408788  0.67312662  0.16554065  1
  Ca2+  Ca46  1  0.92093752  0.66439930  0.49243508  1
  Ca2+  Ca47  1  0.91379232  0.66681632  0.82813082  1
  Al0+  Al48  1  0.00150939  -0.00260301  -0.00390396  1
  Al0+  Al49  1  0.00261738  -0.00293582  0.32724240  1
  Al0+  Al50  1  -0.00237690  -0.00129736  0.66699238  1
  Al0+  Al51  1  0.00351656  0.50115226  0.00389425  1
  Al0+  Al52  1  0.00298297  0.49786258  0.33296933  1
  Al0+  Al53  1  0.00045747  0.50104215  0.66648163  1
  Al0+  Al54  1  0.49966633  -0.00091064  0.00111340  1
  Al0+  Al55  1  0.49835443  0.00157431  0.33301154  1
  Al0+  Al56  1  0.49649771  0.00068012  0.67314986  1
  Al0+  Al57  1  0.50142502  0.50070889  -0.00129545  1
  Al0+  Al58  1  0.49867075  0.50019794  0.33256849  1
  Al0+  Al59  1  0.49822108  0.50290736  0.66620787  1
  Al0+  Al60  1  0.25402137  0.25069377  0.00315934  1
  Al0+  Al61  1  0.25162574  0.25012431  0.33241222  1
  Al0+  Al62  1  0.24821893  0.25140508  0.66320661  1
  Al0+  Al63  1  0.25098346  0.75210349  0.00099765  1
  Al0+  Al64  1  0.24935967  0.75109699  0.32992757  1
  Al0+  Al65  1  0.24933445  0.74976944  0.66784136  1
  Al0+  Al66  1  0.75171235  0.24715347  -0.00403334  1
  Al0+  Al67  1  0.74940455  0.24872237  0.32940951  1
  Al0+  Al68  1  0.74740367  0.24949890  0.66640784  1
  Al0+  Al69  1  0.75008975  0.75154474  -0.00415310  1
  Al0+  Al70  1  0.74896537  0.74907738  0.33382333  1
  Al0+  Al71  1  0.74829074  0.74938908  0.67468617  1
  Al0+  Al72  1  0.92767409  0.81795676  0.31999897  1
  Al0+  Al73  1  0.07368540  0.17760476  0.31841982  1
  Al0+  Al74  1  0.06820971  0.17884660  0.65503582  1
  Al0+  Al75  1  0.18173100  0.42896330  0.01463989  1
  Al0+  Al76  1  0.31768978  0.07264219  0.68081422  1
  Al0+  Al77  1  0.57056671  0.67820664  0.32087663  1
  Al0+  Al78  1  0.92866744  0.31984609  0.31968051  1
  Al0+  Al79  1  0.67915266  0.92991804  0.34583976  1
  Al0+  Al80  1  0.82187304  0.56870694  0.68065695  1
  Al0+  Al81  1  0.82186754  0.56974067  0.34919213  1
  Al0+  Al82  1  0.82171062  0.57188916  0.01570771  1
  Al0+  Al83  1  0.07352527  0.67694332  0.31754292  1
  Al0+  Al84  1  0.32130171  0.57226019  0.67923907  1
  Al0+  Al85  1  0.92829895  0.82039807  0.98247607  1
  Al0+  Al86  1  0.92950067  0.32266210  0.98520908  1
  Al0+  Al87  1  0.42807156  0.32389832  0.65035565  1
  Al0+  Al88  1  0.57030701  0.17818781  0.65130449  1
  Al0+  Al89  1  0.67645649  0.42585303  0.34968372  1
  Al0+  Al90  1  0.82261236  0.07278031  0.68093976  1
  Al0+  Al91  1  0.57061622  0.17829371  0.31984270  1
  Al0+  Al92  1  0.67757893  0.92903407  0.68281766  1
  Al0+  Al93  1  0.67881840  0.42674404  0.01329608  1
  Al0+  Al94  1  0.07033253  0.67938246  0.65402205  1
  Al0+  Al95  1  0.43161829  0.32047021  0.98641477  1
  Si0+  Si96  1  0.17914401  0.92798771  0.34878326  1
  Si0+  Si97  1  0.07487092  0.67893286  0.98236023  1
  Si0+  Si98  1  0.92541115  0.82048445  0.64991337  1
  Si0+  Si99  1  0.57278424  0.17423433  0.98227988  1
  Si0+  Si100  1  0.18068342  0.42746547  0.35038994  1
  Si0+  Si101  1  0.56977284  0.68091092  0.98340714  1
  Si0+  Si102  1  0.07236238  0.17872001  0.98444871  1
  Si0+  Si103  1  0.31969778  0.57284676  0.34774378  1
  Si0+  Si104  1  0.42896451  0.32270409  0.31623825  1
  Si0+  Si105  1  0.67841245  0.93103956  0.01586155  1
  Si0+  Si106  1  0.32319802  0.57501189  0.01776981  1
  Si0+  Si107  1  0.42734796  0.82204598  0.98409446  1
  Si0+  Si108  1  0.82428361  0.06948937  0.01482718  1
  Si0+  Si109  1  0.67648006  0.42817675  0.68173108  1
  Si0+  Si110  1  0.31966371  0.07120330  0.34931678  1
  Si0+  Si111  1  0.17935313  0.92821948  0.01653410  1
  Si0+  Si112  1  0.57104852  0.68100029  0.65240641  1
  Si0+  Si113  1  0.82430516  0.07113416  0.34686005  1
  Si0+  Si114  1  0.32080748  0.07021826  0.01695209  1
  Si0+  Si115  1  0.42775022  0.82144591  0.65307942  1
  Si0+  Si116  1  0.42820816  0.82278485  0.31728526  1
  Si0+  Si117  1  0.17707979  0.92727073  0.68337040  1
  Si0+  Si118  1  0.92601093  0.32355745  0.65142916  1
  Si0+  Si119  1  0.17907849  0.42899333  0.68232577  1
  O2-  O120  1  0.24832914  0.00109487  0.05977484  1
  O2-  O121  1  0.24636662  0.00234480  0.39143703  1
  O2-  O122  1  0.23970561  0.00128083  0.72898239  1
  O2-  O123  1  0.25546609  0.50575217  0.06190613  1
  O2-  O124  1  0.24855745  0.50262832  0.39081769  1
  O2-  O125  1  0.24924440  0.49630734  0.72666342  1
  O2-  O126  1  0.74980081  0.00160728  0.05733721  1
  O2-  O127  1  0.75421802  0.00407693  0.39138627  1
  O2-  O128  1  0.74970564  0.00144616  0.73212466  1
  O2-  O129  1  0.75460829  0.49434826  0.06398945  1
  O2-  O130  1  0.75018296  0.49666233  0.39896269  1
  O2-  O131  1  0.75019800  0.49093012  0.72664331  1
  O2-  O132  1  0.00020378  0.24703548  0.26864242  1
  O2-  O133  1  -0.01090316  0.24853836  0.60884124  1
  O2-  O134  1  0.00445429  0.24710476  0.93930994  1
  O2-  O135  1  -0.00437591  0.74247875  0.26799531  1
  O2-  O136  1  -0.00596011  0.75167296  0.60678093  1
  O2-  O137  1  0.00129137  0.74253480  0.93843808  1
  O2-  O138  1  0.50192420  0.25828424  0.27251507  1
  O2-  O139  1  0.50152256  0.25331202  0.60107789  1
  O2-  O140  1  0.50971193  0.24912938  0.94052003  1
  O2-  O141  1  0.49768660  0.75528044  0.27271349  1
  O2-  O142  1  0.50090599  0.75354589  0.61043108  1
  O2-  O143  1  0.49661767  0.75038017  0.94116056  1
  O2-  O144  1  0.07092466  0.17766275  0.08980877  1
  O2-  O145  1  0.07456303  0.17921299  0.43202413  1
  O2-  O146  1  0.07048145  0.18389396  0.76834522  1
  O2-  O147  1  0.08108375  0.68411167  0.08734034  1
  O2-  O148  1  0.07771589  0.68239585  0.43105742  1
  O2-  O149  1  0.07201469  0.68147390  0.76715681  1
  O2-  O150  1  0.56856579  0.16829140  0.08788445  1
  O2-  O151  1  0.56541552  0.17365545  0.43205768  1
  O2-  O152  1  0.56695625  0.17837414  0.76518579  1
  O2-  O153  1  0.56857068  0.68301393  0.08850796  1
  O2-  O154  1  0.56752539  0.68019270  0.43407427  1
  O2-  O155  1  0.56861127  0.68178346  0.75779476  1
  O2-  O156  1  0.18423782  0.42515353  0.24526718  1
  O2-  O157  1  0.17918743  0.43024766  0.57666643  1
  O2-  O158  1  0.18394074  0.42874015  0.90146938  1
  O2-  O159  1  0.18348327  0.92701713  0.24343023  1
  O2-  O160  1  0.18195047  0.92530835  0.57780836  1
  O2-  O161  1  0.18228306  0.92588153  0.91176201  1
  O2-  O162  1  0.67575957  0.42831304  0.23612308  1
  O2-  O163  1  0.67507920  0.43152121  0.57650945  1
  O2-  O164  1  0.67632616  0.43167602  0.89953503  1
  O2-  O165  1  0.67869263  0.93148520  0.23208908  1
  O2-  O166  1  0.67786311  0.92723594  0.56936094  1
  O2-  O167  1  0.67476818  0.93193905  0.91126384  1
  O2-  O168  1  0.42954602  0.31572399  0.09952577  1
  O2-  O169  1  0.42535685  0.32112108  0.42130705  1
  O2-  O170  1  0.42892194  0.32281235  0.76430449  1
  O2-  O171  1  0.42597282  0.82359977  0.08898659  1
  O2-  O172  1  0.42554946  0.82236651  0.42281032  1
  O2-  O173  1  0.42666926  0.81948357  0.75860375  1
  O2-  O174  1  0.92968538  0.32082135  0.09778192  1
  O2-  O175  1  0.93128999  0.31893581  0.43350123  1
  O2-  O176  1  0.93020591  0.32570587  0.75726054  1
  O2-  O177  1  0.92903947  0.82274048  0.09520282  1
  O2-  O178  1  0.93046153  0.82069641  0.43337632  1
  O2-  O179  1  0.92767195  0.81968472  0.75588163  1
  O2-  O180  1  0.32009779  0.06891339  0.24367340  1
  O2-  O181  1  0.31784136  0.06862710  0.56762635  1
  O2-  O182  1  0.32008341  0.06904867  0.91217878  1
  O2-  O183  1  0.31991347  0.57334947  0.24247523  1
  O2-  O184  1  0.31978721  0.57435053  0.56607071  1
  O2-  O185  1  0.32147569  0.57777967  0.91230834  1
  O2-  O186  1  0.82288922  0.06910959  0.24064069  1
  O2-  O187  1  0.82538786  0.06876227  0.56749193  1
  O2-  O188  1  0.82501677  0.06782785  0.91007024  1
  O2-  O189  1  0.81838560  0.57062148  0.23582243  1
  O2-  O190  1  0.82156420  0.57014570  0.56806348  1
  O2-  O191  1  0.81826854  0.57199059  0.90163719  1
  O2-  O192  1  0.05276279  0.07750642  0.26610064  1
  O2-  O193  1  0.04513251  0.07915486  0.60270317  1
  O2-  O194  1  0.04991400  0.08424412  0.93863745  1
  O2-  O195  1  0.05604443  0.57524438  0.26961327  1
  O2-  O196  1  0.04336164  0.58214057  0.59976677  1
  O2-  O197  1  0.05653051  0.58297650  0.93981077  1
  O2-  O198  1  0.53271207  0.08437236  0.26284781  1
  O2-  O199  1  0.53554348  0.07963165  0.60176144  1
  O2-  O200  1  0.53869836  0.08313619  0.93521901  1
  O2-  O201  1  0.53528110  0.58423557  0.26418197  1
  O2-  O202  1  0.54115783  0.59095921  0.60404331  1
  O2-  O203  1  0.54329894  0.58938503  0.93541347  1
  O2-  O204  1  0.17199680  0.20785725  0.26533558  1
  O2-  O205  1  0.16300802  0.21167474  0.59905966  1
  O2-  O206  1  0.16768987  0.20481597  0.94222198  1
  O2-  O207  1  0.16923313  0.71201857  0.26185050  1
  O2-  O208  1  0.16672953  0.71254435  0.60023788  1
  O2-  O209  1  0.16712183  0.71117903  0.93526181  1
  O2-  O210  1  0.66819503  0.20034245  0.26464838  1
  O2-  O211  1  0.67049750  0.20043196  0.59913405  1
  O2-  O212  1  0.66875570  0.19049058  0.93875307  1
  O2-  O213  1  0.66493841  0.71027122  0.26449850  1
  O2-  O214  1  0.66309564  0.70915597  0.60638585  1
  O2-  O215  1  0.65916414  0.71276815  0.93431680  1
  O2-  O216  1  0.08633899  0.45876081  0.07096151  1
  O2-  O217  1  0.08843199  0.45009475  0.39818785  1
  O2-  O218  1  0.08669674  0.45701400  0.72955103  1
  O2-  O219  1  0.08694573  0.95497623  0.06294796  1
  O2-  O220  1  0.08609496  0.95110877  0.39513188  1
  O2-  O221  1  0.08144843  0.94559969  0.72701101  1
  O2-  O222  1  0.58102071  0.45908221  0.06658625  1
  O2-  O223  1  0.57703451  0.45575645  0.40043170  1
  O2-  O224  1  0.58511724  0.46116027  0.72858647  1
  O2-  O225  1  0.58599104  0.95703909  0.06414233  1
  O2-  O226  1  0.58077407  0.95920873  0.39789456  1
  O2-  O227  1  0.57892621  0.95587725  0.73732374  1
  O2-  O228  1  0.21658912  0.33398304  0.07053239  1
  O2-  O229  1  0.21334442  0.33703384  0.39837249  1
  O2-  O230  1  0.20351123  0.33577309  0.72888304  1
  O2-  O231  1  0.21185447  0.83874787  0.06613375  1
  O2-  O232  1  0.21157805  0.83781242  0.39703704  1
  O2-  O233  1  0.21077869  0.83756831  0.73279084  1
  O2-  O234  1  0.69968488  0.32381318  0.06024665  1
  O2-  O235  1  0.70263220  0.32528075  0.39933689  1
  O2-  O236  1  0.69306265  0.33218351  0.72571027  1
  O2-  O237  1  0.70683968  0.83833337  0.06047844  1
  O2-  O238  1  0.70702895  0.83315154  0.39963448  1
  O2-  O239  1  0.70536321  0.83185134  0.73913007  1
  O2-  O240  1  0.44664634  0.41785626  0.27063749  1
  O2-  O241  1  0.45271043  0.42424420  0.59937639  1
  O2-  O242  1  0.45557956  0.41971830  0.93372592  1
  O2-  O243  1  0.45124113  0.91635817  0.27027243  1
  O2-  O244  1  0.45154591  0.91453066  0.60747278  1
  O2-  O245  1  0.45694544  0.91361311  0.93652386  1
  O2-  O246  1  0.96115998  0.41649507  0.26619547  1
  O2-  O247  1  0.95907587  0.41385826  0.60362838  1
  O2-  O248  1  0.96298645  0.41977678  0.93329354  1
  O2-  O249  1  0.96064018  0.91393417  0.26346447  1
  O2-  O250  1  0.95019237  0.91410666  0.60472217  1
  O2-  O251  1  0.96429593  0.91531468  0.92732935  1
  O2-  O252  1  0.33804075  0.28984347  0.26830458  1
  O2-  O253  1  0.33020482  0.29433755  0.59773324  1
  O2-  O254  1  0.33607241  0.28500442  0.93262424  1
  O2-  O255  1  0.33626077  0.79504270  0.26837070  1
  O2-  O256  1  0.33737605  0.79181181  0.60423855  1
  O2-  O257  1  0.33545560  0.79632467  0.93550465  1
  O2-  O258  1  0.83129148  0.29273854  0.26412472  1
  O2-  O259  1  0.83009294  0.30539872  0.60871959  1
  O2-  O260  1  0.83350395  0.29126245  0.92973729  1
  O2-  O261  1  0.82889022  0.79371837  0.26571871  1
  O2-  O262  1  0.83056333  0.79449127  0.60788320  1
  O2-  O263  1  0.83084563  0.79364201  0.92800314  1
  O2-  O264  1  0.41158572  0.03804086  0.06477270  1
  O2-  O265  1  0.40958729  0.03977402  0.39743874  1
  O2-  O266  1  0.41039564  0.03784938  0.73926424  1
  O2-  O267  1  0.41754697  0.55011469  0.06197244  1
  O2-  O268  1  0.41120533  0.54535057  0.39533052  1
  O2-  O269  1  0.41831027  0.54593015  0.73513986  1
  O2-  O270  1  0.91539948  0.03833997  0.06171301  1
  O2-  O271  1  0.91890025  0.04437350  0.39055335  1
  O2-  O272  1  0.92020339  0.04295322  0.73705468  1
  O2-  O273  1  0.92359335  0.55374948  0.06418956  1
  O2-  O274  1  0.92245642  0.54262707  0.39953344  1
  O2-  O275  1  0.91946116  0.54141253  0.73500141  1
  O2-  O276  1  0.29530409  0.16125908  0.06639021  1
  O2-  O277  1  0.29428470  0.16367463  0.39595642  1
  O2-  O278  1  0.28708726  0.16963194  0.73446492  1
  O2-  O279  1  0.29864387  0.66927975  0.06412670  1
  O2-  O280  1  0.29359928  0.66590206  0.39411352  1
  O2-  O281  1  0.28960740  0.66792820  0.73577799  1
  O2-  O282  1  0.79957266  0.16257048  0.06073738  1
  O2-  O283  1  0.80118658  0.16518399  0.39128872  1
  O2-  O284  1  0.79536315  0.17199125  0.73441425  1
  O2-  O285  1  0.78600023  0.67026816  0.06490265  1
  O2-  O286  1  0.79082914  0.66767141  0.40160528  1
  O2-  O287  1  0.78800197  0.66341580  0.73642047  1
