# generated using pymatgen
data_Ca2Al2SiO7
_symmetry_space_group_name_H-M   'P 1'
_cell_length_a   15.47044918
_cell_length_b   15.47196894
_cell_length_c   15.29465425
_cell_angle_alpha   90.00362440
_cell_angle_beta   90.01068213
_cell_angle_gamma   90.00574568
_symmetry_Int_Tables_number   1
_chemical_formula_structural   Ca2Al2SiO7
_chemical_formula_sum   'Ca48 Al48 Si24 O168'
_cell_volume   3660.90249336
_cell_formula_units_Z   24
loop_
 _symmetry_equiv_pos_site_id
 _symmetry_equiv_pos_as_xyz
  1  'x, y, z'
loop_
 _atom_type_symbol
 _atom_type_oxidation_number
  Ca2+  2.0
  Al0+  0.0
  Si0+  0.0
  O2-  -2.0
loop_
 _atom_site_type_symbol
 _atom_site_label
 _atom_site_symmetry_multiplicity
 _atom_site_fract_x
 _atom_site_fract_y
 _atom_site_fract_z
 _atom_site_occupancy
  Ca2+  Ca0  1  0.17297507  0.09401653  0.16424852  1
  Ca2+  Ca1  1  0.17403714  0.08505885  0.51136274  1
  Ca2+  Ca2  1  0.17811615  0.09512607  0.83522805  1
  Ca2+  Ca3  1  0.17210297  0.57119489  0.17648296  1
  Ca2+  Ca4  1  0.17501122  0.57466480  0.50466948  1
  Ca2+  Ca5  1  0.17437160  0.56950638  0.83382816  1
  Ca2+  Ca6  1  0.67053481  0.08383719  0.17451521  1
  Ca2+  Ca7  1  0.66124992  0.07533710  0.50666598  1
  Ca2+  Ca8  1  0.64928483  0.07946412  0.83547839  1
  Ca2+  Ca9  1  0.66625765  0.57404479  0.16598165  1
  Ca2+  Ca10  1  0.67172405  0.58090517  0.51332892  1
  Ca2+  Ca11  1  0.65985562  0.56949789  0.82912668  1
  Ca2+  Ca12  1  0.07969697  0.33389303  0.15655907  1
  Ca2+  Ca13  1  0.08946618  0.33440088  0.50029956  1
  Ca2+  Ca14  1  0.08839306  0.32927289  0.82954536  1
  Ca2+  Ca15  1  0.08700414  0.82360038  0.16518314  1
  Ca2+  Ca16  1  0.08313128  0.82340680  0.49310569  1
  Ca2+  Ca17  1  0.08037172  0.83136689  0.82695828  1
  Ca2+  Ca18  1  0.57203693  0.32991359  0.15525121  1
  Ca2+  Ca19  1  0.56807719  0.34529193  0.49999044  1
  Ca2+  Ca20  1  0.57597857  0.32888403  0.82433489  1
  Ca2+  Ca21  1  0.58691470  0.83293453  0.16568051  1
  Ca2+  Ca22  1  0.58486718  0.83243084  0.50471306  1
  Ca2+  Ca23  1  0.57949794  0.82689297  0.81939463  1
  Ca2+  Ca24  1  0.32476411  0.41104619  0.17232914  1
  Ca2+  Ca25  1  0.32741375  0.41819745  0.50724732  1
  Ca2+  Ca26  1  0.32720431  0.40462983  0.83479409  1
  Ca2+  Ca27  1  0.33378723  0.92654434  0.16786001  1
  Ca2+  Ca28  1  0.33746776  0.92375281  0.51035942  1
  Ca2+  Ca29  1  0.34450413  0.93148764  0.83244078  1
  Ca2+  Ca30  1  0.82569186  0.40382942  0.16404024  1
  Ca2+  Ca31  1  0.82501100  0.42338483  0.51070812  1
  Ca2+  Ca32  1  0.82270784  0.41212007  0.83406152  1
  Ca2+  Ca33  1  0.82637479  0.92825627  0.17803492  1
  Ca2+  Ca34  1  0.82298469  0.92243914  0.50354081  1
  Ca2+  Ca35  1  0.82667736  0.92017275  0.83302998  1
  Ca2+  Ca36  1  0.41855769  0.17718049  0.15828209  1
  Ca2+  Ca37  1  0.41879616  0.17768178  0.50404526  1
  Ca2+  Ca38  1  0.42014043  0.17373162  0.82865265  1
  Ca2+  Ca39  1  0.41220203  0.66721321  0.16645398  1
  Ca2+  Ca40  1  0.41524947  0.66414065  0.49979468  1
  Ca2+  Ca41  1  0.41789388  0.67437060  0.81943776  1
  Ca2+  Ca42  1  0.92215677  0.17063024  0.15770845  1
  Ca2+  Ca43  1  0.92247983  0.16302302  0.49859115  1
  Ca2+  Ca44  1  0.92892473  0.17299770  0.83153961  1
  Ca2+  Ca45  1  0.92361918  0.66524733  0.16530458  1
  Ca2+  Ca46  1  0.92189002  0.66162112  0.49529568  1
  Ca2+  Ca47  1  0.91448706  0.66359390  0.82581557  1
  Al0+  Al48  1  -0.00055917  -0.00311178  -0.00241708  1
  Al0+  Al49  1  -0.00059617  -0.00049486  0.33488095  1
  Al0+  Al50  1  -0.00077902  -0.00031631  0.66255460  1
  Al0+  Al51  1  -0.00080567  0.50201850  -0.00093391  1
  Al0+  Al52  1  0.00026022  0.49809620  0.33017456  1
  Al0+  Al53  1  0.00083156  0.49968858  0.67333359  1
  Al0+  Al54  1  0.49748742  -0.00190522  0.00614921  1
  Al0+  Al55  1  0.49996162  -0.00158202  0.33596418  1
  Al0+  Al56  1  0.49973861  -0.00004130  0.66703870  1
  Al0+  Al57  1  0.50110065  0.50199164  0.00182041  1
  Al0+  Al58  1  0.49894576  0.50221439  0.32807460  1
  Al0+  Al59  1  0.50087856  0.50268917  0.66544390  1
  Al0+  Al60  1  0.25093265  0.24964773  0.00436576  1
  Al0+  Al61  1  0.24977602  0.24977082  0.33343555  1
  Al0+  Al62  1  0.25052746  0.24795308  0.66527913  1
  Al0+  Al63  1  0.24903449  0.75046995  -0.00148830  1
  Al0+  Al64  1  0.25074136  0.74972517  0.32926207  1
  Al0+  Al65  1  0.24720673  0.75032298  0.66560609  1
  Al0+  Al66  1  0.75079945  0.24686257  -0.00269834  1
  Al0+  Al67  1  0.75143789  0.24906087  0.33977235  1
  Al0+  Al68  1  0.75374420  0.24807848  0.66587921  1
  Al0+  Al69  1  0.75027958  0.75023718  0.00146108  1
  Al0+  Al70  1  0.74946892  0.75114098  0.33398147  1
  Al0+  Al71  1  0.75054496  0.75359918  0.66977459  1
  Al0+  Al72  1  0.42963158  0.32307267  0.98546923  1
  Al0+  Al73  1  0.18193609  0.42812580  0.68295301  1
  Al0+  Al74  1  0.82166271  0.57196058  0.68029207  1
  Al0+  Al75  1  0.57384418  0.17832338  0.65124037  1
  Al0+  Al76  1  0.31954919  0.06967458  0.01559578  1
  Al0+  Al77  1  0.67945906  0.42709869  0.01372347  1
  Al0+  Al78  1  0.42712464  0.82081692  0.65134542  1
  Al0+  Al79  1  0.32187789  0.57247334  0.34793265  1
  Al0+  Al80  1  0.67777547  0.92851779  0.35066028  1
  Al0+  Al81  1  0.82250687  0.07306599  0.35007018  1
  Al0+  Al82  1  0.17979216  0.42985847  0.01438551  1
  Al0+  Al83  1  0.07112140  0.67784266  0.31879771  1
  Al0+  Al84  1  0.42942919  0.32177779  0.31799178  1
  Al0+  Al85  1  0.68043773  0.93364786  0.68277102  1
  Al0+  Al86  1  0.42976461  0.32215136  0.65162329  1
  Al0+  Al87  1  0.32056625  0.06941799  0.67963487  1
  Al0+  Al88  1  0.92725739  0.32332567  0.98368475  1
  Al0+  Al89  1  0.57086544  0.17625043  0.98830385  1
  Al0+  Al90  1  0.07042918  0.18004318  0.65181936  1
  Al0+  Al91  1  0.67787101  0.42636700  0.67987682  1
  Al0+  Al92  1  0.32224350  0.57356235  0.68132649  1
  Al0+  Al93  1  0.57175633  0.67980612  0.65167439  1
  Al0+  Al94  1  0.07126860  0.17852537  0.98577461  1
  Al0+  Al95  1  0.17788930  0.42742874  0.34888017  1
  Si0+  Si96  1  0.82626483  0.07195416  0.68620456  1
  Si0+  Si97  1  0.07112415  0.67948548  0.98265718  1
  Si0+  Si98  1  0.42832590  0.81921631  0.98666539  1
  Si0+  Si99  1  0.57157225  0.17751694  0.31893044  1
  Si0+  Si100  1  0.17558763  0.92566080  0.01733779  1
  Si0+  Si101  1  0.92773580  0.32069687  0.31933319  1
  Si0+  Si102  1  0.67941519  0.92879804  0.01563770  1
  Si0+  Si103  1  0.42886760  0.82244521  0.31612838  1
  Si0+  Si104  1  0.31955845  0.07031681  0.34917615  1
  Si0+  Si105  1  0.92827107  0.82139282  0.31559273  1
  Si0+  Si106  1  0.17925874  0.92782766  0.34669066  1
  Si0+  Si107  1  0.07043154  0.17733795  0.31872945  1
  Si0+  Si108  1  0.32168747  0.57582445  0.01663380  1
  Si0+  Si109  1  0.17515120  0.92773998  0.68166294  1
  Si0+  Si110  1  0.92975568  0.32368079  0.64846833  1
  Si0+  Si111  1  0.92857093  0.82170943  0.64991679  1
  Si0+  Si112  1  0.82376742  0.06858415  0.01431214  1
  Si0+  Si113  1  0.82051740  0.57420716  0.01830785  1
  Si0+  Si114  1  0.82061250  0.57063245  0.34482313  1
  Si0+  Si115  1  0.57316737  0.67990966  0.31597410  1
  Si0+  Si116  1  0.57303838  0.68079791  0.98573575  1
  Si0+  Si117  1  0.92788061  0.81903508  0.98447176  1
  Si0+  Si118  1  0.67841046  0.42959420  0.34604428  1
  Si0+  Si119  1  0.06912513  0.67808814  0.65169034  1
  O2-  O120  1  0.24101676  -0.00284851  0.06179784  1
  O2-  O121  1  0.24766348  -0.00045715  0.39040588  1
  O2-  O122  1  0.24560438  -0.00630833  0.72573227  1
  O2-  O123  1  0.25687613  0.50323457  0.05991528  1
  O2-  O124  1  0.25193116  0.49833228  0.39650462  1
  O2-  O125  1  0.25785921  0.49613188  0.73315958  1
  O2-  O126  1  0.74775128  0.00239059  0.05675455  1
  O2-  O127  1  0.74715043  0.00393834  0.39852638  1
  O2-  O128  1  0.75015012  0.01218291  0.73155982  1
  O2-  O129  1  0.75670821  0.50050980  0.06206452  1
  O2-  O130  1  0.74940504  0.50101999  0.38717147  1
  O2-  O131  1  0.74959028  0.49997702  0.72915751  1
  O2-  O132  1  -0.00123942  0.24857843  0.27850501  1
  O2-  O133  1  -0.00293226  0.25451652  0.60261921  1
  O2-  O134  1  0.00400710  0.25502047  0.93575504  1
  O2-  O135  1  -0.00322047  0.75317296  0.27019784  1
  O2-  O136  1  -0.00240017  0.74855008  0.60866939  1
  O2-  O137  1  -0.00178277  0.74871501  0.94048293  1
  O2-  O138  1  0.50580302  0.24735049  0.27297547  1
  O2-  O139  1  0.50769579  0.25566841  0.60105445  1
  O2-  O140  1  0.50526954  0.25343463  0.93828278  1
  O2-  O141  1  0.50081907  0.75119722  0.27485612  1
  O2-  O142  1  0.49611969  0.74703833  0.59956358  1
  O2-  O143  1  0.49696935  0.74659879  0.94538636  1
  O2-  O144  1  0.06728386  0.17678673  0.10014979  1
  O2-  O145  1  0.07059481  0.17510075  0.42353494  1
  O2-  O146  1  0.06896993  0.17838433  0.76442126  1
  O2-  O147  1  0.07103134  0.68228871  0.08793546  1
  O2-  O148  1  0.06733938  0.68056572  0.43166076  1
  O2-  O149  1  0.06802009  0.68149751  0.75699775  1
  O2-  O150  1  0.56964814  0.17545559  0.10266672  1
  O2-  O151  1  0.56913304  0.17642234  0.42378801  1
  O2-  O152  1  0.56762790  0.17732747  0.76462223  1
  O2-  O153  1  0.57603183  0.68387518  0.09143768  1
  O2-  O154  1  0.57713783  0.67913992  0.41999089  1
  O2-  O155  1  0.57334207  0.68418313  0.76567176  1
  O2-  O156  1  0.17632231  0.42800452  0.23501012  1
  O2-  O157  1  0.17882288  0.43116378  0.56951238  1
  O2-  O158  1  0.17991887  0.43138812  0.90194186  1
  O2-  O159  1  0.18062808  0.92744165  0.24143382  1
  O2-  O160  1  0.17322144  0.92895847  0.57563906  1
  O2-  O161  1  0.17523099  0.92018529  0.91250945  1
  O2-  O162  1  0.68046777  0.42913456  0.24065656  1
  O2-  O163  1  0.68095780  0.43013470  0.56538073  1
  O2-  O164  1  0.67858013  0.43027886  0.90176703  1
  O2-  O165  1  0.68010966  0.92798952  0.23608856  1
  O2-  O166  1  0.68327107  0.93160794  0.57006853  1
  O2-  O167  1  0.68032459  0.92642474  0.91110080  1
  O2-  O168  1  0.42973151  0.32051137  0.09973200  1
  O2-  O169  1  0.42915704  0.32211743  0.43046636  1
  O2-  O170  1  0.42770380  0.31797273  0.76473340  1
  O2-  O171  1  0.42864604  0.81930537  0.09231393  1
  O2-  O172  1  0.42611809  0.82443174  0.42021491  1
  O2-  O173  1  0.43043551  0.82151723  0.76557724  1
  O2-  O174  1  0.92709169  0.31829548  0.09835629  1
  O2-  O175  1  0.92702739  0.32351591  0.42389296  1
  O2-  O176  1  0.93079925  0.32330220  0.75371368  1
  O2-  O177  1  0.92727449  0.81745215  0.08952635  1
  O2-  O178  1  0.92919502  0.82030015  0.42086324  1
  O2-  O179  1  0.93099973  0.82338929  0.75545956  1
  O2-  O180  1  0.31883772  0.06881433  0.24384635  1
  O2-  O181  1  0.31746162  0.06811192  0.56591540  1
  O2-  O182  1  0.32142742  0.06554230  0.90333549  1
  O2-  O183  1  0.31923736  0.57354991  0.23387752  1
  O2-  O184  1  0.31562780  0.57573595  0.56814013  1
  O2-  O185  1  0.31789729  0.58452539  0.91216614  1
  O2-  O186  1  0.82282258  0.07133241  0.23569554  1
  O2-  O187  1  0.83114604  0.06488745  0.58100175  1
  O2-  O188  1  0.82997707  0.06296008  0.91018009  1
  O2-  O189  1  0.81919233  0.57181867  0.23966239  1
  O2-  O190  1  0.82348156  0.57039177  0.56572356  1
  O2-  O191  1  0.81652194  0.58205546  0.91390184  1
  O2-  O192  1  0.04381418  0.08490877  0.27104549  1
  O2-  O193  1  0.03875639  0.08304740  0.59723265  1
  O2-  O194  1  0.04160736  0.07934203  0.93457671  1
  O2-  O195  1  0.03736058  0.58290558  0.26274195  1
  O2-  O196  1  0.04027637  0.58648852  0.60527391  1
  O2-  O197  1  0.04460696  0.58829958  0.93531429  1
  O2-  O198  1  0.54577115  0.08309066  0.27339048  1
  O2-  O199  1  0.53816007  0.08222749  0.59820636  1
  O2-  O200  1  0.53614349  0.07808694  0.93804476  1
  O2-  O201  1  0.54556155  0.58956305  0.26490713  1
  O2-  O202  1  0.55109735  0.58063468  0.59799248  1
  O2-  O203  1  0.55087247  0.58729759  0.94119752  1
  O2-  O204  1  0.16205975  0.20508144  0.27128579  1
  O2-  O205  1  0.16647468  0.20864841  0.59667764  1
  O2-  O206  1  0.17128486  0.20382758  0.93729579  1
  O2-  O207  1  0.16592323  0.71193543  0.26236957  1
  O2-  O208  1  0.15897348  0.70791811  0.60240255  1
  O2-  O209  1  0.16144818  0.71123253  0.93521411  1
  O2-  O210  1  0.66802352  0.20092220  0.27676943  1
  O2-  O211  1  0.67744621  0.19317024  0.60354260  1
  O2-  O212  1  0.67229423  0.19164765  0.93835103  1
  O2-  O213  1  0.66410073  0.71003542  0.26638732  1
  O2-  O214  1  0.66974977  0.71462929  0.59975521  1
  O2-  O215  1  0.66234501  0.71486302  0.93832472  1
  O2-  O216  1  0.08183389  0.46241644  0.06631537  1
  O2-  O217  1  0.07885895  0.45736415  0.39976694  1
  O2-  O218  1  0.08518663  0.46027678  0.73666738  1
  O2-  O219  1  0.08044973  0.94626459  0.06301622  1
  O2-  O220  1  0.08616157  0.95127671  0.39306682  1
  O2-  O221  1  0.08200267  0.95433197  0.72822444  1
  O2-  O222  1  0.58464115  0.46282909  0.07056832  1
  O2-  O223  1  0.58693403  0.46020577  0.39031167  1
  O2-  O224  1  0.58043010  0.45585659  0.73299114  1
  O2-  O225  1  0.58731354  0.95224006  0.06453423  1
  O2-  O226  1  0.57804152  0.95254830  0.40208884  1
  O2-  O227  1  0.58272298  0.95937593  0.73637063  1
  O2-  O228  1  0.20745914  0.33317745  0.06969490  1
  O2-  O229  1  0.20467925  0.32810569  0.40032571  1
  O2-  O230  1  0.20770898  0.32854085  0.73340903  1
  O2-  O231  1  0.20687563  0.83392744  0.06586896  1
  O2-  O232  1  0.20744398  0.83630981  0.39333010  1
  O2-  O233  1  0.19581649  0.83329126  0.72725838  1
  O2-  O234  1  0.71017511  0.32950622  0.06764222  1
  O2-  O235  1  0.70497835  0.33873021  0.39424540  1
  O2-  O236  1  0.70829581  0.32803505  0.73185289  1
  O2-  O237  1  0.71159320  0.83860959  0.06474481  1
  O2-  O238  1  0.71013008  0.83075466  0.40225788  1
  O2-  O239  1  0.71606164  0.83915971  0.73801766  1
  O2-  O240  1  0.45867405  0.41856442  0.26301971  1
  O2-  O241  1  0.45356062  0.42217755  0.59942049  1
  O2-  O242  1  0.45258755  0.42438090  0.93674333  1
  O2-  O243  1  0.45822517  0.91380006  0.26697142  1
  O2-  O244  1  0.45954181  0.91754954  0.59842215  1
  O2-  O245  1  0.45916682  0.91023777  0.94129569  1
  O2-  O246  1  0.95402591  0.41128834  0.26861000  1
  O2-  O247  1  0.95705604  0.41771268  0.60364891  1
  O2-  O248  1  0.94714511  0.42533912  0.93550572  1
  O2-  O249  1  0.95511364  0.91493536  0.26920488  1
  O2-  O250  1  0.95895378  0.91108640  0.59986667  1
  O2-  O251  1  0.95540016  0.90955398  0.93518816  1
  O2-  O252  1  0.33275814  0.28686954  0.26565067  1
  O2-  O253  1  0.33394617  0.28640902  0.59766330  1
  O2-  O254  1  0.33211570  0.28963469  0.93612144  1
  O2-  O255  1  0.33810791  0.79480420  0.26559336  1
  O2-  O256  1  0.32598087  0.79861560  0.60024756  1
  O2-  O257  1  0.33583808  0.79546322  0.93928151  1
  O2-  O258  1  0.83537193  0.29205770  0.27182663  1
  O2-  O259  1  0.83620141  0.29942020  0.60169661  1
  O2-  O260  1  0.83154178  0.28958149  0.92985137  1
  O2-  O261  1  0.83488614  0.79473060  0.26889258  1
  O2-  O262  1  0.83698696  0.79596667  0.60261449  1
  O2-  O263  1  0.83594302  0.79137426  0.93687274  1
  O2-  O264  1  0.41272837  0.03237512  0.07426971  1
  O2-  O265  1  0.41084473  0.04043101  0.39479639  1
  O2-  O266  1  0.41518700  0.03689149  0.73503587  1
  O2-  O267  1  0.41784690  0.55721790  0.06034135  1
  O2-  O268  1  0.42346984  0.55013774  0.39593417  1
  O2-  O269  1  0.42444566  0.55772592  0.72911740  1
  O2-  O270  1  0.91257163  0.03422038  0.06503115  1
  O2-  O271  1  0.91989563  0.03975271  0.40297089  1
  O2-  O272  1  0.91577850  0.03485106  0.73390926  1
  O2-  O273  1  0.91664583  0.55503174  0.06165010  1
  O2-  O274  1  0.91203488  0.54207304  0.39140633  1
  O2-  O275  1  0.91850802  0.54441342  0.73622560  1
  O2-  O276  1  0.28973358  0.16476290  0.07298659  1
  O2-  O277  1  0.29080738  0.16125270  0.39585873  1
  O2-  O278  1  0.28722574  0.16387520  0.73400552  1
  O2-  O279  1  0.29082028  0.66782623  0.06555432  1
  O2-  O280  1  0.29234407  0.67172384  0.39806021  1
  O2-  O281  1  0.28678567  0.67055514  0.73487358  1
  O2-  O282  1  0.80066501  0.16136764  0.06134461  1
  O2-  O283  1  0.80093272  0.17189732  0.40450012  1
  O2-  O284  1  0.81335827  0.16929675  0.72658025  1
  O2-  O285  1  0.78942325  0.66555902  0.06849803  1
  O2-  O286  1  0.79552829  0.66314510  0.39168729  1
  O2-  O287  1  0.79764434  0.67166617  0.73193704  1
