# generated using pymatgen
data_Ca2Al2SiO7
_symmetry_space_group_name_H-M   'P 1'
_cell_length_a   15.46193108
_cell_length_b   15.46193002
_cell_length_c   15.28545058
_cell_angle_alpha   90.00188432
_cell_angle_beta   89.99711564
_cell_angle_gamma   90.01564609
_symmetry_Int_Tables_number   1
_chemical_formula_structural   Ca2Al2SiO7
_chemical_formula_sum   'Ca48 Al48 Si24 O168'
_cell_volume   3654.31234255
_cell_formula_units_Z   24
loop_
 _symmetry_equiv_pos_site_id
 _symmetry_equiv_pos_as_xyz
  1  'x, y, z'
loop_
 _atom_type_symbol
 _atom_type_oxidation_number
  Ca2+  2.0
  Al0+  0.0
  Si0+  0.0
  O2-  -2.0
loop_
 _atom_site_type_symbol
 _atom_site_label
 _atom_site_symmetry_multiplicity
 _atom_site_fract_x
 _atom_site_fract_y
 _atom_site_fract_z
 _atom_site_occupancy
  Ca2+  Ca0  1  0.17520559  0.07848199  0.17572758  1
  Ca2+  Ca1  1  0.17188201  0.08320596  0.50115830  1
  Ca2+  Ca2  1  0.17412558  0.08175566  0.83721992  1
  Ca2+  Ca3  1  0.17395508  0.57305590  0.17801953  1
  Ca2+  Ca4  1  0.16588225  0.58392562  0.50145076  1
  Ca2+  Ca5  1  0.16474352  0.58421929  0.83418510  1
  Ca2+  Ca6  1  0.67219188  0.07882230  0.17057627  1
  Ca2+  Ca7  1  0.67484512  0.07834268  0.50278258  1
  Ca2+  Ca8  1  0.66403233  0.06992438  0.83576528  1
  Ca2+  Ca9  1  0.67273451  0.57311306  0.17194759  1
  Ca2+  Ca10  1  0.67544776  0.58523387  0.50313796  1
  Ca2+  Ca11  1  0.67790195  0.58509295  0.83862974  1
  Ca2+  Ca12  1  0.09226087  0.32589004  0.16760512  1
  Ca2+  Ca13  1  0.08140366  0.32395159  0.49667341  1
  Ca2+  Ca14  1  0.07597245  0.32708383  0.82075117  1
  Ca2+  Ca15  1  0.07898959  0.84262811  0.16727957  1
  Ca2+  Ca16  1  0.08112028  0.82957372  0.48976301  1
  Ca2+  Ca17  1  0.08406452  0.82762438  0.82887657  1
  Ca2+  Ca18  1  0.58189632  0.33657012  0.15988470  1
  Ca2+  Ca19  1  0.58469894  0.33313668  0.49320572  1
  Ca2+  Ca20  1  0.57940631  0.33670289  0.83477449  1
  Ca2+  Ca21  1  0.57708834  0.83650500  0.16439784  1
  Ca2+  Ca22  1  0.57598510  0.83462771  0.49953001  1
  Ca2+  Ca23  1  0.58357541  0.83233449  0.82147814  1
  Ca2+  Ca24  1  0.33318496  0.42083893  0.17610548  1
  Ca2+  Ca25  1  0.32684100  0.42192520  0.49623428  1
  Ca2+  Ca26  1  0.33384014  0.41702125  0.83833156  1
  Ca2+  Ca27  1  0.32283562  0.92267360  0.17555222  1
  Ca2+  Ca28  1  0.33763175  0.92346309  0.50379400  1
  Ca2+  Ca29  1  0.33188538  0.92666823  0.83862081  1
  Ca2+  Ca30  1  0.82545422  0.42581075  0.17523824  1
  Ca2+  Ca31  1  0.83431006  0.42412134  0.50449546  1
  Ca2+  Ca32  1  0.83370424  0.42662456  0.83805299  1
  Ca2+  Ca33  1  0.82798560  0.91644101  0.17459455  1
  Ca2+  Ca34  1  0.83499460  0.91852720  0.50117282  1
  Ca2+  Ca35  1  0.81961195  0.91040631  0.83566440  1
  Ca2+  Ca36  1  0.41090515  0.17037434  0.16230231  1
  Ca2+  Ca37  1  0.41487002  0.16164979  0.49548985  1
  Ca2+  Ca38  1  0.41087301  0.16768614  0.83179968  1
  Ca2+  Ca39  1  0.41151588  0.67122967  0.16710439  1
  Ca2+  Ca40  1  0.41879296  0.67810708  0.49226355  1
  Ca2+  Ca41  1  0.42817295  0.67825590  0.81953270  1
  Ca2+  Ca42  1  0.92226131  0.16078468  0.16785405  1
  Ca2+  Ca43  1  0.92650270  0.16507985  0.49032341  1
  Ca2+  Ca44  1  0.92328794  0.17583817  0.82173079  1
  Ca2+  Ca45  1  0.91046172  0.66669534  0.16814229  1
  Ca2+  Ca46  1  0.91586509  0.66841143  0.49666418  1
  Ca2+  Ca47  1  0.91916956  0.66241423  0.82515738  1
  Al0+  Al48  1  -0.00037491  -0.00166500  -0.00367732  1
  Al0+  Al49  1  0.00016345  -0.00074308  0.33089187  1
  Al0+  Al50  1  0.00159376  0.00054560  0.66607086  1
  Al0+  Al51  1  0.00114883  0.50055145  0.00419116  1
  Al0+  Al52  1  -0.00166332  0.49813346  0.33847006  1
  Al0+  Al53  1  -0.00043726  0.49976677  0.66303086  1
  Al0+  Al54  1  0.50002134  0.00232480  0.00688330  1
  Al0+  Al55  1  0.49951435  -0.00025711  0.32925218  1
  Al0+  Al56  1  0.49933197  0.00267343  0.67192207  1
  Al0+  Al57  1  0.50082986  0.50105336  -0.00368535  1
  Al0+  Al58  1  0.50005526  0.49966060  0.34036337  1
  Al0+  Al59  1  0.50043299  0.50038981  0.66251751  1
  Al0+  Al60  1  0.25086067  0.25043224  -0.00383575  1
  Al0+  Al61  1  0.25078582  0.24991729  0.33631137  1
  Al0+  Al62  1  0.24952957  0.25050726  0.66756165  1
  Al0+  Al63  1  0.24869353  0.75071851  0.00074675  1
  Al0+  Al64  1  0.24986278  0.74961654  0.33275820  1
  Al0+  Al65  1  0.25012231  0.75089392  0.66010672  1
  Al0+  Al66  1  0.74945946  0.24954073  -0.00132702  1
  Al0+  Al67  1  0.75052731  0.24787342  0.33849382  1
  Al0+  Al68  1  0.74770326  0.25222669  0.66466606  1
  Al0+  Al69  1  0.75019833  0.75094678  0.00794288  1
  Al0+  Al70  1  0.74810818  0.74763110  0.33104798  1
  Al0+  Al71  1  0.75032487  0.74817337  0.67066757  1
  Al0+  Al72  1  0.67874321  0.92908418  0.01524898  1
  Al0+  Al73  1  0.07163376  0.17798553  0.65084351  1
  Al0+  Al74  1  0.07111354  0.67969557  0.65329521  1
  Al0+  Al75  1  0.17800479  0.92714723  0.01475851  1
  Al0+  Al76  1  0.68190380  0.93143919  0.67765856  1
  Al0+  Al77  1  0.82118500  0.06830698  0.34545878  1
  Al0+  Al78  1  0.67892983  0.42739665  0.34979058  1
  Al0+  Al79  1  0.31925211  0.07317860  0.01617673  1
  Al0+  Al80  1  0.82039563  0.56814010  0.68147162  1
  Al0+  Al81  1  0.07167883  0.18018884  0.31746354  1
  Al0+  Al82  1  0.67785967  0.42878824  0.01316328  1
  Al0+  Al83  1  0.92891426  0.81911806  0.31943424  1
  Al0+  Al84  1  0.82009774  0.57215040  0.35124876  1
  Al0+  Al85  1  0.17820751  0.42711756  0.34912687  1
  Al0+  Al86  1  0.31924689  0.07121513  0.68247286  1
  Al0+  Al87  1  0.92695747  0.32112120  0.65093683  1
  Al0+  Al88  1  0.17771184  0.92921689  0.34936367  1
  Al0+  Al89  1  0.42816707  0.82168002  0.31661958  1
  Al0+  Al90  1  0.42973584  0.32147966  0.98665888  1
  Al0+  Al91  1  0.82362233  0.57073912  0.01698604  1
  Al0+  Al92  1  0.32193543  0.07005180  0.34924119  1
  Al0+  Al93  1  0.32112312  0.57236386  0.34891885  1
  Al0+  Al94  1  0.43041998  0.82409174  0.65269351  1
  Al0+  Al95  1  0.57376118  0.67852163  0.65107546  1
  Si0+  Si96  1  0.92758399  0.82048998  0.98418644  1
  Si0+  Si97  1  0.17650835  0.92516169  0.68311116  1
  Si0+  Si98  1  0.32147580  0.57134460  0.01086810  1
  Si0+  Si99  1  0.32227301  0.57302410  0.68165211  1
  Si0+  Si100  1  0.07095082  0.67759516  0.98640601  1
  Si0+  Si101  1  0.92653426  0.32091291  0.31498203  1
  Si0+  Si102  1  0.57333530  0.17836882  0.31794026  1
  Si0+  Si103  1  0.56993963  0.67662855  0.31417476  1
  Si0+  Si104  1  0.42801743  0.32229324  0.65017579  1
  Si0+  Si105  1  0.82258740  0.07244135  0.01359491  1
  Si0+  Si106  1  0.43127773  0.32030626  0.32021526  1
  Si0+  Si107  1  0.92730984  0.82155044  0.65288058  1
  Si0+  Si108  1  0.07059989  0.17874239  0.98390767  1
  Si0+  Si109  1  0.17973949  0.42940062  0.01213719  1
  Si0+  Si110  1  0.57363148  0.17676471  0.98217035  1
  Si0+  Si111  1  0.57105399  0.68132441  0.98581274  1
  Si0+  Si112  1  0.92923091  0.32218270  0.98680027  1
  Si0+  Si113  1  0.07180967  0.67507766  0.31513646  1
  Si0+  Si114  1  0.82419720  0.07466157  0.68262452  1
  Si0+  Si115  1  0.67449281  0.42584187  0.68557088  1
  Si0+  Si116  1  0.56942928  0.17954297  0.65236966  1
  Si0+  Si117  1  0.67677078  0.92721179  0.34926291  1
  Si0+  Si118  1  0.18126824  0.43152745  0.68247811  1
  Si0+  Si119  1  0.42827633  0.82210690  0.98571113  1
  O2-  O120  1  0.24869800  -0.00012313  0.06475585  1
  O2-  O121  1  0.25255081  -0.00302641  0.40058560  1
  O2-  O122  1  0.24416120  -0.00458818  0.72694568  1
  O2-  O123  1  0.25238628  0.49873898  0.05333126  1
  O2-  O124  1  0.24447801  0.50486801  0.39862266  1
  O2-  O125  1  0.25155271  0.50277386  0.72665695  1
  O2-  O126  1  0.75402694  0.00436393  0.05867903  1
  O2-  O127  1  0.74845566  -0.00749343  0.39312205  1
  O2-  O128  1  0.75800632  0.00406307  0.72753737  1
  O2-  O129  1  0.75186505  0.49722988  0.06396352  1
  O2-  O130  1  0.75048518  0.49813657  0.40093042  1
  O2-  O131  1  0.74453953  0.49401202  0.72808980  1
  O2-  O132  1  -0.00196620  0.25591836  0.26861384  1
  O2-  O133  1  -0.00694137  0.24329453  0.60195138  1
  O2-  O134  1  -0.00157619  0.24962711  0.94334493  1
  O2-  O135  1  0.00326027  0.74395694  0.27046866  1
  O2-  O136  1  0.00009066  0.75801741  0.60855752  1
  O2-  O137  1  -0.00120671  0.74810376  0.94415564  1
  O2-  O138  1  0.50290891  0.25065786  0.27702097  1
  O2-  O139  1  0.50156684  0.25340001  0.60968588  1
  O2-  O140  1  0.50424050  0.24628844  0.93937193  1
  O2-  O141  1  0.50140590  0.74531207  0.26877931  1
  O2-  O142  1  0.49969870  0.74920661  0.60281448  1
  O2-  O143  1  0.50198350  0.75424928  0.94273243  1
  O2-  O144  1  0.07116770  0.17940595  0.08879232  1
  O2-  O145  1  0.07098020  0.18133086  0.43002874  1
  O2-  O146  1  0.07196662  0.18236554  0.76561290  1
  O2-  O147  1  0.07312652  0.67457116  0.09055893  1
  O2-  O148  1  0.07078434  0.67650792  0.42070467  1
  O2-  O149  1  0.07051878  0.67928483  0.76752866  1
  O2-  O150  1  0.57635262  0.17686767  0.08753129  1
  O2-  O151  1  0.57308591  0.17734721  0.42332020  1
  O2-  O152  1  0.56898124  0.17896604  0.75756366  1
  O2-  O153  1  0.56791085  0.67980304  0.09059769  1
  O2-  O154  1  0.56986955  0.67831250  0.41947730  1
  O2-  O155  1  0.57246617  0.68041985  0.76588863  1
  O2-  O156  1  0.18376555  0.42656820  0.23429415  1
  O2-  O157  1  0.18362775  0.43098438  0.57814625  1
  O2-  O158  1  0.17800534  0.43130407  0.90673227  1
  O2-  O159  1  0.17811130  0.93313659  0.23554313  1
  O2-  O160  1  0.17548265  0.92406919  0.57837082  1
  O2-  O161  1  0.17954844  0.92539758  0.90086453  1
  O2-  O162  1  0.67807930  0.42779833  0.23587775  1
  O2-  O163  1  0.67333330  0.42430824  0.58056986  1
  O2-  O164  1  0.67821459  0.43214528  0.89967779  1
  O2-  O165  1  0.67736209  0.93050075  0.24323400  1
  O2-  O166  1  0.68241011  0.93440875  0.56492737  1
  O2-  O167  1  0.67947309  0.92784152  0.90181662  1
  O2-  O168  1  0.42896471  0.32272909  0.09954922  1
  O2-  O169  1  0.43204386  0.31893263  0.42552247  1
  O2-  O170  1  0.42769363  0.32307211  0.75565463  1
  O2-  O171  1  0.42742862  0.81792481  0.09048488  1
  O2-  O172  1  0.43314015  0.82423092  0.42933394  1
  O2-  O173  1  0.43203169  0.82278971  0.76741337  1
  O2-  O174  1  0.93066251  0.32225501  0.09142001  1
  O2-  O175  1  0.92572403  0.31696685  0.42017250  1
  O2-  O176  1  0.93123854  0.32148700  0.76599661  1
  O2-  O177  1  0.92741084  0.82265458  0.08880516  1
  O2-  O178  1  0.92929156  0.81878948  0.43262905  1
  O2-  O179  1  0.92668425  0.81911732  0.75917805  1
  O2-  O180  1  0.32087149  0.07203652  0.23580117  1
  O2-  O181  1  0.32127098  0.07179763  0.57019545  1
  O2-  O182  1  0.31689383  0.07322445  0.90220800  1
  O2-  O183  1  0.32190485  0.56793631  0.23396999  1
  O2-  O184  1  0.32127479  0.57053214  0.57734682  1
  O2-  O185  1  0.31924111  0.57152027  0.90547014  1
  O2-  O186  1  0.81810797  0.06835711  0.23182884  1
  O2-  O187  1  0.82256849  0.07356407  0.57728798  1
  O2-  O188  1  0.82218166  0.07183308  0.90783032  1
  O2-  O189  1  0.81755259  0.57065238  0.23747919  1
  O2-  O190  1  0.82011906  0.56866284  0.56937094  1
  O2-  O191  1  0.82563244  0.57006465  0.90312664  1
  O2-  O192  1  0.03777295  0.08505327  0.26262383  1
  O2-  O193  1  0.05078452  0.07701536  0.60049072  1
  O2-  O194  1  0.04370621  0.08683194  0.93552710  1
  O2-  O195  1  0.04632628  0.58001625  0.27054364  1
  O2-  O196  1  0.03949349  0.58451544  0.59899642  1
  O2-  O197  1  0.04442834  0.58522694  0.93748962  1
  O2-  O198  1  0.54534329  0.08786792  0.26812125  1
  O2-  O199  1  0.53845936  0.08980346  0.60408783  1
  O2-  O200  1  0.54562445  0.08307679  0.93638069  1
  O2-  O201  1  0.54193956  0.58228395  0.27012677  1
  O2-  O202  1  0.54769414  0.57941769  0.59918321  1
  O2-  O203  1  0.54271393  0.59085215  0.93599668  1
  O2-  O204  1  0.16854673  0.21405033  0.26392576  1
  O2-  O205  1  0.16782428  0.21431306  0.59930834  1
  O2-  O206  1  0.16111569  0.20919197  0.93554484  1
  O2-  O207  1  0.16634255  0.69761883  0.26949780  1
  O2-  O208  1  0.16801177  0.70471425  0.59789289  1
  O2-  O209  1  0.16232570  0.70621182  0.93661432  1
  O2-  O210  1  0.66524203  0.20553784  0.27000784  1
  O2-  O211  1  0.66200981  0.20353188  0.60420861  1
  O2-  O212  1  0.66683937  0.20095450  0.93313076  1
  O2-  O213  1  0.66291389  0.70202871  0.26675200  1
  O2-  O214  1  0.67125277  0.70944349  0.59935868  1
  O2-  O215  1  0.66450662  0.70921742  0.94130603  1
  O2-  O216  1  0.09018374  0.45741668  0.06272471  1
  O2-  O217  1  0.07811093  0.44748866  0.39999553  1
  O2-  O218  1  0.08939398  0.45988570  0.72957238  1
  O2-  O219  1  0.07728017  0.95354329  0.06309813  1
  O2-  O220  1  0.08001652  0.95872915  0.40099185  1
  O2-  O221  1  0.08203817  0.94867720  0.73029113  1
  O2-  O222  1  0.57967215  0.45986399  0.06555204  1
  O2-  O223  1  0.58103254  0.45406059  0.40355853  1
  O2-  O224  1  0.57985468  0.45183810  0.73028195  1
  O2-  O225  1  0.58342999  0.95972258  0.07059824  1
  O2-  O226  1  0.58518483  0.95816801  0.39445413  1
  O2-  O227  1  0.58750816  0.96554968  0.73475811  1
  O2-  O228  1  0.20680279  0.33738812  0.05801303  1
  O2-  O229  1  0.21449241  0.33329851  0.40450641  1
  O2-  O230  1  0.21080330  0.34080246  0.73169800  1
  O2-  O231  1  0.20545419  0.82872845  0.06825200  1
  O2-  O232  1  0.19972751  0.82779548  0.39661676  1
  O2-  O233  1  0.20313053  0.83125631  0.72924877  1
  O2-  O234  1  0.70067573  0.32767986  0.06264393  1
  O2-  O235  1  0.70491812  0.32851545  0.40235390  1
  O2-  O236  1  0.69737889  0.33118296  0.73183911  1
  O2-  O237  1  0.70944229  0.83475908  0.07224952  1
  O2-  O238  1  0.69794222  0.83200139  0.39150636  1
  O2-  O239  1  0.71177332  0.83550174  0.73439336  1
  O2-  O240  1  0.45751294  0.41324153  0.27367440  1
  O2-  O241  1  0.45271783  0.41426664  0.60215453  1
  O2-  O242  1  0.45956137  0.41792949  0.92930097  1
  O2-  O243  1  0.46165615  0.91707652  0.26045733  1
  O2-  O244  1  0.46284180  0.92182134  0.60154855  1
  O2-  O245  1  0.45376280  0.91659331  0.94290707  1
  O2-  O246  1  0.94858480  0.41675712  0.27182813  1
  O2-  O247  1  0.96245829  0.41582855  0.59720629  1
  O2-  O248  1  0.96063274  0.41353142  0.93945586  1
  O2-  O249  1  0.95916212  0.91499540  0.26298457  1
  O2-  O250  1  0.94629545  0.91776571  0.60984123  1
  O2-  O251  1  0.95386836  0.91162810  0.93337169  1
  O2-  O252  1  0.33984345  0.29232118  0.27239544  1
  O2-  O253  1  0.33713991  0.29212277  0.60385884  1
  O2-  O254  1  0.33325868  0.29204013  0.92927936  1
  O2-  O255  1  0.33129147  0.79038736  0.26238161  1
  O2-  O256  1  0.33212024  0.79819015  0.60002356  1
  O2-  O257  1  0.33721800  0.79171289  0.93772378  1
  O2-  O258  1  0.83377730  0.29037919  0.26914486  1
  O2-  O259  1  0.82539138  0.30187644  0.60140093  1
  O2-  O260  1  0.83698187  0.29666298  0.93840291  1
  O2-  O261  1  0.83119726  0.78957431  0.26476210  1
  O2-  O262  1  0.83595721  0.79188383  0.60629635  1
  O2-  O263  1  0.83496559  0.79181497  0.93809322  1
  O2-  O264  1  0.41927348  0.05145434  0.06691625  1
  O2-  O265  1  0.42231873  0.04329185  0.39921068  1
  O2-  O266  1  0.41540135  0.04196384  0.73875868  1
  O2-  O267  1  0.41315762  0.54510009  0.05778423  1
  O2-  O268  1  0.41620187  0.53973278  0.40433935  1
  O2-  O269  1  0.41438434  0.54389408  0.72863804  1
  O2-  O270  1  0.91623660  0.04623180  0.05831456  1
  O2-  O271  1  0.91666081  0.03800769  0.39958735  1
  O2-  O272  1  0.91907892  0.05296784  0.72825846  1
  O2-  O273  1  0.92186317  0.54298353  0.07065012  1
  O2-  O274  1  0.91972578  0.54774922  0.40185683  1
  O2-  O275  1  0.91775476  0.53601844  0.73503796  1
  O2-  O276  1  0.28955741  0.17232784  0.06692287  1
  O2-  O277  1  0.29428779  0.16827904  0.40137604  1
  O2-  O278  1  0.28783572  0.16853743  0.73653773  1
  O2-  O279  1  0.29194947  0.66160840  0.05951275  1
  O2-  O280  1  0.29723943  0.67152827  0.40008979  1
  O2-  O281  1  0.29485015  0.66552145  0.72830313  1
  O2-  O282  1  0.79839226  0.16594911  0.06013591  1
  O2-  O283  1  0.78941758  0.16250427  0.40223103  1
  O2-  O284  1  0.79549820  0.16805546  0.72798240  1
  O2-  O285  1  0.79438146  0.66822199  0.06930670  1
  O2-  O286  1  0.78876029  0.67030858  0.40270381  1
  O2-  O287  1  0.79082851  0.66448629  0.73759822  1
