# generated using pymatgen
data_Ca2Al2SiO7
_symmetry_space_group_name_H-M   'P 1'
_cell_length_a   15.45535948
_cell_length_b   15.45522776
_cell_length_c   15.28132141
_cell_angle_alpha   89.99925104
_cell_angle_beta   90.00944315
_cell_angle_gamma   89.97459971
_symmetry_Int_Tables_number   1
_chemical_formula_structural   Ca2Al2SiO7
_chemical_formula_sum   'Ca48 Al48 Si24 O168'
_cell_volume   3650.18925395
_cell_formula_units_Z   24
loop_
 _symmetry_equiv_pos_site_id
 _symmetry_equiv_pos_as_xyz
  1  'x, y, z'
loop_
 _atom_type_symbol
 _atom_type_oxidation_number
  Ca2+  2.0
  Al0+  0.0
  Si0+  0.0
  O2-  -2.0
loop_
 _atom_site_type_symbol
 _atom_site_label
 _atom_site_symmetry_multiplicity
 _atom_site_fract_x
 _atom_site_fract_y
 _atom_site_fract_z
 _atom_site_occupancy
  Ca2+  Ca0  1  0.16651448  0.07713438  0.16726008  1
  Ca2+  Ca1  1  0.16308615  0.07935288  0.50439297  1
  Ca2+  Ca2  1  0.16402574  0.08118764  0.84428127  1
  Ca2+  Ca3  1  0.17180824  0.58556209  0.17292033  1
  Ca2+  Ca4  1  0.17195604  0.58274829  0.50661230  1
  Ca2+  Ca5  1  0.15618853  0.57920371  0.83610368  1
  Ca2+  Ca6  1  0.66689567  0.08427369  0.17282944  1
  Ca2+  Ca7  1  0.66479418  0.07891073  0.51022408  1
  Ca2+  Ca8  1  0.66349605  0.07810035  0.83237956  1
  Ca2+  Ca9  1  0.66804392  0.58663010  0.16781414  1
  Ca2+  Ca10  1  0.66467852  0.57956542  0.50932370  1
  Ca2+  Ca11  1  0.67232713  0.58303751  0.83861633  1
  Ca2+  Ca12  1  0.07435313  0.33074312  0.15674050  1
  Ca2+  Ca13  1  0.07687432  0.33557275  0.50202067  1
  Ca2+  Ca14  1  0.07651309  0.32687846  0.82494405  1
  Ca2+  Ca15  1  0.08491624  0.83327150  0.16306444  1
  Ca2+  Ca16  1  0.07417391  0.83544105  0.49532853  1
  Ca2+  Ca17  1  0.08317474  0.82383418  0.82752482  1
  Ca2+  Ca18  1  0.57624297  0.32792885  0.16283295  1
  Ca2+  Ca19  1  0.59559857  0.32128413  0.49873441  1
  Ca2+  Ca20  1  0.57789456  0.33144611  0.82717343  1
  Ca2+  Ca21  1  0.57682286  0.82224971  0.16498258  1
  Ca2+  Ca22  1  0.58071047  0.82373828  0.49405374  1
  Ca2+  Ca23  1  0.58883623  0.82310603  0.82658907  1
  Ca2+  Ca24  1  0.33472807  0.42088738  0.17109846  1
  Ca2+  Ca25  1  0.32910965  0.42460376  0.50638866  1
  Ca2+  Ca26  1  0.32745066  0.41353091  0.83666602  1
  Ca2+  Ca27  1  0.32111680  0.91312608  0.17161875  1
  Ca2+  Ca28  1  0.33075523  0.91227931  0.49973213  1
  Ca2+  Ca29  1  0.32573553  0.92725551  0.84414601  1
  Ca2+  Ca30  1  0.84179075  0.42260937  0.16814645  1
  Ca2+  Ca31  1  0.83194137  0.41513407  0.50828150  1
  Ca2+  Ca32  1  0.83226107  0.41622430  0.83756169  1
  Ca2+  Ca33  1  0.83480206  0.91834193  0.17316955  1
  Ca2+  Ca34  1  0.82990802  0.91271460  0.50834473  1
  Ca2+  Ca35  1  0.83022832  0.91090283  0.83227167  1
  Ca2+  Ca36  1  0.41762537  0.16779626  0.16131757  1
  Ca2+  Ca37  1  0.42963334  0.16573564  0.49799259  1
  Ca2+  Ca38  1  0.41380209  0.17091325  0.83117588  1
  Ca2+  Ca39  1  0.42226503  0.66504846  0.16580639  1
  Ca2+  Ca40  1  0.42635672  0.66646051  0.49157304  1
  Ca2+  Ca41  1  0.42923378  0.66618709  0.82941236  1
  Ca2+  Ca42  1  0.92161743  0.17906575  0.16054238  1
  Ca2+  Ca43  1  0.91774766  0.17881862  0.49913906  1
  Ca2+  Ca44  1  0.92653302  0.17411063  0.82856994  1
  Ca2+  Ca45  1  0.92105857  0.67175827  0.15913188  1
  Ca2+  Ca46  1  0.91935377  0.67745127  0.50074525  1
  Ca2+  Ca47  1  0.92421924  0.66747993  0.82981064  1
  Al0+  Al48  1  -0.00354028  0.00032291  0.00209041  1
  Al0+  Al49  1  -0.00062805  0.00150337  0.33488373  1
  Al0+  Al50  1  -0.00051284  0.00139500  0.66227125  1
  Al0+  Al51  1  -0.00238500  0.50247502  -0.00073782  1
  Al0+  Al52  1  -0.00097103  0.50097081  0.33279948  1
  Al0+  Al53  1  0.00171655  0.50134335  0.66295375  1
  Al0+  Al54  1  0.49929697  -0.00067427  0.00569592  1
  Al0+  Al55  1  0.49965820  -0.00182061  0.32549627  1
  Al0+  Al56  1  0.50001655  0.00031495  0.66973679  1
  Al0+  Al57  1  0.50064733  0.49811738  -0.00770506  1
  Al0+  Al58  1  0.50141284  0.49755285  0.33579429  1
  Al0+  Al59  1  0.49996875  0.50022403  0.66811796  1
  Al0+  Al60  1  0.25085966  0.24967946  -0.00051442  1
  Al0+  Al61  1  0.25045337  0.24821327  0.33683953  1
  Al0+  Al62  1  0.25015602  0.25169599  0.66494987  1
  Al0+  Al63  1  0.25060303  0.74982724  -0.00116604  1
  Al0+  Al64  1  0.25067278  0.74983330  0.34133389  1
  Al0+  Al65  1  0.25210377  0.75113984  0.66673949  1
  Al0+  Al66  1  0.74720641  0.24933545  -0.00203818  1
  Al0+  Al67  1  0.75180122  0.25029798  0.32383700  1
  Al0+  Al68  1  0.74994336  0.24967984  0.66711842  1
  Al0+  Al69  1  0.74960648  0.74793424  0.00220001  1
  Al0+  Al70  1  0.75158873  0.74981218  0.32661149  1
  Al0+  Al71  1  0.74952227  0.74951002  0.66405413  1
  Al0+  Al72  1  0.42667044  0.81953465  0.31761718  1
  Al0+  Al73  1  0.57081761  0.68019200  0.98451102  1
  Al0+  Al74  1  0.57172486  0.67543355  0.31763059  1
  Al0+  Al75  1  0.17952793  0.43095729  0.68108667  1
  Al0+  Al76  1  0.32222876  0.56923550  0.34697221  1
  Al0+  Al77  1  0.92854302  0.32151233  0.65210186  1
  Al0+  Al78  1  0.42933129  0.32011544  0.98650049  1
  Al0+  Al79  1  0.17706014  0.92760917  0.01453776  1
  Al0+  Al80  1  0.56941076  0.17946106  0.65571249  1
  Al0+  Al81  1  0.92952561  0.82069236  0.65320592  1
  Al0+  Al82  1  0.93084532  0.32207200  0.31790861  1
  Al0+  Al83  1  0.17861675  0.93065939  0.35012029  1
  Al0+  Al84  1  0.92983522  0.82243435  0.31834682  1
  Al0+  Al85  1  0.07392776  0.17866002  0.65031569  1
  Al0+  Al86  1  0.57102788  0.17849043  0.31937554  1
  Al0+  Al87  1  0.07419650  0.67859415  0.65013843  1
  Al0+  Al88  1  0.67899556  0.92839693  0.67899529  1
  Al0+  Al89  1  0.07271158  0.68123940  0.98851068  1
  Al0+  Al90  1  0.92748291  0.32314779  0.98348453  1
  Al0+  Al91  1  0.67921172  0.42721060  0.68068065  1
  Al0+  Al92  1  0.57038692  0.67839546  0.65313468  1
  Al0+  Al93  1  0.32094854  0.07325765  0.01686826  1
  Al0+  Al94  1  0.07009766  0.17857351  0.98693312  1
  Al0+  Al95  1  0.82034716  0.56950285  0.01459717  1
  Si0+  Si96  1  0.57162910  0.17496942  0.98237005  1
  Si0+  Si97  1  0.17609559  0.42709239  0.34924341  1
  Si0+  Si98  1  0.42931736  0.82349586  0.65190582  1
  Si0+  Si99  1  0.42664939  0.32059704  0.31945629  1
  Si0+  Si100  1  0.81870157  0.07224747  0.01606325  1
  Si0+  Si101  1  0.32444019  0.07248387  0.35254511  1
  Si0+  Si102  1  0.07337717  0.17814686  0.31671413  1
  Si0+  Si103  1  0.32124056  0.07065478  0.68063525  1
  Si0+  Si104  1  0.68135720  0.42830236  0.34663605  1
  Si0+  Si105  1  0.32265308  0.57374967  0.68621810  1
  Si0+  Si106  1  0.17724408  0.92992655  0.68162955  1
  Si0+  Si107  1  0.67946851  0.92876972  0.34666545  1
  Si0+  Si108  1  0.42766900  0.32278422  0.64856243  1
  Si0+  Si109  1  0.67624705  0.42700210  0.01748436  1
  Si0+  Si110  1  0.82247712  0.07213161  0.68383997  1
  Si0+  Si111  1  0.42801216  0.82251120  0.98265686  1
  Si0+  Si112  1  0.32339451  0.56969261  0.01295341  1
  Si0+  Si113  1  0.82163364  0.57263477  0.34927697  1
  Si0+  Si114  1  0.17856547  0.43038773  0.01417035  1
  Si0+  Si115  1  0.81909982  0.07252396  0.34834587  1
  Si0+  Si116  1  0.92655475  0.82280635  0.98456213  1
  Si0+  Si117  1  0.67924034  0.92729299  0.01731399  1
  Si0+  Si118  1  0.82146292  0.57217926  0.68220631  1
  Si0+  Si119  1  0.07167849  0.67943812  0.31809180  1
  O2-  O120  1  0.24871845  0.00030052  0.06507863  1
  O2-  O121  1  0.25438698  0.00530166  0.39701645  1
  O2-  O122  1  0.24651574  0.00321653  0.72269755  1
  O2-  O123  1  0.25008914  0.50128339  0.05638263  1
  O2-  O124  1  0.24693681  0.49418075  0.39244910  1
  O2-  O125  1  0.25136039  0.50774206  0.73042512  1
  O2-  O126  1  0.74810887  0.00066114  0.05936409  1
  O2-  O127  1  0.74894948  0.00054583  0.39067047  1
  O2-  O128  1  0.75484352  0.00146657  0.72751488  1
  O2-  O129  1  0.74758124  0.49252458  0.06248192  1
  O2-  O130  1  0.74943693  0.50186405  0.38976226  1
  O2-  O131  1  0.75453641  0.50146314  0.72655046  1
  O2-  O132  1  0.01006844  0.25172148  0.27278198  1
  O2-  O133  1  0.00164265  0.25086415  0.60129013  1
  O2-  O134  1  0.00062133  0.25183114  0.93558767  1
  O2-  O135  1  0.00511484  0.74885786  0.27188893  1
  O2-  O136  1  0.00435729  0.75294705  0.60111469  1
  O2-  O137  1  0.00027337  0.75878300  0.94272358  1
  O2-  O138  1  0.49256001  0.24979144  0.27443824  1
  O2-  O139  1  0.49974220  0.25702332  0.60542158  1
  O2-  O140  1  0.50144342  0.24261470  0.94006233  1
  O2-  O141  1  0.49761455  0.74586413  0.26834189  1
  O2-  O142  1  0.49504363  0.75233364  0.60739910  1
  O2-  O143  1  0.49797544  0.75625062  0.93714563  1
  O2-  O144  1  0.06775024  0.18050767  0.10093631  1
  O2-  O145  1  0.07141537  0.17809418  0.42211199  1
  O2-  O146  1  0.07344837  0.17778052  0.76369861  1
  O2-  O147  1  0.07252965  0.68031687  0.10188733  1
  O2-  O148  1  0.06868644  0.67877760  0.42334876  1
  O2-  O149  1  0.07222495  0.68008235  0.76398116  1
  O2-  O150  1  0.57329050  0.17691352  0.08827337  1
  O2-  O151  1  0.57313212  0.17915714  0.43256125  1
  O2-  O152  1  0.56455163  0.17775179  0.76845059  1
  O2-  O153  1  0.56886278  0.68024058  0.09742515  1
  O2-  O154  1  0.57250019  0.67654113  0.43124372  1
  O2-  O155  1  0.57083616  0.68009481  0.76638539  1
  O2-  O156  1  0.17581675  0.42781190  0.24328199  1
  O2-  O157  1  0.18365977  0.43100631  0.56765800  1
  O2-  O158  1  0.17928328  0.43104321  0.90920244  1
  O2-  O159  1  0.17787777  0.93195012  0.23720173  1
  O2-  O160  1  0.17889386  0.92983333  0.57644053  1
  O2-  O161  1  0.17929811  0.92744119  0.90048314  1
  O2-  O162  1  0.68103448  0.42787426  0.24151926  1
  O2-  O163  1  0.68109914  0.42749991  0.56679245  1
  O2-  O164  1  0.67540566  0.42842392  0.91203386  1
  O2-  O165  1  0.68218207  0.93051332  0.24119457  1
  O2-  O166  1  0.67807574  0.93017032  0.56562470  1
  O2-  O167  1  0.68020168  0.92688175  0.91209990  1
  O2-  O168  1  0.43229829  0.32263130  0.09999595  1
  O2-  O169  1  0.42727106  0.32039298  0.42477926  1
  O2-  O170  1  0.42632157  0.32033569  0.75427478  1
  O2-  O171  1  0.42812253  0.81969201  0.08807625  1
  O2-  O172  1  0.43103290  0.82012833  0.43159723  1
  O2-  O173  1  0.43020318  0.82383149  0.75755964  1
  O2-  O174  1  0.93046419  0.32202586  0.09752688  1
  O2-  O175  1  0.92754553  0.32056560  0.43048028  1
  O2-  O176  1  0.92881468  0.31926077  0.76525462  1
  O2-  O177  1  0.92495889  0.82134963  0.09040853  1
  O2-  O178  1  0.92758619  0.82102764  0.43099181  1
  O2-  O179  1  0.93004548  0.81948500  0.76699390  1
  O2-  O180  1  0.32296470  0.07514892  0.24743493  1
  O2-  O181  1  0.32458962  0.06746114  0.57552979  1
  O2-  O182  1  0.32202676  0.07100192  0.90264662  1
  O2-  O183  1  0.32104298  0.56658944  0.23306729  1
  O2-  O184  1  0.32387166  0.57144836  0.58050352  1
  O2-  O185  1  0.32437532  0.56803912  0.90812404  1
  O2-  O186  1  0.81746076  0.07194433  0.24279749  1
  O2-  O187  1  0.81977150  0.07334521  0.57793018  1
  O2-  O188  1  0.81799690  0.07216835  0.91124990  1
  O2-  O189  1  0.82339380  0.57157585  0.24411877  1
  O2-  O190  1  0.81855931  0.57327109  0.57614305  1
  O2-  O191  1  0.81847476  0.57192449  0.90174098  1
  O2-  O192  1  0.04156538  0.08707003  0.27020807  1
  O2-  O193  1  0.04466166  0.08123524  0.59656912  1
  O2-  O194  1  0.03877969  0.08033440  0.93481044  1
  O2-  O195  1  0.04550911  0.58607365  0.27167900  1
  O2-  O196  1  0.04610026  0.58160152  0.59576161  1
  O2-  O197  1  0.03771999  0.58661244  0.93417104  1
  O2-  O198  1  0.54427063  0.08229885  0.26349812  1
  O2-  O199  1  0.53592083  0.08376377  0.60082222  1
  O2-  O200  1  0.54845608  0.07946774  0.93939932  1
  O2-  O201  1  0.54467350  0.57577400  0.26630162  1
  O2-  O202  1  0.53972455  0.58151165  0.59968210  1
  O2-  O203  1  0.53999025  0.58435864  0.93027298  1
  O2-  O204  1  0.16992077  0.19736606  0.27387434  1
  O2-  O205  1  0.17207171  0.20679060  0.59653492  1
  O2-  O206  1  0.16964599  0.20321306  0.93626841  1
  O2-  O207  1  0.16668136  0.70332819  0.27555679  1
  O2-  O208  1  0.17465524  0.70443449  0.60030246  1
  O2-  O209  1  0.16966374  0.70655227  0.93230296  1
  O2-  O210  1  0.66450630  0.21274981  0.26148383  1
  O2-  O211  1  0.66667667  0.20629351  0.60148246  1
  O2-  O212  1  0.66425622  0.20070481  0.93528904  1
  O2-  O213  1  0.66850141  0.70683276  0.26358200  1
  O2-  O214  1  0.66581331  0.70902497  0.59838693  1
  O2-  O215  1  0.66753832  0.71264212  0.93216174  1
  O2-  O216  1  0.08737899  0.45961101  0.06190038  1
  O2-  O217  1  0.08349921  0.45567161  0.39610719  1
  O2-  O218  1  0.08186439  0.45997999  0.73419181  1
  O2-  O219  1  0.07699679  0.95347233  0.06655068  1
  O2-  O220  1  0.08177468  0.96360962  0.40384777  1
  O2-  O221  1  0.08442012  0.95543488  0.72765962  1
  O2-  O222  1  0.58334173  0.45700177  0.06319400  1
  O2-  O223  1  0.58888580  0.45008023  0.39549529  1
  O2-  O224  1  0.58160191  0.45684800  0.73373860  1
  O2-  O225  1  0.58693790  0.95266601  0.06518358  1
  O2-  O226  1  0.58608283  0.95491962  0.39123901  1
  O2-  O227  1  0.58412522  0.96130527  0.73633449  1
  O2-  O228  1  0.20673046  0.33906869  0.06204990  1
  O2-  O229  1  0.19915140  0.33248393  0.39499734  1
  O2-  O230  1  0.21283335  0.33418413  0.73450692  1
  O2-  O231  1  0.20873047  0.82938344  0.06807164  1
  O2-  O232  1  0.20820910  0.83446989  0.40568042  1
  O2-  O233  1  0.20701542  0.83825343  0.72870044  1
  O2-  O234  1  0.69668137  0.33105655  0.06188702  1
  O2-  O235  1  0.71401146  0.33654652  0.39206724  1
  O2-  O236  1  0.70707350  0.33029107  0.73583441  1
  O2-  O237  1  0.70935540  0.83696425  0.06587564  1
  O2-  O238  1  0.70882947  0.83632353  0.39208441  1
  O2-  O239  1  0.71097067  0.83224006  0.73394372  1
  O2-  O240  1  0.45598954  0.41240223  0.27222264  1
  O2-  O241  1  0.45006978  0.41770880  0.60512618  1
  O2-  O242  1  0.46133528  0.41359835  0.92758247  1
  O2-  O243  1  0.45492608  0.91651041  0.26210820  1
  O2-  O244  1  0.45733956  0.91558609  0.60475546  1
  O2-  O245  1  0.45291077  0.91767055  0.93960313  1
  O2-  O246  1  0.95869506  0.42020587  0.26503428  1
  O2-  O247  1  0.95556672  0.41977081  0.59878919  1
  O2-  O248  1  0.95393494  0.42204933  0.93295769  1
  O2-  O249  1  0.95793943  0.92070792  0.26624491  1
  O2-  O250  1  0.95239412  0.92008803  0.59997332  1
  O2-  O251  1  0.94393582  0.91838086  0.94040344  1
  O2-  O252  1  0.33168673  0.29873262  0.27358876  1
  O2-  O253  1  0.33644180  0.29425390  0.60030798  1
  O2-  O254  1  0.33267795  0.29199928  0.93165083  1
  O2-  O255  1  0.32726770  0.79067957  0.26749900  1
  O2-  O256  1  0.33501460  0.80116506  0.60619126  1
  O2-  O257  1  0.33550515  0.79611084  0.93545639  1
  O2-  O258  1  0.83757928  0.28734848  0.26012435  1
  O2-  O259  1  0.83092454  0.29046965  0.59864726  1
  O2-  O260  1  0.82767190  0.29422301  0.93454100  1
  O2-  O261  1  0.83481710  0.79156360  0.26187411  1
  O2-  O262  1  0.83269304  0.78956373  0.59824813  1
  O2-  O263  1  0.83494290  0.79140147  0.93836690  1
  O2-  O264  1  0.42049129  0.04668731  0.06991017  1
  O2-  O265  1  0.41878427  0.04367730  0.39625975  1
  O2-  O266  1  0.41027393  0.03973529  0.73192425  1
  O2-  O267  1  0.41416427  0.53765812  0.06040483  1
  O2-  O268  1  0.41819973  0.53676790  0.40284999  1
  O2-  O269  1  0.41505634  0.54444535  0.73300358  1
  O2-  O270  1  0.90944272  0.04524547  0.06627571  1
  O2-  O271  1  0.91124372  0.04750360  0.39553076  1
  O2-  O272  1  0.91647186  0.04659593  0.72944776  1
  O2-  O273  1  0.91702540  0.54093420  0.07137852  1
  O2-  O274  1  0.91308864  0.54427282  0.39734122  1
  O2-  O275  1  0.91656945  0.54935071  0.72571706  1
  O2-  O276  1  0.29445687  0.17216971  0.07077909  1
  O2-  O277  1  0.30200916  0.16692328  0.40002321  1
  O2-  O278  1  0.29787747  0.16465382  0.72532161  1
  O2-  O279  1  0.29822228  0.66241748  0.05963365  1
  O2-  O280  1  0.29315307  0.66432127  0.40416658  1
  O2-  O281  1  0.30245246  0.66942850  0.73083370  1
  O2-  O282  1  0.78894551  0.16363350  0.06475293  1
  O2-  O283  1  0.78861314  0.16453631  0.39381262  1
  O2-  O284  1  0.79401599  0.16374738  0.73175857  1
  O2-  O285  1  0.78736909  0.66528161  0.07050359  1
  O2-  O286  1  0.79394787  0.66531799  0.39488665  1
  O2-  O287  1  0.79281327  0.66430022  0.72940834  1
