# generated using pymatgen
data_Ca2Al2SiO7
_symmetry_space_group_name_H-M   'P 1'
_cell_length_a   15.45811667
_cell_length_b   15.45970621
_cell_length_c   15.28398845
_cell_angle_alpha   89.98997769
_cell_angle_beta   90.01199090
_cell_angle_gamma   89.99016155
_symmetry_Int_Tables_number   1
_chemical_formula_structural   Ca2Al2SiO7
_chemical_formula_sum   'Ca48 Al48 Si24 O168'
_cell_volume   3652.53591898
_cell_formula_units_Z   24
loop_
 _symmetry_equiv_pos_site_id
 _symmetry_equiv_pos_as_xyz
  1  'x, y, z'
loop_
 _atom_type_symbol
 _atom_type_oxidation_number
  Ca2+  2.0
  Al0+  0.0
  Si0+  0.0
  O2-  -2.0
loop_
 _atom_site_type_symbol
 _atom_site_label
 _atom_site_symmetry_multiplicity
 _atom_site_fract_x
 _atom_site_fract_y
 _atom_site_fract_z
 _atom_site_occupancy
  Ca2+  Ca0  1  0.16902689  0.08193052  0.17260466  1
  Ca2+  Ca1  1  0.16292094  0.07549067  0.49999578  1
  Ca2+  Ca2  1  0.17529538  0.08249352  0.84413909  1
  Ca2+  Ca3  1  0.17093538  0.59317110  0.17023602  1
  Ca2+  Ca4  1  0.16635770  0.58710434  0.50362332  1
  Ca2+  Ca5  1  0.17159015  0.58814751  0.84146783  1
  Ca2+  Ca6  1  0.65934276  0.07535871  0.17165504  1
  Ca2+  Ca7  1  0.66316697  0.07588848  0.50414675  1
  Ca2+  Ca8  1  0.66456307  0.07023399  0.83975216  1
  Ca2+  Ca9  1  0.67825080  0.58650348  0.17264943  1
  Ca2+  Ca10  1  0.66671114  0.58204721  0.50055124  1
  Ca2+  Ca11  1  0.66571669  0.58739334  0.84463426  1
  Ca2+  Ca12  1  0.08501493  0.32206261  0.16415905  1
  Ca2+  Ca13  1  0.07950017  0.32452023  0.49153182  1
  Ca2+  Ca14  1  0.08491840  0.32716588  0.83427741  1
  Ca2+  Ca15  1  0.07577815  0.82751937  0.16188732  1
  Ca2+  Ca16  1  0.08451626  0.82398291  0.49091598  1
  Ca2+  Ca17  1  0.07861361  0.82330780  0.83222787  1
  Ca2+  Ca18  1  0.58888429  0.32392375  0.16557379  1
  Ca2+  Ca19  1  0.57550997  0.33116533  0.48863709  1
  Ca2+  Ca20  1  0.57763556  0.32703812  0.82819940  1
  Ca2+  Ca21  1  0.58172494  0.83601067  0.16065053  1
  Ca2+  Ca22  1  0.57707788  0.84127479  0.49752989  1
  Ca2+  Ca23  1  0.58573044  0.82538940  0.82954701  1
  Ca2+  Ca24  1  0.33722810  0.42341912  0.16884565  1
  Ca2+  Ca25  1  0.33694336  0.41345799  0.50346914  1
  Ca2+  Ca26  1  0.33415777  0.42237947  0.83967430  1
  Ca2+  Ca27  1  0.33007263  0.92156507  0.17407283  1
  Ca2+  Ca28  1  0.33212407  0.90875674  0.49981895  1
  Ca2+  Ca29  1  0.33541963  0.91877581  0.83908499  1
  Ca2+  Ca30  1  0.83001762  0.42937095  0.17387823  1
  Ca2+  Ca31  1  0.82748806  0.41965548  0.49732829  1
  Ca2+  Ca32  1  0.82960300  0.42581693  0.84097172  1
  Ca2+  Ca33  1  0.82127190  0.90839563  0.16905283  1
  Ca2+  Ca34  1  0.81990342  0.92325728  0.50657573  1
  Ca2+  Ca35  1  0.82297806  0.91209196  0.83762886  1
  Ca2+  Ca36  1  0.42616239  0.16788772  0.16364251  1
  Ca2+  Ca37  1  0.42184601  0.17824329  0.49063293  1
  Ca2+  Ca38  1  0.42064378  0.16644892  0.83354395  1
  Ca2+  Ca39  1  0.42186175  0.67309864  0.16125084  1
  Ca2+  Ca40  1  0.42532113  0.67858497  0.49822994  1
  Ca2+  Ca41  1  0.42641496  0.66877374  0.82715153  1
  Ca2+  Ca42  1  0.92841685  0.16144086  0.16181300  1
  Ca2+  Ca43  1  0.91819062  0.16168182  0.49432610  1
  Ca2+  Ca44  1  0.91957766  0.16145028  0.83171626  1
  Ca2+  Ca45  1  0.92167269  0.66598625  0.15794304  1
  Ca2+  Ca46  1  0.92685395  0.66185289  0.49386577  1
  Ca2+  Ca47  1  0.92012885  0.66960328  0.83478510  1
  Al0+  Al48  1  -0.00132813  -0.00062619  -0.01021641  1
  Al0+  Al49  1  0.00110338  -0.00274948  0.33372061  1
  Al0+  Al50  1  0.00118455  -0.00149100  0.67105937  1
  Al0+  Al51  1  0.00024405  0.49771921  0.00040784  1
  Al0+  Al52  1  0.00326096  0.49918418  0.33325616  1
  Al0+  Al53  1  0.00011771  0.49628206  0.66410410  1
  Al0+  Al54  1  0.49857238  0.00227570  0.00369106  1
  Al0+  Al55  1  0.49767859  0.00250348  0.33162530  1
  Al0+  Al56  1  0.49867861  0.00023731  0.66804523  1
  Al0+  Al57  1  0.49827016  0.49936881  0.00286396  1
  Al0+  Al58  1  0.49990845  0.50270251  0.33385814  1
  Al0+  Al59  1  0.49929520  0.50034378  0.65990222  1
  Al0+  Al60  1  0.25012663  0.25016195  0.00087513  1
  Al0+  Al61  1  0.25072918  0.25198730  0.32679484  1
  Al0+  Al62  1  0.24848740  0.24961141  0.66397383  1
  Al0+  Al63  1  0.24896524  0.75071282  0.00198644  1
  Al0+  Al64  1  0.25100015  0.75114684  0.33012440  1
  Al0+  Al65  1  0.25086845  0.74859666  0.66184061  1
  Al0+  Al66  1  0.75007424  0.24742974  -0.00566469  1
  Al0+  Al67  1  0.75052231  0.25247877  0.33287106  1
  Al0+  Al68  1  0.75198912  0.25139362  0.67112191  1
  Al0+  Al69  1  0.74906720  0.74975736  0.00141983  1
  Al0+  Al70  1  0.75141645  0.75174436  0.34684731  1
  Al0+  Al71  1  0.75269707  0.74909695  0.66565089  1
  Al0+  Al72  1  0.67605865  0.93123609  0.34791156  1
  Al0+  Al73  1  0.07231609  0.67716583  0.98525687  1
  Al0+  Al74  1  0.07045684  0.67835401  0.31879900  1
  Al0+  Al75  1  0.56900360  0.67916437  0.99078006  1
  Al0+  Al76  1  0.68021109  0.92993553  0.01467015  1
  Al0+  Al77  1  0.82004322  0.57003532  0.01227392  1
  Al0+  Al78  1  0.06945852  0.67843698  0.65260922  1
  Al0+  Al79  1  0.57146736  0.17768675  0.98413443  1
  Al0+  Al80  1  0.82247620  0.07242293  0.68327744  1
  Al0+  Al81  1  0.07179052  0.17907307  0.98496518  1
  Al0+  Al82  1  0.82413293  0.57195095  0.35062023  1
  Al0+  Al83  1  0.17971282  0.92919571  0.34647261  1
  Al0+  Al84  1  0.43040293  0.82123613  0.31801646  1
  Al0+  Al85  1  0.42851210  0.32524542  0.31517041  1
  Al0+  Al86  1  0.31993090  0.07145767  0.01503136  1
  Al0+  Al87  1  0.06911618  0.17670875  0.32080210  1
  Al0+  Al88  1  0.67705868  0.92880151  0.68423516  1
  Al0+  Al89  1  0.57230090  0.18022184  0.31884908  1
  Al0+  Al90  1  0.32102676  0.57251202  0.01347102  1
  Al0+  Al91  1  0.92647106  0.82009884  0.98477353  1
  Al0+  Al92  1  0.42986102  0.82259035  0.65273603  1
  Al0+  Al93  1  0.42863033  0.31981176  0.65420554  1
  Al0+  Al94  1  0.67832874  0.42940762  0.34817694  1
  Al0+  Al95  1  0.57497356  0.67836065  0.65087447  1
  Si0+  Si96  1  0.67692997  0.42497333  0.01472775  1
  Si0+  Si97  1  0.07049524  0.17834536  0.65168761  1
  Si0+  Si98  1  0.31976981  0.56974478  0.67992087  1
  Si0+  Si99  1  0.42863234  0.32195015  0.98306320  1
  Si0+  Si100  1  0.57299672  0.17932445  0.65170631  1
  Si0+  Si101  1  0.92861647  0.32248418  0.31626754  1
  Si0+  Si102  1  0.32067632  0.57268487  0.35034829  1
  Si0+  Si103  1  0.17823274  0.42784663  0.01756454  1
  Si0+  Si104  1  0.92927991  0.82316070  0.64768378  1
  Si0+  Si105  1  0.18118240  0.42781813  0.34903478  1
  Si0+  Si106  1  0.67709472  0.43089748  0.68222978  1
  Si0+  Si107  1  0.31992502  0.07392695  0.35136085  1
  Si0+  Si108  1  0.17564460  0.92847522  0.01571189  1
  Si0+  Si109  1  0.82376514  0.56830045  0.68210172  1
  Si0+  Si110  1  0.82335387  0.07207999  0.34612686  1
  Si0+  Si111  1  0.57455425  0.68042429  0.31774144  1
  Si0+  Si112  1  0.42738745  0.82308758  0.98576782  1
  Si0+  Si113  1  0.17818927  0.42692853  0.68129414  1
  Si0+  Si114  1  0.92769599  0.32124637  0.98238287  1
  Si0+  Si115  1  0.92841543  0.32055822  0.65087425  1
  Si0+  Si116  1  0.18033372  0.92621393  0.68250508  1
  Si0+  Si117  1  0.31793783  0.07319389  0.68042467  1
  Si0+  Si118  1  0.82322432  0.07282685  0.01667020  1
  Si0+  Si119  1  0.92705050  0.82111553  0.31938093  1
  O2-  O120  1  0.24376716  -0.00240699  0.06003659  1
  O2-  O121  1  0.25202388  0.00495997  0.39666402  1
  O2-  O122  1  0.25111115  -0.00182691  0.72344916  1
  O2-  O123  1  0.24270013  0.50101365  0.06068232  1
  O2-  O124  1  0.25178945  0.49867524  0.39242157  1
  O2-  O125  1  0.24842011  0.49877216  0.72281064  1
  O2-  O126  1  0.75485403  0.00506637  0.06186299  1
  O2-  O127  1  0.74990062  0.00918290  0.39107782  1
  O2-  O128  1  0.74957801  0.00151556  0.73334905  1
  O2-  O129  1  0.74523198  0.49461302  0.05751107  1
  O2-  O130  1  0.74930198  0.50192067  0.40015461  1
  O2-  O131  1  0.74547756  0.50479056  0.72473644  1
  O2-  O132  1  -0.00714999  0.24912946  0.27308044  1
  O2-  O133  1  -0.00552415  0.24397772  0.60992903  1
  O2-  O134  1  -0.00435128  0.25187269  0.93715028  1
  O2-  O135  1  -0.00894733  0.74833032  0.27461569  1
  O2-  O136  1  -0.00368067  0.75280426  0.60337705  1
  O2-  O137  1  -0.00009625  0.74836892  0.93520672  1
  O2-  O138  1  0.50273708  0.25461229  0.26782054  1
  O2-  O139  1  0.50495669  0.24797982  0.60684439  1
  O2-  O140  1  0.49811137  0.25447170  0.93827958  1
  O2-  O141  1  0.50957847  0.75154241  0.27200539  1
  O2-  O142  1  0.50738647  0.75596691  0.60314982  1
  O2-  O143  1  0.49303520  0.75156362  0.94194993  1
  O2-  O144  1  0.07095645  0.18033099  0.09799689  1
  O2-  O145  1  0.06748812  0.17861030  0.43467433  1
  O2-  O146  1  0.07427137  0.18243522  0.75658314  1
  O2-  O147  1  0.07169883  0.67956256  0.09858149  1
  O2-  O148  1  0.07107467  0.67928782  0.43241460  1
  O2-  O149  1  0.06992551  0.67836061  0.76525486  1
  O2-  O150  1  0.57138908  0.17894201  0.09666813  1
  O2-  O151  1  0.56939291  0.18029608  0.43306349  1
  O2-  O152  1  0.57028030  0.18099743  0.75745444  1
  O2-  O153  1  0.56934525  0.68066186  0.10361262  1
  O2-  O154  1  0.57050612  0.67966053  0.42336676  1
  O2-  O155  1  0.57026259  0.67433231  0.76477446  1
  O2-  O156  1  0.18015062  0.42710268  0.24425335  1
  O2-  O157  1  0.17782215  0.42477758  0.57629123  1
  O2-  O158  1  0.18071051  0.42528879  0.91128994  1
  O2-  O159  1  0.17971278  0.93129777  0.23374016  1
  O2-  O160  1  0.17878615  0.92748572  0.57740129  1
  O2-  O161  1  0.17887016  0.92875876  0.90941317  1
  O2-  O162  1  0.68189999  0.42982846  0.23454083  1
  O2-  O163  1  0.67926079  0.42886665  0.57760289  1
  O2-  O164  1  0.67748537  0.42591760  0.90832487  1
  O2-  O165  1  0.67797921  0.92914402  0.23489683  1
  O2-  O166  1  0.67653945  0.93375282  0.57053177  1
  O2-  O167  1  0.67958635  0.92911359  0.90183505  1
  O2-  O168  1  0.42882761  0.32229265  0.08804040  1
  O2-  O169  1  0.42671725  0.32087908  0.42935119  1
  O2-  O170  1  0.42828845  0.31934109  0.76728212  1
  O2-  O171  1  0.42854965  0.82251493  0.09134467  1
  O2-  O172  1  0.42925270  0.81840359  0.43108794  1
  O2-  O173  1  0.42457616  0.81881341  0.76629723  1
  O2-  O174  1  0.92844271  0.32105222  0.08763525  1
  O2-  O175  1  0.93156549  0.32262934  0.42243876  1
  O2-  O176  1  0.93173447  0.32503039  0.75570454  1
  O2-  O177  1  0.92695043  0.81927737  0.09859819  1
  O2-  O178  1  0.93137933  0.82344990  0.42498454  1
  O2-  O179  1  0.93086389  0.82179078  0.75320227  1
  O2-  O180  1  0.31809707  0.07311955  0.24586006  1
  O2-  O181  1  0.31334118  0.07798661  0.57582522  1
  O2-  O182  1  0.31904090  0.07057371  0.90081011  1
  O2-  O183  1  0.31890065  0.57297105  0.24523536  1
  O2-  O184  1  0.31758658  0.56884885  0.57481979  1
  O2-  O185  1  0.32185398  0.56930644  0.89967195  1
  O2-  O186  1  0.82710451  0.06877496  0.24086501  1
  O2-  O187  1  0.82343891  0.07194520  0.56920052  1
  O2-  O188  1  0.82102523  0.07303463  0.91115000  1
  O2-  O189  1  0.82454152  0.57062915  0.23692325  1
  O2-  O190  1  0.82806751  0.56184947  0.57761753  1
  O2-  O191  1  0.81885887  0.56777901  0.89844902  1
  O2-  O192  1  0.04047025  0.08018429  0.26617274  1
  O2-  O193  1  0.04772717  0.08394293  0.60720362  1
  O2-  O194  1  0.04450456  0.08358799  0.92762249  1
  O2-  O195  1  0.04682508  0.57941242  0.26668046  1
  O2-  O196  1  0.03984041  0.58023962  0.59997167  1
  O2-  O197  1  0.04746767  0.57665339  0.93450979  1
  O2-  O198  1  0.53915307  0.08413278  0.26484959  1
  O2-  O199  1  0.54627940  0.08585190  0.60730604  1
  O2-  O200  1  0.53429775  0.08303869  0.93017966  1
  O2-  O201  1  0.54667681  0.58785698  0.27199590  1
  O2-  O202  1  0.54005526  0.58302613  0.59536251  1
  O2-  O203  1  0.54053509  0.58129159  0.93675522  1
  O2-  O204  1  0.16390020  0.21089685  0.26657366  1
  O2-  O205  1  0.15897005  0.21165973  0.60155265  1
  O2-  O206  1  0.16727372  0.21420638  0.93023356  1
  O2-  O207  1  0.16539829  0.71320996  0.26570069  1
  O2-  O208  1  0.16602000  0.70805681  0.59838600  1
  O2-  O209  1  0.17076365  0.70760476  0.93213681  1
  O2-  O210  1  0.67223182  0.20514706  0.26646097  1
  O2-  O211  1  0.66783955  0.20459228  0.60880386  1
  O2-  O212  1  0.66821565  0.20500639  0.92839636  1
  O2-  O213  1  0.67153342  0.70300281  0.27856460  1
  O2-  O214  1  0.67639309  0.69731802  0.60075768  1
  O2-  O215  1  0.66408472  0.71026508  0.93522447  1
  O2-  O216  1  0.08281866  0.44594794  0.06212843  1
  O2-  O217  1  0.08957564  0.45412798  0.39802606  1
  O2-  O218  1  0.08596211  0.45275671  0.72896057  1
  O2-  O219  1  0.08080750  0.95474202  0.05782917  1
  O2-  O220  1  0.08359999  0.95934534  0.40331548  1
  O2-  O221  1  0.08918884  0.95364994  0.73093063  1
  O2-  O222  1  0.58306486  0.44727241  0.06009588  1
  O2-  O223  1  0.57922739  0.45739337  0.40119015  1
  O2-  O224  1  0.58349355  0.45586389  0.72784595  1
  O2-  O225  1  0.58371686  0.96205652  0.06743172  1
  O2-  O226  1  0.57933505  0.96348503  0.40127295  1
  O2-  O227  1  0.57740908  0.95605127  0.73659319  1
  O2-  O228  1  0.20849045  0.33643332  0.06522624  1
  O2-  O229  1  0.20865813  0.33577093  0.39749489  1
  O2-  O230  1  0.20753942  0.33577204  0.73012663  1
  O2-  O231  1  0.20000158  0.83532166  0.06249443  1
  O2-  O232  1  0.21376268  0.83337448  0.40105343  1
  O2-  O233  1  0.20957713  0.83447138  0.72920250  1
  O2-  O234  1  0.70512287  0.33117529  0.05872229  1
  O2-  O235  1  0.70810357  0.33125715  0.40333618  1
  O2-  O236  1  0.70740133  0.34022413  0.73118044  1
  O2-  O237  1  0.71126502  0.83411988  0.06952546  1
  O2-  O238  1  0.70693922  0.83724671  0.40666468  1
  O2-  O239  1  0.70749105  0.82832789  0.73329023  1
  O2-  O240  1  0.45297036  0.42581336  0.26565554  1
  O2-  O241  1  0.45593383  0.41586450  0.59850969  1
  O2-  O242  1  0.45329397  0.41566591  0.93641302  1
  O2-  O243  1  0.45393130  0.92004932  0.26642981  1
  O2-  O244  1  0.45067057  0.92351748  0.60026925  1
  O2-  O245  1  0.45427291  0.91608295  0.94007442  1
  O2-  O246  1  0.96172112  0.41290986  0.26896884  1
  O2-  O247  1  0.96262228  0.40804904  0.59930058  1
  O2-  O248  1  0.95563140  0.41348947  0.93411474  1
  O2-  O249  1  0.95684154  0.91200473  0.27083638  1
  O2-  O250  1  0.95776523  0.91677910  0.60323789  1
  O2-  O251  1  0.95240203  0.91739727  0.92796533  1
  O2-  O252  1  0.33074781  0.29685730  0.26170664  1
  O2-  O253  1  0.33201468  0.28848374  0.59943462  1
  O2-  O254  1  0.33510593  0.29555918  0.93714959  1
  O2-  O255  1  0.33596340  0.78645039  0.26306414  1
  O2-  O256  1  0.33395984  0.78845611  0.59707199  1
  O2-  O257  1  0.33241599  0.80132702  0.94131844  1
  O2-  O258  1  0.83384775  0.30421725  0.27132382  1
  O2-  O259  1  0.83489694  0.29798206  0.60426382  1
  O2-  O260  1  0.83475266  0.29728798  0.93374394  1
  O2-  O261  1  0.83098106  0.79904035  0.27762920  1
  O2-  O262  1  0.83502395  0.80014404  0.60276401  1
  O2-  O263  1  0.83032240  0.78736745  0.93018038  1
  O2-  O264  1  0.41486080  0.04091632  0.07093022  1
  O2-  O265  1  0.41316528  0.04885667  0.39750034  1
  O2-  O266  1  0.41120614  0.05002996  0.72694136  1
  O2-  O267  1  0.41541816  0.53863557  0.07054545  1
  O2-  O268  1  0.41303673  0.54813173  0.39780445  1
  O2-  O269  1  0.41188738  0.54065412  0.72619427  1
  O2-  O270  1  0.91882707  0.04771880  0.05855104  1
  O2-  O271  1  0.91434596  0.04154174  0.39585427  1
  O2-  O272  1  0.92232582  0.04509954  0.73555097  1
  O2-  O273  1  0.91692187  0.53827325  0.06560599  1
  O2-  O274  1  0.92210187  0.53727148  0.40266940  1
  O2-  O275  1  0.91251803  0.53152626  0.73088130  1
  O2-  O276  1  0.28919709  0.16814293  0.06813304  1
  O2-  O277  1  0.29257043  0.16828322  0.39542408  1
  O2-  O278  1  0.28448248  0.16250392  0.73057593  1
  O2-  O279  1  0.29292993  0.66955117  0.06854141  1
  O2-  O280  1  0.28821610  0.66266801  0.39799083  1
  O2-  O281  1  0.29114822  0.66119590  0.72738133  1
  O2-  O282  1  0.80032140  0.16790435  0.06091089  1
  O2-  O283  1  0.80570324  0.16851298  0.38981812  1
  O2-  O284  1  0.80069860  0.17343697  0.73556778  1
  O2-  O285  1  0.78874580  0.66484588  0.06772616  1
  O2-  O286  1  0.80052439  0.66948906  0.40729017  1
  O2-  O287  1  0.80600310  0.66393525  0.72497537  1
