# generated using pymatgen
data_Ca2Al2SiO7
_symmetry_space_group_name_H-M   'P 1'
_cell_length_a   15.45751530
_cell_length_b   15.45758891
_cell_length_c   15.28332840
_cell_angle_alpha   89.99946906
_cell_angle_beta   90.00235674
_cell_angle_gamma   90.00115754
_symmetry_Int_Tables_number   1
_chemical_formula_structural   Ca2Al2SiO7
_chemical_formula_sum   'Ca48 Al48 Si24 O168'
_cell_volume   3651.73608158
_cell_formula_units_Z   24
loop_
 _symmetry_equiv_pos_site_id
 _symmetry_equiv_pos_as_xyz
  1  'x, y, z'
loop_
 _atom_type_symbol
 _atom_type_oxidation_number
  Ca2+  2.0
  Al0+  0.0
  Si0+  0.0
  O2-  -2.0
loop_
 _atom_site_type_symbol
 _atom_site_label
 _atom_site_symmetry_multiplicity
 _atom_site_fract_x
 _atom_site_fract_y
 _atom_site_fract_z
 _atom_site_occupancy
  Ca2+  Ca0  1  0.16002576  0.07988979  0.17439822  1
  Ca2+  Ca1  1  0.16289115  0.07188821  0.50045272  1
  Ca2+  Ca2  1  0.16554860  0.07754096  0.83589787  1
  Ca2+  Ca3  1  0.18096590  0.58729590  0.17178110  1
  Ca2+  Ca4  1  0.17755156  0.58518598  0.50981339  1
  Ca2+  Ca5  1  0.17635866  0.59388569  0.83361409  1
  Ca2+  Ca6  1  0.66787658  0.07689890  0.16997434  1
  Ca2+  Ca7  1  0.67715376  0.08471656  0.50207162  1
  Ca2+  Ca8  1  0.66667329  0.07401712  0.84397625  1
  Ca2+  Ca9  1  0.66293753  0.58071637  0.16807761  1
  Ca2+  Ca10  1  0.65810575  0.57490965  0.49977161  1
  Ca2+  Ca11  1  0.66777456  0.57553754  0.84513229  1
  Ca2+  Ca12  1  0.08612330  0.31878786  0.16091476  1
  Ca2+  Ca13  1  0.08976762  0.32724287  0.49391934  1
  Ca2+  Ca14  1  0.08937637  0.32985442  0.82891496  1
  Ca2+  Ca15  1  0.07199821  0.83911386  0.16539850  1
  Ca2+  Ca16  1  0.08108902  0.83422308  0.49767279  1
  Ca2+  Ca17  1  0.07183033  0.82803685  0.82326887  1
  Ca2+  Ca18  1  0.58458374  0.33426288  0.16431059  1
  Ca2+  Ca19  1  0.57942181  0.34019045  0.49184726  1
  Ca2+  Ca20  1  0.59277949  0.33181765  0.83308046  1
  Ca2+  Ca21  1  0.58406845  0.82181928  0.16001556  1
  Ca2+  Ca22  1  0.56709047  0.82415467  0.48994175  1
  Ca2+  Ca23  1  0.58183106  0.82479583  0.82948711  1
  Ca2+  Ca24  1  0.34260874  0.42764462  0.17153067  1
  Ca2+  Ca25  1  0.33362257  0.42807247  0.50454171  1
  Ca2+  Ca26  1  0.32776690  0.43021399  0.83535091  1
  Ca2+  Ca27  1  0.32545682  0.91635881  0.17644864  1
  Ca2+  Ca28  1  0.32258696  0.90459835  0.50364931  1
  Ca2+  Ca29  1  0.32660743  0.90663080  0.83266179  1
  Ca2+  Ca30  1  0.82229435  0.42140520  0.16979173  1
  Ca2+  Ca31  1  0.81943843  0.41560900  0.50574892  1
  Ca2+  Ca32  1  0.82584602  0.42677635  0.84159414  1
  Ca2+  Ca33  1  0.83094341  0.91562656  0.17064607  1
  Ca2+  Ca34  1  0.84252607  0.91916154  0.49867161  1
  Ca2+  Ca35  1  0.82985600  0.90977308  0.84102445  1
  Ca2+  Ca36  1  0.41999751  0.17777478  0.16016645  1
  Ca2+  Ca37  1  0.41738730  0.17782266  0.49295239  1
  Ca2+  Ca38  1  0.42546995  0.16658419  0.83224343  1
  Ca2+  Ca39  1  0.42389320  0.66356917  0.16751639  1
  Ca2+  Ca40  1  0.41332048  0.66963705  0.49301642  1
  Ca2+  Ca41  1  0.41854351  0.66337669  0.83115328  1
  Ca2+  Ca42  1  0.92356466  0.16129032  0.16602009  1
  Ca2+  Ca43  1  0.92200615  0.16673581  0.49002470  1
  Ca2+  Ca44  1  0.92200237  0.16836197  0.83327820  1
  Ca2+  Ca45  1  0.91002971  0.67727122  0.15987872  1
  Ca2+  Ca46  1  0.92398207  0.67633741  0.49609380  1
  Ca2+  Ca47  1  0.91511196  0.67437114  0.82744378  1
  Al0+  Al48  1  -0.00036198  0.00000198  -0.01003648  1
  Al0+  Al49  1  -0.00027664  0.00001604  0.33387546  1
  Al0+  Al50  1  0.00149386  0.00250270  0.66896983  1
  Al0+  Al51  1  0.00162970  0.50008163  0.00532267  1
  Al0+  Al52  1  -0.00099948  0.49949350  0.33227257  1
  Al0+  Al53  1  -0.00164238  0.49801287  0.66463324  1
  Al0+  Al54  1  0.49790231  0.00177636  0.00121458  1
  Al0+  Al55  1  0.49921910  0.00057720  0.33257935  1
  Al0+  Al56  1  0.50249152  0.00063738  0.66048687  1
  Al0+  Al57  1  0.49781300  0.50042429  0.00194247  1
  Al0+  Al58  1  0.49927634  0.49978975  0.33422616  1
  Al0+  Al59  1  0.49984548  0.49710467  0.67643778  1
  Al0+  Al60  1  0.25052736  0.24927833  -0.00710974  1
  Al0+  Al61  1  0.25132032  0.24940364  0.32333868  1
  Al0+  Al62  1  0.25330062  0.24964550  0.66942037  1
  Al0+  Al63  1  0.24817130  0.75110917  0.00748797  1
  Al0+  Al64  1  0.24919838  0.75028666  0.33698042  1
  Al0+  Al65  1  0.24935658  0.75114021  0.67057520  1
  Al0+  Al66  1  0.75180348  0.24938893  -0.00098561  1
  Al0+  Al67  1  0.75101737  0.24987584  0.34141968  1
  Al0+  Al68  1  0.75232518  0.24795294  0.67115298  1
  Al0+  Al69  1  0.74710003  0.75028705  -0.00166802  1
  Al0+  Al70  1  0.74996574  0.74915018  0.32907831  1
  Al0+  Al71  1  0.74931821  0.75104665  0.65849193  1
  Al0+  Al72  1  0.67944514  0.42753879  0.01672762  1
  Al0+  Al73  1  0.31943358  0.57232946  0.68322220  1
  Al0+  Al74  1  0.67682976  0.92931071  0.01251016  1
  Al0+  Al75  1  0.31879974  0.57136737  0.01703217  1
  Al0+  Al76  1  0.17981843  0.93117448  0.68246713  1
  Al0+  Al77  1  0.43034251  0.82099157  0.65440804  1
  Al0+  Al78  1  0.06915596  0.18077467  0.32122162  1
  Al0+  Al79  1  0.18006806  0.93146973  0.34638885  1
  Al0+  Al80  1  0.81880688  0.06806260  0.34592638  1
  Al0+  Al81  1  0.57187112  0.17915588  0.98734471  1
  Al0+  Al82  1  0.56938412  0.67871817  0.31813504  1
  Al0+  Al83  1  0.43056174  0.32022510  0.32028745  1
  Al0+  Al84  1  0.31898081  0.56888035  0.34777376  1
  Al0+  Al85  1  0.92772645  0.82346683  0.64926547  1
  Al0+  Al86  1  0.56797964  0.67931765  0.98496690  1
  Al0+  Al87  1  0.07090817  0.67740662  0.65231957  1
  Al0+  Al88  1  0.82247128  0.57337994  0.01489398  1
  Al0+  Al89  1  0.42527607  0.82254720  0.31705933  1
  Al0+  Al90  1  0.67982378  0.42890225  0.68245862  1
  Al0+  Al91  1  0.07093585  0.17954106  0.98288321  1
  Al0+  Al92  1  0.68124904  0.43162259  0.34752569  1
  Al0+  Al93  1  0.17668746  0.42620559  0.68003629  1
  Al0+  Al94  1  0.92888469  0.81852840  0.98616817  1
  Al0+  Al95  1  0.93132889  0.82005643  0.31848476  1
  Si0+  Si96  1  0.82467247  0.57525344  0.35194984  1
  Si0+  Si97  1  0.07258059  0.67548003  0.31616937  1
  Si0+  Si98  1  0.57098192  0.67454592  0.65104307  1
  Si0+  Si99  1  0.42856356  0.32275311  0.97953149  1
  Si0+  Si100  1  0.32387228  0.07529911  0.34849940  1
  Si0+  Si101  1  0.92900379  0.32398224  0.98320599  1
  Si0+  Si102  1  0.92490260  0.32286246  0.31731145  1
  Si0+  Si103  1  0.32540530  0.07287230  0.68325199  1
  Si0+  Si104  1  0.57415079  0.17862139  0.65036181  1
  Si0+  Si105  1  0.57542805  0.17803604  0.31882871  1
  Si0+  Si106  1  0.43151974  0.31973407  0.65300611  1
  Si0+  Si107  1  0.17860859  0.42422070  0.01801233  1
  Si0+  Si108  1  0.42508976  0.82337016  0.98473517  1
  Si0+  Si109  1  0.67870505  0.93000219  0.67902584  1
  Si0+  Si110  1  0.17814402  0.93233007  0.01499756  1
  Si0+  Si111  1  0.07268947  0.18128274  0.65077148  1
  Si0+  Si112  1  0.07428207  0.67757072  0.98609456  1
  Si0+  Si113  1  0.82190090  0.07025148  0.68415000  1
  Si0+  Si114  1  0.82369087  0.07039883  0.01510704  1
  Si0+  Si115  1  0.17662316  0.42523664  0.34607920  1
  Si0+  Si116  1  0.82123622  0.57382647  0.68060647  1
  Si0+  Si117  1  0.67572814  0.92495262  0.35103103  1
  Si0+  Si118  1  0.92712701  0.31940415  0.65184495  1
  Si0+  Si119  1  0.32071246  0.07303170  0.01497831  1
  O2-  O120  1  0.24927459  0.00297050  0.05743632  1
  O2-  O121  1  0.25973581  0.00239834  0.39261282  1
  O2-  O122  1  0.25862235  0.00272300  0.72849254  1
  O2-  O123  1  0.24432140  0.49500919  0.06239089  1
  O2-  O124  1  0.24034748  0.49675083  0.39217499  1
  O2-  O125  1  0.24217417  0.50354381  0.73105441  1
  O2-  O126  1  0.75226308  0.00431917  0.05824476  1
  O2-  O127  1  0.74401454  -0.00544134  0.39560107  1
  O2-  O128  1  0.75396437  -0.00442756  0.72367733  1
  O2-  O129  1  0.75054268  0.50107148  0.06535137  1
  O2-  O130  1  0.75629668  0.50553984  0.39564442  1
  O2-  O131  1  0.75099736  0.50751072  0.72644878  1
  O2-  O132  1  -0.00202102  0.25851523  0.27369661  1
  O2-  O133  1  0.00428384  0.25492459  0.60919331  1
  O2-  O134  1  -0.00007571  0.25807378  0.93681357  1
  O2-  O135  1  0.00120004  0.74112724  0.27131987  1
  O2-  O136  1  0.00053414  0.75108774  0.60147345  1
  O2-  O137  1  0.00026761  0.73990953  0.94134707  1
  O2-  O138  1  0.50376974  0.24318448  0.27479550  1
  O2-  O139  1  0.50476025  0.25130625  0.60923779  1
  O2-  O140  1  0.50113073  0.25623456  0.93704930  1
  O2-  O141  1  0.50128234  0.75492407  0.26784332  1
  O2-  O142  1  0.50105550  0.74244637  0.60798713  1
  O2-  O143  1  0.49346664  0.75506377  0.93943330  1
  O2-  O144  1  0.06900457  0.17721797  0.09590130  1
  O2-  O145  1  0.06846553  0.18140761  0.43475837  1
  O2-  O146  1  0.07080196  0.18056080  0.75591634  1
  O2-  O147  1  0.07756736  0.68266724  0.09153111  1
  O2-  O148  1  0.07206799  0.67530185  0.42165086  1
  O2-  O149  1  0.06845978  0.68034685  0.76637988  1
  O2-  O150  1  0.56801109  0.17760391  0.10020192  1
  O2-  O151  1  0.57564816  0.18010015  0.42500097  1
  O2-  O152  1  0.57357579  0.17642933  0.75543535  1
  O2-  O153  1  0.56755571  0.67949387  0.09747345  1
  O2-  O154  1  0.56631579  0.67782884  0.43242379  1
  O2-  O155  1  0.57317321  0.67664037  0.75668897  1
  O2-  O156  1  0.17795053  0.42474808  0.24059691  1
  O2-  O157  1  0.18381756  0.42038406  0.56667564  1
  O2-  O158  1  0.18072503  0.42229464  0.91250444  1
  O2-  O159  1  0.17751707  0.93551880  0.23286598  1
  O2-  O160  1  0.17787182  0.93460952  0.56950866  1
  O2-  O161  1  0.17969094  0.93232312  0.90990961  1
  O2-  O162  1  0.68267183  0.42890756  0.23517152  1
  O2-  O163  1  0.67912021  0.42716546  0.56924226  1
  O2-  O164  1  0.68327132  0.42831359  0.90278269  1
  O2-  O165  1  0.67660505  0.92708822  0.24540698  1
  O2-  O166  1  0.67682460  0.93519084  0.57437138  1
  O2-  O167  1  0.67747816  0.93029071  0.89854285  1
  O2-  O168  1  0.42616196  0.31961565  0.08517727  1
  O2-  O169  1  0.43092596  0.31982059  0.43409549  1
  O2-  O170  1  0.43121152  0.31663722  0.75778617  1
  O2-  O171  1  0.42443657  0.82377193  0.08992010  1
  O2-  O172  1  0.42502349  0.81939336  0.43099884  1
  O2-  O173  1  0.43527393  0.82401363  0.76763004  1
  O2-  O174  1  0.92918847  0.32088803  0.08865625  1
  O2-  O175  1  0.92393891  0.32027474  0.42325267  1
  O2-  O176  1  0.92371724  0.31427187  0.75667770  1
  O2-  O177  1  0.93249366  0.82342379  0.09915349  1
  O2-  O178  1  0.93523293  0.82140974  0.43131693  1
  O2-  O179  1  0.92614082  0.82228126  0.76298326  1
  O2-  O180  1  0.32143456  0.07759641  0.24279491  1
  O2-  O181  1  0.32328969  0.07762409  0.57798631  1
  O2-  O182  1  0.32116065  0.07269304  0.90973778  1
  O2-  O183  1  0.31965175  0.56714323  0.23464421  1
  O2-  O184  1  0.32270000  0.56897245  0.56969330  1
  O2-  O185  1  0.31689505  0.57291196  0.90412804  1
  O2-  O186  1  0.81822780  0.06789493  0.23289665  1
  O2-  O187  1  0.82104946  0.07420395  0.57908941  1
  O2-  O188  1  0.82347544  0.06913868  0.90894858  1
  O2-  O189  1  0.82580291  0.57391686  0.24665644  1
  O2-  O190  1  0.82066501  0.57070394  0.57508083  1
  O2-  O191  1  0.82158216  0.57183431  0.90065237  1
  O2-  O192  1  0.03315458  0.08669554  0.26631310  1
  O2-  O193  1  0.04070700  0.09083531  0.60399603  1
  O2-  O194  1  0.03658217  0.08606173  0.92498211  1
  O2-  O195  1  0.05223646  0.58003134  0.27062263  1
  O2-  O196  1  0.04522920  0.57778876  0.59904287  1
  O2-  O197  1  0.05826430  0.58010807  0.94461628  1
  O2-  O198  1  0.55484882  0.08266205  0.27486210  1
  O2-  O199  1  0.54625079  0.08894915  0.59930132  1
  O2-  O200  1  0.53606058  0.08420411  0.93095938  1
  O2-  O201  1  0.53654234  0.58216512  0.26529642  1
  O2-  O202  1  0.54528028  0.57914054  0.60908202  1
  O2-  O203  1  0.53655526  0.58227445  0.93175748  1
  O2-  O204  1  0.16504261  0.20669532  0.26321034  1
  O2-  O205  1  0.16646131  0.20548987  0.60554157  1
  O2-  O206  1  0.16829903  0.20645279  0.92767631  1
  O2-  O207  1  0.16481380  0.70556998  0.27102128  1
  O2-  O208  1  0.16993996  0.70671363  0.60194242  1
  O2-  O209  1  0.16501863  0.71154955  0.93858460  1
  O2-  O210  1  0.66797604  0.20723515  0.27350324  1
  O2-  O211  1  0.66736774  0.20554276  0.60517962  1
  O2-  O212  1  0.67028299  0.20416471  0.93267682  1
  O2-  O213  1  0.66934174  0.70209075  0.26613657  1
  O2-  O214  1  0.66336564  0.69986054  0.60256401  1
  O2-  O215  1  0.66356475  0.71072987  0.92956704  1
  O2-  O216  1  0.08344693  0.44309037  0.06319634  1
  O2-  O217  1  0.08015802  0.44310431  0.39044274  1
  O2-  O218  1  0.07391663  0.44315857  0.72896911  1
  O2-  O219  1  0.08595310  0.96382386  0.05913530  1
  O2-  O220  1  0.08633430  0.96806736  0.40179107  1
  O2-  O221  1  0.08492927  0.96706671  0.73767554  1
  O2-  O222  1  0.57907554  0.45288732  0.06534778  1
  O2-  O223  1  0.58512382  0.46337800  0.40202924  1
  O2-  O224  1  0.58340997  0.45302382  0.73877316  1
  O2-  O225  1  0.58093324  0.96144163  0.06726756  1
  O2-  O226  1  0.58129476  0.95031747  0.39647810  1
  O2-  O227  1  0.58913510  0.96316731  0.72786778  1
  O2-  O228  1  0.20738154  0.33008321  0.06213455  1
  O2-  O229  1  0.20611398  0.33170476  0.39050508  1
  O2-  O230  1  0.21174001  0.33018997  0.73600417  1
  O2-  O231  1  0.20370357  0.84139510  0.06457339  1
  O2-  O232  1  0.20665077  0.83450031  0.40146543  1
  O2-  O233  1  0.20772554  0.83511821  0.73808570  1
  O2-  O234  1  0.70887259  0.32817907  0.06780505  1
  O2-  O235  1  0.71114442  0.33553442  0.40448902  1
  O2-  O236  1  0.71428838  0.33228705  0.73498592  1
  O2-  O237  1  0.70780860  0.83397178  0.06663202  1
  O2-  O238  1  0.70202081  0.83135238  0.39588950  1
  O2-  O239  1  0.70194898  0.83529480  0.72321986  1
  O2-  O240  1  0.46479463  0.41425401  0.26556244  1
  O2-  O241  1  0.45872167  0.41239835  0.60744707  1
  O2-  O242  1  0.45088779  0.41706638  0.93518059  1
  O2-  O243  1  0.44648522  0.92497126  0.26847449  1
  O2-  O244  1  0.46178246  0.91662941  0.59775540  1
  O2-  O245  1  0.44776311  0.91793872  0.93960489  1
  O2-  O246  1  0.94426963  0.41819263  0.27230973  1
  O2-  O247  1  0.94465320  0.41302577  0.60456747  1
  O2-  O248  1  0.95202429  0.41907022  0.93854310  1
  O2-  O249  1  0.96553484  0.91547821  0.26461207  1
  O2-  O250  1  0.95822546  0.92377979  0.60083531  1
  O2-  O251  1  0.96166570  0.91300435  0.92888033  1
  O2-  O252  1  0.33628811  0.29091999  0.26091912  1
  O2-  O253  1  0.34096108  0.28886738  0.60444402  1
  O2-  O254  1  0.33723390  0.29231937  0.93139673  1
  O2-  O255  1  0.32694927  0.79257179  0.26533770  1
  O2-  O256  1  0.33173958  0.79397608  0.60412239  1
  O2-  O257  1  0.33067572  0.79555792  0.94055405  1
  O2-  O258  1  0.83375328  0.29014455  0.27114833  1
  O2-  O259  1  0.83836336  0.28306515  0.60243429  1
  O2-  O260  1  0.83718699  0.29491942  0.93496276  1
  O2-  O261  1  0.83276614  0.79473065  0.26606470  1
  O2-  O262  1  0.82911165  0.79832581  0.59439405  1
  O2-  O263  1  0.83162787  0.79113744  0.93230203  1
  O2-  O264  1  0.41156054  0.04707819  0.06441787  1
  O2-  O265  1  0.41981352  0.05789479  0.39381406  1
  O2-  O266  1  0.42091873  0.04864884  0.72658647  1
  O2-  O267  1  0.41459673  0.53848677  0.07010229  1
  O2-  O268  1  0.41354120  0.53420912  0.40240568  1
  O2-  O269  1  0.41508749  0.53782932  0.73863055  1
  O2-  O270  1  0.91692479  0.04084429  0.05957371  1
  O2-  O271  1  0.91444191  0.03688317  0.40199452  1
  O2-  O272  1  0.91482856  0.04776494  0.73132738  1
  O2-  O273  1  0.92204817  0.54861892  0.06870626  1
  O2-  O274  1  0.91908205  0.54985049  0.39754295  1
  O2-  O275  1  0.91394429  0.54647467  0.72724989  1
  O2-  O276  1  0.29304050  0.16581621  0.06045558  1
  O2-  O277  1  0.29313190  0.16779325  0.39482586  1
  O2-  O278  1  0.29810237  0.16445807  0.73284240  1
  O2-  O279  1  0.28719208  0.66728356  0.07259893  1
  O2-  O280  1  0.28971749  0.66569929  0.40155723  1
  O2-  O281  1  0.29429970  0.67058661  0.73803167  1
  O2-  O282  1  0.80301364  0.16531109  0.05938446  1
  O2-  O283  1  0.79011846  0.16353623  0.40502448  1
  O2-  O284  1  0.79041563  0.15953414  0.73450429  1
  O2-  O285  1  0.79123659  0.67077132  0.06683935  1
  O2-  O286  1  0.79869124  0.66892493  0.39732459  1
  O2-  O287  1  0.79754306  0.66951258  0.72360170  1
