# generated using pymatgen
data_Ca2Al2SiO7
_symmetry_space_group_name_H-M   'P 1'
_cell_length_a   15.45706792
_cell_length_b   15.45639987
_cell_length_c   15.28275223
_cell_angle_alpha   90.00992335
_cell_angle_beta   89.98854141
_cell_angle_gamma   89.99639627
_symmetry_Int_Tables_number   1
_chemical_formula_structural   Ca2Al2SiO7
_chemical_formula_sum   'Ca48 Al48 Si24 O168'
_cell_volume   3651.21171684
_cell_formula_units_Z   24
loop_
 _symmetry_equiv_pos_site_id
 _symmetry_equiv_pos_as_xyz
  1  'x, y, z'
loop_
 _atom_type_symbol
 _atom_type_oxidation_number
  Ca2+  2.0
  Al0+  0.0
  Si0+  0.0
  O2-  -2.0
loop_
 _atom_site_type_symbol
 _atom_site_label
 _atom_site_symmetry_multiplicity
 _atom_site_fract_x
 _atom_site_fract_y
 _atom_site_fract_z
 _atom_site_occupancy
  Ca2+  Ca0  1  0.17067665  0.07306580  0.16938638  1
  Ca2+  Ca1  1  0.17335364  0.08181069  0.50826484  1
  Ca2+  Ca2  1  0.16535543  0.07583359  0.83010605  1
  Ca2+  Ca3  1  0.16442076  0.58102193  0.16928584  1
  Ca2+  Ca4  1  0.18124181  0.57671912  0.50700252  1
  Ca2+  Ca5  1  0.16568358  0.57558865  0.83908523  1
  Ca2+  Ca6  1  0.67437407  0.07368340  0.17926526  1
  Ca2+  Ca7  1  0.67197416  0.07752755  0.49687409  1
  Ca2+  Ca8  1  0.67029062  0.08103394  0.83837527  1
  Ca2+  Ca9  1  0.67345995  0.58896423  0.17160285  1
  Ca2+  Ca10  1  0.67227325  0.58954235  0.50294534  1
  Ca2+  Ca11  1  0.66381644  0.58932457  0.83503330  1
  Ca2+  Ca12  1  0.07338087  0.33597967  0.16151532  1
  Ca2+  Ca13  1  0.08938268  0.32686645  0.49755551  1
  Ca2+  Ca14  1  0.08736305  0.33270520  0.82843906  1
  Ca2+  Ca15  1  0.07497799  0.82843129  0.15702320  1
  Ca2+  Ca16  1  0.07528402  0.84081814  0.49734329  1
  Ca2+  Ca17  1  0.07798394  0.84214198  0.83038821  1
  Ca2+  Ca18  1  0.57608084  0.33410350  0.16697300  1
  Ca2+  Ca19  1  0.56971554  0.33137816  0.49574594  1
  Ca2+  Ca20  1  0.57419428  0.33052133  0.82446346  1
  Ca2+  Ca21  1  0.57322525  0.83387181  0.16291067  1
  Ca2+  Ca22  1  0.57739763  0.83009313  0.49384906  1
  Ca2+  Ca23  1  0.57636607  0.82238036  0.83124772  1
  Ca2+  Ca24  1  0.32750348  0.42447809  0.17438501  1
  Ca2+  Ca25  1  0.33692951  0.42282953  0.50911447  1
  Ca2+  Ca26  1  0.32383523  0.41778239  0.83206776  1
  Ca2+  Ca27  1  0.33112832  0.91319594  0.17470286  1
  Ca2+  Ca28  1  0.33150022  0.92691248  0.50711787  1
  Ca2+  Ca29  1  0.32314572  0.91651106  0.83945823  1
  Ca2+  Ca30  1  0.83696955  0.42153568  0.17596172  1
  Ca2+  Ca31  1  0.83754610  0.42178916  0.49839830  1
  Ca2+  Ca32  1  0.83281579  0.41768672  0.84167604  1
  Ca2+  Ca33  1  0.82862336  0.91349062  0.17814822  1
  Ca2+  Ca34  1  0.83275611  0.91206296  0.50058187  1
  Ca2+  Ca35  1  0.83893396  0.91265268  0.83634161  1
  Ca2+  Ca36  1  0.41143636  0.16833455  0.17013075  1
  Ca2+  Ca37  1  0.40202213  0.17607780  0.49511619  1
  Ca2+  Ca38  1  0.40748637  0.17290272  0.82566065  1
  Ca2+  Ca39  1  0.41626844  0.67743810  0.16244986  1
  Ca2+  Ca40  1  0.41835161  0.66451292  0.49349371  1
  Ca2+  Ca41  1  0.42391984  0.66333541  0.82924253  1
  Ca2+  Ca42  1  0.90903723  0.17679554  0.16474893  1
  Ca2+  Ca43  1  0.92571753  0.16895395  0.49236458  1
  Ca2+  Ca44  1  0.92580074  0.17361014  0.82694933  1
  Ca2+  Ca45  1  0.91910846  0.67390061  0.16126470  1
  Ca2+  Ca46  1  0.91879107  0.67500822  0.49372485  1
  Ca2+  Ca47  1  0.92820076  0.67678198  0.83233542  1
  Al0+  Al48  1  0.00210446  0.00403772  0.00341399  1
  Al0+  Al49  1  -0.00048004  -0.00011896  0.33023698  1
  Al0+  Al50  1  -0.00090875  0.00381335  0.66082199  1
  Al0+  Al51  1  -0.00182145  0.50061988  -0.00364177  1
  Al0+  Al52  1  -0.00008632  0.49806824  0.33654298  1
  Al0+  Al53  1  -0.00180956  0.50355564  0.67038086  1
  Al0+  Al54  1  0.50193242  0.00140861  -0.00336411  1
  Al0+  Al55  1  0.49983917  -0.00027271  0.33865753  1
  Al0+  Al56  1  0.50367720  -0.00017628  0.67235578  1
  Al0+  Al57  1  0.50009330  0.49835080  -0.00188906  1
  Al0+  Al58  1  0.50035505  0.49828703  0.33013944  1
  Al0+  Al59  1  0.50307566  0.49905587  0.66236511  1
  Al0+  Al60  1  0.24890345  0.25118934  0.00687486  1
  Al0+  Al61  1  0.24843504  0.24788631  0.32706178  1
  Al0+  Al62  1  0.24875367  0.25074342  0.66541940  1
  Al0+  Al63  1  0.24944087  0.74964392  -0.00236931  1
  Al0+  Al64  1  0.24985933  0.74684067  0.33487487  1
  Al0+  Al65  1  0.25018236  0.75004487  0.67490621  1
  Al0+  Al66  1  0.74854450  0.25148506  -0.00342863  1
  Al0+  Al67  1  0.74969073  0.24876008  0.33519120  1
  Al0+  Al68  1  0.74919656  0.25005134  0.66634353  1
  Al0+  Al69  1  0.74909270  0.75074441  -0.00578728  1
  Al0+  Al70  1  0.75033171  0.74828885  0.33888650  1
  Al0+  Al71  1  0.74941159  0.75029755  0.66038590  1
  Al0+  Al72  1  0.92956400  0.31991341  0.32140252  1
  Al0+  Al73  1  0.42728639  0.82389785  0.98422761  1
  Al0+  Al74  1  0.82308837  0.07211536  0.34902103  1
  Al0+  Al75  1  0.92897464  0.81999859  0.31960913  1
  Al0+  Al76  1  0.92989837  0.82413072  0.98653315  1
  Al0+  Al77  1  0.57002245  0.67834879  0.98619422  1
  Al0+  Al78  1  0.32553980  0.57129826  0.68301127  1
  Al0+  Al79  1  0.32234929  0.07167642  0.68157316  1
  Al0+  Al80  1  0.31943100  0.06974972  0.34605886  1
  Al0+  Al81  1  0.07168898  0.67811247  0.98541906  1
  Al0+  Al82  1  0.43044739  0.31676943  0.65396682  1
  Al0+  Al83  1  0.17765658  0.42988078  0.01617129  1
  Al0+  Al84  1  0.42849339  0.82125429  0.32329705  1
  Al0+  Al85  1  0.17661693  0.93007791  0.68042357  1
  Al0+  Al86  1  0.17821996  0.43029101  0.68071206  1
  Al0+  Al87  1  0.17942232  0.92787823  0.01538908  1
  Al0+  Al88  1  0.67890963  0.92722689  0.34947475  1
  Al0+  Al89  1  0.82146260  0.56966426  0.34702557  1
  Al0+  Al90  1  0.93231873  0.82017920  0.65114985  1
  Al0+  Al91  1  0.32175648  0.57030678  0.34516700  1
  Al0+  Al92  1  0.06929711  0.18281716  0.65267445  1
  Al0+  Al93  1  0.42758700  0.32149369  0.31739321  1
  Al0+  Al94  1  0.92829512  0.32076046  0.98601458  1
  Al0+  Al95  1  0.56846887  0.68007056  0.64978516  1
  Si0+  Si96  1  0.07344549  0.18028364  0.98347277  1
  Si0+  Si97  1  0.68146395  0.92721251  0.68460613  1
  Si0+  Si98  1  0.57152276  0.17806588  0.31720276  1
  Si0+  Si99  1  0.81807938  0.57066162  0.01299728  1
  Si0+  Si100  1  0.67710911  0.42667811  0.35046484  1
  Si0+  Si101  1  0.42633972  0.82360862  0.65128782  1
  Si0+  Si102  1  0.42804550  0.31942683  0.98561354  1
  Si0+  Si103  1  0.07185021  0.67680623  0.31885793  1
  Si0+  Si104  1  0.68046263  0.92940044  0.01378326  1
  Si0+  Si105  1  0.82031014  0.07363429  0.01343977  1
  Si0+  Si106  1  0.32439941  0.57056839  0.01718304  1
  Si0+  Si107  1  0.82013135  0.07199900  0.68259978  1
  Si0+  Si108  1  0.17772278  0.92550683  0.34854456  1
  Si0+  Si109  1  0.81945766  0.57322821  0.68376199  1
  Si0+  Si110  1  0.68135876  0.42861812  0.68152327  1
  Si0+  Si111  1  0.17828977  0.42767855  0.34893402  1
  Si0+  Si112  1  0.57163947  0.18013851  0.98529462  1
  Si0+  Si113  1  0.07251409  0.17663067  0.31240564  1
  Si0+  Si114  1  0.67762214  0.42686236  0.01517603  1
  Si0+  Si115  1  0.57569865  0.17496651  0.64886549  1
  Si0+  Si116  1  0.57211863  0.67740683  0.31717472  1
  Si0+  Si117  1  0.07447257  0.67565158  0.64912097  1
  Si0+  Si118  1  0.32426809  0.07156198  0.01793476  1
  Si0+  Si119  1  0.92480891  0.32505852  0.65020572  1
  O2-  O120  1  0.25991544  -0.00187221  0.06085552  1
  O2-  O121  1  0.24706276  -0.00656585  0.39246316  1
  O2-  O122  1  0.25453238  -0.00412070  0.73136928  1
  O2-  O123  1  0.25157514  0.50592510  0.06180772  1
  O2-  O124  1  0.25087546  0.49220902  0.39213390  1
  O2-  O125  1  0.24820912  0.50399889  0.73191997  1
  O2-  O126  1  0.75476608  -0.00253190  0.05544884  1
  O2-  O127  1  0.75479724  -0.00356585  0.39901674  1
  O2-  O128  1  0.75040751  0.00071937  0.72700411  1
  O2-  O129  1  0.74709958  0.49945674  0.05622145  1
  O2-  O130  1  0.74581597  0.49553221  0.39433164  1
  O2-  O131  1  0.75360270  0.49705297  0.72585221  1
  O2-  O132  1  0.00052392  0.24386862  0.27094562  1
  O2-  O133  1  -0.00270904  0.26097170  0.60670266  1
  O2-  O134  1  0.00470629  0.24909191  0.93896167  1
  O2-  O135  1  0.00441811  0.74644988  0.27378255  1
  O2-  O136  1  0.01059567  0.74893124  0.60477447  1
  O2-  O137  1  0.00618138  0.75706298  0.93602737  1
  O2-  O138  1  0.50252661  0.24601331  0.27139650  1
  O2-  O139  1  0.50069665  0.23731497  0.60669066  1
  O2-  O140  1  0.49682470  0.24649770  0.94289527  1
  O2-  O141  1  0.50274560  0.74606948  0.27491787  1
  O2-  O142  1  0.48984520  0.75104868  0.60495262  1
  O2-  O143  1  0.49567433  0.74737185  0.93566601  1
  O2-  O144  1  0.07167308  0.18053472  0.08896780  1
  O2-  O145  1  0.07482442  0.17849729  0.41802324  1
  O2-  O146  1  0.06568783  0.18191979  0.76601247  1
  O2-  O147  1  0.06573813  0.67637232  0.09940949  1
  O2-  O148  1  0.07127933  0.67649710  0.42439185  1
  O2-  O149  1  0.06858583  0.67143619  0.75428014  1
  O2-  O150  1  0.57505763  0.18159147  0.09003185  1
  O2-  O151  1  0.57326812  0.18053604  0.42253188  1
  O2-  O152  1  0.58190025  0.17999436  0.75478165  1
  O2-  O153  1  0.57302185  0.68006784  0.09962914  1
  O2-  O154  1  0.57095412  0.67684156  0.42279817  1
  O2-  O155  1  0.57118803  0.68186549  0.76286019  1
  O2-  O156  1  0.17623832  0.43110813  0.24307358  1
  O2-  O157  1  0.18010524  0.43006918  0.56690504  1
  O2-  O158  1  0.18115004  0.42701035  0.90346737  1
  O2-  O159  1  0.17898723  0.92595774  0.24272509  1
  O2-  O160  1  0.17512272  0.93424890  0.56674815  1
  O2-  O161  1  0.17593144  0.93469465  0.90280500  1
  O2-  O162  1  0.67714904  0.42700826  0.24438746  1
  O2-  O163  1  0.68248892  0.42750753  0.57675143  1
  O2-  O164  1  0.67842610  0.42344245  0.90998484  1
  O2-  O165  1  0.67860183  0.92912935  0.23502245  1
  O2-  O166  1  0.68174988  0.92747862  0.57988828  1
  O2-  O167  1  0.67999646  0.93206731  0.90846683  1
  O2-  O168  1  0.43072930  0.31951625  0.09067800  1
  O2-  O169  1  0.42899359  0.32128750  0.43025493  1
  O2-  O170  1  0.43339096  0.31633832  0.76778683  1
  O2-  O171  1  0.43149652  0.82558061  0.09834319  1
  O2-  O172  1  0.42934297  0.82077376  0.43614146  1
  O2-  O173  1  0.43202753  0.82493702  0.75666198  1
  O2-  O174  1  0.92513069  0.31929495  0.09903333  1
  O2-  O175  1  0.93321794  0.32067494  0.43433162  1
  O2-  O176  1  0.92042963  0.32056782  0.75589426  1
  O2-  O177  1  0.92582421  0.82002105  0.09990871  1
  O2-  O178  1  0.93088491  0.81846854  0.43277187  1
  O2-  O179  1  0.93090985  0.81920271  0.76432875  1
  O2-  O180  1  0.31791695  0.06907038  0.23261779  1
  O2-  O181  1  0.31952301  0.07189551  0.56802672  1
  O2-  O182  1  0.32325789  0.07502879  0.91267764  1
  O2-  O183  1  0.31971221  0.57076794  0.23199703  1
  O2-  O184  1  0.32644272  0.56746885  0.56904275  1
  O2-  O185  1  0.32897038  0.56416159  0.91207776  1
  O2-  O186  1  0.81791864  0.07405180  0.23480767  1
  O2-  O187  1  0.81807427  0.07358021  0.57805728  1
  O2-  O188  1  0.81626671  0.07618762  0.90805360  1
  O2-  O189  1  0.82029818  0.56919294  0.23338698  1
  O2-  O190  1  0.81872698  0.57226836  0.57863691  1
  O2-  O191  1  0.81563218  0.56895566  0.90775009  1
  O2-  O192  1  0.04882523  0.08257275  0.26665826  1
  O2-  O193  1  0.03439173  0.08989716  0.59475528  1
  O2-  O194  1  0.04613725  0.08767068  0.93708770  1
  O2-  O195  1  0.04390908  0.58352580  0.27335889  1
  O2-  O196  1  0.04224344  0.58440039  0.60108339  1
  O2-  O197  1  0.03507758  0.58382497  0.92903126  1
  O2-  O198  1  0.54544900  0.08454066  0.27155154  1
  O2-  O199  1  0.55901690  0.07791573  0.60782492  1
  O2-  O200  1  0.54993272  0.08767008  0.93640984  1
  O2-  O201  1  0.55037577  0.58318563  0.27067271  1
  O2-  O202  1  0.54581474  0.58155791  0.59611725  1
  O2-  O203  1  0.54602114  0.57784780  0.93324214  1
  O2-  O204  1  0.16336933  0.20462185  0.26231790  1
  O2-  O205  1  0.16514489  0.21194470  0.59678285  1
  O2-  O206  1  0.16739183  0.20703133  0.93907038  1
  O2-  O207  1  0.16531897  0.70000973  0.27167747  1
  O2-  O208  1  0.17158037  0.69516737  0.60839269  1
  O2-  O209  1  0.17276428  0.69478601  0.93525562  1
  O2-  O210  1  0.66440236  0.20478571  0.26960825  1
  O2-  O211  1  0.66606105  0.20805668  0.60007372  1
  O2-  O212  1  0.66027605  0.21229764  0.93352405  1
  O2-  O213  1  0.66612105  0.70362594  0.27302182  1
  O2-  O214  1  0.66344246  0.71516727  0.59508409  1
  O2-  O215  1  0.66621988  0.70934375  0.92962640  1
  O2-  O216  1  0.07899451  0.46034248  0.06717800  1
  O2-  O217  1  0.08679666  0.45430102  0.39788330  1
  O2-  O218  1  0.07770101  0.45501282  0.73326564  1
  O2-  O219  1  0.08455322  0.96440296  0.07172217  1
  O2-  O220  1  0.08404608  0.95330195  0.39236160  1
  O2-  O221  1  0.07980696  0.96792292  0.73253589  1
  O2-  O222  1  0.58515670  0.45240442  0.06268630  1
  O2-  O223  1  0.58356437  0.45238547  0.39599826  1
  O2-  O224  1  0.59074521  0.45810824  0.72981959  1
  O2-  O225  1  0.58956218  0.96104285  0.06127777  1
  O2-  O226  1  0.58339985  0.96031646  0.40531638  1
  O2-  O227  1  0.59015693  0.95287693  0.73440202  1
  O2-  O228  1  0.20862069  0.33413944  0.07261193  1
  O2-  O229  1  0.20126049  0.33168242  0.38960169  1
  O2-  O230  1  0.20902166  0.33290109  0.73403591  1
  O2-  O231  1  0.20301843  0.82837834  0.06750697  1
  O2-  O232  1  0.19969401  0.83153826  0.39459745  1
  O2-  O233  1  0.19513265  0.82962624  0.73326586  1
  O2-  O234  1  0.70678416  0.33582884  0.06376589  1
  O2-  O235  1  0.70193543  0.33367508  0.39723043  1
  O2-  O236  1  0.70633487  0.33589941  0.73062622  1
  O2-  O237  1  0.70542422  0.83650995  0.05995624  1
  O2-  O238  1  0.70478607  0.82928183  0.40369737  1
  O2-  O239  1  0.71370914  0.83634109  0.73095686  1
  O2-  O240  1  0.46142185  0.41617105  0.26062733  1
  O2-  O241  1  0.46802137  0.41059811  0.59929519  1
  O2-  O242  1  0.45860182  0.40939774  0.93720760  1
  O2-  O243  1  0.45976258  0.91796404  0.26926052  1
  O2-  O244  1  0.45849967  0.91682008  0.60698896  1
  O2-  O245  1  0.46027315  0.92105729  0.93046769  1
  O2-  O246  1  0.96146377  0.41633070  0.26671139  1
  O2-  O247  1  0.94448282  0.42195450  0.60937602  1
  O2-  O248  1  0.95464992  0.41735590  0.93148924  1
  O2-  O249  1  0.95467898  0.91796841  0.26585611  1
  O2-  O250  1  0.95754713  0.91837476  0.59787278  1
  O2-  O251  1  0.95422078  0.92548734  0.93701458  1
  O2-  O252  1  0.33213976  0.28967106  0.26166056  1
  O2-  O253  1  0.33367870  0.29057986  0.59925281  1
  O2-  O254  1  0.33528253  0.29180302  0.94064501  1
  O2-  O255  1  0.33216203  0.78922685  0.26844748  1
  O2-  O256  1  0.32933779  0.80565106  0.61006472  1
  O2-  O257  1  0.32752420  0.80117416  0.93386161  1
  O2-  O258  1  0.83082774  0.29284111  0.26840925  1
  O2-  O259  1  0.83256104  0.29558974  0.60327168  1
  O2-  O260  1  0.83203744  0.28881103  0.93054093  1
  O2-  O261  1  0.83127331  0.78749802  0.26876038  1
  O2-  O262  1  0.83700151  0.78493728  0.59766692  1
  O2-  O263  1  0.83304387  0.79314450  0.93177804  1
  O2-  O264  1  0.42100048  0.05195065  0.06106350  1
  O2-  O265  1  0.41659923  0.04579192  0.40093279  1
  O2-  O266  1  0.42457715  0.05272075  0.73271492  1
  O2-  O267  1  0.41647605  0.53968992  0.06489203  1
  O2-  O268  1  0.41984544  0.54094985  0.39674871  1
  O2-  O269  1  0.42334813  0.53651448  0.73413224  1
  O2-  O270  1  0.91414730  0.05551570  0.05961366  1
  O2-  O271  1  0.92347124  0.04780571  0.39899096  1
  O2-  O272  1  0.91180260  0.04461578  0.72932632  1
  O2-  O273  1  0.90920810  0.54238588  0.06023029  1
  O2-  O274  1  0.91635099  0.53680564  0.40373636  1
  O2-  O275  1  0.91199726  0.55099473  0.73209887  1
  O2-  O276  1  0.29441646  0.16353328  0.06593882  1
  O2-  O277  1  0.28560264  0.16706429  0.39723001  1
  O2-  O278  1  0.28854751  0.16833119  0.73441277  1
  O2-  O279  1  0.30383500  0.66679873  0.05903349  1
  O2-  O280  1  0.29004921  0.66484728  0.40264342  1
  O2-  O281  1  0.30515232  0.67156929  0.73485307  1
  O2-  O282  1  0.78496270  0.16339238  0.06115898  1
  O2-  O283  1  0.79144632  0.16897709  0.40383783  1
  O2-  O284  1  0.79093138  0.16382591  0.73107466  1
  O2-  O285  1  0.78900037  0.66276179  0.05981570  1
  O2-  O286  1  0.79041804  0.66390070  0.40464759  1
  O2-  O287  1  0.78405408  0.66292405  0.72982894  1
