# generated using pymatgen
data_Ca2Al2SiO7
_symmetry_space_group_name_H-M   'P 1'
_cell_length_a   15.46248656
_cell_length_b   15.46051451
_cell_length_c   15.28604990
_cell_angle_alpha   90.00511545
_cell_angle_beta   89.98613180
_cell_angle_gamma   90.00276056
_symmetry_Int_Tables_number   1
_chemical_formula_structural   Ca2Al2SiO7
_chemical_formula_sum   'Ca48 Al48 Si24 O168'
_cell_volume   3654.25235658
_cell_formula_units_Z   24
loop_
 _symmetry_equiv_pos_site_id
 _symmetry_equiv_pos_as_xyz
  1  'x, y, z'
loop_
 _atom_type_symbol
 _atom_type_oxidation_number
  Ca2+  2.0
  Al0+  0.0
  Si0+  0.0
  O2-  -2.0
loop_
 _atom_site_type_symbol
 _atom_site_label
 _atom_site_symmetry_multiplicity
 _atom_site_fract_x
 _atom_site_fract_y
 _atom_site_fract_z
 _atom_site_occupancy
  Ca2+  Ca0  1  0.17911773  0.08021655  0.17277148  1
  Ca2+  Ca1  1  0.16956591  0.07841384  0.49640173  1
  Ca2+  Ca2  1  0.17553453  0.08306638  0.84123547  1
  Ca2+  Ca3  1  0.16806445  0.58222275  0.16905136  1
  Ca2+  Ca4  1  0.17241288  0.57842109  0.50980844  1
  Ca2+  Ca5  1  0.17231525  0.57945413  0.83093540  1
  Ca2+  Ca6  1  0.67312226  0.07287582  0.17248654  1
  Ca2+  Ca7  1  0.66548493  0.08523961  0.49781619  1
  Ca2+  Ca8  1  0.66831122  0.07920795  0.84196911  1
  Ca2+  Ca9  1  0.67087107  0.58411796  0.16932567  1
  Ca2+  Ca10  1  0.67176636  0.58796280  0.49684166  1
  Ca2+  Ca11  1  0.67067888  0.57678416  0.84728212  1
  Ca2+  Ca12  1  0.07013931  0.33117839  0.16190863  1
  Ca2+  Ca13  1  0.07491434  0.33879854  0.49644351  1
  Ca2+  Ca14  1  0.07216229  0.33585529  0.82949275  1
  Ca2+  Ca15  1  0.07167805  0.84383965  0.16649422  1
  Ca2+  Ca16  1  0.07868821  0.83406597  0.49053141  1
  Ca2+  Ca17  1  0.07500114  0.83504759  0.83363778  1
  Ca2+  Ca18  1  0.58189455  0.32657461  0.16056342  1
  Ca2+  Ca19  1  0.58547561  0.31921715  0.49435672  1
  Ca2+  Ca20  1  0.58315949  0.32920868  0.83275929  1
  Ca2+  Ca21  1  0.59299308  0.82634673  0.16080202  1
  Ca2+  Ca22  1  0.57894882  0.82959250  0.49193240  1
  Ca2+  Ca23  1  0.57684052  0.83423939  0.83608968  1
  Ca2+  Ca24  1  0.33543107  0.41394221  0.16927067  1
  Ca2+  Ca25  1  0.32612207  0.42436776  0.51097566  1
  Ca2+  Ca26  1  0.33044614  0.41561947  0.83999735  1
  Ca2+  Ca27  1  0.33420826  0.92437989  0.17125917  1
  Ca2+  Ca28  1  0.33441570  0.91775013  0.50046597  1
  Ca2+  Ca29  1  0.34042056  0.91936308  0.84116112  1
  Ca2+  Ca30  1  0.83335764  0.42361646  0.16786284  1
  Ca2+  Ca31  1  0.83964213  0.41945612  0.50140579  1
  Ca2+  Ca32  1  0.82883949  0.41796037  0.84499568  1
  Ca2+  Ca33  1  0.82752522  0.91875211  0.17434919  1
  Ca2+  Ca34  1  0.82710559  0.91720882  0.49612367  1
  Ca2+  Ca35  1  0.82532424  0.92356297  0.84924010  1
  Ca2+  Ca36  1  0.41912441  0.16341550  0.16145878  1
  Ca2+  Ca37  1  0.42681924  0.16228009  0.49403853  1
  Ca2+  Ca38  1  0.42167690  0.16866541  0.83203916  1
  Ca2+  Ca39  1  0.43167071  0.67495344  0.15713150  1
  Ca2+  Ca40  1  0.41837823  0.66952529  0.49502473  1
  Ca2+  Ca41  1  0.41990120  0.67561342  0.82964375  1
  Ca2+  Ca42  1  0.90571904  0.17237080  0.16271969  1
  Ca2+  Ca43  1  0.91247245  0.17933199  0.49029419  1
  Ca2+  Ca44  1  0.90523025  0.17897388  0.83244785  1
  Ca2+  Ca45  1  0.90716222  0.67615865  0.16342581  1
  Ca2+  Ca46  1  0.91752466  0.67113200  0.48856254  1
  Ca2+  Ca47  1  0.90974917  0.67092067  0.83767017  1
  Al0+  Al48  1  0.00232018  0.00128259  -0.00292303  1
  Al0+  Al49  1  0.00128797  0.00237596  0.33798616  1
  Al0+  Al50  1  -0.00048092  0.00259330  0.66730862  1
  Al0+  Al51  1  0.00118088  0.49910020  -0.00113326  1
  Al0+  Al52  1  -0.00051202  0.50045977  0.33203855  1
  Al0+  Al53  1  0.00059139  0.50186959  0.66768218  1
  Al0+  Al54  1  0.50095013  -0.00092556  0.00521889  1
  Al0+  Al55  1  0.50014618  -0.00016858  0.33653628  1
  Al0+  Al56  1  0.50032033  -0.00220849  0.65884135  1
  Al0+  Al57  1  0.49903068  0.49857429  -0.00356877  1
  Al0+  Al58  1  0.50084945  0.49985781  0.33173417  1
  Al0+  Al59  1  0.50211090  0.50115333  0.66970411  1
  Al0+  Al60  1  0.24977041  0.24938410  0.00050275  1
  Al0+  Al61  1  0.24837505  0.25073241  0.33995956  1
  Al0+  Al62  1  0.24815735  0.24838453  0.67055999  1
  Al0+  Al63  1  0.24883376  0.74868560  -0.00321062  1
  Al0+  Al64  1  0.24989554  0.74871457  0.33574565  1
  Al0+  Al65  1  0.24869226  0.75075536  0.66714201  1
  Al0+  Al66  1  0.74860697  0.25096949  0.00248112  1
  Al0+  Al67  1  0.74717506  0.25062322  0.32694338  1
  Al0+  Al68  1  0.75080461  0.25102617  0.65785378  1
  Al0+  Al69  1  0.75165999  0.74884788  -0.00480347  1
  Al0+  Al70  1  0.75103516  0.74912436  0.33593479  1
  Al0+  Al71  1  0.74824450  0.75155820  0.66813553  1
  Al0+  Al72  1  0.93028734  0.82183924  0.98675733  1
  Al0+  Al73  1  0.82261949  0.56966502  0.01492168  1
  Al0+  Al74  1  0.42836928  0.82183413  0.98690408  1
  Al0+  Al75  1  0.82037043  0.07417192  0.34966382  1
  Al0+  Al76  1  0.32293367  0.57233669  0.68317294  1
  Al0+  Al77  1  0.17930014  0.92780686  0.34834137  1
  Al0+  Al78  1  0.93120235  0.82176765  0.32166433  1
  Al0+  Al79  1  0.57307153  0.67826552  0.98357140  1
  Al0+  Al80  1  0.17821673  0.42799544  0.68376108  1
  Al0+  Al81  1  0.92859063  0.31961928  0.98653844  1
  Al0+  Al82  1  0.93173894  0.32101649  0.65190305  1
  Al0+  Al83  1  0.32077697  0.07020295  0.01200291  1
  Al0+  Al84  1  0.42872224  0.81868635  0.65095742  1
  Al0+  Al85  1  0.68000937  0.92712127  0.35051260  1
  Al0+  Al86  1  0.82022796  0.56920216  0.34754728  1
  Al0+  Al87  1  0.67993279  0.92843771  0.01409811  1
  Al0+  Al88  1  0.82331183  0.07249562  0.01340895  1
  Al0+  Al89  1  0.57076504  0.67917403  0.31990320  1
  Al0+  Al90  1  0.56922408  0.17716330  0.31660343  1
  Al0+  Al91  1  0.92917572  0.32190942  0.31704519  1
  Al0+  Al92  1  0.67535130  0.42839617  0.01566383  1
  Al0+  Al93  1  0.32208761  0.07218914  0.35101352  1
  Al0+  Al94  1  0.56921050  0.18028134  0.65318840  1
  Al0+  Al95  1  0.42714640  0.31995322  0.98720982  1
  Si0+  Si96  1  0.06863333  0.68177440  0.65186366  1
  Si0+  Si97  1  0.17821048  0.43055918  0.34788327  1
  Si0+  Si98  1  0.68173502  0.42680871  0.67942670  1
  Si0+  Si99  1  0.82039062  0.57286209  0.68140622  1
  Si0+  Si100  1  0.18011829  0.42897811  0.01640957  1
  Si0+  Si101  1  0.07351688  0.17930270  0.31670215  1
  Si0+  Si102  1  0.67605642  0.42826171  0.35129523  1
  Si0+  Si103  1  0.17649262  0.92944371  0.68321778  1
  Si0+  Si104  1  0.07378319  0.67733524  0.31723770  1
  Si0+  Si105  1  0.32267060  0.56969288  0.34670482  1
  Si0+  Si106  1  0.67873671  0.92952465  0.68223668  1
  Si0+  Si107  1  0.17760135  0.92539914  0.01497020  1
  Si0+  Si108  1  0.57377279  0.67646261  0.64895151  1
  Si0+  Si109  1  0.81986924  0.07246247  0.68033759  1
  Si0+  Si110  1  0.07450736  0.17580745  0.64829782  1
  Si0+  Si111  1  0.42629857  0.82074781  0.31663284  1
  Si0+  Si112  1  0.92723353  0.82325023  0.65185178  1
  Si0+  Si113  1  0.07348427  0.17899505  0.98305479  1
  Si0+  Si114  1  0.32071778  0.57194048  0.01551961  1
  Si0+  Si115  1  0.57091878  0.17806075  0.98471750  1
  Si0+  Si116  1  0.42588430  0.32335308  0.65169879  1
  Si0+  Si117  1  0.07338338  0.67572808  0.98087327  1
  Si0+  Si118  1  0.32274536  0.06772571  0.68188742  1
  Si0+  Si119  1  0.42638045  0.32144165  0.31997871  1
  O2-  O120  1  0.24914514  -0.00822056  0.05709017  1
  O2-  O121  1  0.25261784  -0.00292607  0.40081106  1
  O2-  O122  1  0.24916139  -0.00081932  0.72458196  1
  O2-  O123  1  0.25124375  0.49967906  0.05918467  1
  O2-  O124  1  0.25084862  0.49994475  0.38964186  1
  O2-  O125  1  0.25611181  0.49459541  0.73318538  1
  O2-  O126  1  0.75589712  -0.00334741  0.06292692  1
  O2-  O127  1  0.74904820  0.00218978  0.40172972  1
  O2-  O128  1  0.75159610  -0.00067082  0.72325119  1
  O2-  O129  1  0.74753252  0.50084773  0.06461542  1
  O2-  O130  1  0.74714819  0.49417513  0.39682027  1
  O2-  O131  1  0.74901680  0.50157059  0.72158460  1
  O2-  O132  1  0.00070072  0.24305827  0.27195646  1
  O2-  O133  1  0.00826673  0.24765774  0.60552857  1
  O2-  O134  1  -0.00065649  0.24166572  0.93844531  1
  O2-  O135  1  0.00848522  0.74927716  0.27465457  1
  O2-  O136  1  -0.00243781  0.75203385  0.60897804  1
  O2-  O137  1  0.00432287  0.74585249  0.93897022  1
  O2-  O138  1  0.49070435  0.25023566  0.27425381  1
  O2-  O139  1  0.49364636  0.25512039  0.60624093  1
  O2-  O140  1  0.50282617  0.24719067  0.93958222  1
  O2-  O141  1  0.49839394  0.75592093  0.27323584  1
  O2-  O142  1  0.50076674  0.74080588  0.60531891  1
  O2-  O143  1  0.49995800  0.75036054  0.93508193  1
  O2-  O144  1  0.07854947  0.18332286  0.08818059  1
  O2-  O145  1  0.07587381  0.18385977  0.42251569  1
  O2-  O146  1  0.07415191  0.17201788  0.75366208  1
  O2-  O147  1  0.07727675  0.67368408  0.08610093  1
  O2-  O148  1  0.07304648  0.67504904  0.42327591  1
  O2-  O149  1  0.06809430  0.68249792  0.75680630  1
  O2-  O150  1  0.56860927  0.17842056  0.08984348  1
  O2-  O151  1  0.56882746  0.18121510  0.43042142  1
  O2-  O152  1  0.56914323  0.18026798  0.76629455  1
  O2-  O153  1  0.57093483  0.67872452  0.09728414  1
  O2-  O154  1  0.56632239  0.67784938  0.43357574  1
  O2-  O155  1  0.57737031  0.67837936  0.75382853  1
  O2-  O156  1  0.17886040  0.43095652  0.24266258  1
  O2-  O157  1  0.17722276  0.43311771  0.56962916  1
  O2-  O158  1  0.18011790  0.42985630  0.91147590  1
  O2-  O159  1  0.18078483  0.92882458  0.23485236  1
  O2-  O160  1  0.17424871  0.92992956  0.57860856  1
  O2-  O161  1  0.17644068  0.92736312  0.90873577  1
  O2-  O162  1  0.67275836  0.43106676  0.24637931  1
  O2-  O163  1  0.68360831  0.42562586  0.57442592  1
  O2-  O164  1  0.67861384  0.42688718  0.90086017  1
  O2-  O165  1  0.68330500  0.92475708  0.23758709  1
  O2-  O166  1  0.68028520  0.92676526  0.57760769  1
  O2-  O167  1  0.67847998  0.93297256  0.89932207  1
  O2-  O168  1  0.42405642  0.31725544  0.10021701  1
  O2-  O169  1  0.42776357  0.32394738  0.42579495  1
  O2-  O170  1  0.42692254  0.32089814  0.75715570  1
  O2-  O171  1  0.42409617  0.81892741  0.09994166  1
  O2-  O172  1  0.42422790  0.81554220  0.42269150  1
  O2-  O173  1  0.43146696  0.82193891  0.76369060  1
  O2-  O174  1  0.93272994  0.32150959  0.09913284  1
  O2-  O175  1  0.93418113  0.32435662  0.43067809  1
  O2-  O176  1  0.92910095  0.31943227  0.76482940  1
  O2-  O177  1  0.93271073  0.82277517  0.09945665  1
  O2-  O178  1  0.93242621  0.81739907  0.43568825  1
  O2-  O179  1  0.92828868  0.82288081  0.75685068  1
  O2-  O180  1  0.31899341  0.07424016  0.23752855  1
  O2-  O181  1  0.32216086  0.06647572  0.57725050  1
  O2-  O182  1  0.31924422  0.07070302  0.89805759  1
  O2-  O183  1  0.32154163  0.56847595  0.24163798  1
  O2-  O184  1  0.31890897  0.57158651  0.56871754  1
  O2-  O185  1  0.31766515  0.57173888  0.91064409  1
  O2-  O186  1  0.81929190  0.07245698  0.23667030  1
  O2-  O187  1  0.81992515  0.07198074  0.57574055  1
  O2-  O188  1  0.81906762  0.07251317  0.89847398  1
  O2-  O189  1  0.82112857  0.56923637  0.23544993  1
  O2-  O190  1  0.82077006  0.57460360  0.57627924  1
  O2-  O191  1  0.82291029  0.56650216  0.90016030  1
  O2-  O192  1  0.05500775  0.08346729  0.27397442  1
  O2-  O193  1  0.04575297  0.08325660  0.60088736  1
  O2-  O194  1  0.05653326  0.08361049  0.93704810  1
  O2-  O195  1  0.04628748  0.58534706  0.26959742  1
  O2-  O196  1  0.04158342  0.59005666  0.60372607  1
  O2-  O197  1  0.04650308  0.58323606  0.93306116  1
  O2-  O198  1  0.54065517  0.07912820  0.26519328  1
  O2-  O199  1  0.53840002  0.08491204  0.59740228  1
  O2-  O200  1  0.54386892  0.08496195  0.93865141  1
  O2-  O201  1  0.53842426  0.58308547  0.26592606  1
  O2-  O202  1  0.55452599  0.58049682  0.60435793  1
  O2-  O203  1  0.54294269  0.58012396  0.93104225  1
  O2-  O204  1  0.16567415  0.21091626  0.27023036  1
  O2-  O205  1  0.16955472  0.19798723  0.60318411  1
  O2-  O206  1  0.16354567  0.21163020  0.93321758  1
  O2-  O207  1  0.16880276  0.69854462  0.27166799  1
  O2-  O208  1  0.16012099  0.70915618  0.60362378  1
  O2-  O209  1  0.16554437  0.70210395  0.93167574  1
  O2-  O210  1  0.66339835  0.21041079  0.26117358  1
  O2-  O211  1  0.66377122  0.21314630  0.59620558  1
  O2-  O212  1  0.66381681  0.20449129  0.93758996  1
  O2-  O213  1  0.66834658  0.70795128  0.26882045  1
  O2-  O214  1  0.66600131  0.70804202  0.60179397  1
  O2-  O215  1  0.67073394  0.70430284  0.92823365  1
  O2-  O216  1  0.08944451  0.45881366  0.06425686  1
  O2-  O217  1  0.08827426  0.46189315  0.39643298  1
  O2-  O218  1  0.08206627  0.46450114  0.73726674  1
  O2-  O219  1  0.08594962  0.95525580  0.06170117  1
  O2-  O220  1  0.08292975  0.95828823  0.40501389  1
  O2-  O221  1  0.08511964  0.95919011  0.73191850  1
  O2-  O222  1  0.57540288  0.45323933  0.06710278  1
  O2-  O223  1  0.58343130  0.45629576  0.39969160  1
  O2-  O224  1  0.58793238  0.44855197  0.72584251  1
  O2-  O225  1  0.58333703  0.95644725  0.06937012  1
  O2-  O226  1  0.58007770  0.95216064  0.40179933  1
  O2-  O227  1  0.58672968  0.96004230  0.72698503  1
  O2-  O228  1  0.20839766  0.33797996  0.06429060  1
  O2-  O229  1  0.20250356  0.33953370  0.39823391  1
  O2-  O230  1  0.19851401  0.32682079  0.73499801  1
  O2-  O231  1  0.19760893  0.83008163  0.05915881  1
  O2-  O232  1  0.20430886  0.82765369  0.40202120  1
  O2-  O233  1  0.20125888  0.83684637  0.72963858  1
  O2-  O234  1  0.70374015  0.33086107  0.06853412  1
  O2-  O235  1  0.70089283  0.33379430  0.39468350  1
  O2-  O236  1  0.71349230  0.33637221  0.72722504  1
  O2-  O237  1  0.70722952  0.82859356  0.06205269  1
  O2-  O238  1  0.71235499  0.83087328  0.40657799  1
  O2-  O239  1  0.70555085  0.83767002  0.73059186  1
  O2-  O240  1  0.45384205  0.41381699  0.27216770  1
  O2-  O241  1  0.45040820  0.41834165  0.60760113  1
  O2-  O242  1  0.45321558  0.41657516  0.93132901  1
  O2-  O243  1  0.44649463  0.91698352  0.27637974  1
  O2-  O244  1  0.46218540  0.91275310  0.59406314  1
  O2-  O245  1  0.45827664  0.92053673  0.93408387  1
  O2-  O246  1  0.96605458  0.41676717  0.26351421  1
  O2-  O247  1  0.96202908  0.41929048  0.59977607  1
  O2-  O248  1  0.96438594  0.41463451  0.93183577  1
  O2-  O249  1  0.96114488  0.91955267  0.26999658  1
  O2-  O250  1  0.95563555  0.91556571  0.60616102  1
  O2-  O251  1  0.96286300  0.91758054  0.92941611  1
  O2-  O252  1  0.33021981  0.30074563  0.27683669  1
  O2-  O253  1  0.33064976  0.29924913  0.60789947  1
  O2-  O254  1  0.33145276  0.28766973  0.93123866  1
  O2-  O255  1  0.33360028  0.79163114  0.27081961  1
  O2-  O256  1  0.32987341  0.79130758  0.59880369  1
  O2-  O257  1  0.32957210  0.79377436  0.93253539  1
  O2-  O258  1  0.83105368  0.29678937  0.26545013  1
  O2-  O259  1  0.83713481  0.28933263  0.59501065  1
  O2-  O260  1  0.83077315  0.29134192  0.93255208  1
  O2-  O261  1  0.83623025  0.78671852  0.26931598  1
  O2-  O262  1  0.83487596  0.79498756  0.60606766  1
  O2-  O263  1  0.83595123  0.79118139  0.92821602  1
  O2-  O264  1  0.41635705  0.04253343  0.06771473  1
  O2-  O265  1  0.41993387  0.04452017  0.40427490  1
  O2-  O266  1  0.41404413  0.03634217  0.72786713  1
  O2-  O267  1  0.41237923  0.54433672  0.06168246  1
  O2-  O268  1  0.41316546  0.54092832  0.39609442  1
  O2-  O269  1  0.42426534  0.55218759  0.73319674  1
  O2-  O270  1  0.92538516  0.05185601  0.06115603  1
  O2-  O271  1  0.92027820  0.05026552  0.40193617  1
  O2-  O272  1  0.91312638  0.04856041  0.72711938  1
  O2-  O273  1  0.92132688  0.54043268  0.06660365  1
  O2-  O274  1  0.91808285  0.53922612  0.40174255  1
  O2-  O275  1  0.91271157  0.54705558  0.72757457  1
  O2-  O276  1  0.28591888  0.16504136  0.06689879  1
  O2-  O277  1  0.29068585  0.16970262  0.40612819  1
  O2-  O278  1  0.29796507  0.16102906  0.72821455  1
  O2-  O279  1  0.28985598  0.66260217  0.06354067  1
  O2-  O280  1  0.29551379  0.66093556  0.39549877  1
  O2-  O281  1  0.28624126  0.66866480  0.73580219  1
  O2-  O282  1  0.79243464  0.16910207  0.06603843  1
  O2-  O283  1  0.78903057  0.17356767  0.40046540  1
  O2-  O284  1  0.78861293  0.16432138  0.72571511  1
  O2-  O285  1  0.79774100  0.67010410  0.06308586  1
  O2-  O286  1  0.78912124  0.66405037  0.40474166  1
  O2-  O287  1  0.79247016  0.66490969  0.72914082  1
