# generated using pymatgen
data_Ca2Al2SiO7
_symmetry_space_group_name_H-M   'P 1'
_cell_length_a   15.45943143
_cell_length_b   15.46112733
_cell_length_c   15.28531629
_cell_angle_alpha   90.00510357
_cell_angle_beta   89.99429818
_cell_angle_gamma   89.98430766
_symmetry_Int_Tables_number   1
_chemical_formula_structural   Ca2Al2SiO7
_chemical_formula_sum   'Ca48 Al48 Si24 O168'
_cell_volume   3653.49976390
_cell_formula_units_Z   24
loop_
 _symmetry_equiv_pos_site_id
 _symmetry_equiv_pos_as_xyz
  1  'x, y, z'
loop_
 _atom_type_symbol
 _atom_type_oxidation_number
  Ca2+  2.0
  Al0+  0.0
  Si0+  0.0
  O2-  -2.0
loop_
 _atom_site_type_symbol
 _atom_site_label
 _atom_site_symmetry_multiplicity
 _atom_site_fract_x
 _atom_site_fract_y
 _atom_site_fract_z
 _atom_site_occupancy
  Ca2+  Ca0  1  0.16635761  0.08095710  0.17050968  1
  Ca2+  Ca1  1  0.17665085  0.08412596  0.50379777  1
  Ca2+  Ca2  1  0.16273480  0.07264583  0.83756754  1
  Ca2+  Ca3  1  0.16376262  0.58496723  0.16836211  1
  Ca2+  Ca4  1  0.17370823  0.57559446  0.51206181  1
  Ca2+  Ca5  1  0.16386077  0.58026806  0.83556958  1
  Ca2+  Ca6  1  0.67584493  0.07474672  0.17278245  1
  Ca2+  Ca7  1  0.66892296  0.07688514  0.50628395  1
  Ca2+  Ca8  1  0.67961972  0.08800371  0.83566379  1
  Ca2+  Ca9  1  0.66085165  0.58328890  0.17508753  1
  Ca2+  Ca10  1  0.66232591  0.57806630  0.49789968  1
  Ca2+  Ca11  1  0.66643301  0.58328269  0.83857340  1
  Ca2+  Ca12  1  0.08081311  0.31914772  0.16584954  1
  Ca2+  Ca13  1  0.07598776  0.33161322  0.49266598  1
  Ca2+  Ca14  1  0.07856555  0.32712894  0.82574741  1
  Ca2+  Ca15  1  0.07483438  0.83441722  0.15712846  1
  Ca2+  Ca16  1  0.07392169  0.84543837  0.50045766  1
  Ca2+  Ca17  1  0.07819055  0.84191118  0.83143628  1
  Ca2+  Ca18  1  0.57825123  0.33830784  0.16900908  1
  Ca2+  Ca19  1  0.57848057  0.32553398  0.49396704  1
  Ca2+  Ca20  1  0.58109433  0.32475671  0.82565480  1
  Ca2+  Ca21  1  0.57649625  0.83251654  0.16445923  1
  Ca2+  Ca22  1  0.57761380  0.82868084  0.48635319  1
  Ca2+  Ca23  1  0.57839812  0.83169115  0.83274539  1
  Ca2+  Ca24  1  0.33434079  0.41803266  0.17511475  1
  Ca2+  Ca25  1  0.32999361  0.42059090  0.50713612  1
  Ca2+  Ca26  1  0.32837509  0.42213857  0.83183287  1
  Ca2+  Ca27  1  0.33087528  0.91563217  0.17269907  1
  Ca2+  Ca28  1  0.33097353  0.92566326  0.50680972  1
  Ca2+  Ca29  1  0.32357325  0.91787848  0.83779042  1
  Ca2+  Ca30  1  0.82745016  0.42078455  0.17753546  1
  Ca2+  Ca31  1  0.83161152  0.40957818  0.50351014  1
  Ca2+  Ca32  1  0.83472414  0.41515696  0.83655296  1
  Ca2+  Ca33  1  0.83599840  0.91661407  0.17130886  1
  Ca2+  Ca34  1  0.83124243  0.91756553  0.50396762  1
  Ca2+  Ca35  1  0.84242947  0.92565177  0.83750466  1
  Ca2+  Ca36  1  0.41200617  0.16949221  0.16896050  1
  Ca2+  Ca37  1  0.41673171  0.16425508  0.49361873  1
  Ca2+  Ca38  1  0.42534686  0.15933714  0.82530431  1
  Ca2+  Ca39  1  0.42704413  0.67832000  0.16210396  1
  Ca2+  Ca40  1  0.41833502  0.67117199  0.49202894  1
  Ca2+  Ca41  1  0.41512557  0.67052645  0.83396347  1
  Ca2+  Ca42  1  0.92698280  0.16247895  0.16328286  1
  Ca2+  Ca43  1  0.92195240  0.17313577  0.49614663  1
  Ca2+  Ca44  1  0.91924540  0.16366198  0.82682717  1
  Ca2+  Ca45  1  0.91911586  0.68025654  0.16088893  1
  Ca2+  Ca46  1  0.91951435  0.67862112  0.49520299  1
  Ca2+  Ca47  1  0.92202404  0.68050467  0.83058203  1
  Al0+  Al48  1  0.00218132  0.00227539  0.00203957  1
  Al0+  Al49  1  0.00084063  0.00051631  0.32749064  1
  Al0+  Al50  1  -0.00108072  0.00186124  0.66657464  1
  Al0+  Al51  1  -0.00187459  0.50015145  0.00070478  1
  Al0+  Al52  1  -0.00109328  0.49971692  0.33104555  1
  Al0+  Al53  1  -0.00185869  0.50104179  0.66692710  1
  Al0+  Al54  1  0.50076332  0.00201308  -0.00352870  1
  Al0+  Al55  1  0.50095579  0.00019296  0.33616376  1
  Al0+  Al56  1  0.50161879  -0.00303637  0.66561590  1
  Al0+  Al57  1  0.49858036  0.49987689  -0.00376679  1
  Al0+  Al58  1  0.50069819  0.49852580  0.33244764  1
  Al0+  Al59  1  0.50041437  0.49894017  0.67166861  1
  Al0+  Al60  1  0.24842922  0.25100680  -0.00513387  1
  Al0+  Al61  1  0.25040544  0.24952307  0.32979914  1
  Al0+  Al62  1  0.25183298  0.25130317  0.67569067  1
  Al0+  Al63  1  0.25078912  0.74836265  -0.00077111  1
  Al0+  Al64  1  0.24932780  0.75007279  0.33311910  1
  Al0+  Al65  1  0.25060650  0.74935238  0.67336104  1
  Al0+  Al66  1  0.74863753  0.25051858  0.00824570  1
  Al0+  Al67  1  0.74945057  0.25134199  0.33426995  1
  Al0+  Al68  1  0.74849324  0.24823812  0.66220671  1
  Al0+  Al69  1  0.74936909  0.74997330  -0.00785386  1
  Al0+  Al70  1  0.75180126  0.74890428  0.33121405  1
  Al0+  Al71  1  0.74966540  0.74811380  0.66243325  1
  Al0+  Al72  1  0.17548048  0.42881558  0.68210106  1
  Al0+  Al73  1  0.07145158  0.67636608  0.98499261  1
  Al0+  Al74  1  0.92625662  0.32261179  0.31717508  1
  Al0+  Al75  1  0.92981835  0.82256746  0.65117712  1
  Al0+  Al76  1  0.32488698  0.07169979  0.68224223  1
  Al0+  Al77  1  0.56983710  0.17715028  0.65251735  1
  Al0+  Al78  1  0.93047278  0.82048758  0.32022382  1
  Al0+  Al79  1  0.32004234  0.07089918  0.34512830  1
  Al0+  Al80  1  0.42859905  0.82378108  0.98316835  1
  Al0+  Al81  1  0.57012031  0.67881161  0.32023094  1
  Al0+  Al82  1  0.32263254  0.57106837  0.68320975  1
  Al0+  Al83  1  0.57035772  0.67812708  0.98280718  1
  Al0+  Al84  1  0.82152547  0.07080780  0.01529871  1
  Al0+  Al85  1  0.07052681  0.18038378  0.98356095  1
  Al0+  Al86  1  0.92935687  0.32192598  0.65409305  1
  Al0+  Al87  1  0.42996165  0.31928532  0.32186630  1
  Al0+  Al88  1  0.07139382  0.18022820  0.31913968  1
  Al0+  Al89  1  0.68102790  0.92795121  0.34576163  1
  Al0+  Al90  1  0.18175344  0.92860458  0.01569572  1
  Al0+  Al91  1  0.81776212  0.07040798  0.67765578  1
  Al0+  Al92  1  0.67826825  0.42895920  0.34886103  1
  Al0+  Al93  1  0.93028958  0.82267877  0.98374291  1
  Al0+  Al94  1  0.17854221  0.93150231  0.68121094  1
  Al0+  Al95  1  0.42714856  0.82426546  0.32022793  1
  Si0+  Si96  1  0.07273809  0.67852527  0.65019877  1
  Si0+  Si97  1  0.17683867  0.92644305  0.34931121  1
  Si0+  Si98  1  0.32408655  0.07384618  0.01685478  1
  Si0+  Si99  1  0.57208926  0.18108483  0.98684877  1
  Si0+  Si100  1  0.82327891  0.57140614  0.35157944  1
  Si0+  Si101  1  0.82010053  0.57278528  0.68221002  1
  Si0+  Si102  1  0.67747615  0.43006435  0.01548278  1
  Si0+  Si103  1  0.17786362  0.42842337  0.01740805  1
  Si0+  Si104  1  0.17899250  0.42929281  0.34587606  1
  Si0+  Si105  1  0.82407450  0.07168748  0.35056672  1
  Si0+  Si106  1  0.81992768  0.57195965  0.01443317  1
  Si0+  Si107  1  0.07384125  0.17892390  0.65075220  1
  Si0+  Si108  1  0.92577449  0.32066943  0.98529824  1
  Si0+  Si109  1  0.67861846  0.92394752  0.68325138  1
  Si0+  Si110  1  0.42836200  0.81885213  0.65114894  1
  Si0+  Si111  1  0.32180797  0.56864196  0.01816980  1
  Si0+  Si112  1  0.42837062  0.32163529  0.98350275  1
  Si0+  Si113  1  0.68071455  0.42885327  0.68219698  1
  Si0+  Si114  1  0.57095083  0.67667774  0.65012187  1
  Si0+  Si115  1  0.57311646  0.17638464  0.31566501  1
  Si0+  Si116  1  0.67720013  0.92757331  0.01503586  1
  Si0+  Si117  1  0.42879514  0.32232218  0.65175035  1
  Si0+  Si118  1  0.07310471  0.67622134  0.31912176  1
  Si0+  Si119  1  0.32047472  0.57081355  0.34624053  1
  O2-  O120  1  0.25880878  0.00238995  0.06110462  1
  O2-  O121  1  0.24859924  -0.00708109  0.39152609  1
  O2-  O122  1  0.25012020  0.00351798  0.73266559  1
  O2-  O123  1  0.24802292  0.50012682  0.06092652  1
  O2-  O124  1  0.24672125  0.50296441  0.38866053  1
  O2-  O125  1  0.24736999  0.50141079  0.73249450  1
  O2-  O126  1  0.74941823  -0.00771656  0.05965337  1
  O2-  O127  1  0.75456092  0.00339714  0.39397609  1
  O2-  O128  1  0.74670498  -0.00686589  0.72707119  1
  O2-  O129  1  0.74670489  0.50293191  0.05684805  1
  O2-  O130  1  0.75590381  0.50081720  0.39599641  1
  O2-  O131  1  0.75149986  0.49929314  0.72544539  1
  O2-  O132  1  -0.00447231  0.24841156  0.26812638  1
  O2-  O133  1  0.00899368  0.25228695  0.60793960  1
  O2-  O134  1  -0.00689455  0.25316874  0.93854126  1
  O2-  O135  1  0.00726477  0.74726297  0.27550492  1
  O2-  O136  1  0.00765153  0.75000757  0.60510234  1
  O2-  O137  1  0.00456326  0.75229133  0.93400171  1
  O2-  O138  1  0.50439049  0.24574210  0.27198253  1
  O2-  O139  1  0.49022097  0.24764599  0.60732714  1
  O2-  O140  1  0.49747210  0.24801279  0.94342756  1
  O2-  O141  1  0.50105037  0.75358515  0.27117056  1
  O2-  O142  1  0.49932071  0.74710408  0.60928327  1
  O2-  O143  1  0.50069236  0.75161288  0.93217191  1
  O2-  O144  1  0.07297002  0.18307771  0.09637573  1
  O2-  O145  1  0.07329631  0.18302292  0.43292431  1
  O2-  O146  1  0.06936438  0.17813315  0.75641036  1
  O2-  O147  1  0.06602089  0.67438816  0.09888860  1
  O2-  O148  1  0.07272333  0.67273005  0.42457937  1
  O2-  O149  1  0.06870075  0.67616292  0.75536022  1
  O2-  O150  1  0.57297984  0.18300974  0.09163992  1
  O2-  O151  1  0.57231012  0.17741152  0.42132174  1
  O2-  O152  1  0.57250442  0.18270624  0.76635534  1
  O2-  O153  1  0.56798665  0.67458387  0.09582371  1
  O2-  O154  1  0.56618330  0.67729690  0.43436452  1
  O2-  O155  1  0.57260012  0.67661780  0.75496546  1
  O2-  O156  1  0.18115694  0.43070767  0.24048086  1
  O2-  O157  1  0.17666596  0.43077515  0.56774804  1
  O2-  O158  1  0.17908387  0.42918397  0.91259926  1
  O2-  O159  1  0.17664731  0.92523215  0.24389156  1
  O2-  O160  1  0.17977632  0.93290063  0.56719299  1
  O2-  O161  1  0.18069647  0.93211585  0.90286544  1
  O2-  O162  1  0.67647970  0.43298996  0.23533857  1
  O2-  O163  1  0.67906769  0.43060719  0.57747048  1
  O2-  O164  1  0.67899855  0.42727962  0.91007249  1
  O2-  O165  1  0.68174435  0.92997887  0.23244906  1
  O2-  O166  1  0.67912202  0.92331052  0.57757359  1
  O2-  O167  1  0.67503464  0.93128378  0.90939568  1
  O2-  O168  1  0.42928019  0.32407006  0.08869705  1
  O2-  O169  1  0.42963002  0.31978788  0.43468372  1
  O2-  O170  1  0.43491124  0.32608530  0.75752953  1
  O2-  O171  1  0.43099488  0.82315832  0.09676014  1
  O2-  O172  1  0.42636887  0.82039600  0.43424689  1
  O2-  O173  1  0.43074582  0.81893478  0.75602939  1
  O2-  O174  1  0.92666399  0.32082339  0.09046213  1
  O2-  O175  1  0.93012676  0.32297769  0.43090672  1
  O2-  O176  1  0.92708956  0.31988295  0.76746710  1
  O2-  O177  1  0.92918144  0.81928736  0.09747058  1
  O2-  O178  1  0.93131440  0.82035042  0.43360487  1
  O2-  O179  1  0.92822590  0.82082945  0.76372481  1
  O2-  O180  1  0.31751253  0.07281047  0.23197804  1
  O2-  O181  1  0.32435638  0.06997345  0.56843764  1
  O2-  O182  1  0.32476952  0.07451825  0.91150470  1
  O2-  O183  1  0.31989169  0.56911415  0.24109831  1
  O2-  O184  1  0.32411723  0.56861966  0.56880944  1
  O2-  O185  1  0.32487146  0.56386263  0.91341584  1
  O2-  O186  1  0.82314493  0.07002134  0.24470951  1
  O2-  O187  1  0.81605538  0.07016389  0.56476592  1
  O2-  O188  1  0.81762456  0.07528747  0.90209441  1
  O2-  O189  1  0.82325835  0.57063714  0.24583036  1
  O2-  O190  1  0.81801888  0.57437044  0.57738836  1
  O2-  O191  1  0.82000649  0.56815781  0.90905478  1
  O2-  O192  1  0.04530632  0.08231363  0.26434668  1
  O2-  O193  1  0.04360440  0.08815421  0.60279890  1
  O2-  O194  1  0.03955986  0.08431862  0.93098003  1
  O2-  O195  1  0.04664588  0.58400460  0.27051264  1
  O2-  O196  1  0.04309618  0.58640226  0.60280451  1
  O2-  O197  1  0.03842718  0.57889682  0.93145687  1
  O2-  O198  1  0.54700222  0.08385790  0.26898421  1
  O2-  O199  1  0.54524685  0.07850811  0.59946494  1
  O2-  O200  1  0.54934779  0.08925856  0.93754969  1
  O2-  O201  1  0.53873218  0.58200250  0.26648377  1
  O2-  O202  1  0.54305981  0.58342492  0.60542213  1
  O2-  O203  1  0.53978284  0.57977646  0.92887676  1
  O2-  O204  1  0.16649257  0.21361786  0.26269276  1
  O2-  O205  1  0.17070378  0.20107047  0.61016609  1
  O2-  O206  1  0.16598548  0.21295042  0.92813291  1
  O2-  O207  1  0.16737254  0.69806219  0.27280666  1
  O2-  O208  1  0.16907227  0.69897071  0.60754253  1
  O2-  O209  1  0.17307329  0.69463439  0.93662433  1
  O2-  O210  1  0.66641794  0.20277762  0.27014694  1
  O2-  O211  1  0.66263275  0.21347102  0.59570734  1
  O2-  O212  1  0.66225998  0.21498171  0.93921052  1
  O2-  O213  1  0.66992572  0.70170427  0.26908685  1
  O2-  O214  1  0.66232186  0.70303529  0.60145314  1
  O2-  O215  1  0.66894481  0.70232440  0.92817817  1
  O2-  O216  1  0.08514249  0.45505923  0.06416589  1
  O2-  O217  1  0.08593920  0.45442487  0.39231376  1
  O2-  O218  1  0.07699151  0.45754839  0.73567080  1
  O2-  O219  1  0.08610233  0.96251286  0.06964077  1
  O2-  O220  1  0.08415475  0.95688389  0.39475051  1
  O2-  O221  1  0.08041466  0.96123749  0.73398557  1
  O2-  O222  1  0.58427324  0.45703294  0.06088700  1
  O2-  O223  1  0.58248797  0.46215123  0.40424327  1
  O2-  O224  1  0.59001592  0.45675805  0.73215989  1
  O2-  O225  1  0.58509767  0.95863617  0.06200387  1
  O2-  O226  1  0.58468486  0.95769434  0.40137955  1
  O2-  O227  1  0.58504792  0.94886514  0.72873259  1
  O2-  O228  1  0.20905477  0.33683534  0.06349538  1
  O2-  O229  1  0.21030040  0.33932716  0.39319943  1
  O2-  O230  1  0.20347910  0.33204826  0.73853813  1
  O2-  O231  1  0.20810412  0.82953896  0.06800162  1
  O2-  O232  1  0.19754076  0.83149030  0.39580806  1
  O2-  O233  1  0.20414538  0.83230148  0.73331827  1
  O2-  O234  1  0.70453098  0.34010144  0.06652906  1
  O2-  O235  1  0.70452922  0.33082793  0.40282297  1
  O2-  O236  1  0.70899502  0.33715736  0.72916374  1
  O2-  O237  1  0.69848516  0.83115346  0.05684663  1
  O2-  O238  1  0.71117328  0.83095281  0.39985827  1
  O2-  O239  1  0.70347091  0.82977007  0.72846869  1
  O2-  O240  1  0.46189417  0.41437994  0.26513260  1
  O2-  O241  1  0.46159412  0.41378773  0.60482579  1
  O2-  O242  1  0.46016785  0.41078232  0.93379493  1
  O2-  O243  1  0.45529337  0.92230604  0.26743075  1
  O2-  O244  1  0.45730190  0.90989565  0.60334719  1
  O2-  O245  1  0.45657304  0.92260634  0.92982819  1
  O2-  O246  1  0.95559454  0.42077780  0.26375745  1
  O2-  O247  1  0.95309275  0.42082763  0.60060089  1
  O2-  O248  1  0.95089748  0.41478219  0.94010510  1
  O2-  O249  1  0.95830222  0.91648403  0.26493372  1
  O2-  O250  1  0.95926556  0.91959653  0.59706856  1
  O2-  O251  1  0.95930654  0.92152669  0.93369432  1
  O2-  O252  1  0.33519004  0.28995673  0.26379262  1
  O2-  O253  1  0.33140982  0.30590183  0.61080395  1
  O2-  O254  1  0.33610681  0.29800901  0.93603335  1
  O2-  O255  1  0.32905662  0.79405017  0.26755003  1
  O2-  O256  1  0.33576399  0.79147159  0.60542042  1
  O2-  O257  1  0.33132942  0.79172207  0.93139643  1
  O2-  O258  1  0.82543323  0.30044294  0.26689108  1
  O2-  O259  1  0.83435658  0.28788892  0.59918373  1
  O2-  O260  1  0.83024017  0.29699314  0.94183648  1
  O2-  O261  1  0.83595368  0.78712890  0.26467923  1
  O2-  O262  1  0.83378344  0.78716863  0.59778946  1
  O2-  O263  1  0.83239277  0.79434747  0.92999373  1
  O2-  O264  1  0.42014954  0.05356444  0.06105166  1
  O2-  O265  1  0.41790028  0.04558304  0.39920103  1
  O2-  O266  1  0.42291738  0.03919978  0.73460518  1
  O2-  O267  1  0.41242937  0.53492508  0.06522954  1
  O2-  O268  1  0.41046022  0.53925152  0.39421548  1
  O2-  O269  1  0.41924925  0.53832107  0.73885596  1
  O2-  O270  1  0.91814079  0.04253867  0.06919209  1
  O2-  O271  1  0.91803868  0.04530734  0.39505832  1
  O2-  O272  1  0.91475096  0.04280138  0.73168721  1
  O2-  O273  1  0.91025122  0.54236359  0.06407782  1
  O2-  O274  1  0.91766668  0.54728514  0.39764461  1
  O2-  O275  1  0.91191778  0.54752401  0.72997125  1
  O2-  O276  1  0.29509429  0.16840984  0.06019872  1
  O2-  O277  1  0.28736254  0.16735807  0.39967393  1
  O2-  O278  1  0.30710109  0.17265537  0.73408416  1
  O2-  O279  1  0.29833362  0.66149286  0.06448178  1
  O2-  O280  1  0.29552167  0.66308916  0.39480061  1
  O2-  O281  1  0.29746451  0.66882844  0.73760815  1
  O2-  O282  1  0.78656305  0.16547427  0.07193287  1
  O2-  O283  1  0.79954464  0.16657400  0.39392250  1
  O2-  O284  1  0.78321206  0.16581639  0.73304303  1
  O2-  O285  1  0.79380324  0.66516148  0.05954162  1
  O2-  O286  1  0.79603483  0.66400107  0.39843478  1
  O2-  O287  1  0.78785695  0.66263433  0.73109561  1
