# generated using pymatgen
data_Ca2Al2SiO7
_symmetry_space_group_name_H-M   'P 1'
_cell_length_a   15.46162463
_cell_length_b   15.46143576
_cell_length_c   15.28594316
_cell_angle_alpha   90.00271839
_cell_angle_beta   90.01281633
_cell_angle_gamma   90.00902334
_symmetry_Int_Tables_number   1
_chemical_formula_structural   Ca2Al2SiO7
_chemical_formula_sum   'Ca48 Al48 Si24 O168'
_cell_volume   3654.24086055
_cell_formula_units_Z   24
loop_
 _symmetry_equiv_pos_site_id
 _symmetry_equiv_pos_as_xyz
  1  'x, y, z'
loop_
 _atom_type_symbol
 _atom_type_oxidation_number
  Ca2+  2.0
  Al0+  0.0
  Si0+  0.0
  O2-  -2.0
loop_
 _atom_site_type_symbol
 _atom_site_label
 _atom_site_symmetry_multiplicity
 _atom_site_fract_x
 _atom_site_fract_y
 _atom_site_fract_z
 _atom_site_occupancy
  Ca2+  Ca0  1  0.17771607  0.08893387  0.16936542  1
  Ca2+  Ca1  1  0.16239713  0.07598759  0.51029203  1
  Ca2+  Ca2  1  0.16674393  0.08177531  0.83600886  1
  Ca2+  Ca3  1  0.17455097  0.58066041  0.17087626  1
  Ca2+  Ca4  1  0.17352274  0.57650559  0.50815429  1
  Ca2+  Ca5  1  0.17270365  0.58304068  0.83412392  1
  Ca2+  Ca6  1  0.66656672  0.08352377  0.17089765  1
  Ca2+  Ca7  1  0.66839903  0.08588876  0.50546042  1
  Ca2+  Ca8  1  0.65313456  0.07689837  0.83615600  1
  Ca2+  Ca9  1  0.66721703  0.56803054  0.17388373  1
  Ca2+  Ca10  1  0.67232545  0.57138109  0.50288991  1
  Ca2+  Ca11  1  0.66545080  0.56674517  0.83636270  1
  Ca2+  Ca12  1  0.08238399  0.33944581  0.16567889  1
  Ca2+  Ca13  1  0.08462553  0.33709139  0.50092839  1
  Ca2+  Ca14  1  0.07688548  0.33151733  0.81869656  1
  Ca2+  Ca15  1  0.07418441  0.82538862  0.16093434  1
  Ca2+  Ca16  1  0.08376164  0.82596539  0.49616625  1
  Ca2+  Ca17  1  0.09100089  0.82239683  0.82651954  1
  Ca2+  Ca18  1  0.58559828  0.32677494  0.15861683  1
  Ca2+  Ca19  1  0.58466297  0.33134287  0.49819688  1
  Ca2+  Ca20  1  0.57558286  0.33094732  0.82554727  1
  Ca2+  Ca21  1  0.58462539  0.83029415  0.16097038  1
  Ca2+  Ca22  1  0.58553778  0.83253745  0.49840472  1
  Ca2+  Ca23  1  0.58497912  0.83512867  0.82764747  1
  Ca2+  Ca24  1  0.33301281  0.42469358  0.17210694  1
  Ca2+  Ca25  1  0.32680198  0.42370218  0.50790992  1
  Ca2+  Ca26  1  0.33843520  0.42215786  0.83598832  1
  Ca2+  Ca27  1  0.33470878  0.92533427  0.16550503  1
  Ca2+  Ca28  1  0.32684802  0.92013667  0.50910295  1
  Ca2+  Ca29  1  0.32884612  0.92702141  0.83535076  1
  Ca2+  Ca30  1  0.82167443  0.41959496  0.17428691  1
  Ca2+  Ca31  1  0.82442446  0.41131434  0.50378712  1
  Ca2+  Ca32  1  0.82271314  0.40512968  0.83290756  1
  Ca2+  Ca33  1  0.82965728  0.92065656  0.17367700  1
  Ca2+  Ca34  1  0.83426205  0.92251065  0.50378481  1
  Ca2+  Ca35  1  0.82117428  0.91879036  0.83606591  1
  Ca2+  Ca36  1  0.42683170  0.17513936  0.15541176  1
  Ca2+  Ca37  1  0.42845873  0.17331412  0.49793612  1
  Ca2+  Ca38  1  0.42127826  0.17806490  0.82909738  1
  Ca2+  Ca39  1  0.41150074  0.66420318  0.16293465  1
  Ca2+  Ca40  1  0.41119896  0.66334957  0.49926041  1
  Ca2+  Ca41  1  0.41229051  0.66432179  0.82905963  1
  Ca2+  Ca42  1  0.91613443  0.16526419  0.16743652  1
  Ca2+  Ca43  1  0.91733959  0.17057691  0.50112739  1
  Ca2+  Ca44  1  0.92305897  0.17317579  0.82411377  1
  Ca2+  Ca45  1  0.91719229  0.66616246  0.16314403  1
  Ca2+  Ca46  1  0.91844325  0.66992515  0.49309396  1
  Ca2+  Ca47  1  0.93131056  0.66427200  0.82635317  1
  Al0+  Al48  1  -0.00259203  -0.00199816  -0.00077372  1
  Al0+  Al49  1  -0.00114254  -0.00082621  0.33048766  1
  Al0+  Al50  1  -0.00131147  -0.00114860  0.67116985  1
  Al0+  Al51  1  0.00040772  0.50082851  -0.00565268  1
  Al0+  Al52  1  0.00085025  0.49984037  0.33634733  1
  Al0+  Al53  1  0.00137608  0.50165259  0.65954174  1
  Al0+  Al54  1  0.49834093  -0.00139826  0.00606807  1
  Al0+  Al55  1  0.49967179  0.00009175  0.32863638  1
  Al0+  Al56  1  0.49943897  -0.00070228  0.66537274  1
  Al0+  Al57  1  0.49983284  0.50087497  0.00601488  1
  Al0+  Al58  1  0.49893478  0.50080542  0.34014888  1
  Al0+  Al59  1  0.50212248  0.50155004  0.66912643  1
  Al0+  Al60  1  0.25007909  0.25023892  0.00125392  1
  Al0+  Al61  1  0.25218904  0.24982630  0.33626514  1
  Al0+  Al62  1  0.25093507  0.25086811  0.66078382  1
  Al0+  Al63  1  0.24891119  0.74961504  0.00060651  1
  Al0+  Al64  1  0.24977191  0.75138662  0.33259384  1
  Al0+  Al65  1  0.25010405  0.75180363  0.66885236  1
  Al0+  Al66  1  0.75088765  0.24641967  0.00038199  1
  Al0+  Al67  1  0.75188292  0.24659158  0.33589719  1
  Al0+  Al68  1  0.75185173  0.24900881  0.66496912  1
  Al0+  Al69  1  0.74959021  0.75108721  0.00219952  1
  Al0+  Al70  1  0.74835823  0.74997545  0.33022636  1
  Al0+  Al71  1  0.75018290  0.75101489  0.67103992  1
  Al0+  Al72  1  0.82200758  0.06864973  0.34810762  1
  Al0+  Al73  1  0.31969617  0.57113900  0.01476944  1
  Al0+  Al74  1  0.82106331  0.57352824  0.34671102  1
  Al0+  Al75  1  0.67826703  0.92870815  0.01553808  1
  Al0+  Al76  1  0.68154982  0.42788217  0.68130737  1
  Al0+  Al77  1  0.67992909  0.42676486  0.34897387  1
  Al0+  Al78  1  0.67998823  0.42751044  0.01305809  1
  Al0+  Al79  1  0.31883523  0.07221770  0.01334414  1
  Al0+  Al80  1  0.56975511  0.17753373  0.65126187  1
  Al0+  Al81  1  0.07233482  0.17689658  0.65263667  1
  Al0+  Al82  1  0.32082340  0.57072246  0.68375515  1
  Al0+  Al83  1  0.92933689  0.32181840  0.64971495  1
  Al0+  Al84  1  0.17905611  0.42668161  0.34853309  1
  Al0+  Al85  1  0.67853336  0.92968930  0.67910881  1
  Al0+  Al86  1  0.57183921  0.17751476  0.98469396  1
  Al0+  Al87  1  0.07287520  0.68107755  0.65022593  1
  Al0+  Al88  1  0.42939237  0.32548465  0.64947111  1
  Al0+  Al89  1  0.31997305  0.57360256  0.34939074  1
  Al0+  Al90  1  0.17797311  0.42781573  0.68278124  1
  Al0+  Al91  1  0.42890555  0.32384442  0.98608543  1
  Al0+  Al92  1  0.17750069  0.93023770  0.67984022  1
  Al0+  Al93  1  0.07016503  0.68025254  0.98536284  1
  Al0+  Al94  1  0.92820161  0.82078419  0.31912719  1
  Al0+  Al95  1  0.57230945  0.17982836  0.31769768  1
  Si0+  Si96  1  0.82345862  0.57075910  0.01386441  1
  Si0+  Si97  1  0.17682031  0.92777970  0.01789567  1
  Si0+  Si98  1  0.92989602  0.32000263  0.98722351  1
  Si0+  Si99  1  0.42696656  0.82171620  0.31687743  1
  Si0+  Si100  1  0.07250296  0.17793298  0.31772580  1
  Si0+  Si101  1  0.57169436  0.67938197  0.98585812  1
  Si0+  Si102  1  0.67621027  0.92827667  0.34934398  1
  Si0+  Si103  1  0.32312310  0.07036589  0.34898894  1
  Si0+  Si104  1  0.92565132  0.82260272  0.98055576  1
  Si0+  Si105  1  0.17963134  0.93190027  0.34554415  1
  Si0+  Si106  1  0.92588313  0.82040081  0.65101053  1
  Si0+  Si107  1  0.82161802  0.07171409  0.68536663  1
  Si0+  Si108  1  0.92991522  0.32078381  0.31731812  1
  Si0+  Si109  1  0.17519231  0.42771984  0.01489528  1
  Si0+  Si110  1  0.56944264  0.67880537  0.31849883  1
  Si0+  Si111  1  0.42878264  0.82045473  0.98502633  1
  Si0+  Si112  1  0.43010384  0.82047407  0.65263824  1
  Si0+  Si113  1  0.42848482  0.32247612  0.31628726  1
  Si0+  Si114  1  0.82394945  0.07038414  0.01789592  1
  Si0+  Si115  1  0.82240898  0.57389490  0.68328022  1
  Si0+  Si116  1  0.07258273  0.67801490  0.31524577  1
  Si0+  Si117  1  0.57326957  0.67975823  0.65280889  1
  Si0+  Si118  1  0.32263348  0.07229480  0.68101345  1
  Si0+  Si119  1  0.07186415  0.17739377  0.98786459  1
  O2-  O120  1  0.24136242  0.00003222  0.06237076  1
  O2-  O121  1  0.25014996  0.00146728  0.39066885  1
  O2-  O122  1  0.24696758  0.01046691  0.72501569  1
  O2-  O123  1  0.24663320  0.49367648  0.05869520  1
  O2-  O124  1  0.24888275  0.50081105  0.39746539  1
  O2-  O125  1  0.25174490  0.49664240  0.73486144  1
  O2-  O126  1  0.75315914  0.00327359  0.06100778  1
  O2-  O127  1  0.74486318  -0.00401847  0.39384668  1
  O2-  O128  1  0.74904672  0.00648363  0.72839398  1
  O2-  O129  1  0.75474128  0.50305426  0.05875550  1
  O2-  O130  1  0.75340177  0.49856235  0.39767232  1
  O2-  O131  1  0.75857609  0.50097020  0.72802814  1
  O2-  O132  1  0.00446561  0.25215936  0.27507946  1
  O2-  O133  1  0.00427119  0.25144295  0.60060359  1
  O2-  O134  1  0.00258860  0.24978867  0.94654566  1
  O2-  O135  1  -0.00080690  0.74251177  0.27153104  1
  O2-  O136  1  -0.00415078  0.75445394  0.60515291  1
  O2-  O137  1  -0.00484215  0.75477976  0.93753301  1
  O2-  O138  1  0.50006641  0.25715371  0.27140271  1
  O2-  O139  1  0.50212941  0.25300965  0.60054019  1
  O2-  O140  1  0.50264877  0.25293295  0.93659537  1
  O2-  O141  1  0.49698369  0.74908235  0.27589831  1
  O2-  O142  1  0.50043944  0.74921406  0.61030895  1
  O2-  O143  1  0.50040882  0.75014536  0.94272414  1
  O2-  O144  1  0.07063213  0.17654135  0.09334945  1
  O2-  O145  1  0.07130259  0.17352282  0.42203659  1
  O2-  O146  1  0.06763223  0.17496350  0.76696307  1
  O2-  O147  1  0.06784611  0.68153645  0.09869046  1
  O2-  O148  1  0.07605446  0.68324980  0.42036575  1
  O2-  O149  1  0.07303938  0.68377497  0.76367712  1
  O2-  O150  1  0.57134391  0.17917124  0.09866175  1
  O2-  O151  1  0.56910762  0.17617408  0.43027615  1
  O2-  O152  1  0.56463111  0.17427870  0.76453370  1
  O2-  O153  1  0.57150762  0.68115016  0.09121238  1
  O2-  O154  1  0.57112426  0.68209354  0.42358997  1
  O2-  O155  1  0.57423285  0.68197682  0.75815970  1
  O2-  O156  1  0.18015293  0.42698106  0.23400440  1
  O2-  O157  1  0.17909456  0.43200854  0.56954583  1
  O2-  O158  1  0.17079266  0.42821802  0.91016818  1
  O2-  O159  1  0.18171869  0.93350337  0.24033355  1
  O2-  O160  1  0.18084200  0.92876660  0.56603772  1
  O2-  O161  1  0.17865095  0.92792455  0.91243545  1
  O2-  O162  1  0.68085846  0.42783731  0.23481036  1
  O2-  O163  1  0.68191157  0.43065455  0.56858570  1
  O2-  O164  1  0.68125360  0.42843062  0.90006101  1
  O2-  O165  1  0.67631038  0.92890922  0.24363364  1
  O2-  O166  1  0.68046466  0.92742852  0.56619561  1
  O2-  O167  1  0.67905340  0.92756291  0.90249092  1
  O2-  O168  1  0.42858949  0.32259572  0.10002845  1
  O2-  O169  1  0.42721915  0.31908334  0.42137876  1
  O2-  O170  1  0.43145618  0.32525692  0.76332678  1
  O2-  O171  1  0.42863659  0.81950137  0.09054286  1
  O2-  O172  1  0.42602489  0.82492250  0.42185399  1
  O2-  O173  1  0.43136703  0.82246078  0.75783490  1
  O2-  O174  1  0.93067928  0.32074285  0.09263463  1
  O2-  O175  1  0.92862955  0.31853651  0.42166803  1
  O2-  O176  1  0.92810473  0.31790585  0.76432654  1
  O2-  O177  1  0.92655962  0.82342561  0.08630843  1
  O2-  O178  1  0.93253336  0.82262807  0.43205671  1
  O2-  O179  1  0.92394042  0.81702893  0.75654772  1
  O2-  O180  1  0.32148875  0.06907681  0.24366899  1
  O2-  O181  1  0.32536722  0.06461065  0.57513550  1
  O2-  O182  1  0.31616792  0.06937179  0.90053238  1
  O2-  O183  1  0.31785891  0.57515133  0.23544620  1
  O2-  O184  1  0.31849346  0.57395449  0.57049463  1
  O2-  O185  1  0.31875621  0.57511403  0.90262065  1
  O2-  O186  1  0.82364069  0.06682964  0.23479598  1
  O2-  O187  1  0.82400466  0.06858744  0.57976425  1
  O2-  O188  1  0.83013644  0.06886946  0.91299367  1
  O2-  O189  1  0.81788429  0.57123249  0.23237712  1
  O2-  O190  1  0.81644172  0.57922272  0.57810046  1
  O2-  O191  1  0.82359146  0.56986119  0.90846069  1
  O2-  O192  1  0.04158353  0.08831484  0.26728604  1
  O2-  O193  1  0.03979901  0.07783501  0.60106413  1
  O2-  O194  1  0.04327762  0.08517934  0.94082963  1
  O2-  O195  1  0.05151378  0.58250747  0.27117007  1
  O2-  O196  1  0.04445782  0.58553301  0.59501082  1
  O2-  O197  1  0.04008617  0.58431298  0.92932109  1
  O2-  O198  1  0.53907795  0.08301839  0.26367122  1
  O2-  O199  1  0.53862806  0.07967367  0.59678886  1
  O2-  O200  1  0.53829710  0.07824953  0.93666662  1
  O2-  O201  1  0.54196174  0.58635306  0.27183511  1
  O2-  O202  1  0.54737598  0.58881208  0.60444013  1
  O2-  O203  1  0.54356023  0.58772799  0.93966362  1
  O2-  O204  1  0.16603810  0.20397194  0.27135501  1
  O2-  O205  1  0.17233154  0.19544283  0.59953649  1
  O2-  O206  1  0.16398809  0.20099442  0.94071897  1
  O2-  O207  1  0.16396772  0.71082900  0.26735810  1
  O2-  O208  1  0.16783607  0.71832883  0.59695233  1
  O2-  O209  1  0.16601238  0.71441703  0.93196509  1
  O2-  O210  1  0.67147813  0.20565841  0.26578068  1
  O2-  O211  1  0.67069062  0.20077912  0.60269476  1
  O2-  O212  1  0.67347625  0.19754514  0.93475962  1
  O2-  O213  1  0.65935324  0.70760437  0.26752877  1
  O2-  O214  1  0.66341332  0.71211061  0.60467905  1
  O2-  O215  1  0.66358786  0.70732010  0.93849984  1
  O2-  O216  1  0.08268961  0.45773201  0.06265332  1
  O2-  O217  1  0.07914065  0.45019910  0.39907730  1
  O2-  O218  1  0.07798023  0.45809711  0.73222813  1
  O2-  O219  1  0.08077707  0.94915111  0.06104283  1
  O2-  O220  1  0.08845005  0.95981475  0.39251991  1
  O2-  O221  1  0.08041026  0.95379587  0.73638711  1
  O2-  O222  1  0.58579225  0.46100070  0.06946598  1
  O2-  O223  1  0.58247552  0.45692737  0.40128014  1
  O2-  O224  1  0.58730465  0.46404595  0.73581319  1
  O2-  O225  1  0.58140163  0.95475654  0.07097337  1
  O2-  O226  1  0.58136334  0.95247531  0.39361302  1
  O2-  O227  1  0.58043855  0.95664637  0.73283674  1
  O2-  O228  1  0.19592704  0.33293697  0.06080020  1
  O2-  O229  1  0.20650576  0.32795697  0.40140940  1
  O2-  O230  1  0.19943087  0.32517200  0.73033938  1
  O2-  O231  1  0.20745670  0.83674220  0.06561182  1
  O2-  O232  1  0.20738135  0.84010046  0.39237127  1
  O2-  O233  1  0.21629040  0.83812097  0.73621079  1
  O2-  O234  1  0.71273895  0.33095946  0.06604963  1
  O2-  O235  1  0.70998849  0.32918299  0.40076389  1
  O2-  O236  1  0.71198282  0.33078791  0.73446521  1
  O2-  O237  1  0.70917615  0.83180681  0.07058384  1
  O2-  O238  1  0.69988641  0.83370398  0.39311475  1
  O2-  O239  1  0.71066179  0.83458839  0.73653835  1
  O2-  O240  1  0.45011031  0.41912003  0.27453123  1
  O2-  O241  1  0.45982009  0.42414881  0.59802989  1
  O2-  O242  1  0.45684652  0.42347586  0.93571567  1
  O2-  O243  1  0.45630735  0.91198517  0.26649589  1
  O2-  O244  1  0.45816493  0.91042917  0.60176222  1
  O2-  O245  1  0.45617396  0.91226696  0.93845893  1
  O2-  O246  1  0.95498136  0.41365742  0.26942481  1
  O2-  O247  1  0.95165633  0.42108650  0.59677229  1
  O2-  O248  1  0.95477858  0.41132729  0.93805213  1
  O2-  O249  1  0.96371425  0.91506176  0.26183630  1
  O2-  O250  1  0.94936303  0.91561712  0.60853144  1
  O2-  O251  1  0.95003101  0.91664403  0.93457091  1
  O2-  O252  1  0.33556407  0.29288584  0.26968977  1
  O2-  O253  1  0.33134210  0.29792249  0.59618277  1
  O2-  O254  1  0.32956439  0.29434262  0.93483387  1
  O2-  O255  1  0.33520057  0.79586712  0.26736376  1
  O2-  O256  1  0.33888448  0.79309646  0.60408334  1
  O2-  O257  1  0.33684827  0.79319109  0.93817047  1
  O2-  O258  1  0.84017722  0.28801959  0.26858537  1
  O2-  O259  1  0.83307029  0.28832241  0.59561119  1
  O2-  O260  1  0.83981603  0.28882590  0.93885943  1
  O2-  O261  1  0.83018396  0.79424488  0.26445519  1
  O2-  O262  1  0.83289597  0.79368552  0.60353445  1
  O2-  O263  1  0.83149116  0.79699558  0.93571933  1
  O2-  O264  1  0.41181275  0.03589746  0.07097530  1
  O2-  O265  1  0.41339287  0.03763045  0.39551999  1
  O2-  O266  1  0.41134247  0.03615999  0.72982700  1
  O2-  O267  1  0.41668137  0.54486736  0.07057222  1
  O2-  O268  1  0.41893443  0.54986821  0.40198299  1
  O2-  O269  1  0.42168920  0.54823481  0.73448368  1
  O2-  O270  1  0.91665571  0.04253823  0.06690560  1
  O2-  O271  1  0.91806734  0.03519583  0.40163123  1
  O2-  O272  1  0.91257879  0.04192642  0.73491066  1
  O2-  O273  1  0.91683739  0.54452012  0.06041385  1
  O2-  O274  1  0.92174117  0.55265156  0.39620820  1
  O2-  O275  1  0.91857560  0.55247488  0.72417323  1
  O2-  O276  1  0.28852660  0.16771890  0.07102212  1
  O2-  O277  1  0.29839775  0.16234947  0.39544593  1
  O2-  O278  1  0.30517775  0.16828501  0.72295446  1
  O2-  O279  1  0.28682908  0.66769934  0.06927636  1
  O2-  O280  1  0.29290103  0.67374500  0.40044338  1
  O2-  O281  1  0.29121773  0.66984607  0.73525865  1
  O2-  O282  1  0.80055033  0.16404856  0.06470447  1
  O2-  O283  1  0.79473747  0.16479777  0.40275664  1
  O2-  O284  1  0.80062591  0.16614044  0.73017259  1
  O2-  O285  1  0.79957501  0.66535058  0.05879423  1
  O2-  O286  1  0.78973741  0.67126084  0.39948453  1
  O2-  O287  1  0.79290061  0.66473423  0.73337019  1
