# generated using pymatgen
data_Ca2Al2SiO7
_symmetry_space_group_name_H-M   'P 1'
_cell_length_a   15.46234347
_cell_length_b   15.46233499
_cell_length_c   15.28717661
_cell_angle_alpha   90.00593349
_cell_angle_beta   90.00905723
_cell_angle_gamma   90.00877324
_symmetry_Int_Tables_number   1
_chemical_formula_structural   Ca2Al2SiO7
_chemical_formula_sum   'Ca48 Al48 Si24 O168'
_cell_volume   3654.91822197
_cell_formula_units_Z   24
loop_
 _symmetry_equiv_pos_site_id
 _symmetry_equiv_pos_as_xyz
  1  'x, y, z'
loop_
 _atom_type_symbol
 _atom_type_oxidation_number
  Ca2+  2.0
  Al0+  0.0
  Si0+  0.0
  O2-  -2.0
loop_
 _atom_site_type_symbol
 _atom_site_label
 _atom_site_symmetry_multiplicity
 _atom_site_fract_x
 _atom_site_fract_y
 _atom_site_fract_z
 _atom_site_occupancy
  Ca2+  Ca0  1  0.17535847  0.08793514  0.17554713  1
  Ca2+  Ca1  1  0.16809619  0.08489515  0.49087647  1
  Ca2+  Ca2  1  0.17170815  0.08673797  0.84303251  1
  Ca2+  Ca3  1  0.17149368  0.57302351  0.17507745  1
  Ca2+  Ca4  1  0.16446410  0.57994278  0.50179660  1
  Ca2+  Ca5  1  0.16528232  0.58316121  0.83687191  1
  Ca2+  Ca6  1  0.67157522  0.07438383  0.17705878  1
  Ca2+  Ca7  1  0.66594891  0.07685436  0.50082361  1
  Ca2+  Ca8  1  0.67366366  0.07357409  0.84312214  1
  Ca2+  Ca9  1  0.65735694  0.57719630  0.16858880  1
  Ca2+  Ca10  1  0.66134028  0.57207613  0.50013780  1
  Ca2+  Ca11  1  0.66981571  0.57370410  0.84449594  1
  Ca2+  Ca12  1  0.08611172  0.32147838  0.16370986  1
  Ca2+  Ca13  1  0.07448316  0.33023149  0.49117890  1
  Ca2+  Ca14  1  0.07259359  0.32667069  0.82985542  1
  Ca2+  Ca15  1  0.07550597  0.84641725  0.16799718  1
  Ca2+  Ca16  1  0.07912011  0.83211369  0.48969554  1
  Ca2+  Ca17  1  0.07889780  0.82567252  0.82651871  1
  Ca2+  Ca18  1  0.57833620  0.33210671  0.16520827  1
  Ca2+  Ca19  1  0.58116234  0.32977676  0.48639364  1
  Ca2+  Ca20  1  0.58334985  0.33875399  0.83288237  1
  Ca2+  Ca21  1  0.59085020  0.82644328  0.15954262  1
  Ca2+  Ca22  1  0.59352823  0.82832202  0.49109463  1
  Ca2+  Ca23  1  0.58592091  0.83675553  0.83499852  1
  Ca2+  Ca24  1  0.33250243  0.40941841  0.17533851  1
  Ca2+  Ca25  1  0.32826180  0.41007995  0.49526797  1
  Ca2+  Ca26  1  0.33273097  0.41674655  0.84130085  1
  Ca2+  Ca27  1  0.33211739  0.92705773  0.17214265  1
  Ca2+  Ca28  1  0.33351093  0.92425359  0.49824371  1
  Ca2+  Ca29  1  0.33199890  0.92264857  0.84450002  1
  Ca2+  Ca30  1  0.82178330  0.42390774  0.16925660  1
  Ca2+  Ca31  1  0.81994630  0.40812709  0.50394214  1
  Ca2+  Ca32  1  0.82474759  0.41784785  0.83978155  1
  Ca2+  Ca33  1  0.82700222  0.92304835  0.17218517  1
  Ca2+  Ca34  1  0.82784928  0.91909367  0.49449577  1
  Ca2+  Ca35  1  0.82279298  0.91872587  0.84209483  1
  Ca2+  Ca36  1  0.41503871  0.17184980  0.16389773  1
  Ca2+  Ca37  1  0.42432108  0.17135568  0.48745670  1
  Ca2+  Ca38  1  0.41647989  0.17010807  0.83732071  1
  Ca2+  Ca39  1  0.42910016  0.67501670  0.16046534  1
  Ca2+  Ca40  1  0.42533600  0.67144963  0.49055254  1
  Ca2+  Ca41  1  0.42423488  0.67355346  0.83692047  1
  Ca2+  Ca42  1  0.92661553  0.15129034  0.16424560  1
  Ca2+  Ca43  1  0.91694513  0.16919348  0.49061544  1
  Ca2+  Ca44  1  0.91572858  0.16748999  0.83354410  1
  Ca2+  Ca45  1  0.91186999  0.67217448  0.16398770  1
  Ca2+  Ca46  1  0.91975115  0.67390482  0.49372509  1
  Ca2+  Ca47  1  0.91900936  0.66099805  0.82999013  1
  Al0+  Al48  1  0.00106477  -0.00232414  -0.00740782  1
  Al0+  Al49  1  -0.00027522  -0.00008054  0.33457508  1
  Al0+  Al50  1  0.00231051  -0.00049241  0.66630176  1
  Al0+  Al51  1  -0.00072821  0.49777661  0.00388032  1
  Al0+  Al52  1  0.00031255  0.50089387  0.33678424  1
  Al0+  Al53  1  0.00046005  0.49794982  0.65761903  1
  Al0+  Al54  1  0.49838956  0.00146911  0.00339850  1
  Al0+  Al55  1  0.49973872  -0.00040881  0.33876296  1
  Al0+  Al56  1  0.49871607  0.00113790  0.67156641  1
  Al0+  Al57  1  0.49809699  0.50153438  -0.00573734  1
  Al0+  Al58  1  0.49947097  0.50193388  0.33117803  1
  Al0+  Al59  1  0.49768560  0.50199403  0.67047541  1
  Al0+  Al60  1  0.24930352  0.24882278  -0.00694040  1
  Al0+  Al61  1  0.24781103  0.25110218  0.33789093  1
  Al0+  Al62  1  0.24988508  0.25087634  0.66757181  1
  Al0+  Al63  1  0.25014244  0.74883026  -0.00287184  1
  Al0+  Al64  1  0.25041985  0.74847949  0.33599664  1
  Al0+  Al65  1  0.25107973  0.75000735  0.66279584  1
  Al0+  Al66  1  0.75182695  0.25080368  0.00785166  1
  Al0+  Al67  1  0.74966653  0.25146548  0.33495332  1
  Al0+  Al68  1  0.74869551  0.24870811  0.66862984  1
  Al0+  Al69  1  0.75256505  0.74842319  -0.00124837  1
  Al0+  Al70  1  0.75307731  0.74957755  0.32775060  1
  Al0+  Al71  1  0.75037515  0.74948628  0.66947236  1
  Al0+  Al72  1  0.42950213  0.31972549  0.32025055  1
  Al0+  Al73  1  0.06712388  0.18144688  0.32053615  1
  Al0+  Al74  1  0.82140114  0.07177751  0.34868935  1
  Al0+  Al75  1  0.31904643  0.07227819  0.01325214  1
  Al0+  Al76  1  0.57351961  0.17627453  0.31885489  1
  Al0+  Al77  1  0.67955075  0.92846311  0.68153142  1
  Al0+  Al78  1  0.57314816  0.68046158  0.98208237  1
  Al0+  Al79  1  0.67515344  0.42957039  0.01694066  1
  Al0+  Al80  1  0.67827831  0.43145688  0.34681119  1
  Al0+  Al81  1  0.82341995  0.57023030  0.01474853  1
  Al0+  Al82  1  0.67730736  0.42834532  0.68046711  1
  Al0+  Al83  1  0.67903647  0.92680991  0.34724447  1
  Al0+  Al84  1  0.67823206  0.92962573  0.01560508  1
  Al0+  Al85  1  0.42841675  0.82392155  0.98561224  1
  Al0+  Al86  1  0.17809426  0.42864752  0.34755674  1
  Al0+  Al87  1  0.93182345  0.82001703  0.31849981  1
  Al0+  Al88  1  0.92752589  0.31766689  0.65297336  1
  Al0+  Al89  1  0.17880897  0.92843882  0.34757780  1
  Al0+  Al90  1  0.07191107  0.67921793  0.65168763  1
  Al0+  Al91  1  0.42981246  0.32011304  0.98544243  1
  Al0+  Al92  1  0.06964458  0.17818056  0.98558041  1
  Al0+  Al93  1  0.82420484  0.07092330  0.01439315  1
  Al0+  Al94  1  0.32189875  0.07260755  0.34959172  1
  Al0+  Al95  1  0.57128152  0.68118565  0.32052075  1
  Si0+  Si96  1  0.42830796  0.32330920  0.65186301  1
  Si0+  Si97  1  0.07409370  0.67658613  0.31490900  1
  Si0+  Si98  1  0.17867859  0.42972489  0.68284766  1
  Si0+  Si99  1  0.82360982  0.07196055  0.68325682  1
  Si0+  Si100  1  0.18027792  0.42886849  0.01274650  1
  Si0+  Si101  1  0.82278634  0.57017900  0.68031712  1
  Si0+  Si102  1  0.18004179  0.92723892  0.68200027  1
  Si0+  Si103  1  0.92553984  0.32534140  0.31477418  1
  Si0+  Si104  1  0.07443904  0.17747998  0.64816900  1
  Si0+  Si105  1  0.07111172  0.67527100  0.98653401  1
  Si0+  Si106  1  0.42566309  0.82283019  0.31839122  1
  Si0+  Si107  1  0.42997688  0.82293799  0.65110142  1
  Si0+  Si108  1  0.82284801  0.57252370  0.35162923  1
  Si0+  Si109  1  0.32181526  0.57138823  0.35072114  1
  Si0+  Si110  1  0.57488247  0.17863317  0.98425783  1
  Si0+  Si111  1  0.17871998  0.92500421  0.01354036  1
  Si0+  Si112  1  0.93085662  0.81963694  0.98248959  1
  Si0+  Si113  1  0.31966203  0.57230165  0.01418669  1
  Si0+  Si114  1  0.92757024  0.82240702  0.64952922  1
  Si0+  Si115  1  0.92814190  0.32376938  0.98478011  1
  Si0+  Si116  1  0.31992253  0.57292375  0.68368549  1
  Si0+  Si117  1  0.57051695  0.67969374  0.65206121  1
  Si0+  Si118  1  0.31951533  0.07158262  0.68388890  1
  Si0+  Si119  1  0.56832851  0.17902135  0.65450609  1
  O2-  O120  1  0.24763410  -0.00672113  0.05642216  1
  O2-  O121  1  0.25223586  -0.00234493  0.39975397  1
  O2-  O122  1  0.24658361  0.00169658  0.72524072  1
  O2-  O123  1  0.25204891  0.49825774  0.05579179  1
  O2-  O124  1  0.25169790  0.50426299  0.39555107  1
  O2-  O125  1  0.24886240  0.50121275  0.72618307  1
  O2-  O126  1  0.74747252  0.00459494  0.06406631  1
  O2-  O127  1  0.74532894  0.00368719  0.39865937  1
  O2-  O128  1  0.75793691  0.00007862  0.72657526  1
  O2-  O129  1  0.74590904  0.50447509  0.06439492  1
  O2-  O130  1  0.75550091  0.50274651  0.39598322  1
  O2-  O131  1  0.75361811  0.50249359  0.72505760  1
  O2-  O132  1  -0.00799510  0.25431412  0.27111543  1
  O2-  O133  1  0.00078473  0.24134034  0.60611888  1
  O2-  O134  1  -0.00840327  0.24987825  0.94008972  1
  O2-  O135  1  0.00848793  0.74694118  0.26994534  1
  O2-  O136  1  -0.00229246  0.75445041  0.60616578  1
  O2-  O137  1  0.00041534  0.74547684  0.94256737  1
  O2-  O138  1  0.49971987  0.24711999  0.26955440  1
  O2-  O139  1  0.50188637  0.25472340  0.61197991  1
  O2-  O140  1  0.50822854  0.24934835  0.93769330  1
  O2-  O141  1  0.50023956  0.76032347  0.27556981  1
  O2-  O142  1  0.50406698  0.75498093  0.60909111  1
  O2-  O143  1  0.50426694  0.75681700  0.93294074  1
  O2-  O144  1  0.07236522  0.18019782  0.09804180  1
  O2-  O145  1  0.06623196  0.18404419  0.43412062  1
  O2-  O146  1  0.07762530  0.17965108  0.75386936  1
  O2-  O147  1  0.07276945  0.67360271  0.09088656  1
  O2-  O148  1  0.07197409  0.67668765  0.42083330  1
  O2-  O149  1  0.07179436  0.67995509  0.76554990  1
  O2-  O150  1  0.57247212  0.17861966  0.08905178  1
  O2-  O151  1  0.57171384  0.17933107  0.43383005  1
  O2-  O152  1  0.56568303  0.17782513  0.75956923  1
  O2-  O153  1  0.56820967  0.67939161  0.09534584  1
  O2-  O154  1  0.56857642  0.67991929  0.43481272  1
  O2-  O155  1  0.56782871  0.67840396  0.75650412  1
  O2-  O156  1  0.17922895  0.43008208  0.23407240  1
  O2-  O157  1  0.18110848  0.42920602  0.57821143  1
  O2-  O158  1  0.17958039  0.43209539  0.90698218  1
  O2-  O159  1  0.18043724  0.92982785  0.23392767  1
  O2-  O160  1  0.18167787  0.92549624  0.57764690  1
  O2-  O161  1  0.17942460  0.92389243  0.90704522  1
  O2-  O162  1  0.67599417  0.43456018  0.23459968  1
  O2-  O163  1  0.67483817  0.42999981  0.56754904  1
  O2-  O164  1  0.67812731  0.43046914  0.90244016  1
  O2-  O165  1  0.68255567  0.92430000  0.23447104  1
  O2-  O166  1  0.67860772  0.92852654  0.56908264  1
  O2-  O167  1  0.68162820  0.93128692  0.90104986  1
  O2-  O168  1  0.42442782  0.31850010  0.09740634  1
  O2-  O169  1  0.43115970  0.32043503  0.43489810  1
  O2-  O170  1  0.42544685  0.32209318  0.75694312  1
  O2-  O171  1  0.42123261  0.81850619  0.09823567  1
  O2-  O172  1  0.42291912  0.81791368  0.42475028  1
  O2-  O173  1  0.42752041  0.82173330  0.75583545  1
  O2-  O174  1  0.93435388  0.33143611  0.08919859  1
  O2-  O175  1  0.92797984  0.32493200  0.42103355  1
  O2-  O176  1  0.93038866  0.31790634  0.76632472  1
  O2-  O177  1  0.93383386  0.82259405  0.08701229  1
  O2-  O178  1  0.93247747  0.81673739  0.43214806  1
  O2-  O179  1  0.92946434  0.82173342  0.75534608  1
  O2-  O180  1  0.31870615  0.07425322  0.23632340  1
  O2-  O181  1  0.32118077  0.07186646  0.57948432  1
  O2-  O182  1  0.31523967  0.07279723  0.89903336  1
  O2-  O183  1  0.32009494  0.57211323  0.24519354  1
  O2-  O184  1  0.32135602  0.57312115  0.57898752  1
  O2-  O185  1  0.31563446  0.57293941  0.90844671  1
  O2-  O186  1  0.82407400  0.06639883  0.23575110  1
  O2-  O187  1  0.82293698  0.07341029  0.57821998  1
  O2-  O188  1  0.82411996  0.06685354  0.89979865  1
  O2-  O189  1  0.82445754  0.57103801  0.24637731  1
  O2-  O190  1  0.82058424  0.57206283  0.57506638  1
  O2-  O191  1  0.82827991  0.56491421  0.90048116  1
  O2-  O192  1  0.04043355  0.08383893  0.26764931  1
  O2-  O193  1  0.05565450  0.08076045  0.60597666  1
  O2-  O194  1  0.04316286  0.08148876  0.92772540  1
  O2-  O195  1  0.04673638  0.58288164  0.27001413  1
  O2-  O196  1  0.04370582  0.58298958  0.59626587  1
  O2-  O197  1  0.04298844  0.58360595  0.93759573  1
  O2-  O198  1  0.54748872  0.07575548  0.27003841  1
  O2-  O199  1  0.53496321  0.08902936  0.60652722  1
  O2-  O200  1  0.54542840  0.08619052  0.93705824  1
  O2-  O201  1  0.53402789  0.58791195  0.26549100  1
  O2-  O202  1  0.53630839  0.58923650  0.60479166  1
  O2-  O203  1  0.53717441  0.58487188  0.92679560  1
  O2-  O204  1  0.16370796  0.21496740  0.26890008  1
  O2-  O205  1  0.16646458  0.20906867  0.60215489  1
  O2-  O206  1  0.16240884  0.21449265  0.92683842  1
  O2-  O207  1  0.16986787  0.69704000  0.27161213  1
  O2-  O208  1  0.16876166  0.70916457  0.59754026  1
  O2-  O209  1  0.16197692  0.70304645  0.93629118  1
  O2-  O210  1  0.67156873  0.20557234  0.26703179  1
  O2-  O211  1  0.66197116  0.20086052  0.60913944  1
  O2-  O212  1  0.67029123  0.20181309  0.93946909  1
  O2-  O213  1  0.66837947  0.70568613  0.26621181  1
  O2-  O214  1  0.66450575  0.70264795  0.60681237  1
  O2-  O215  1  0.67370870  0.70248398  0.93010167  1
  O2-  O216  1  0.09016181  0.45696808  0.06163064  1
  O2-  O217  1  0.08239937  0.46035591  0.40377535  1
  O2-  O218  1  0.08601097  0.45780668  0.72828058  1
  O2-  O219  1  0.08496785  0.95198124  0.05614658  1
  O2-  O220  1  0.08263670  0.95935752  0.40303917  1
  O2-  O221  1  0.08614747  0.94998645  0.72891616  1
  O2-  O222  1  0.57502785  0.45862065  0.06518311  1
  O2-  O223  1  0.58244668  0.46581664  0.40160600  1
  O2-  O224  1  0.58071885  0.46073884  0.73431551  1
  O2-  O225  1  0.57794704  0.95114948  0.06563002  1
  O2-  O226  1  0.57879053  0.94630925  0.40057382  1
  O2-  O227  1  0.58300238  0.96156726  0.73514616  1
  O2-  O228  1  0.20876697  0.33685827  0.05725437  1
  O2-  O229  1  0.20930912  0.33541551  0.40677364  1
  O2-  O230  1  0.20762341  0.33803998  0.73083701  1
  O2-  O231  1  0.20089313  0.83086788  0.05945478  1
  O2-  O232  1  0.20349831  0.82810692  0.40024335  1
  O2-  O233  1  0.21090097  0.83603709  0.72965121  1
  O2-  O234  1  0.70325753  0.33179371  0.06945658  1
  O2-  O235  1  0.70700723  0.33472977  0.40175854  1
  O2-  O236  1  0.70615679  0.33112065  0.73441157  1
  O2-  O237  1  0.70980151  0.83058130  0.06302450  1
  O2-  O238  1  0.71593734  0.82993523  0.40000989  1
  O2-  O239  1  0.70786887  0.83069519  0.73540512  1
  O2-  O240  1  0.45554399  0.41879194  0.26840528  1
  O2-  O241  1  0.45137178  0.41731057  0.60702036  1
  O2-  O242  1  0.45412139  0.41789058  0.92938865  1
  O2-  O243  1  0.44294262  0.91936736  0.27780901  1
  O2-  O244  1  0.45398464  0.91678368  0.60611146  1
  O2-  O245  1  0.45132037  0.92416003  0.93264109  1
  O2-  O246  1  0.95486281  0.41893884  0.27126538  1
  O2-  O247  1  0.95982144  0.41226052  0.59626302  1
  O2-  O248  1  0.96157057  0.41383039  0.93415037  1
  O2-  O249  1  0.96374999  0.91570668  0.26448994  1
  O2-  O250  1  0.95342348  0.91651419  0.60469197  1
  O2-  O251  1  0.96206877  0.90776797  0.92922188  1
  O2-  O252  1  0.32918696  0.29392914  0.27113556  1
  O2-  O253  1  0.33642964  0.29308327  0.60540749  1
  O2-  O254  1  0.33512527  0.28633528  0.92702142  1
  O2-  O255  1  0.33438323  0.79117521  0.27117160  1
  O2-  O256  1  0.34002504  0.79137915  0.60237233  1
  O2-  O257  1  0.33143614  0.78861532  0.92916796  1
  O2-  O258  1  0.83071251  0.30498988  0.27130244  1
  O2-  O259  1  0.82987884  0.28853523  0.59964183  1
  O2-  O260  1  0.83260868  0.30220287  0.94075323  1
  O2-  O261  1  0.83822194  0.78690942  0.26145033  1
  O2-  O262  1  0.83425949  0.79468250  0.60422967  1
  O2-  O263  1  0.83981532  0.79293930  0.93340096  1
  O2-  O264  1  0.41619178  0.04776082  0.06676025  1
  O2-  O265  1  0.41925806  0.04540195  0.40600811  1
  O2-  O266  1  0.40979355  0.04232797  0.73327425  1
  O2-  O267  1  0.41243159  0.54781571  0.05854387  1
  O2-  O268  1  0.41376949  0.54402596  0.39887513  1
  O2-  O269  1  0.41032221  0.54445052  0.73345725  1
  O2-  O270  1  0.92207145  0.03474783  0.06324867  1
  O2-  O271  1  0.91720543  0.03816208  0.40413176  1
  O2-  O272  1  0.91998717  0.05045644  0.72696147  1
  O2-  O273  1  0.91979687  0.53910174  0.07117257  1
  O2-  O274  1  0.91718805  0.55018434  0.39817050  1
  O2-  O275  1  0.91763050  0.54356470  0.72386006  1
  O2-  O276  1  0.28282446  0.16776578  0.06487941  1
  O2-  O277  1  0.28797859  0.16809145  0.40563083  1
  O2-  O278  1  0.29170858  0.16433652  0.73074066  1
  O2-  O279  1  0.28806591  0.66189940  0.06296720  1
  O2-  O280  1  0.29715006  0.66422036  0.39951357  1
  O2-  O281  1  0.29079593  0.66472170  0.73092604  1
  O2-  O282  1  0.80929398  0.17239125  0.06417316  1
  O2-  O283  1  0.79875314  0.17225057  0.40002914  1
  O2-  O284  1  0.79433260  0.16339756  0.73170142  1
  O2-  O285  1  0.80363192  0.67139254  0.06345398  1
  O2-  O286  1  0.79620074  0.66579140  0.39677540  1
  O2-  O287  1  0.80005459  0.66405040  0.72771456  1
