# generated using pymatgen
data_Ca2Al2SiO7
_symmetry_space_group_name_H-M   'P 1'
_cell_length_a   15.45958350
_cell_length_b   15.45876303
_cell_length_c   15.28481162
_cell_angle_alpha   90.00690341
_cell_angle_beta   89.99420485
_cell_angle_gamma   89.99661370
_symmetry_Int_Tables_number   1
_chemical_formula_structural   Ca2Al2SiO7
_chemical_formula_sum   'Ca48 Al48 Si24 O168'
_cell_volume   3652.85651804
_cell_formula_units_Z   24
loop_
 _symmetry_equiv_pos_site_id
 _symmetry_equiv_pos_as_xyz
  1  'x, y, z'
loop_
 _atom_type_symbol
 _atom_type_oxidation_number
  Ca2+  2.0
  Al0+  0.0
  Si0+  0.0
  O2-  -2.0
loop_
 _atom_site_type_symbol
 _atom_site_label
 _atom_site_symmetry_multiplicity
 _atom_site_fract_x
 _atom_site_fract_y
 _atom_site_fract_z
 _atom_site_occupancy
  Ca2+  Ca0  1  0.17857998  0.08334373  0.17369521  1
  Ca2+  Ca1  1  0.18015933  0.07475948  0.51024145  1
  Ca2+  Ca2  1  0.17615288  0.07185223  0.84090577  1
  Ca2+  Ca3  1  0.16132116  0.58073042  0.17059876  1
  Ca2+  Ca4  1  0.15369701  0.57732084  0.50323708  1
  Ca2+  Ca5  1  0.15972757  0.58201506  0.83155128  1
  Ca2+  Ca6  1  0.67083485  0.08678154  0.17153691  1
  Ca2+  Ca7  1  0.67236662  0.08678100  0.50236611  1
  Ca2+  Ca8  1  0.66193419  0.09024299  0.83376097  1
  Ca2+  Ca9  1  0.66586349  0.57417647  0.17976791  1
  Ca2+  Ca10  1  0.66915630  0.57410905  0.50736099  1
  Ca2+  Ca11  1  0.67369377  0.57848262  0.83460835  1
  Ca2+  Ca12  1  0.07156721  0.33874817  0.16443840  1
  Ca2+  Ca13  1  0.07339658  0.34282216  0.49523307  1
  Ca2+  Ca14  1  0.07377380  0.33859187  0.82598649  1
  Ca2+  Ca15  1  0.08778464  0.82503399  0.16305665  1
  Ca2+  Ca16  1  0.08440727  0.82307812  0.49381295  1
  Ca2+  Ca17  1  0.09701147  0.82497998  0.82876971  1
  Ca2+  Ca18  1  0.57659183  0.32881341  0.15824884  1
  Ca2+  Ca19  1  0.58970989  0.33148067  0.49825806  1
  Ca2+  Ca20  1  0.57718794  0.32333512  0.82824031  1
  Ca2+  Ca21  1  0.57896160  0.83117858  0.17041914  1
  Ca2+  Ca22  1  0.57221564  0.82842983  0.49259781  1
  Ca2+  Ca23  1  0.57362146  0.83535398  0.82371621  1
  Ca2+  Ca24  1  0.32660968  0.41379122  0.17552342  1
  Ca2+  Ca25  1  0.31756097  0.41995120  0.50492238  1
  Ca2+  Ca26  1  0.32741018  0.41292637  0.83694160  1
  Ca2+  Ca27  1  0.33275072  0.92605131  0.17050878  1
  Ca2+  Ca28  1  0.33663904  0.92056470  0.50706463  1
  Ca2+  Ca29  1  0.32821492  0.92179057  0.83488691  1
  Ca2+  Ca30  1  0.82894033  0.41242652  0.17506096  1
  Ca2+  Ca31  1  0.82731596  0.41862848  0.50755655  1
  Ca2+  Ca32  1  0.83567203  0.41643727  0.82942718  1
  Ca2+  Ca33  1  0.83434175  0.92373374  0.17696435  1
  Ca2+  Ca34  1  0.84097292  0.92186971  0.49990797  1
  Ca2+  Ca35  1  0.82877218  0.91840801  0.83808393  1
  Ca2+  Ca36  1  0.41787774  0.16844974  0.15891797  1
  Ca2+  Ca37  1  0.42018098  0.15905681  0.49860791  1
  Ca2+  Ca38  1  0.42235471  0.15888742  0.83060978  1
  Ca2+  Ca39  1  0.41981444  0.66897698  0.16838570  1
  Ca2+  Ca40  1  0.41754658  0.67931536  0.49282224  1
  Ca2+  Ca41  1  0.41453734  0.67579371  0.82544814  1
  Ca2+  Ca42  1  0.91189441  0.17699695  0.16414187  1
  Ca2+  Ca43  1  0.91552884  0.17809027  0.49328307  1
  Ca2+  Ca44  1  0.91667295  0.18004507  0.82732950  1
  Ca2+  Ca45  1  0.92801463  0.67042440  0.16592822  1
  Ca2+  Ca46  1  0.92380974  0.66686030  0.49512375  1
  Ca2+  Ca47  1  0.92741139  0.66445420  0.82541168  1
  Al0+  Al48  1  -0.00187405  -0.00129868  0.00484350  1
  Al0+  Al49  1  0.00194894  0.00207129  0.33580743  1
  Al0+  Al50  1  0.00096820  0.00065549  0.67344391  1
  Al0+  Al51  1  -0.00096362  0.50283394  -0.00670037  1
  Al0+  Al52  1  -0.00276792  0.49990449  0.32734981  1
  Al0+  Al53  1  -0.00141793  0.50121443  0.66648832  1
  Al0+  Al54  1  0.50093080  -0.00164914  0.00132562  1
  Al0+  Al55  1  0.50194266  -0.00025836  0.33202100  1
  Al0+  Al56  1  0.50224354  0.00080886  0.66043377  1
  Al0+  Al57  1  0.50026625  0.49929989  -0.00424024  1
  Al0+  Al58  1  0.49807142  0.49847506  0.33650914  1
  Al0+  Al59  1  0.49999628  0.49773394  0.67187191  1
  Al0+  Al60  1  0.24749375  0.25061753  0.00187368  1
  Al0+  Al61  1  0.24990351  0.24974968  0.34452619  1
  Al0+  Al62  1  0.25107575  0.25010207  0.67591514  1
  Al0+  Al63  1  0.25099245  0.74794993  0.00066319  1
  Al0+  Al64  1  0.25158696  0.75059387  0.32305664  1
  Al0+  Al65  1  0.25001382  0.74931973  0.65889107  1
  Al0+  Al66  1  0.74863524  0.25126122  -0.00792864  1
  Al0+  Al67  1  0.75008868  0.24940673  0.33689928  1
  Al0+  Al68  1  0.74866565  0.25048385  0.66291819  1
  Al0+  Al69  1  0.75197635  0.74924600  0.00287149  1
  Al0+  Al70  1  0.75010599  0.74978922  0.32613251  1
  Al0+  Al71  1  0.75153146  0.75036324  0.67154203  1
  Al0+  Al72  1  0.92868799  0.31870044  0.31978251  1
  Al0+  Al73  1  0.93002268  0.32029712  0.98463434  1
  Al0+  Al74  1  0.17890325  0.92605187  0.01780678  1
  Al0+  Al75  1  0.92912830  0.82538421  0.31876604  1
  Al0+  Al76  1  0.57050296  0.67566681  0.32025628  1
  Al0+  Al77  1  0.17711025  0.43170059  0.34542514  1
  Al0+  Al78  1  0.93170801  0.31908202  0.65044563  1
  Al0+  Al79  1  0.32130756  0.07108132  0.01677450  1
  Al0+  Al80  1  0.32264415  0.07014253  0.34904152  1
  Al0+  Al81  1  0.56847216  0.18134082  0.64915401  1
  Al0+  Al82  1  0.42956437  0.82357497  0.31468371  1
  Al0+  Al83  1  0.82226135  0.07083792  0.34699312  1
  Al0+  Al84  1  0.82055479  0.57179775  0.68202811  1
  Al0+  Al85  1  0.06884707  0.68150231  0.65173133  1
  Al0+  Al86  1  0.07072123  0.68243486  0.98313026  1
  Al0+  Al87  1  0.42498945  0.32265049  0.98588447  1
  Al0+  Al88  1  0.67724853  0.42864530  0.34591744  1
  Al0+  Al89  1  0.32462827  0.06996888  0.68323298  1
  Al0+  Al90  1  0.17833297  0.43055626  0.68127881  1
  Al0+  Al91  1  0.67766991  0.42624502  0.68549211  1
  Al0+  Al92  1  0.17884798  0.92663690  0.68025369  1
  Al0+  Al93  1  0.07011249  0.67876331  0.31645265  1
  Al0+  Al94  1  0.56879144  0.17814132  0.98585823  1
  Al0+  Al95  1  0.43061951  0.81920223  0.65339391  1
  Si0+  Si96  1  0.57459797  0.67623432  0.65315456  1
  Si0+  Si97  1  0.42649509  0.31957682  0.32236049  1
  Si0+  Si98  1  0.67914411  0.92648104  0.01584249  1
  Si0+  Si99  1  0.82075180  0.57262432  0.34750541  1
  Si0+  Si100  1  0.67941396  0.92693857  0.34995286  1
  Si0+  Si101  1  0.43224182  0.81818182  0.98469299  1
  Si0+  Si102  1  0.07482731  0.17937126  0.31903755  1
  Si0+  Si103  1  0.07167020  0.17528844  0.98462192  1
  Si0+  Si104  1  0.57431345  0.67717084  0.98435267  1
  Si0+  Si105  1  0.32213679  0.57233898  0.68193906  1
  Si0+  Si106  1  0.32340424  0.56988343  0.01476782  1
  Si0+  Si107  1  0.82199092  0.57080991  0.01766676  1
  Si0+  Si108  1  0.82136739  0.07213201  0.68242721  1
  Si0+  Si109  1  0.68053174  0.92982193  0.67979763  1
  Si0+  Si110  1  0.07412980  0.17609554  0.65191842  1
  Si0+  Si111  1  0.92482595  0.82576759  0.65228060  1
  Si0+  Si112  1  0.17920982  0.92635904  0.34959418  1
  Si0+  Si113  1  0.42471101  0.32433819  0.64809661  1
  Si0+  Si114  1  0.57107452  0.18059622  0.31886127  1
  Si0+  Si115  1  0.32192619  0.57332759  0.34908073  1
  Si0+  Si116  1  0.81860441  0.07280507  0.01338121  1
  Si0+  Si117  1  0.92617630  0.82356744  0.98261893  1
  Si0+  Si118  1  0.17687787  0.43086145  0.01442889  1
  Si0+  Si119  1  0.67991895  0.43021782  0.01485891  1
  O2-  O120  1  0.24687040  0.00197720  0.06785041  1
  O2-  O121  1  0.24998407  -0.00744112  0.39383703  1
  O2-  O122  1  0.24891610  0.00052311  0.73062552  1
  O2-  O123  1  0.25427662  0.49587139  0.05572817  1
  O2-  O124  1  0.24800958  0.51020566  0.39249301  1
  O2-  O125  1  0.25647514  0.50193396  0.72830153  1
  O2-  O126  1  0.74990791  -0.00083952  0.05573972  1
  O2-  O127  1  0.75188480  -0.00837139  0.39408622  1
  O2-  O128  1  0.75328927  -0.00207265  0.72422217  1
  O2-  O129  1  0.74969083  0.50100709  0.05967264  1
  O2-  O130  1  0.74870063  0.50731783  0.39073095  1
  O2-  O131  1  0.74822263  0.50062336  0.73417499  1
  O2-  O132  1  0.00436140  0.24514424  0.27228119  1
  O2-  O133  1  0.00830803  0.24572219  0.60457453  1
  O2-  O134  1  0.00499400  0.24529428  0.93903235  1
  O2-  O135  1  0.00196938  0.75529497  0.26714809  1
  O2-  O136  1  -0.00509477  0.75882404  0.60885282  1
  O2-  O137  1  -0.00141881  0.76036465  0.93730238  1
  O2-  O138  1  0.49811706  0.24998268  0.27824734  1
  O2-  O139  1  0.49322563  0.25598593  0.60285346  1
  O2-  O140  1  0.49264043  0.24611173  0.93653980  1
  O2-  O141  1  0.50022982  0.74800757  0.26719503  1
  O2-  O142  1  0.50380982  0.74169553  0.60875864  1
  O2-  O143  1  0.50428488  0.74837740  0.94126347  1
  O2-  O144  1  0.06995851  0.17725588  0.09041283  1
  O2-  O145  1  0.07367294  0.18130460  0.42445368  1
  O2-  O146  1  0.06853307  0.17593373  0.75764218  1
  O2-  O147  1  0.06798510  0.67905179  0.09577380  1
  O2-  O148  1  0.06703748  0.67696797  0.42980938  1
  O2-  O149  1  0.06918103  0.68222173  0.76497673  1
  O2-  O150  1  0.57316827  0.18171962  0.09982435  1
  O2-  O151  1  0.57185908  0.18072347  0.42379730  1
  O2-  O152  1  0.56814247  0.17965904  0.76206097  1
  O2-  O153  1  0.57315783  0.67623620  0.08917064  1
  O2-  O154  1  0.56852135  0.67699823  0.43387959  1
  O2-  O155  1  0.57415669  0.68093262  0.75942762  1
  O2-  O156  1  0.17960170  0.43027342  0.23168858  1
  O2-  O157  1  0.17671918  0.43347658  0.56817078  1
  O2-  O158  1  0.17527606  0.43391893  0.90945267  1
  O2-  O159  1  0.17939088  0.92956146  0.24395590  1
  O2-  O160  1  0.17902850  0.92706471  0.56668708  1
  O2-  O161  1  0.18390785  0.92493420  0.90442085  1
  O2-  O162  1  0.67848668  0.42670381  0.23192734  1
  O2-  O163  1  0.67990222  0.42778588  0.57166474  1
  O2-  O164  1  0.68052183  0.43203617  0.91029298  1
  O2-  O165  1  0.67779994  0.93110771  0.24391823  1
  O2-  O166  1  0.68138059  0.92945037  0.57501093  1
  O2-  O167  1  0.67945956  0.92313020  0.91057823  1
  O2-  O168  1  0.42939868  0.32599063  0.10020705  1
  O2-  O169  1  0.42633328  0.31928972  0.42707957  1
  O2-  O170  1  0.42603838  0.32491587  0.75361075  1
  O2-  O171  1  0.43451096  0.81742619  0.08940724  1
  O2-  O172  1  0.43177365  0.82334641  0.42827403  1
  O2-  O173  1  0.43274293  0.81858287  0.76732090  1
  O2-  O174  1  0.92787868  0.31952978  0.09795102  1
  O2-  O175  1  0.92826349  0.31930436  0.43241381  1
  O2-  O176  1  0.93220779  0.31731820  0.76394902  1
  O2-  O177  1  0.92190613  0.82069613  0.08768169  1
  O2-  O178  1  0.93053634  0.82378693  0.43258371  1
  O2-  O179  1  0.92069030  0.82511333  0.75783000  1
  O2-  O180  1  0.32213361  0.07297432  0.23606736  1
  O2-  O181  1  0.32473751  0.06619778  0.56941982  1
  O2-  O182  1  0.32351351  0.06605669  0.90373539  1
  O2-  O183  1  0.32568376  0.56799723  0.24321268  1
  O2-  O184  1  0.32254368  0.57151276  0.57657615  1
  O2-  O185  1  0.32396842  0.57247803  0.90975249  1
  O2-  O186  1  0.81588663  0.07425491  0.23339523  1
  O2-  O187  1  0.82103704  0.07143405  0.57740529  1
  O2-  O188  1  0.81729010  0.07163002  0.90811502  1
  O2-  O189  1  0.82079624  0.56896501  0.24132222  1
  O2-  O190  1  0.81867284  0.57294470  0.56840223  1
  O2-  O191  1  0.82053176  0.57209968  0.91282302  1
  O2-  O192  1  0.05297378  0.08494279  0.27368669  1
  O2-  O193  1  0.04712844  0.08222927  0.60671668  1
  O2-  O194  1  0.04443206  0.08141030  0.93976637  1
  O2-  O195  1  0.03647481  0.58302365  0.26048996  1
  O2-  O196  1  0.03371363  0.58634687  0.59853704  1
  O2-  O197  1  0.03582193  0.58776561  0.92812040  1
  O2-  O198  1  0.54662856  0.08815704  0.27152576  1
  O2-  O199  1  0.54132863  0.08456999  0.59332412  1
  O2-  O200  1  0.54670022  0.07704952  0.93415757  1
  O2-  O201  1  0.53931416  0.57761489  0.26594169  1
  O2-  O202  1  0.55258926  0.58026719  0.61130993  1
  O2-  O203  1  0.54693164  0.58630445  0.93560437  1
  O2-  O204  1  0.16801436  0.20854021  0.27369625  1
  O2-  O205  1  0.17037275  0.19861953  0.61074140  1
  O2-  O206  1  0.16579336  0.19884927  0.93957302  1
  O2-  O207  1  0.16995524  0.70060880  0.26308631  1
  O2-  O208  1  0.16537171  0.70720334  0.59561290  1
  O2-  O209  1  0.16992130  0.70832759  0.93114719  1
  O2-  O210  1  0.66173017  0.21056765  0.27108687  1
  O2-  O211  1  0.66534374  0.21150883  0.59507028  1
  O2-  O212  1  0.66462251  0.20997898  0.92961644  1
  O2-  O213  1  0.66831382  0.70138593  0.26422625  1
  O2-  O214  1  0.66742756  0.70475034  0.60801676  1
  O2-  O215  1  0.66701902  0.70521563  0.93901224  1
  O2-  O216  1  0.08662215  0.46588815  0.06108274  1
  O2-  O217  1  0.07907041  0.46153046  0.39686387  1
  O2-  O218  1  0.08372828  0.46581538  0.73569855  1
  O2-  O219  1  0.07663520  0.94730627  0.06680774  1
  O2-  O220  1  0.08621366  0.95205348  0.39625420  1
  O2-  O221  1  0.07998097  0.95094548  0.73615587  1
  O2-  O222  1  0.58696244  0.45772892  0.06090565  1
  O2-  O223  1  0.58015118  0.45512464  0.40133399  1
  O2-  O224  1  0.57819625  0.45136115  0.73865836  1
  O2-  O225  1  0.58818402  0.95373134  0.06445536  1
  O2-  O226  1  0.58805080  0.95772251  0.39702131  1
  O2-  O227  1  0.59043196  0.96156148  0.72785743  1
  O2-  O228  1  0.19605761  0.33707409  0.06150923  1
  O2-  O229  1  0.20971997  0.33804198  0.40342848  1
  O2-  O230  1  0.20417003  0.33369205  0.73751935  1
  O2-  O231  1  0.21229265  0.82838769  0.06977895  1
  O2-  O232  1  0.20316051  0.83024157  0.39082647  1
  O2-  O233  1  0.21231476  0.82858564  0.73112503  1
  O2-  O234  1  0.70887634  0.33737835  0.05972694  1
  O2-  O235  1  0.71135954  0.33439669  0.40103392  1
  O2-  O236  1  0.70997474  0.32817316  0.73646747  1
  O2-  O237  1  0.70751985  0.83547352  0.06515112  1
  O2-  O238  1  0.69927967  0.83075470  0.39255606  1
  O2-  O239  1  0.70400026  0.83846731  0.73113043  1
  O2-  O240  1  0.45183968  0.41170091  0.27463045  1
  O2-  O241  1  0.44960321  0.41932878  0.60383169  1
  O2-  O242  1  0.45670086  0.41937395  0.93032546  1
  O2-  O243  1  0.46521243  0.91956770  0.26044259  1
  O2-  O244  1  0.46662822  0.91267009  0.59803151  1
  O2-  O245  1  0.46125564  0.90946866  0.93766140  1
  O2-  O246  1  0.95753006  0.41424922  0.26296163  1
  O2-  O247  1  0.96113930  0.41651515  0.59897388  1
  O2-  O248  1  0.96142312  0.41623842  0.93071743  1
  O2-  O249  1  0.95335487  0.92607008  0.26735465  1
  O2-  O250  1  0.94850479  0.92118441  0.60906312  1
  O2-  O251  1  0.94373325  0.92040660  0.93975515  1
  O2-  O252  1  0.33485290  0.29034448  0.27515956  1
  O2-  O253  1  0.32934892  0.29958469  0.60509859  1
  O2-  O254  1  0.32349353  0.30211240  0.93640416  1
  O2-  O255  1  0.33244545  0.79754341  0.25910590  1
  O2-  O256  1  0.33633420  0.78889236  0.59602698  1
  O2-  O257  1  0.34143035  0.78701062  0.93824947  1
  O2-  O258  1  0.83262108  0.28423583  0.26575842  1
  O2-  O259  1  0.83537821  0.28620967  0.59829940  1
  O2-  O260  1  0.83496875  0.28844644  0.92898511  1
  O2-  O261  1  0.83042555  0.79955321  0.26421436  1
  O2-  O262  1  0.83120808  0.80032738  0.60552822  1
  O2-  O263  1  0.83305845  0.79408340  0.93581338  1
  O2-  O264  1  0.42029939  0.03994305  0.06866938  1
  O2-  O265  1  0.42099395  0.04012850  0.39984635  1
  O2-  O266  1  0.42295768  0.03642138  0.73336238  1
  O2-  O267  1  0.41669827  0.54518797  0.06178827  1
  O2-  O268  1  0.41219828  0.54356167  0.39910332  1
  O2-  O269  1  0.41663775  0.55213829  0.72967579  1
  O2-  O270  1  0.91059725  0.04936864  0.06217655  1
  O2-  O271  1  0.92022974  0.04686580  0.40219776  1
  O2-  O272  1  0.91286723  0.04888994  0.73261909  1
  O2-  O273  1  0.91371325  0.54039714  0.06312095  1
  O2-  O274  1  0.91254415  0.54238206  0.39339223  1
  O2-  O275  1  0.91683171  0.53946503  0.73671277  1
  O2-  O276  1  0.29521918  0.17181776  0.06811572  1
  O2-  O277  1  0.29163445  0.16470684  0.40655310  1
  O2-  O278  1  0.30218481  0.16954899  0.73575076  1
  O2-  O279  1  0.29322655  0.65977184  0.06407651  1
  O2-  O280  1  0.30214039  0.67043305  0.38942564  1
  O2-  O281  1  0.29311023  0.66506214  0.72763155  1
  O2-  O282  1  0.78697435  0.16421350  0.05998460  1
  O2-  O283  1  0.78510897  0.16372593  0.40371744  1
  O2-  O284  1  0.78778061  0.16177223  0.72954051  1
  O2-  O285  1  0.79622751  0.66337916  0.06499303  1
  O2-  O286  1  0.80033682  0.66849918  0.39072471  1
  O2-  O287  1  0.79454785  0.67045355  0.73853118  1
