# generated using pymatgen
data_Ca2Al2SiO7
_symmetry_space_group_name_H-M   'P 1'
_cell_length_a   15.46355911
_cell_length_b   15.46340692
_cell_length_c   15.28837336
_cell_angle_alpha   90.01565207
_cell_angle_beta   90.00025606
_cell_angle_gamma   90.00840893
_symmetry_Int_Tables_number   1
_chemical_formula_structural   Ca2Al2SiO7
_chemical_formula_sum   'Ca48 Al48 Si24 O168'
_cell_volume   3655.74506658
_cell_formula_units_Z   24
loop_
 _symmetry_equiv_pos_site_id
 _symmetry_equiv_pos_as_xyz
  1  'x, y, z'
loop_
 _atom_type_symbol
 _atom_type_oxidation_number
  Ca2+  2.0
  Al0+  0.0
  Si0+  0.0
  O2-  -2.0
loop_
 _atom_site_type_symbol
 _atom_site_label
 _atom_site_symmetry_multiplicity
 _atom_site_fract_x
 _atom_site_fract_y
 _atom_site_fract_z
 _atom_site_occupancy
  Ca2+  Ca0  1  0.17521014  0.08040007  0.16968045  1
  Ca2+  Ca1  1  0.17000348  0.07191476  0.50072496  1
  Ca2+  Ca2  1  0.17225706  0.07260299  0.84308996  1
  Ca2+  Ca3  1  0.16331374  0.57777975  0.16238042  1
  Ca2+  Ca4  1  0.17233306  0.57315850  0.50685380  1
  Ca2+  Ca5  1  0.17786707  0.57756814  0.84154607  1
  Ca2+  Ca6  1  0.67105325  0.08281547  0.16827574  1
  Ca2+  Ca7  1  0.66838975  0.06922974  0.50238690  1
  Ca2+  Ca8  1  0.66822930  0.08203334  0.84007292  1
  Ca2+  Ca9  1  0.66948550  0.58142041  0.16961328  1
  Ca2+  Ca10  1  0.66827299  0.58940122  0.50646730  1
  Ca2+  Ca11  1  0.66441179  0.58551905  0.83422593  1
  Ca2+  Ca12  1  0.07907932  0.33223698  0.15754306  1
  Ca2+  Ca13  1  0.08393532  0.33634724  0.49252428  1
  Ca2+  Ca14  1  0.09314875  0.32917183  0.83437029  1
  Ca2+  Ca15  1  0.08758776  0.83441529  0.15871542  1
  Ca2+  Ca16  1  0.08229955  0.83698943  0.49264152  1
  Ca2+  Ca17  1  0.09439834  0.82941206  0.83194260  1
  Ca2+  Ca18  1  0.57856401  0.32316950  0.15704092  1
  Ca2+  Ca19  1  0.57188636  0.33425965  0.49931748  1
  Ca2+  Ca20  1  0.57569614  0.32430171  0.82948670  1
  Ca2+  Ca21  1  0.56975121  0.84339638  0.16488024  1
  Ca2+  Ca22  1  0.57402837  0.83710996  0.49623471  1
  Ca2+  Ca23  1  0.56857224  0.83202326  0.82478056  1
  Ca2+  Ca24  1  0.31882709  0.41914338  0.17062303  1
  Ca2+  Ca25  1  0.32379244  0.41943152  0.51218299  1
  Ca2+  Ca26  1  0.33198714  0.42669430  0.83891033  1
  Ca2+  Ca27  1  0.32704021  0.92102853  0.16935879  1
  Ca2+  Ca28  1  0.33001755  0.91518404  0.50173301  1
  Ca2+  Ca29  1  0.32830884  0.91246329  0.84132465  1
  Ca2+  Ca30  1  0.83978016  0.41281672  0.16904231  1
  Ca2+  Ca31  1  0.83370549  0.41663150  0.50120421  1
  Ca2+  Ca32  1  0.83180253  0.41345918  0.84054865  1
  Ca2+  Ca33  1  0.83123393  0.92291646  0.17341557  1
  Ca2+  Ca34  1  0.82069193  0.90440989  0.50274685  1
  Ca2+  Ca35  1  0.82268165  0.92218898  0.83896752  1
  Ca2+  Ca36  1  0.41958467  0.15598064  0.15941602  1
  Ca2+  Ca37  1  0.40985970  0.16917602  0.49771522  1
  Ca2+  Ca38  1  0.41393415  0.16783472  0.83286497  1
  Ca2+  Ca39  1  0.40687577  0.67952591  0.16126210  1
  Ca2+  Ca40  1  0.41255869  0.67734796  0.50147504  1
  Ca2+  Ca41  1  0.41160275  0.67352420  0.82696254  1
  Ca2+  Ca42  1  0.92362410  0.17376151  0.15437272  1
  Ca2+  Ca43  1  0.92164968  0.17391495  0.49296285  1
  Ca2+  Ca44  1  0.92246525  0.16493427  0.83861161  1
  Ca2+  Ca45  1  0.92490230  0.67652718  0.16257838  1
  Ca2+  Ca46  1  0.92178263  0.67364503  0.49216224  1
  Ca2+  Ca47  1  0.92742606  0.66566076  0.83376677  1
  Al0+  Al48  1  -0.00417471  0.00215990  0.00221876  1
  Al0+  Al49  1  0.00044610  0.00277007  0.33282591  1
  Al0+  Al50  1  0.00011810  0.00125697  0.66848129  1
  Al0+  Al51  1  -0.00256978  0.50328238  -0.00422968  1
  Al0+  Al52  1  -0.00095937  0.50103103  0.33414791  1
  Al0+  Al53  1  -0.00084635  0.49928501  0.66886007  1
  Al0+  Al54  1  0.49967807  -0.00139014  -0.00811811  1
  Al0+  Al55  1  0.50201261  0.00050691  0.33781265  1
  Al0+  Al56  1  0.50176236  -0.00008626  0.66605881  1
  Al0+  Al57  1  0.50131189  0.50139649  0.00645276  1
  Al0+  Al58  1  0.50087589  0.49978656  0.33221038  1
  Al0+  Al59  1  0.50200037  0.49836350  0.66245876  1
  Al0+  Al60  1  0.24954703  0.25018959  0.00306163  1
  Al0+  Al61  1  0.24985448  0.25118908  0.34016480  1
  Al0+  Al62  1  0.24824829  0.24683769  0.66363174  1
  Al0+  Al63  1  0.24892222  0.74870916  -0.00113665  1
  Al0+  Al64  1  0.25086992  0.74820726  0.33237339  1
  Al0+  Al65  1  0.24985934  0.74780986  0.66618382  1
  Al0+  Al66  1  0.74826787  0.24891609  -0.00416205  1
  Al0+  Al67  1  0.74905216  0.25141466  0.33247238  1
  Al0+  Al68  1  0.75194391  0.25036570  0.66457720  1
  Al0+  Al69  1  0.74869136  0.74873979  0.00158335  1
  Al0+  Al70  1  0.75190788  0.74886237  0.33118065  1
  Al0+  Al71  1  0.75060648  0.75011603  0.67166388  1
  Al0+  Al72  1  0.92938743  0.32144982  0.98343308  1
  Al0+  Al73  1  0.17889273  0.92898326  0.67995498  1
  Al0+  Al74  1  0.42991346  0.81861083  0.98652728  1
  Al0+  Al75  1  0.81836496  0.07176945  0.01395909  1
  Al0+  Al76  1  0.32318034  0.57202602  0.01710417  1
  Al0+  Al77  1  0.17844488  0.43185458  0.34742524  1
  Al0+  Al78  1  0.67892223  0.92849906  0.68217305  1
  Al0+  Al79  1  0.07331025  0.17801853  0.98437653  1
  Al0+  Al80  1  0.32290214  0.56889333  0.68082236  1
  Al0+  Al81  1  0.57316496  0.67916873  0.65198336  1
  Al0+  Al82  1  0.42970939  0.82126844  0.31798110  1
  Al0+  Al83  1  0.32292172  0.07050385  0.34969658  1
  Al0+  Al84  1  0.92900893  0.82274059  0.32055402  1
  Al0+  Al85  1  0.17698354  0.42651256  0.68301901  1
  Al0+  Al86  1  0.17756893  0.42936559  0.01492222  1
  Al0+  Al87  1  0.92941103  0.32107871  0.32018981  1
  Al0+  Al88  1  0.06938449  0.68215658  0.98542209  1
  Al0+  Al89  1  0.17791637  0.92725157  0.34771639  1
  Al0+  Al90  1  0.42713395  0.82167951  0.64943900  1
  Al0+  Al91  1  0.42867141  0.31802325  0.65410685  1
  Al0+  Al92  1  0.68208981  0.92905384  0.34584729  1
  Al0+  Al93  1  0.56911206  0.17855859  0.98636925  1
  Al0+  Al94  1  0.17775019  0.92830413  0.01372770  1
  Al0+  Al95  1  0.32272240  0.07066606  0.01237911  1
  Si0+  Si96  1  0.82081764  0.57222104  0.01644834  1
  Si0+  Si97  1  0.07136438  0.67865228  0.31768844  1
  Si0+  Si98  1  0.57578583  0.17830686  0.64719971  1
  Si0+  Si99  1  0.81928221  0.56953405  0.34841088  1
  Si0+  Si100  1  0.42768011  0.32476217  0.98647971  1
  Si0+  Si101  1  0.67791047  0.92710509  0.01647650  1
  Si0+  Si102  1  0.67992460  0.42853572  0.01496023  1
  Si0+  Si103  1  0.67751634  0.42770800  0.34916524  1
  Si0+  Si104  1  0.92872121  0.32197616  0.65024463  1
  Si0+  Si105  1  0.82106921  0.57104496  0.68255114  1
  Si0+  Si106  1  0.32515552  0.57145757  0.35158832  1
  Si0+  Si107  1  0.92429600  0.82391858  0.98277818  1
  Si0+  Si108  1  0.06981754  0.17755475  0.64953342  1
  Si0+  Si109  1  0.56966178  0.18060136  0.31957034  1
  Si0+  Si110  1  0.32236717  0.07134847  0.68264925  1
  Si0+  Si111  1  0.07369347  0.17944573  0.31668907  1
  Si0+  Si112  1  0.93046448  0.82098750  0.65410675  1
  Si0+  Si113  1  0.57428481  0.67555146  0.98454498  1
  Si0+  Si114  1  0.42763387  0.32221636  0.31812256  1
  Si0+  Si115  1  0.82143204  0.07413410  0.68330944  1
  Si0+  Si116  1  0.57335614  0.67693391  0.31512885  1
  Si0+  Si117  1  0.82202065  0.07511591  0.35003737  1
  Si0+  Si118  1  0.68028426  0.42731255  0.68116781  1
  Si0+  Si119  1  0.07004627  0.67738229  0.65094931  1
  O2-  O120  1  0.24789657  0.00232558  0.06295323  1
  O2-  O121  1  0.25178360  -0.00306712  0.39856935  1
  O2-  O122  1  0.25918162  -0.00229870  0.72574053  1
  O2-  O123  1  0.25184691  0.49859745  0.06589585  1
  O2-  O124  1  0.25640652  0.50239109  0.39479015  1
  O2-  O125  1  0.25132514  0.49648091  0.73086949  1
  O2-  O126  1  0.74768567  -0.00606225  0.06148521  1
  O2-  O127  1  0.76032893  0.00025719  0.39459537  1
  O2-  O128  1  0.75071093  0.00713369  0.72646126  1
  O2-  O129  1  0.75090924  0.49946818  0.05789165  1
  O2-  O130  1  0.74727332  0.49989423  0.39160113  1
  O2-  O131  1  0.74946886  0.49993886  0.72366352  1
  O2-  O132  1  0.00336742  0.24719507  0.27361474  1
  O2-  O133  1  0.00194927  0.25338339  0.60876829  1
  O2-  O134  1  0.00433097  0.25340197  0.93257468  1
  O2-  O135  1  0.01050578  0.75540522  0.27466077  1
  O2-  O136  1  0.00259548  0.75231458  0.60937721  1
  O2-  O137  1  -0.00230232  0.76063006  0.93819113  1
  O2-  O138  1  0.49608695  0.24865452  0.27645414  1
  O2-  O139  1  0.50250977  0.24277656  0.60412872  1
  O2-  O140  1  0.49209197  0.25192640  0.94193869  1
  O2-  O141  1  0.50387685  0.74441617  0.27166578  1
  O2-  O142  1  0.50175362  0.75045506  0.60062301  1
  O2-  O143  1  0.50392496  0.74185372  0.94179983  1
  O2-  O144  1  0.07042048  0.17823830  0.09797312  1
  O2-  O145  1  0.07105512  0.18045573  0.42296673  1
  O2-  O146  1  0.06833179  0.17485219  0.75394531  1
  O2-  O147  1  0.06474121  0.68081962  0.09872200  1
  O2-  O148  1  0.06637663  0.67525898  0.42368242  1
  O2-  O149  1  0.06665198  0.67563280  0.75566094  1
  O2-  O150  1  0.57107098  0.18117447  0.10001889  1
  O2-  O151  1  0.57241631  0.18431746  0.42459121  1
  O2-  O152  1  0.58052797  0.18229091  0.75244653  1
  O2-  O153  1  0.57919447  0.67555694  0.08998405  1
  O2-  O154  1  0.57543192  0.67590258  0.42038699  1
  O2-  O155  1  0.57537922  0.68080813  0.76537092  1
  O2-  O156  1  0.17651971  0.43307165  0.23493032  1
  O2-  O157  1  0.17504763  0.43053358  0.56884803  1
  O2-  O158  1  0.18025935  0.43138074  0.90172690  1
  O2-  O159  1  0.17758054  0.92901733  0.23486028  1
  O2-  O160  1  0.17366348  0.93216742  0.56708292  1
  O2-  O161  1  0.18158318  0.92801847  0.89991052  1
  O2-  O162  1  0.67711803  0.42724138  0.24419900  1
  O2-  O163  1  0.68381936  0.42498678  0.57581174  1
  O2-  O164  1  0.67939166  0.42998528  0.90974112  1
  O2-  O165  1  0.68187266  0.93292324  0.23299977  1
  O2-  O166  1  0.68272547  0.92760711  0.56870731  1
  O2-  O167  1  0.68053333  0.92705051  0.91085256  1
  O2-  O168  1  0.43284031  0.32705276  0.09230367  1
  O2-  O169  1  0.43098393  0.32388754  0.42330653  1
  O2-  O170  1  0.43258480  0.31689335  0.76709499  1
  O2-  O171  1  0.43249686  0.82077842  0.09990001  1
  O2-  O172  1  0.43093040  0.82050122  0.43079499  1
  O2-  O173  1  0.42741095  0.82052031  0.76274763  1
  O2-  O174  1  0.92853743  0.31963283  0.09727415  1
  O2-  O175  1  0.92859621  0.32027617  0.43392147  1
  O2-  O176  1  0.92314291  0.32170299  0.75427263  1
  O2-  O177  1  0.92024855  0.81918374  0.08836361  1
  O2-  O178  1  0.92542629  0.81550673  0.43416425  1
  O2-  O179  1  0.92982996  0.81901228  0.75890451  1
  O2-  O180  1  0.32376949  0.07073958  0.23655796  1
  O2-  O181  1  0.31831155  0.07356167  0.57702723  1
  O2-  O182  1  0.32360785  0.06839491  0.89876010  1
  O2-  O183  1  0.32693266  0.56948729  0.24634097  1
  O2-  O184  1  0.31917000  0.56809684  0.56675251  1
  O2-  O185  1  0.32518678  0.57002956  0.90365985  1
  O2-  O186  1  0.81698992  0.07847638  0.24493318  1
  O2-  O187  1  0.82120473  0.07635820  0.57752090  1
  O2-  O188  1  0.81528794  0.07102165  0.90054637  1
  O2-  O189  1  0.81858975  0.56887587  0.24350621  1
  O2-  O190  1  0.82242174  0.57003788  0.57710623  1
  O2-  O191  1  0.81862039  0.57436410  0.91127419  1
  O2-  O192  1  0.05006148  0.08576204  0.27108797  1
  O2-  O193  1  0.03540151  0.08848150  0.59960634  1
  O2-  O194  1  0.03764956  0.08117378  0.93090425  1
  O2-  O195  1  0.03395692  0.58973600  0.26992370  1
  O2-  O196  1  0.03595967  0.58726104  0.60258928  1
  O2-  O197  1  0.03220812  0.58900980  0.92894690  1
  O2-  O198  1  0.54572019  0.08804603  0.27297528  1
  O2-  O199  1  0.55441284  0.08299706  0.60382542  1
  O2-  O200  1  0.54262384  0.08341022  0.92846157  1
  O2-  O201  1  0.55068511  0.58153314  0.26981317  1
  O2-  O202  1  0.55205037  0.57853821  0.59939427  1
  O2-  O203  1  0.55252044  0.58005369  0.94034715  1
  O2-  O204  1  0.16740097  0.20723552  0.27305274  1
  O2-  O205  1  0.16148126  0.20139637  0.60029346  1
  O2-  O206  1  0.17296894  0.20376623  0.93169338  1
  O2-  O207  1  0.16744637  0.69341513  0.27408594  1
  O2-  O208  1  0.16212657  0.70065634  0.60330455  1
  O2-  O209  1  0.16568061  0.70885338  0.92981086  1
  O2-  O210  1  0.65993368  0.21256940  0.27094103  1
  O2-  O211  1  0.66739878  0.20924462  0.59903644  1
  O2-  O212  1  0.66226695  0.21438837  0.92931041  1
  O2-  O213  1  0.66734994  0.70134558  0.26911679  1
  O2-  O214  1  0.67385727  0.70691234  0.60077154  1
  O2-  O215  1  0.66770666  0.70115044  0.93715064  1
  O2-  O216  1  0.07835469  0.46282091  0.06432248  1
  O2-  O217  1  0.08210727  0.46471679  0.40213637  1
  O2-  O218  1  0.07782029  0.45461926  0.73393566  1
  O2-  O219  1  0.07610264  0.95034519  0.06208044  1
  O2-  O220  1  0.07872940  0.95739414  0.40100254  1
  O2-  O221  1  0.08306113  0.96277006  0.73409244  1
  O2-  O222  1  0.58998198  0.45556690  0.06660175  1
  O2-  O223  1  0.58557102  0.45460985  0.39709597  1
  O2-  O224  1  0.58847011  0.45209750  0.72837333  1
  O2-  O225  1  0.58504701  0.95701560  0.05974043  1
  O2-  O226  1  0.58878644  0.96382008  0.40290731  1
  O2-  O227  1  0.58180217  0.95779098  0.73511579  1
  O2-  O228  1  0.20227927  0.33051890  0.06852284  1
  O2-  O229  1  0.20636019  0.33521430  0.40256664  1
  O2-  O230  1  0.20239429  0.32537784  0.72972479  1
  O2-  O231  1  0.20671899  0.83041496  0.06582287  1
  O2-  O232  1  0.20254690  0.82643747  0.39836075  1
  O2-  O233  1  0.20374553  0.82963336  0.72989240  1
  O2-  O234  1  0.70809455  0.33718656  0.06228157  1
  O2-  O235  1  0.70720915  0.33747331  0.39868006  1
  O2-  O236  1  0.71151164  0.33667418  0.72929186  1
  O2-  O237  1  0.70080080  0.83263284  0.06221370  1
  O2-  O238  1  0.71233182  0.83115671  0.39854726  1
  O2-  O239  1  0.71432852  0.83450782  0.73796152  1
  O2-  O240  1  0.45912802  0.41255993  0.26994726  1
  O2-  O241  1  0.46301057  0.41230835  0.59710046  1
  O2-  O242  1  0.46083085  0.41638453  0.94034166  1
  O2-  O243  1  0.46568799  0.91805149  0.26736529  1
  O2-  O244  1  0.45607643  0.92145486  0.59852105  1
  O2-  O245  1  0.46251080  0.91221895  0.92848192  1
  O2-  O246  1  0.95707678  0.41918657  0.26815556  1
  O2-  O247  1  0.95336493  0.41522698  0.60302033  1
  O2-  O248  1  0.94777687  0.42285611  0.93315702  1
  O2-  O249  1  0.94866850  0.92336969  0.27042747  1
  O2-  O250  1  0.95419142  0.91397672  0.60695166  1
  O2-  O251  1  0.94065980  0.91988537  0.93973114  1
  O2-  O252  1  0.33408249  0.29757906  0.27404019  1
  O2-  O253  1  0.33228283  0.28791844  0.59799644  1
  O2-  O254  1  0.33311672  0.30436126  0.94229016  1
  O2-  O255  1  0.33257266  0.79013629  0.26501085  1
  O2-  O256  1  0.32922396  0.78983837  0.59589657  1
  O2-  O257  1  0.33383958  0.78756799  0.93311060  1
  O2-  O258  1  0.83085008  0.29367835  0.26783266  1
  O2-  O259  1  0.83789348  0.29241388  0.60006008  1
  O2-  O260  1  0.83157017  0.28973377  0.93045092  1
  O2-  O261  1  0.83607375  0.78443391  0.26370869  1
  O2-  O262  1  0.83972829  0.78843686  0.60719968  1
  O2-  O263  1  0.83268712  0.79045423  0.93576015  1
  O2-  O264  1  0.42167618  0.03938932  0.06352330  1
  O2-  O265  1  0.42171751  0.04594615  0.40373016  1
  O2-  O266  1  0.41977818  0.05564477  0.72378958  1
  O2-  O267  1  0.42278263  0.54870125  0.07114737  1
  O2-  O268  1  0.41955678  0.54625646  0.39656492  1
  O2-  O269  1  0.42286611  0.54136682  0.73087945  1
  O2-  O270  1  0.91444506  0.04547111  0.07011759  1
  O2-  O271  1  0.91813650  0.05802854  0.39322874  1
  O2-  O272  1  0.91353109  0.04544276  0.72965689  1
  O2-  O273  1  0.91169138  0.54590353  0.06501407  1
  O2-  O274  1  0.90939613  0.54054349  0.39852605  1
  O2-  O275  1  0.91142488  0.54136448  0.73112621  1
  O2-  O276  1  0.30157975  0.17081059  0.06529000  1
  O2-  O277  1  0.29352654  0.16877638  0.40354019  1
  O2-  O278  1  0.29141992  0.16284170  0.72920357  1
  O2-  O279  1  0.28819604  0.66787716  0.06966016  1
  O2-  O280  1  0.29819678  0.66471318  0.39672148  1
  O2-  O281  1  0.29215637  0.66658412  0.73254644  1
  O2-  O282  1  0.78313449  0.16731027  0.06755806  1
  O2-  O283  1  0.78905471  0.16613865  0.39872490  1
  O2-  O284  1  0.79692545  0.16825372  0.72908339  1
  O2-  O285  1  0.79081961  0.66261513  0.06653511  1
  O2-  O286  1  0.79220732  0.66086916  0.39721860  1
  O2-  O287  1  0.79472174  0.66139076  0.73286721  1
