# generated using pymatgen
data_Ca2Al2SiO7
_symmetry_space_group_name_H-M   'P 1'
_cell_length_a   15.46072563
_cell_length_b   15.46044864
_cell_length_c   15.28499778
_cell_angle_alpha   89.99585242
_cell_angle_beta   90.00934878
_cell_angle_gamma   90.01867473
_symmetry_Int_Tables_number   1
_chemical_formula_structural   Ca2Al2SiO7
_chemical_formula_sum   'Ca48 Al48 Si24 O168'
_cell_volume   3653.56901616
_cell_formula_units_Z   24
loop_
 _symmetry_equiv_pos_site_id
 _symmetry_equiv_pos_as_xyz
  1  'x, y, z'
loop_
 _atom_type_symbol
 _atom_type_oxidation_number
  Ca2+  2.0
  Al0+  0.0
  Si0+  0.0
  O2-  -2.0
loop_
 _atom_site_type_symbol
 _atom_site_label
 _atom_site_symmetry_multiplicity
 _atom_site_fract_x
 _atom_site_fract_y
 _atom_site_fract_z
 _atom_site_occupancy
  Ca2+  Ca0  1  0.17774143  0.08139285  0.17662258  1
  Ca2+  Ca1  1  0.17375541  0.08721773  0.50445106  1
  Ca2+  Ca2  1  0.17755875  0.08784908  0.83541253  1
  Ca2+  Ca3  1  0.16891232  0.57254358  0.16749491  1
  Ca2+  Ca4  1  0.16247262  0.57737001  0.50482040  1
  Ca2+  Ca5  1  0.17032193  0.58113176  0.84246278  1
  Ca2+  Ca6  1  0.67454030  0.07585305  0.17720637  1
  Ca2+  Ca7  1  0.67591260  0.07890653  0.51094693  1
  Ca2+  Ca8  1  0.66261790  0.07953144  0.82898298  1
  Ca2+  Ca9  1  0.66562425  0.57666402  0.16665187  1
  Ca2+  Ca10  1  0.65991303  0.57295326  0.50667422  1
  Ca2+  Ca11  1  0.66190282  0.57694410  0.84036132  1
  Ca2+  Ca12  1  0.08306422  0.33254645  0.16176065  1
  Ca2+  Ca13  1  0.08311918  0.32074605  0.49241533  1
  Ca2+  Ca14  1  0.07613393  0.33475796  0.82906354  1
  Ca2+  Ca15  1  0.08354331  0.83709151  0.16593693  1
  Ca2+  Ca16  1  0.08774427  0.83045055  0.49543987  1
  Ca2+  Ca17  1  0.08162428  0.82518317  0.82495806  1
  Ca2+  Ca18  1  0.58827532  0.33321456  0.16289359  1
  Ca2+  Ca19  1  0.58852811  0.32958665  0.49846433  1
  Ca2+  Ca20  1  0.58623076  0.33117624  0.82569945  1
  Ca2+  Ca21  1  0.57891160  0.83030317  0.15553801  1
  Ca2+  Ca22  1  0.58322751  0.84031973  0.49969106  1
  Ca2+  Ca23  1  0.57583605  0.82309504  0.82512419  1
  Ca2+  Ca24  1  0.32445225  0.42081764  0.16773840  1
  Ca2+  Ca25  1  0.32632237  0.41427714  0.50104865  1
  Ca2+  Ca26  1  0.32563971  0.42512946  0.84387090  1
  Ca2+  Ca27  1  0.33359815  0.92505263  0.17062716  1
  Ca2+  Ca28  1  0.33210428  0.92557738  0.50433831  1
  Ca2+  Ca29  1  0.34702879  0.92452675  0.83391228  1
  Ca2+  Ca30  1  0.82660426  0.41680658  0.16391318  1
  Ca2+  Ca31  1  0.82127622  0.41387718  0.50397425  1
  Ca2+  Ca32  1  0.82357345  0.42020023  0.84158307  1
  Ca2+  Ca33  1  0.82690098  0.92234519  0.17726905  1
  Ca2+  Ca34  1  0.82448410  0.92610987  0.50412936  1
  Ca2+  Ca35  1  0.82967403  0.92069511  0.83107561  1
  Ca2+  Ca36  1  0.41419012  0.16372408  0.16328961  1
  Ca2+  Ca37  1  0.42126533  0.15744646  0.50022590  1
  Ca2+  Ca38  1  0.41895706  0.16603760  0.82602465  1
  Ca2+  Ca39  1  0.42170497  0.67375749  0.15337014  1
  Ca2+  Ca40  1  0.42231453  0.67437462  0.50080225  1
  Ca2+  Ca41  1  0.42123233  0.67322639  0.82660077  1
  Ca2+  Ca42  1  0.92175021  0.17029132  0.16279723  1
  Ca2+  Ca43  1  0.92533378  0.15453714  0.49553083  1
  Ca2+  Ca44  1  0.92051229  0.17269932  0.82532901  1
  Ca2+  Ca45  1  0.91460002  0.66523496  0.16012406  1
  Ca2+  Ca46  1  0.92131994  0.66665202  0.49983341  1
  Ca2+  Ca47  1  0.92035481  0.66201821  0.82973319  1
  Al0+  Al48  1  0.00091282  0.00002597  -0.00288912  1
  Al0+  Al49  1  0.00211783  -0.00232165  0.33233888  1
  Al0+  Al50  1  0.00060691  -0.00025791  0.66771633  1
  Al0+  Al51  1  -0.00297022  0.49868765  0.00272148  1
  Al0+  Al52  1  0.00066111  0.49905306  0.33591670  1
  Al0+  Al53  1  -0.00234041  0.49896593  0.66070203  1
  Al0+  Al54  1  0.50072090  0.00038995  0.00148699  1
  Al0+  Al55  1  0.49969182  -0.00052477  0.33602865  1
  Al0+  Al56  1  0.49980068  0.00166350  0.66638314  1
  Al0+  Al57  1  0.49854933  0.49820177  0.00466496  1
  Al0+  Al58  1  0.50029286  0.49992665  0.33536686  1
  Al0+  Al59  1  0.49646263  0.50126275  0.66648862  1
  Al0+  Al60  1  0.25155171  0.24743157  0.00683355  1
  Al0+  Al61  1  0.25108838  0.25177176  0.33558656  1
  Al0+  Al62  1  0.24762687  0.25065599  0.66828779  1
  Al0+  Al63  1  0.24894806  0.75287142  -0.00078061  1
  Al0+  Al64  1  0.25244284  0.74985345  0.33285160  1
  Al0+  Al65  1  0.24987739  0.74968124  0.65694753  1
  Al0+  Al66  1  0.75257367  0.24946633  -0.00145258  1
  Al0+  Al67  1  0.75184969  0.25153129  0.33849682  1
  Al0+  Al68  1  0.74924876  0.25131711  0.67052755  1
  Al0+  Al69  1  0.74983177  0.74952925  -0.00186468  1
  Al0+  Al70  1  0.75139346  0.74845840  0.33564727  1
  Al0+  Al71  1  0.75086087  0.74882056  0.66555621  1
  Al0+  Al72  1  0.17745161  0.42868052  0.01362762  1
  Al0+  Al73  1  0.57089626  0.67698092  0.98558096  1
  Al0+  Al74  1  0.81972241  0.57257160  0.01412414  1
  Al0+  Al75  1  0.18002150  0.92702678  0.34800203  1
  Al0+  Al76  1  0.07188218  0.17809709  0.31793956  1
  Al0+  Al77  1  0.07004307  0.67826247  0.65288410  1
  Al0+  Al78  1  0.07081422  0.17970283  0.65369313  1
  Al0+  Al79  1  0.43055968  0.82257827  0.64822810  1
  Al0+  Al80  1  0.57027426  0.18193634  0.65360942  1
  Al0+  Al81  1  0.67681992  0.43107472  0.68103263  1
  Al0+  Al82  1  0.67882440  0.92718687  0.34696773  1
  Al0+  Al83  1  0.67753798  0.42642097  0.01494043  1
  Al0+  Al84  1  0.57245524  0.67716611  0.65024281  1
  Al0+  Al85  1  0.32200912  0.06863130  0.01373910  1
  Al0+  Al86  1  0.31906756  0.07098367  0.68193604  1
  Al0+  Al87  1  0.67817396  0.92774724  0.68393065  1
  Al0+  Al88  1  0.32107906  0.57454757  0.01387649  1
  Al0+  Al89  1  0.17889698  0.43035746  0.34885967  1
  Al0+  Al90  1  0.82218887  0.07176668  0.34658692  1
  Al0+  Al91  1  0.42778602  0.82303867  0.98487709  1
  Al0+  Al92  1  0.92972857  0.32054890  0.98562765  1
  Al0+  Al93  1  0.82334855  0.07143676  0.68439421  1
  Al0+  Al94  1  0.32089800  0.07248943  0.35030732  1
  Al0+  Al95  1  0.67903343  0.43066026  0.34825499  1
  Si0+  Si96  1  0.06912493  0.67933993  0.98770229  1
  Si0+  Si97  1  0.17882370  0.92550547  0.68330341  1
  Si0+  Si98  1  0.92774986  0.32308628  0.31535597  1
  Si0+  Si99  1  0.57217284  0.17977947  0.98707547  1
  Si0+  Si100  1  0.68108822  0.93049101  0.01329857  1
  Si0+  Si101  1  0.43018990  0.32263410  0.31743341  1
  Si0+  Si102  1  0.82317810  0.57252034  0.35162465  1
  Si0+  Si103  1  0.92737703  0.32117525  0.64794217  1
  Si0+  Si104  1  0.32236689  0.57191400  0.35131307  1
  Si0+  Si105  1  0.57193736  0.17961823  0.31941637  1
  Si0+  Si106  1  0.82329742  0.57083256  0.68201676  1
  Si0+  Si107  1  0.31789988  0.57222718  0.68021067  1
  Si0+  Si108  1  0.82368738  0.07065919  0.01438161  1
  Si0+  Si109  1  0.57142525  0.67739333  0.31761433  1
  Si0+  Si110  1  0.42716533  0.31950630  0.98737929  1
  Si0+  Si111  1  0.92793966  0.82297143  0.64842166  1
  Si0+  Si112  1  0.17410129  0.92821343  0.01512833  1
  Si0+  Si113  1  0.07353422  0.17783652  0.98321897  1
  Si0+  Si114  1  0.07222100  0.67708727  0.31615581  1
  Si0+  Si115  1  0.17720967  0.42980599  0.68120449  1
  Si0+  Si116  1  0.43037501  0.82126854  0.31627992  1
  Si0+  Si117  1  0.92965341  0.81845999  0.31768786  1
  Si0+  Si118  1  0.42552716  0.32332613  0.65107590  1
  Si0+  Si119  1  0.92769457  0.82297231  0.98480208  1
  O2-  O120  1  0.24570297  -0.00548321  0.05750653  1
  O2-  O121  1  0.24695462  0.00215693  0.39952164  1
  O2-  O122  1  0.24609446  -0.00563348  0.72916171  1
  O2-  O123  1  0.24934603  0.50156664  0.06320895  1
  O2-  O124  1  0.25143642  0.50632440  0.39705574  1
  O2-  O125  1  0.24629971  0.50215155  0.72322768  1
  O2-  O126  1  0.75350452  -0.00068784  0.05675565  1
  O2-  O127  1  0.74684426  0.00320064  0.39571325  1
  O2-  O128  1  0.75041153  0.00007006  0.73455794  1
  O2-  O129  1  0.74626430  0.50219254  0.06415728  1
  O2-  O130  1  0.75373632  0.50488590  0.39523702  1
  O2-  O131  1  0.74931010  0.50849327  0.72595080  1
  O2-  O132  1  -0.00383496  0.25303311  0.27220267  1
  O2-  O133  1  -0.00714215  0.24945033  0.60436558  1
  O2-  O134  1  0.00662774  0.24797376  0.93897579  1
  O2-  O135  1  0.00124474  0.74807850  0.27377792  1
  O2-  O136  1  -0.00281373  0.75399619  0.60482651  1
  O2-  O137  1  -0.00135231  0.75072760  0.94456727  1
  O2-  O138  1  0.50069280  0.25003382  0.27585875  1
  O2-  O139  1  0.49584679  0.25681924  0.60607782  1
  O2-  O140  1  0.50245537  0.25289970  0.94580202  1
  O2-  O141  1  0.50372924  0.75160624  0.27526600  1
  O2-  O142  1  0.50653358  0.75392317  0.59818270  1
  O2-  O143  1  0.49541078  0.74603923  0.93653267  1
  O2-  O144  1  0.07101180  0.17583875  0.08872640  1
  O2-  O145  1  0.07084442  0.18032111  0.43104729  1
  O2-  O146  1  0.07290645  0.18541549  0.76694176  1
  O2-  O147  1  0.06812658  0.68099114  0.09292682  1
  O2-  O148  1  0.07039200  0.67679050  0.42120765  1
  O2-  O149  1  0.06900700  0.67750913  0.76651184  1
  O2-  O150  1  0.57238480  0.17851733  0.09266921  1
  O2-  O151  1  0.57174637  0.18096369  0.42415161  1
  O2-  O152  1  0.56797051  0.18322219  0.76736082  1
  O2-  O153  1  0.57252473  0.68234400  0.10005848  1
  O2-  O154  1  0.56867119  0.67540405  0.42224032  1
  O2-  O155  1  0.56689433  0.67405183  0.76340485  1
  O2-  O156  1  0.17962531  0.43211655  0.23600184  1
  O2-  O157  1  0.17889830  0.43007786  0.57607284  1
  O2-  O158  1  0.17854572  0.43072411  0.89942432  1
  O2-  O159  1  0.18335359  0.92583061  0.23399862  1
  O2-  O160  1  0.17993581  0.92580304  0.57795222  1
  O2-  O161  1  0.16655340  0.92905246  0.91005639  1
  O2-  O162  1  0.67856746  0.43111770  0.23555669  1
  O2-  O163  1  0.67889336  0.43084226  0.56763186  1
  O2-  O164  1  0.67974689  0.42469847  0.90171141  1
  O2-  O165  1  0.68110772  0.92778087  0.23225727  1
  O2-  O166  1  0.68100617  0.93094654  0.57044244  1
  O2-  O167  1  0.68151155  0.93215378  0.90891736  1
  O2-  O168  1  0.42519087  0.31670698  0.09259394  1
  O2-  O169  1  0.43129175  0.32582712  0.42239740  1
  O2-  O170  1  0.42417587  0.32293375  0.75698007  1
  O2-  O171  1  0.43243127  0.82500170  0.09910709  1
  O2-  O172  1  0.42887333  0.82004429  0.42083203  1
  O2-  O173  1  0.42876099  0.81857113  0.76172252  1
  O2-  O174  1  0.92814818  0.31668415  0.09874785  1
  O2-  O175  1  0.92854941  0.32603354  0.42078504  1
  O2-  O176  1  0.93140979  0.32471301  0.75358693  1
  O2-  O177  1  0.92840064  0.82573720  0.08993620  1
  O2-  O178  1  0.92895025  0.81550305  0.42228917  1
  O2-  O179  1  0.92976649  0.82214636  0.75461666  1
  O2-  O180  1  0.32262176  0.06957479  0.23632764  1
  O2-  O181  1  0.31694696  0.07243692  0.56947040  1
  O2-  O182  1  0.32217757  0.07081544  0.90086069  1
  O2-  O183  1  0.32149602  0.57060622  0.24582876  1
  O2-  O184  1  0.31678043  0.56976542  0.57495892  1
  O2-  O185  1  0.31726599  0.57275855  0.89977838  1
  O2-  O186  1  0.81985373  0.06995311  0.23188956  1
  O2-  O187  1  0.82372948  0.06886090  0.57093852  1
  O2-  O188  1  0.82516592  0.06941581  0.90987772  1
  O2-  O189  1  0.82322348  0.57416011  0.24629185  1
  O2-  O190  1  0.82763914  0.56624556  0.57632224  1
  O2-  O191  1  0.82292495  0.57111262  0.90086312  1
  O2-  O192  1  0.04377630  0.08013688  0.26411979  1
  O2-  O193  1  0.04546224  0.08060043  0.60200416  1
  O2-  O194  1  0.04624460  0.08502469  0.93590662  1
  O2-  O195  1  0.04315286  0.58515654  0.26948030  1
  O2-  O196  1  0.03691492  0.58315364  0.59571041  1
  O2-  O197  1  0.04093102  0.58790371  0.94030080  1
  O2-  O198  1  0.54472871  0.08714306  0.27180851  1
  O2-  O199  1  0.53972554  0.08617994  0.59915832  1
  O2-  O200  1  0.54160348  0.08916372  0.93953602  1
  O2-  O201  1  0.54003067  0.58661099  0.26973648  1
  O2-  O202  1  0.53513050  0.58123705  0.59592079  1
  O2-  O203  1  0.54607723  0.57567228  0.93733982  1
  O2-  O204  1  0.16919535  0.21172972  0.26601243  1
  O2-  O205  1  0.16534116  0.21556131  0.59862066  1
  O2-  O206  1  0.16885138  0.20201854  0.94035131  1
  O2-  O207  1  0.16484420  0.70438754  0.26992407  1
  O2-  O208  1  0.16504096  0.70584222  0.59465378  1
  O2-  O209  1  0.16038600  0.70644117  0.93885042  1
  O2-  O210  1  0.66442639  0.20824004  0.27262442  1
  O2-  O211  1  0.66743207  0.21255825  0.60034008  1
  O2-  O212  1  0.66405168  0.20455172  0.93892789  1
  O2-  O213  1  0.66609347  0.70066969  0.27356579  1
  O2-  O214  1  0.67468039  0.69543442  0.60080721  1
  O2-  O215  1  0.66893375  0.70704410  0.93242844  1
  O2-  O216  1  0.08040114  0.45740600  0.06785358  1
  O2-  O217  1  0.08244867  0.46004557  0.40360828  1
  O2-  O218  1  0.08408309  0.45767366  0.72548491  1
  O2-  O219  1  0.08177798  0.95586509  0.06447659  1
  O2-  O220  1  0.07906906  0.94677007  0.39771857  1
  O2-  O221  1  0.08432603  0.94799834  0.72850676  1
  O2-  O222  1  0.57801194  0.44797787  0.06824773  1
  O2-  O223  1  0.58251222  0.46122781  0.40234192  1
  O2-  O224  1  0.57782964  0.45780755  0.73256511  1
  O2-  O225  1  0.59103570  0.96091456  0.06254570  1
  O2-  O226  1  0.57982877  0.95160410  0.39759769  1
  O2-  O227  1  0.58060508  0.95928188  0.73596507  1
  O2-  O228  1  0.20770777  0.33153800  0.06756171  1
  O2-  O229  1  0.21273935  0.33573291  0.40343150  1
  O2-  O230  1  0.20581590  0.33974422  0.73031039  1
  O2-  O231  1  0.19570365  0.83399087  0.06108995  1
  O2-  O232  1  0.20962031  0.82846798  0.40048035  1
  O2-  O233  1  0.20413851  0.83034757  0.72678246  1
  O2-  O234  1  0.71189256  0.32899230  0.06831784  1
  O2-  O235  1  0.70950589  0.33467273  0.40296476  1
  O2-  O236  1  0.70871423  0.33568599  0.73550392  1
  O2-  O237  1  0.70776132  0.83835222  0.06007898  1
  O2-  O238  1  0.70972100  0.82994819  0.39990651  1
  O2-  O239  1  0.70719716  0.82791830  0.73449571  1
  O2-  O240  1  0.45938972  0.41399700  0.26898386  1
  O2-  O241  1  0.44752787  0.41711160  0.60412634  1
  O2-  O242  1  0.44862355  0.41325532  0.94122117  1
  O2-  O243  1  0.45652898  0.91403729  0.26919496  1
  O2-  O244  1  0.45603641  0.92201758  0.59702760  1
  O2-  O245  1  0.46322708  0.91978864  0.93245973  1
  O2-  O246  1  0.95533000  0.41681819  0.26963393  1
  O2-  O247  1  0.95573158  0.41256066  0.59863956  1
  O2-  O248  1  0.95873841  0.41782793  0.93145334  1
  O2-  O249  1  0.95660059  0.90948498  0.26775744  1
  O2-  O250  1  0.95450787  0.91588985  0.60259164  1
  O2-  O251  1  0.95688679  0.91346541  0.93490822  1
  O2-  O252  1  0.33824850  0.29569593  0.27011905  1
  O2-  O253  1  0.33249767  0.29597509  0.60474515  1
  O2-  O254  1  0.33683070  0.28810537  0.93839666  1
  O2-  O255  1  0.33916118  0.79128845  0.26806454  1
  O2-  O256  1  0.33397697  0.78988815  0.59328247  1
  O2-  O257  1  0.32617406  0.80348748  0.93437335  1
  O2-  O258  1  0.83341712  0.29749050  0.27002299  1
  O2-  O259  1  0.83231612  0.29871355  0.60501088  1
  O2-  O260  1  0.83465868  0.28727552  0.92966041  1
  O2-  O261  1  0.83808939  0.78943755  0.26867619  1
  O2-  O262  1  0.83522261  0.79685957  0.60156354  1
  O2-  O263  1  0.83703210  0.79565201  0.93577380  1
  O2-  O264  1  0.41837225  0.03862664  0.06982272  1
  O2-  O265  1  0.41894296  0.04199421  0.40164614  1
  O2-  O266  1  0.41648440  0.04274774  0.73477035  1
  O2-  O267  1  0.41775825  0.54546951  0.06905762  1
  O2-  O268  1  0.41428423  0.54272631  0.39804354  1
  O2-  O269  1  0.40840115  0.54373209  0.72874516  1
  O2-  O270  1  0.91574808  0.04263075  0.06150388  1
  O2-  O271  1  0.91915003  0.03843625  0.39743137  1
  O2-  O272  1  0.92178298  0.04174340  0.73802802  1
  O2-  O273  1  0.91654343  0.54277620  0.06976253  1
  O2-  O274  1  0.91674565  0.54685013  0.39749003  1
  O2-  O275  1  0.91518671  0.53912281  0.72947226  1
  O2-  O276  1  0.29271985  0.16383758  0.07105257  1
  O2-  O277  1  0.29719694  0.17204703  0.40132126  1
  O2-  O278  1  0.28638687  0.16790080  0.73588622  1
  O2-  O279  1  0.29228067  0.67298789  0.06684132  1
  O2-  O280  1  0.29918612  0.66618616  0.39586799  1
  O2-  O281  1  0.28929102  0.66437253  0.72545958  1
  O2-  O282  1  0.79472827  0.16153395  0.06177171  1
  O2-  O283  1  0.79956658  0.17060330  0.39973221  1
  O2-  O284  1  0.79516578  0.17032754  0.73565631  1
  O2-  O285  1  0.79518581  0.67243969  0.06787687  1
  O2-  O286  1  0.79969933  0.66580239  0.39867379  1
  O2-  O287  1  0.80787548  0.66739441  0.72458970  1
