# generated using pymatgen
data_Ca2Al2SiO7
_symmetry_space_group_name_H-M   'P 1'
_cell_length_a   15.46500044
_cell_length_b   15.46688825
_cell_length_c   15.29093783
_cell_angle_alpha   89.99639354
_cell_angle_beta   90.00879122
_cell_angle_gamma   89.99971573
_symmetry_Int_Tables_number   1
_chemical_formula_structural   Ca2Al2SiO7
_chemical_formula_sum   'Ca48 Al48 Si24 O168'
_cell_volume   3657.52245290
_cell_formula_units_Z   24
loop_
 _symmetry_equiv_pos_site_id
 _symmetry_equiv_pos_as_xyz
  1  'x, y, z'
loop_
 _atom_type_symbol
 _atom_type_oxidation_number
  Ca2+  2.0
  Al0+  0.0
  Si0+  0.0
  O2-  -2.0
loop_
 _atom_site_type_symbol
 _atom_site_label
 _atom_site_symmetry_multiplicity
 _atom_site_fract_x
 _atom_site_fract_y
 _atom_site_fract_z
 _atom_site_occupancy
  Ca2+  Ca0  1  0.16415937  0.07772959  0.17127462  1
  Ca2+  Ca1  1  0.16701338  0.06722916  0.50529223  1
  Ca2+  Ca2  1  0.16009052  0.07720471  0.83783744  1
  Ca2+  Ca3  1  0.16331448  0.58865538  0.17006893  1
  Ca2+  Ca4  1  0.16983909  0.58672066  0.51130966  1
  Ca2+  Ca5  1  0.16835805  0.59058234  0.83358537  1
  Ca2+  Ca6  1  0.66741511  0.07703947  0.16543820  1
  Ca2+  Ca7  1  0.66604282  0.07412379  0.50012217  1
  Ca2+  Ca8  1  0.67241398  0.07482560  0.84693241  1
  Ca2+  Ca9  1  0.68026638  0.57711632  0.17305237  1
  Ca2+  Ca10  1  0.67389584  0.59240543  0.50273333  1
  Ca2+  Ca11  1  0.67894220  0.58565730  0.84042047  1
  Ca2+  Ca12  1  0.07415480  0.32431045  0.15401717  1
  Ca2+  Ca13  1  0.08399774  0.33817138  0.49859893  1
  Ca2+  Ca14  1  0.07991760  0.33195212  0.83374842  1
  Ca2+  Ca15  1  0.07693767  0.82439260  0.16051020  1
  Ca2+  Ca16  1  0.08415022  0.82528280  0.49543339  1
  Ca2+  Ca17  1  0.07004390  0.82499776  0.82824743  1
  Ca2+  Ca18  1  0.58545504  0.33332880  0.15422645  1
  Ca2+  Ca19  1  0.58593790  0.33446849  0.49320764  1
  Ca2+  Ca20  1  0.58777875  0.33371917  0.83670974  1
  Ca2+  Ca21  1  0.58786661  0.83398140  0.16605234  1
  Ca2+  Ca22  1  0.57962440  0.82061027  0.49096603  1
  Ca2+  Ca23  1  0.58653462  0.82799931  0.82666592  1
  Ca2+  Ca24  1  0.33373778  0.41534174  0.16659441  1
  Ca2+  Ca25  1  0.32502567  0.42698646  0.51122902  1
  Ca2+  Ca26  1  0.32960104  0.41927789  0.83438057  1
  Ca2+  Ca27  1  0.32747840  0.91456949  0.17602154  1
  Ca2+  Ca28  1  0.32190614  0.90346845  0.50031758  1
  Ca2+  Ca29  1  0.32201543  0.91087969  0.83585428  1
  Ca2+  Ca30  1  0.83111739  0.42291651  0.16924841  1
  Ca2+  Ca31  1  0.82906620  0.43271254  0.50122590  1
  Ca2+  Ca32  1  0.83379747  0.42969180  0.84302968  1
  Ca2+  Ca33  1  0.82691309  0.91597072  0.16319730  1
  Ca2+  Ca34  1  0.82903328  0.90791742  0.50183972  1
  Ca2+  Ca35  1  0.83208030  0.91459218  0.84462034  1
  Ca2+  Ca36  1  0.42532041  0.17499709  0.15466829  1
  Ca2+  Ca37  1  0.41536167  0.17095554  0.49678289  1
  Ca2+  Ca38  1  0.42165674  0.17211126  0.83703385  1
  Ca2+  Ca39  1  0.42467225  0.67200310  0.16868956  1
  Ca2+  Ca40  1  0.42628154  0.66440706  0.49435600  1
  Ca2+  Ca41  1  0.42598901  0.66169971  0.82736037  1
  Ca2+  Ca42  1  0.91743835  0.17094154  0.15296111  1
  Ca2+  Ca43  1  0.91849699  0.17044830  0.49704937  1
  Ca2+  Ca44  1  0.91146387  0.17092042  0.83753277  1
  Ca2+  Ca45  1  0.92273504  0.66385357  0.15935534  1
  Ca2+  Ca46  1  0.92361723  0.66328970  0.49982406  1
  Ca2+  Ca47  1  0.91512791  0.67271997  0.82681065  1
  Al0+  Al48  1  -0.00059910  -0.00308257  -0.00117214  1
  Al0+  Al49  1  0.00195256  -0.00020901  0.33830093  1
  Al0+  Al50  1  -0.00123211  0.00262028  0.66607559  1
  Al0+  Al51  1  0.00508829  0.49754881  -0.00288517  1
  Al0+  Al52  1  -0.00080819  0.49859048  0.33244149  1
  Al0+  Al53  1  -0.00206675  0.49920662  0.67046897  1
  Al0+  Al54  1  0.49641351  0.00109605  -0.00101273  1
  Al0+  Al55  1  0.49994294  0.00329387  0.33553654  1
  Al0+  Al56  1  0.50022875  0.00156146  0.66518986  1
  Al0+  Al57  1  0.49733398  0.50218043  0.00026687  1
  Al0+  Al58  1  0.49911398  0.49949158  0.33133343  1
  Al0+  Al59  1  0.49917555  0.49750085  0.66478428  1
  Al0+  Al60  1  0.25127359  0.24980373  -0.00699930  1
  Al0+  Al61  1  0.25042903  0.24883415  0.33345536  1
  Al0+  Al62  1  0.25070887  0.24936705  0.66857738  1
  Al0+  Al63  1  0.25114619  0.74940729  -0.00125164  1
  Al0+  Al64  1  0.24996360  0.74933886  0.32985399  1
  Al0+  Al65  1  0.24974196  0.75098257  0.67573307  1
  Al0+  Al66  1  0.74984308  0.24845908  -0.00340129  1
  Al0+  Al67  1  0.75048655  0.25112083  0.33700590  1
  Al0+  Al68  1  0.75003088  0.24895572  0.66248356  1
  Al0+  Al69  1  0.74994276  0.74879957  0.00648635  1
  Al0+  Al70  1  0.75181949  0.75158774  0.33694772  1
  Al0+  Al71  1  0.74869832  0.75061054  0.66249397  1
  Al0+  Al72  1  0.92813921  0.82383321  0.64981446  1
  Al0+  Al73  1  0.17777645  0.92941079  0.68276907  1
  Al0+  Al74  1  0.32249029  0.57183357  0.68265264  1
  Al0+  Al75  1  0.56968370  0.67802006  0.65453530  1
  Al0+  Al76  1  0.67763756  0.42902355  0.34817082  1
  Al0+  Al77  1  0.67807568  0.93058649  0.34890383  1
  Al0+  Al78  1  0.07033682  0.67926484  0.65209678  1
  Al0+  Al79  1  0.57168729  0.17790062  0.98448616  1
  Al0+  Al80  1  0.06956392  0.67825085  0.32041891  1
  Al0+  Al81  1  0.67501457  0.92733630  0.01419547  1
  Al0+  Al82  1  0.42971862  0.32430868  0.98292887  1
  Al0+  Al83  1  0.07373510  0.67742569  0.98411881  1
  Al0+  Al84  1  0.07122564  0.17639443  0.98513021  1
  Al0+  Al85  1  0.92757426  0.32101328  0.98428721  1
  Al0+  Al86  1  0.81780737  0.57186598  0.68104024  1
  Al0+  Al87  1  0.67782581  0.43048343  0.01194260  1
  Al0+  Al88  1  0.17765729  0.42794827  0.68315060  1
  Al0+  Al89  1  0.82545981  0.57068017  0.01512025  1
  Al0+  Al90  1  0.92690683  0.81709489  0.98724960  1
  Al0+  Al91  1  0.82326800  0.57206663  0.34971219  1
  Al0+  Al92  1  0.57419364  0.67791718  0.31558510  1
  Al0+  Al93  1  0.42964567  0.82160324  0.31954646  1
  Al0+  Al94  1  0.82207104  0.06995950  0.01368672  1
  Al0+  Al95  1  0.18031123  0.92825591  0.34636014  1
  Si0+  Si96  1  0.67802628  0.42502509  0.68236024  1
  Si0+  Si97  1  0.42837643  0.31915954  0.64910132  1
  Si0+  Si98  1  0.31909772  0.07208563  0.01524233  1
  Si0+  Si99  1  0.31939542  0.57014401  0.34639389  1
  Si0+  Si100  1  0.57153794  0.17881220  0.64864888  1
  Si0+  Si101  1  0.67997475  0.93117483  0.67971712  1
  Si0+  Si102  1  0.92810682  0.32070603  0.64942288  1
  Si0+  Si103  1  0.42722893  0.32049362  0.31912515  1
  Si0+  Si104  1  0.32325057  0.07224588  0.68508092  1
  Si0+  Si105  1  0.18022274  0.92819583  0.01624007  1
  Si0+  Si106  1  0.56933049  0.68139165  0.98739779  1
  Si0+  Si107  1  0.18181063  0.42646417  0.01616811  1
  Si0+  Si108  1  0.07152104  0.17835297  0.32046026  1
  Si0+  Si109  1  0.32034233  0.57241402  0.01838887  1
  Si0+  Si110  1  0.92883724  0.82563046  0.31618814  1
  Si0+  Si111  1  0.92975978  0.31894754  0.31928075  1
  Si0+  Si112  1  0.57199272  0.18105345  0.31875844  1
  Si0+  Si113  1  0.32143058  0.07404107  0.35019907  1
  Si0+  Si114  1  0.17977351  0.42656737  0.34541375  1
  Si0+  Si115  1  0.82276313  0.07266113  0.35115365  1
  Si0+  Si116  1  0.07267045  0.18007950  0.64918413  1
  Si0+  Si117  1  0.42826590  0.82437238  0.65223601  1
  Si0+  Si118  1  0.82026452  0.07398129  0.68099420  1
  Si0+  Si119  1  0.42772820  0.82258714  0.98508299  1
  O2-  O120  1  0.24821849  0.00218130  0.05891782  1
  O2-  O121  1  0.25725151  0.00123750  0.39386942  1
  O2-  O122  1  0.25514662  0.00310901  0.72889449  1
  O2-  O123  1  0.24881777  0.50103906  0.05946500  1
  O2-  O124  1  0.24785994  0.49941798  0.38798070  1
  O2-  O125  1  0.24677285  0.50323128  0.73274983  1
  O2-  O126  1  0.74733446  0.00036387  0.06277899  1
  O2-  O127  1  0.75627830  0.00226449  0.39627917  1
  O2-  O128  1  0.75336591  -0.00100601  0.72166314  1
  O2-  O129  1  0.75399745  0.49660629  0.06329835  1
  O2-  O130  1  0.74393945  0.50595933  0.39833187  1
  O2-  O131  1  0.74218113  0.49706212  0.72594328  1
  O2-  O132  1  -0.00025094  0.24687239  0.27742868  1
  O2-  O133  1  0.00321735  0.25289748  0.60675974  1
  O2-  O134  1  -0.00171539  0.24678805  0.93442305  1
  O2-  O135  1  -0.00659147  0.75181640  0.27455989  1
  O2-  O136  1  0.00162361  0.75310693  0.59963598  1
  O2-  O137  1  -0.00521192  0.74211453  0.93617091  1
  O2-  O138  1  0.50283319  0.25439731  0.27781631  1
  O2-  O139  1  0.50104980  0.25016689  0.60572535  1
  O2-  O140  1  0.50494946  0.25501778  0.93383962  1
  O2-  O141  1  0.50529392  0.75479547  0.26718489  1
  O2-  O142  1  0.49201765  0.75097720  0.60926159  1
  O2-  O143  1  0.50389863  0.75736093  0.94401847  1
  O2-  O144  1  0.07343476  0.17915420  0.09962811  1
  O2-  O145  1  0.07223704  0.18078246  0.42570691  1
  O2-  O146  1  0.07244989  0.17886061  0.75356024  1
  O2-  O147  1  0.07694080  0.68310579  0.09804929  1
  O2-  O148  1  0.07320668  0.67769203  0.43314055  1
  O2-  O149  1  0.06795012  0.68068309  0.76495264  1
  O2-  O150  1  0.56622306  0.17554553  0.09842209  1
  O2-  O151  1  0.57004027  0.18143364  0.42450857  1
  O2-  O152  1  0.57210423  0.17726793  0.75276672  1
  O2-  O153  1  0.56568022  0.68055656  0.09203415  1
  O2-  O154  1  0.56862181  0.67715511  0.42944997  1
  O2-  O155  1  0.57045380  0.68159813  0.76810313  1
  O2-  O156  1  0.18267802  0.42182737  0.24067240  1
  O2-  O157  1  0.18226281  0.42555370  0.56837507  1
  O2-  O158  1  0.18468501  0.42337044  0.91175112  1
  O2-  O159  1  0.18049481  0.93259752  0.23335267  1
  O2-  O160  1  0.18024300  0.93075005  0.56927742  1
  O2-  O161  1  0.18363953  0.92878848  0.91131523  1
  O2-  O162  1  0.68119451  0.42347429  0.23539064  1
  O2-  O163  1  0.68118829  0.42132092  0.57676198  1
  O2-  O164  1  0.67601409  0.43702643  0.89816840  1
  O2-  O165  1  0.67610968  0.93564382  0.23660756  1
  O2-  O166  1  0.67822710  0.93463546  0.57467015  1
  O2-  O167  1  0.67392717  0.92765756  0.90000765  1
  O2-  O168  1  0.42739164  0.32053257  0.09720669  1
  O2-  O169  1  0.42286812  0.31663440  0.42423507  1
  O2-  O170  1  0.42790775  0.31787121  0.75341783  1
  O2-  O171  1  0.42343674  0.82068275  0.08981991  1
  O2-  O172  1  0.42734647  0.81622578  0.43322181  1
  O2-  O173  1  0.43339861  0.82969037  0.75792393  1
  O2-  O174  1  0.93197867  0.31990658  0.09867716  1
  O2-  O175  1  0.93219582  0.31791991  0.42477668  1
  O2-  O176  1  0.92431709  0.31664212  0.75359469  1
  O2-  O177  1  0.93042780  0.81986587  0.10101227  1
  O2-  O178  1  0.93324464  0.82987696  0.42160145  1
  O2-  O179  1  0.92624831  0.82410318  0.76293852  1
  O2-  O180  1  0.31775329  0.07979502  0.24502417  1
  O2-  O181  1  0.32270974  0.07447146  0.57920471  1
  O2-  O182  1  0.31986273  0.07011967  0.91025358  1
  O2-  O183  1  0.31915519  0.56851460  0.24113023  1
  O2-  O184  1  0.32414188  0.56827676  0.56836305  1
  O2-  O185  1  0.32203620  0.57382160  0.91372165  1
  O2-  O186  1  0.82284027  0.07569698  0.24634646  1
  O2-  O187  1  0.81683420  0.07870287  0.57569914  1
  O2-  O188  1  0.82098230  0.06691962  0.89963788  1
  O2-  O189  1  0.82774336  0.56521721  0.23672812  1
  O2-  O190  1  0.81799028  0.57003757  0.56805304  1
  O2-  O191  1  0.82079777  0.57317643  0.90140885  1
  O2-  O192  1  0.04646594  0.08557203  0.27454928  1
  O2-  O193  1  0.04132088  0.09017812  0.59974548  1
  O2-  O194  1  0.04528691  0.07762145  0.93315940  1
  O2-  O195  1  0.04246588  0.57993463  0.26657195  1
  O2-  O196  1  0.04248678  0.57874212  0.60165470  1
  O2-  O197  1  0.06053218  0.57483559  0.93696650  1
  O2-  O198  1  0.54216495  0.09053527  0.27153757  1
  O2-  O199  1  0.54146460  0.08774390  0.59956166  1
  O2-  O200  1  0.53459073  0.08226255  0.92951751  1
  O2-  O201  1  0.53990975  0.58039785  0.26352764  1
  O2-  O202  1  0.54245093  0.58015231  0.60042890  1
  O2-  O203  1  0.53462276  0.59292861  0.93862060  1
  O2-  O204  1  0.16303894  0.20701542  0.27263933  1
  O2-  O205  1  0.16554795  0.20591601  0.60207723  1
  O2-  O206  1  0.16830133  0.20585074  0.93065790  1
  O2-  O207  1  0.16541128  0.70956779  0.26545514  1
  O2-  O208  1  0.17273958  0.70601390  0.60500387  1
  O2-  O209  1  0.17021412  0.71310782  0.93110233  1
  O2-  O210  1  0.66515937  0.20636598  0.27373128  1
  O2-  O211  1  0.66271455  0.20622567  0.59901575  1
  O2-  O212  1  0.67045617  0.19897992  0.93043115  1
  O2-  O213  1  0.67487068  0.70398622  0.26746490  1
  O2-  O214  1  0.66247391  0.71395548  0.59753265  1
  O2-  O215  1  0.66266993  0.70472647  0.94205613  1
  O2-  O216  1  0.08941445  0.44931590  0.06425153  1
  O2-  O217  1  0.08704703  0.45049737  0.39174660  1
  O2-  O218  1  0.07714817  0.44760445  0.73305389  1
  O2-  O219  1  0.08793696  0.95311138  0.06267238  1
  O2-  O220  1  0.08636166  0.96227266  0.40381050  1
  O2-  O221  1  0.08199295  0.96587575  0.73439044  1
  O2-  O222  1  0.57937502  0.46053772  0.06517596  1
  O2-  O223  1  0.57526015  0.44888540  0.39780209  1
  O2-  O224  1  0.58154216  0.44345874  0.72348091  1
  O2-  O225  1  0.57559718  0.95629186  0.06571755  1
  O2-  O226  1  0.58282279  0.96596738  0.40449573  1
  O2-  O227  1  0.58833259  0.96132606  0.72646985  1
  O2-  O228  1  0.21408538  0.33549440  0.06395576  1
  O2-  O229  1  0.20964143  0.33600977  0.39560377  1
  O2-  O230  1  0.21100394  0.33029396  0.73500199  1
  O2-  O231  1  0.21423607  0.83810499  0.06327680  1
  O2-  O232  1  0.21281129  0.83185492  0.39999353  1
  O2-  O233  1  0.20750338  0.83514009  0.74078402  1
  O2-  O234  1  0.69796990  0.32804099  0.05882634  1
  O2-  O235  1  0.71011166  0.33203621  0.40407475  1
  O2-  O236  1  0.70709297  0.33169783  0.72745837  1
  O2-  O237  1  0.70398087  0.83096293  0.07005633  1
  O2-  O238  1  0.70544109  0.83343193  0.40321820  1
  O2-  O239  1  0.70449152  0.83859947  0.72565442  1
  O2-  O240  1  0.44755890  0.41360515  0.27220185  1
  O2-  O241  1  0.45356946  0.41084937  0.60026463  1
  O2-  O242  1  0.45297756  0.42411929  0.93093278  1
  O2-  O243  1  0.45012104  0.92449455  0.27170678  1
  O2-  O244  1  0.45600632  0.91654379  0.60336191  1
  O2-  O245  1  0.44684860  0.91591499  0.93771703  1
  O2-  O246  1  0.95920364  0.40897892  0.27092809  1
  O2-  O247  1  0.95394608  0.41261078  0.60194855  1
  O2-  O248  1  0.96135233  0.41680989  0.93016704  1
  O2-  O249  1  0.95978045  0.91817400  0.27021533  1
  O2-  O250  1  0.95192859  0.92500486  0.59883923  1
  O2-  O251  1  0.95823357  0.91423423  0.93376328  1
  O2-  O252  1  0.33734482  0.28767108  0.26965275  1
  O2-  O253  1  0.33750796  0.28784830  0.60055422  1
  O2-  O254  1  0.33476164  0.28934452  0.92786044  1
  O2-  O255  1  0.33366626  0.78899633  0.26374199  1
  O2-  O256  1  0.33206933  0.80230117  0.61193059  1
  O2-  O257  1  0.33943030  0.78801733  0.93508451  1
  O2-  O258  1  0.83777483  0.29079381  0.27344033  1
  O2-  O259  1  0.83892292  0.28683564  0.59904323  1
  O2-  O260  1  0.82991963  0.29517838  0.92954713  1
  O2-  O261  1  0.83259595  0.80660808  0.27477585  1
  O2-  O262  1  0.83039171  0.79335753  0.59673212  1
  O2-  O263  1  0.82626628  0.79391100  0.93572279  1
  O2-  O264  1  0.40985711  0.04411566  0.06431991  1
  O2-  O265  1  0.41625914  0.05577439  0.39612450  1
  O2-  O266  1  0.41794801  0.04771838  0.72967761  1
  O2-  O267  1  0.41065373  0.54321437  0.06767637  1
  O2-  O268  1  0.41062192  0.54131402  0.39407861  1
  O2-  O269  1  0.41975593  0.53703924  0.73539132  1
  O2-  O270  1  0.92027050  0.04106786  0.06810585  1
  O2-  O271  1  0.91720399  0.04998743  0.39786810  1
  O2-  O272  1  0.91422725  0.05389613  0.72573305  1
  O2-  O273  1  0.92583699  0.54289079  0.06448778  1
  O2-  O274  1  0.91904489  0.53375823  0.40405625  1
  O2-  O275  1  0.91326694  0.53951208  0.73450512  1
  O2-  O276  1  0.29240330  0.16465596  0.06194897  1
  O2-  O277  1  0.28996852  0.16504198  0.40056980  1
  O2-  O278  1  0.29732227  0.16522952  0.73104752  1
  O2-  O279  1  0.29168434  0.66405002  0.06625080  1
  O2-  O280  1  0.29210162  0.66138142  0.39368723  1
  O2-  O281  1  0.30184814  0.67097286  0.73733314  1
  O2-  O282  1  0.79648408  0.16951704  0.06526262  1
  O2-  O283  1  0.79463509  0.16484052  0.39982146  1
  O2-  O284  1  0.78712791  0.16368872  0.72911540  1
  O2-  O285  1  0.79462248  0.66677946  0.07042461  1
  O2-  O286  1  0.80319272  0.67284378  0.40051342  1
  O2-  O287  1  0.78480560  0.66881221  0.73293304  1
