# generated using pymatgen
data_Ca2Al2SiO7
_symmetry_space_group_name_H-M   'P 1'
_cell_length_a   15.46075368
_cell_length_b   15.45901071
_cell_length_c   15.28523961
_cell_angle_alpha   89.99591849
_cell_angle_beta   89.99397543
_cell_angle_gamma   90.01692301
_symmetry_Int_Tables_number   1
_chemical_formula_structural   Ca2Al2SiO7
_chemical_formula_sum   'Ca48 Al48 Si24 O168'
_cell_volume   3653.29369940
_cell_formula_units_Z   24
loop_
 _symmetry_equiv_pos_site_id
 _symmetry_equiv_pos_as_xyz
  1  'x, y, z'
loop_
 _atom_type_symbol
 _atom_type_oxidation_number
  Ca2+  2.0
  Al0+  0.0
  Si0+  0.0
  O2-  -2.0
loop_
 _atom_site_type_symbol
 _atom_site_label
 _atom_site_symmetry_multiplicity
 _atom_site_fract_x
 _atom_site_fract_y
 _atom_site_fract_z
 _atom_site_occupancy
  Ca2+  Ca0  1  0.16512214  0.07370957  0.17479089  1
  Ca2+  Ca1  1  0.17822607  0.08558187  0.49917420  1
  Ca2+  Ca2  1  0.16961850  0.07861287  0.84008913  1
  Ca2+  Ca3  1  0.17876197  0.58013216  0.17515355  1
  Ca2+  Ca4  1  0.17582736  0.57542939  0.50668635  1
  Ca2+  Ca5  1  0.16915921  0.58499002  0.83278478  1
  Ca2+  Ca6  1  0.67148137  0.08006289  0.17343446  1
  Ca2+  Ca7  1  0.65519044  0.07922576  0.50161309  1
  Ca2+  Ca8  1  0.67367105  0.08433332  0.83732795  1
  Ca2+  Ca9  1  0.67475066  0.58909676  0.16690717  1
  Ca2+  Ca10  1  0.67079482  0.57471967  0.50993087  1
  Ca2+  Ca11  1  0.67553514  0.58172079  0.83479895  1
  Ca2+  Ca12  1  0.09647536  0.31968073  0.16756886  1
  Ca2+  Ca13  1  0.09055386  0.33313324  0.49244442  1
  Ca2+  Ca14  1  0.08772726  0.32905236  0.82941740  1
  Ca2+  Ca15  1  0.08199635  0.83918706  0.15725015  1
  Ca2+  Ca16  1  0.08310033  0.82975872  0.49946537  1
  Ca2+  Ca17  1  0.07390994  0.82943465  0.82803348  1
  Ca2+  Ca18  1  0.57652351  0.33000545  0.16786529  1
  Ca2+  Ca19  1  0.57986282  0.32389909  0.49226649  1
  Ca2+  Ca20  1  0.58519185  0.32826624  0.82413100  1
  Ca2+  Ca21  1  0.57020893  0.84000119  0.16708383  1
  Ca2+  Ca22  1  0.57658477  0.83177920  0.48983670  1
  Ca2+  Ca23  1  0.57531919  0.83247114  0.83149805  1
  Ca2+  Ca24  1  0.33314897  0.42619105  0.17672221  1
  Ca2+  Ca25  1  0.32721390  0.41805728  0.50444036  1
  Ca2+  Ca26  1  0.32919012  0.42871126  0.83468554  1
  Ca2+  Ca27  1  0.32401948  0.91573064  0.17597008  1
  Ca2+  Ca28  1  0.33422833  0.92539634  0.49817797  1
  Ca2+  Ca29  1  0.32744541  0.91999868  0.83966585  1
  Ca2+  Ca30  1  0.83539027  0.42287640  0.16754365  1
  Ca2+  Ca31  1  0.82725396  0.42146667  0.51069664  1
  Ca2+  Ca32  1  0.83164913  0.42783386  0.83409766  1
  Ca2+  Ca33  1  0.83091510  0.92012124  0.16910467  1
  Ca2+  Ca34  1  0.82769710  0.91518669  0.50201026  1
  Ca2+  Ca35  1  0.83787213  0.91733332  0.84125123  1
  Ca2+  Ca36  1  0.41420328  0.16788670  0.16985649  1
  Ca2+  Ca37  1  0.42054094  0.16722723  0.49015494  1
  Ca2+  Ca38  1  0.42237449  0.16655583  0.82264618  1
  Ca2+  Ca39  1  0.40731290  0.67576865  0.16256408  1
  Ca2+  Ca40  1  0.40984371  0.66866963  0.49321149  1
  Ca2+  Ca41  1  0.40474696  0.67115756  0.83267408  1
  Ca2+  Ca42  1  0.92934096  0.16129106  0.16030590  1
  Ca2+  Ca43  1  0.92654934  0.17157816  0.49245768  1
  Ca2+  Ca44  1  0.92254888  0.16251989  0.83349416  1
  Ca2+  Ca45  1  0.92036503  0.67404038  0.15702548  1
  Ca2+  Ca46  1  0.92112376  0.66511605  0.50175594  1
  Ca2+  Ca47  1  0.91558135  0.67342773  0.82298098  1
  Al0+  Al48  1  0.00015104  0.00034191  -0.00190104  1
  Al0+  Al49  1  -0.00174887  0.00000995  0.33544661  1
  Al0+  Al50  1  -0.00121927  0.00010148  0.65989957  1
  Al0+  Al51  1  -0.00049539  0.49708626  0.00555696  1
  Al0+  Al52  1  0.00101742  0.50207949  0.33441255  1
  Al0+  Al53  1  -0.00000321  0.50012359  0.67040641  1
  Al0+  Al54  1  0.50010908  0.00030107  -0.00601288  1
  Al0+  Al55  1  0.50149853  -0.00226367  0.33121482  1
  Al0+  Al56  1  0.50014784  -0.00015177  0.66857089  1
  Al0+  Al57  1  0.50031537  0.49962179  0.00298310  1
  Al0+  Al58  1  0.50485557  0.50066671  0.33154187  1
  Al0+  Al59  1  0.49836764  0.49985309  0.67529445  1
  Al0+  Al60  1  0.25236565  0.24984588  -0.00762129  1
  Al0+  Al61  1  0.25070564  0.24968114  0.33014051  1
  Al0+  Al62  1  0.25221786  0.24969286  0.67495925  1
  Al0+  Al63  1  0.24881643  0.75058558  0.00176039  1
  Al0+  Al64  1  0.24824599  0.74973776  0.33738081  1
  Al0+  Al65  1  0.24667662  0.75180160  0.66452587  1
  Al0+  Al66  1  0.75123762  0.25000310  0.00473001  1
  Al0+  Al67  1  0.75230164  0.25140227  0.32785759  1
  Al0+  Al68  1  0.75065738  0.24682306  0.66494790  1
  Al0+  Al69  1  0.74760444  0.74951240  0.00087838  1
  Al0+  Al70  1  0.75081939  0.75217913  0.33667510  1
  Al0+  Al71  1  0.74673877  0.75198044  0.66515761  1
  Al0+  Al72  1  0.32128894  0.07004845  0.34541760  1
  Al0+  Al73  1  0.42802780  0.81811674  0.32098014  1
  Al0+  Al74  1  0.07068459  0.67759319  0.65007218  1
  Al0+  Al75  1  0.81958731  0.57248295  0.68070876  1
  Al0+  Al76  1  0.31926186  0.57033249  0.01523741  1
  Al0+  Al77  1  0.82111602  0.57205151  0.01440974  1
  Al0+  Al78  1  0.32046527  0.57441609  0.68287430  1
  Al0+  Al79  1  0.07065546  0.17923737  0.32069766  1
  Al0+  Al80  1  0.18046283  0.93173301  0.01098502  1
  Al0+  Al81  1  0.42744773  0.82050815  0.98562902  1
  Al0+  Al82  1  0.18018426  0.42897207  0.34657538  1
  Al0+  Al83  1  0.92819762  0.81933247  0.98799833  1
  Al0+  Al84  1  0.82089446  0.07029099  0.01314212  1
  Al0+  Al85  1  0.17794996  0.42773312  0.68346520  1
  Al0+  Al86  1  0.42931514  0.32247443  0.31856355  1
  Al0+  Al87  1  0.67846586  0.42547307  0.68063124  1
  Al0+  Al88  1  0.32448380  0.57149393  0.34803803  1
  Al0+  Al89  1  0.68027958  0.93102976  0.34655582  1
  Al0+  Al90  1  0.07081911  0.17970926  0.98485432  1
  Al0+  Al91  1  0.17474355  0.92753991  0.35053802  1
  Al0+  Al92  1  0.57236547  0.17695964  0.31581404  1
  Al0+  Al93  1  0.57165699  0.17911335  0.65294817  1
  Al0+  Al94  1  0.32189972  0.06900488  0.68105867  1
  Al0+  Al95  1  0.92597498  0.82238371  0.64860539  1
  Si0+  Si96  1  0.67831424  0.42747965  0.01931324  1
  Si0+  Si97  1  0.07343999  0.17986651  0.65147377  1
  Si0+  Si98  1  0.17849921  0.42458064  0.01756396  1
  Si0+  Si99  1  0.92867372  0.32529387  0.31588087  1
  Si0+  Si100  1  0.92786761  0.82005367  0.31730184  1
  Si0+  Si101  1  0.82174962  0.07404093  0.35106767  1
  Si0+  Si102  1  0.67556118  0.92806867  0.01609689  1
  Si0+  Si103  1  0.07097897  0.67565628  0.98563372  1
  Si0+  Si104  1  0.57577569  0.67816381  0.31703573  1
  Si0+  Si105  1  0.56960482  0.67818408  0.65327623  1
  Si0+  Si106  1  0.42851926  0.82077680  0.65187479  1
  Si0+  Si107  1  0.32464911  0.07321850  0.01555083  1
  Si0+  Si108  1  0.06967672  0.67907494  0.31733289  1
  Si0+  Si109  1  0.82257597  0.06952596  0.68045814  1
  Si0+  Si110  1  0.82129306  0.57223547  0.34870707  1
  Si0+  Si111  1  0.92617134  0.32244174  0.98213398  1
  Si0+  Si112  1  0.92945105  0.31971337  0.65370996  1
  Si0+  Si113  1  0.57253518  0.18029490  0.98422541  1
  Si0+  Si114  1  0.43064239  0.32268221  0.98203773  1
  Si0+  Si115  1  0.57104292  0.67662959  0.98246903  1
  Si0+  Si116  1  0.67798607  0.92949659  0.68290042  1
  Si0+  Si117  1  0.42839190  0.32244174  0.65182068  1
  Si0+  Si118  1  0.17568324  0.93026559  0.68350086  1
  Si0+  Si119  1  0.68151032  0.42789616  0.34751381  1
  O2-  O120  1  0.25593550  0.00507791  0.05870784  1
  O2-  O121  1  0.24829433  -0.00021851  0.39747158  1
  O2-  O122  1  0.24498960  -0.00250580  0.72868331  1
  O2-  O123  1  0.24435791  0.49571280  0.06122819  1
  O2-  O124  1  0.25537238  0.49667043  0.39722228  1
  O2-  O125  1  0.24727300  0.50300240  0.73219210  1
  O2-  O126  1  0.74607650  -0.00452458  0.05907505  1
  O2-  O127  1  0.74965463  0.00961615  0.39602991  1
  O2-  O128  1  0.75312116  -0.00301652  0.72331385  1
  O2-  O129  1  0.74689712  0.49718951  0.06271439  1
  O2-  O130  1  0.75203731  0.49923292  0.38977068  1
  O2-  O131  1  0.74818439  0.49960316  0.73073769  1
  O2-  O132  1  -0.00249056  0.25613481  0.27340686  1
  O2-  O133  1  0.00525167  0.25437959  0.61033129  1
  O2-  O134  1  -0.00284221  0.25614630  0.93776163  1
  O2-  O135  1  0.00222408  0.75338328  0.27429186  1
  O2-  O136  1  -0.00288466  0.74894471  0.59972232  1
  O2-  O137  1  -0.00224353  0.73984087  0.94169141  1
  O2-  O138  1  0.49897920  0.24806245  0.26650851  1
  O2-  O139  1  0.49870396  0.25554666  0.60751571  1
  O2-  O140  1  0.50097300  0.24999116  0.94094214  1
  O2-  O141  1  0.50104774  0.74072164  0.27413358  1
  O2-  O142  1  0.49436489  0.74426247  0.61087257  1
  O2-  O143  1  0.50087744  0.74405463  0.93827917  1
  O2-  O144  1  0.07024486  0.17989750  0.09778801  1
  O2-  O145  1  0.06796989  0.18066978  0.43427182  1
  O2-  O146  1  0.07007866  0.17756531  0.75662173  1
  O2-  O147  1  0.07007995  0.67804100  0.09160909  1
  O2-  O148  1  0.06536784  0.67617702  0.42186347  1
  O2-  O149  1  0.07008412  0.68109124  0.76422206  1
  O2-  O150  1  0.57246562  0.18057503  0.08889101  1
  O2-  O151  1  0.57261744  0.18024317  0.42946567  1
  O2-  O152  1  0.57191355  0.17891913  0.76672942  1
  O2-  O153  1  0.57293917  0.67729630  0.08801354  1
  O2-  O154  1  0.58041779  0.68004721  0.42269414  1
  O2-  O155  1  0.57367321  0.68275809  0.75817836  1
  O2-  O156  1  0.17848577  0.43260804  0.23279397  1
  O2-  O157  1  0.18105637  0.42444358  0.57024273  1
  O2-  O158  1  0.17966052  0.42415197  0.91211091  1
  O2-  O159  1  0.17338262  0.92860527  0.23660571  1
  O2-  O160  1  0.17611141  0.93221856  0.57819021  1
  O2-  O161  1  0.18080770  0.93304832  0.89771150  1
  O2-  O162  1  0.68327190  0.42834649  0.24229427  1
  O2-  O163  1  0.68127376  0.42628938  0.56661600  1
  O2-  O164  1  0.67900274  0.42584273  0.91394329  1
  O2-  O165  1  0.68441644  0.92889279  0.23351085  1
  O2-  O166  1  0.67556270  0.93033489  0.57792108  1
  O2-  O167  1  0.67412491  0.92963762  0.91015363  1
  O2-  O168  1  0.43084379  0.32301721  0.08694380  1
  O2-  O169  1  0.43276448  0.32387239  0.43212437  1
  O2-  O170  1  0.43014469  0.31941741  0.75792840  1
  O2-  O171  1  0.42902812  0.82158245  0.09842802  1
  O2-  O172  1  0.43196756  0.81833749  0.43453783  1
  O2-  O173  1  0.43118215  0.82212523  0.75726799  1
  O2-  O174  1  0.92407924  0.32188756  0.08755658  1
  O2-  O175  1  0.92583498  0.32498269  0.42177329  1
  O2-  O176  1  0.92695553  0.31541453  0.75860753  1
  O2-  O177  1  0.92934964  0.81946724  0.10152021  1
  O2-  O178  1  0.92432106  0.81652155  0.42194662  1
  O2-  O179  1  0.92720220  0.82426427  0.76248768  1
  O2-  O180  1  0.31957737  0.06786615  0.23159799  1
  O2-  O181  1  0.32295976  0.06860818  0.56838478  1
  O2-  O182  1  0.32486648  0.07174883  0.90962301  1
  O2-  O183  1  0.32044135  0.57216135  0.23417552  1
  O2-  O184  1  0.32269064  0.57232258  0.56986162  1
  O2-  O185  1  0.31745566  0.56975499  0.90244593  1
  O2-  O186  1  0.82320930  0.07047972  0.24543280  1
  O2-  O187  1  0.82304495  0.07076716  0.57563661  1
  O2-  O188  1  0.81854324  0.07005564  0.89945249  1
  O2-  O189  1  0.82029655  0.57295232  0.24336894  1
  O2-  O190  1  0.81691628  0.56950961  0.56659389  1
  O2-  O191  1  0.81872918  0.57183763  0.90189951  1
  O2-  O192  1  0.03514312  0.08320797  0.26711141  1
  O2-  O193  1  0.04199556  0.09033975  0.60243903  1
  O2-  O194  1  0.03574703  0.08545925  0.92895971  1
  O2-  O195  1  0.03829745  0.58906822  0.26759042  1
  O2-  O196  1  0.04262588  0.57787021  0.59873435  1
  O2-  O197  1  0.05039424  0.57907458  0.94352447  1
  O2-  O198  1  0.54765792  0.07786297  0.26354381  1
  O2-  O199  1  0.53857448  0.08213737  0.60099870  1
  O2-  O200  1  0.54761819  0.08820298  0.93545876  1
  O2-  O201  1  0.56032739  0.58267909  0.27122506  1
  O2-  O202  1  0.54710019  0.58333504  0.60933457  1
  O2-  O203  1  0.54860932  0.58154585  0.93797295  1
  O2-  O204  1  0.16650867  0.20652587  0.26414879  1
  O2-  O205  1  0.16708158  0.20608465  0.60782302  1
  O2-  O206  1  0.16796578  0.20791973  0.92921831  1
  O2-  O207  1  0.16275993  0.70366755  0.27195476  1
  O2-  O208  1  0.16796144  0.70883135  0.59545794  1
  O2-  O209  1  0.16223615  0.70619256  0.93871266  1
  O2-  O210  1  0.67117058  0.20771380  0.26316121  1
  O2-  O211  1  0.66920216  0.20509047  0.59806070  1
  O2-  O212  1  0.66493163  0.20966353  0.93812670  1
  O2-  O213  1  0.66688479  0.71173799  0.26897253  1
  O2-  O214  1  0.65861778  0.70945747  0.60221731  1
  O2-  O215  1  0.66344686  0.70513033  0.93505371  1
  O2-  O216  1  0.08283413  0.44241105  0.06220728  1
  O2-  O217  1  0.08153750  0.45915486  0.39936603  1
  O2-  O218  1  0.07845565  0.45125885  0.73639732  1
  O2-  O219  1  0.08459723  0.96351974  0.06517163  1
  O2-  O220  1  0.07624625  0.95548124  0.40332984  1
  O2-  O221  1  0.08152447  0.95804834  0.72759783  1
  O2-  O222  1  0.58527778  0.45357824  0.06589575  1
  O2-  O223  1  0.59058249  0.45501228  0.39567822  1
  O2-  O224  1  0.58097890  0.45145401  0.73577733  1
  O2-  O225  1  0.58291866  0.95814040  0.06171098  1
  O2-  O226  1  0.58341238  0.95695723  0.40163797  1
  O2-  O227  1  0.58888660  0.96106461  0.73327529  1
  O2-  O228  1  0.20984499  0.33133046  0.06121431  1
  O2-  O229  1  0.20358147  0.32890991  0.39699317  1
  O2-  O230  1  0.20886266  0.33127069  0.73969424  1
  O2-  O231  1  0.20800852  0.83501145  0.06581381  1
  O2-  O232  1  0.20298525  0.82986448  0.40329866  1
  O2-  O233  1  0.20003241  0.83626193  0.72808723  1
  O2-  O234  1  0.70546453  0.33514721  0.06700639  1
  O2-  O235  1  0.71012770  0.33601910  0.39434945  1
  O2-  O236  1  0.71068057  0.32774964  0.73336195  1
  O2-  O237  1  0.69768377  0.83398755  0.06151852  1
  O2-  O238  1  0.71454206  0.83616002  0.40318022  1
  O2-  O239  1  0.70123284  0.83689929  0.73033034  1
  O2-  O240  1  0.46381719  0.41946216  0.26350308  1
  O2-  O241  1  0.45070921  0.41803859  0.60911683  1
  O2-  O242  1  0.46083080  0.41413667  0.93513343  1
  O2-  O243  1  0.46241989  0.91242406  0.26523043  1
  O2-  O244  1  0.46433634  0.90997695  0.60501037  1
  O2-  O245  1  0.46017438  0.91621346  0.92896130  1
  O2-  O246  1  0.95346968  0.41940667  0.26988005  1
  O2-  O247  1  0.95002990  0.41370806  0.60806648  1
  O2-  O248  1  0.94981780  0.41759120  0.93766378  1
  O2-  O249  1  0.95062457  0.91425568  0.27284790  1
  O2-  O250  1  0.95465835  0.92038151  0.59377983  1
  O2-  O251  1  0.96136815  0.91440560  0.93300282  1
  O2-  O252  1  0.33131409  0.29657643  0.26352166  1
  O2-  O253  1  0.33489847  0.29382668  0.60779699  1
  O2-  O254  1  0.33964369  0.29636284  0.93260443  1
  O2-  O255  1  0.32995713  0.78995109  0.26791145  1
  O2-  O256  1  0.33482465  0.80040297  0.60607241  1
  O2-  O257  1  0.33093184  0.78944348  0.93109865  1
  O2-  O258  1  0.83608683  0.30091212  0.26706852  1
  O2-  O259  1  0.84072838  0.28647472  0.60269035  1
  O2-  O260  1  0.83301534  0.29415796  0.93618015  1
  O2-  O261  1  0.83749536  0.78822224  0.26882156  1
  O2-  O262  1  0.82578407  0.79589746  0.59725424  1
  O2-  O263  1  0.82900420  0.79399468  0.93588102  1
  O2-  O264  1  0.41941630  0.04879266  0.05895666  1
  O2-  O265  1  0.41958601  0.04046687  0.39766121  1
  O2-  O266  1  0.41711968  0.03540651  0.73703369  1
  O2-  O267  1  0.41745523  0.54130405  0.06698871  1
  O2-  O268  1  0.42712764  0.55098246  0.39555200  1
  O2-  O269  1  0.41811853  0.54756172  0.73894528  1
  O2-  O270  1  0.91633902  0.03809490  0.06718893  1
  O2-  O271  1  0.91260104  0.04435808  0.39965792  1
  O2-  O272  1  0.91497885  0.04308004  0.72777122  1
  O2-  O273  1  0.91716046  0.54141841  0.07073205  1
  O2-  O274  1  0.91298168  0.54518902  0.39569427  1
  O2-  O275  1  0.91706909  0.54485733  0.73416886  1
  O2-  O276  1  0.30042503  0.16869361  0.05753157  1
  O2-  O277  1  0.29458230  0.16892825  0.39783231  1
  O2-  O278  1  0.29486995  0.16512535  0.73725199  1
  O2-  O279  1  0.28795083  0.66681088  0.06842844  1
  O2-  O280  1  0.29167387  0.66750436  0.40154652  1
  O2-  O281  1  0.29084186  0.67395289  0.73391870  1
  O2-  O282  1  0.79180865  0.16640538  0.06886851  1
  O2-  O283  1  0.80198340  0.17072302  0.39317613  1
  O2-  O284  1  0.79308517  0.15984838  0.72946425  1
  O2-  O285  1  0.78781308  0.66765705  0.07012393  1
  O2-  O286  1  0.79188350  0.66269441  0.39658122  1
  O2-  O287  1  0.78811018  0.67091317  0.73196042  1
