# generated using pymatgen
data_Ca2Al2SiO7
_symmetry_space_group_name_H-M   'P 1'
_cell_length_a   15.46283506
_cell_length_b   15.46362011
_cell_length_c   15.28804528
_cell_angle_alpha   89.99312539
_cell_angle_beta   89.99609660
_cell_angle_gamma   89.99300924
_symmetry_Int_Tables_number   1
_chemical_formula_structural   Ca2Al2SiO7
_chemical_formula_sum   'Ca48 Al48 Si24 O168'
_cell_volume   3655.54595919
_cell_formula_units_Z   24
loop_
 _symmetry_equiv_pos_site_id
 _symmetry_equiv_pos_as_xyz
  1  'x, y, z'
loop_
 _atom_type_symbol
 _atom_type_oxidation_number
  Ca2+  2.0
  Al0+  0.0
  Si0+  0.0
  O2-  -2.0
loop_
 _atom_site_type_symbol
 _atom_site_label
 _atom_site_symmetry_multiplicity
 _atom_site_fract_x
 _atom_site_fract_y
 _atom_site_fract_z
 _atom_site_occupancy
  Ca2+  Ca0  1  0.15329736  0.07447582  0.16544724  1
  Ca2+  Ca1  1  0.17594721  0.07631020  0.50891955  1
  Ca2+  Ca2  1  0.17193290  0.07812732  0.84132472  1
  Ca2+  Ca3  1  0.17232498  0.58878701  0.17198555  1
  Ca2+  Ca4  1  0.16096112  0.57681105  0.50189640  1
  Ca2+  Ca5  1  0.16862264  0.58426497  0.83746601  1
  Ca2+  Ca6  1  0.66336100  0.07742409  0.16511538  1
  Ca2+  Ca7  1  0.66504472  0.08205657  0.50555977  1
  Ca2+  Ca8  1  0.65947271  0.07921728  0.84051700  1
  Ca2+  Ca9  1  0.67936149  0.58305359  0.17673772  1
  Ca2+  Ca10  1  0.67686619  0.59392997  0.49888359  1
  Ca2+  Ca11  1  0.68174349  0.58748203  0.84038660  1
  Ca2+  Ca12  1  0.08073000  0.33200342  0.15938302  1
  Ca2+  Ca13  1  0.09034487  0.33679583  0.49741647  1
  Ca2+  Ca14  1  0.07956019  0.33833180  0.83168986  1
  Ca2+  Ca15  1  0.07321657  0.82358883  0.15997592  1
  Ca2+  Ca16  1  0.07949137  0.81641278  0.49168142  1
  Ca2+  Ca17  1  0.08731575  0.82123036  0.83414034  1
  Ca2+  Ca18  1  0.58863324  0.33065000  0.15955226  1
  Ca2+  Ca19  1  0.58300593  0.33202554  0.49728752  1
  Ca2+  Ca20  1  0.57629396  0.32201094  0.82543094  1
  Ca2+  Ca21  1  0.57984721  0.82823473  0.16752765  1
  Ca2+  Ca22  1  0.57133743  0.82691637  0.49467678  1
  Ca2+  Ca23  1  0.57854698  0.83523305  0.82905236  1
  Ca2+  Ca24  1  0.32661875  0.42992404  0.17442749  1
  Ca2+  Ca25  1  0.32472508  0.42191554  0.50413905  1
  Ca2+  Ca26  1  0.32944233  0.41796796  0.83626583  1
  Ca2+  Ca27  1  0.32679158  0.91564153  0.16840926  1
  Ca2+  Ca28  1  0.34193556  0.91856949  0.50669491  1
  Ca2+  Ca29  1  0.33160524  0.91957270  0.83819528  1
  Ca2+  Ca30  1  0.83458285  0.42639650  0.17123528  1
  Ca2+  Ca31  1  0.82787560  0.43002196  0.50076702  1
  Ca2+  Ca32  1  0.83746964  0.42687927  0.83838105  1
  Ca2+  Ca33  1  0.83319136  0.90850505  0.16762842  1
  Ca2+  Ca34  1  0.83464616  0.91346348  0.50141080  1
  Ca2+  Ca35  1  0.82530650  0.91467856  0.84615999  1
  Ca2+  Ca36  1  0.42391658  0.17193035  0.16037784  1
  Ca2+  Ca37  1  0.41373956  0.17307966  0.50452531  1
  Ca2+  Ca38  1  0.42429005  0.16655311  0.82337764  1
  Ca2+  Ca39  1  0.41792318  0.66050797  0.16551585  1
  Ca2+  Ca40  1  0.41613107  0.67518930  0.48843278  1
  Ca2+  Ca41  1  0.41396713  0.67189831  0.82920935  1
  Ca2+  Ca42  1  0.92158403  0.17858869  0.15525587  1
  Ca2+  Ca43  1  0.91866795  0.17102502  0.49452936  1
  Ca2+  Ca44  1  0.92181779  0.17220763  0.83632006  1
  Ca2+  Ca45  1  0.92451636  0.66394095  0.16027809  1
  Ca2+  Ca46  1  0.92345214  0.66090291  0.49458651  1
  Ca2+  Ca47  1  0.92476034  0.66300946  0.83093484  1
  Al0+  Al48  1  -0.00145956  0.00115040  -0.00345657  1
  Al0+  Al49  1  0.00009491  0.00008781  0.33344745  1
  Al0+  Al50  1  -0.00047027  0.00033977  0.66828078  1
  Al0+  Al51  1  0.00129085  0.49988318  -0.00358316  1
  Al0+  Al52  1  -0.00086452  0.49782798  0.33616824  1
  Al0+  Al53  1  -0.00012504  0.49927087  0.67046711  1
  Al0+  Al54  1  0.49998769  -0.00002842  0.00311163  1
  Al0+  Al55  1  0.50052273  0.00119366  0.32994521  1
  Al0+  Al56  1  0.50100335  0.00000171  0.66308018  1
  Al0+  Al57  1  0.50039395  0.50085457  0.00110393  1
  Al0+  Al58  1  0.49868651  0.49848416  0.33677225  1
  Al0+  Al59  1  0.50136636  0.49919573  0.66298206  1
  Al0+  Al60  1  0.25203948  0.25032458  -0.00177691  1
  Al0+  Al61  1  0.25203917  0.24761268  0.33418363  1
  Al0+  Al62  1  0.25103452  0.24872801  0.67243996  1
  Al0+  Al63  1  0.24994245  0.75239534  0.00487449  1
  Al0+  Al64  1  0.24780881  0.75298828  0.32982718  1
  Al0+  Al65  1  0.24796618  0.74879494  0.65698281  1
  Al0+  Al66  1  0.74937472  0.24882361  -0.01055289  1
  Al0+  Al67  1  0.75131145  0.24874107  0.33619728  1
  Al0+  Al68  1  0.75131539  0.24985400  0.66315469  1
  Al0+  Al69  1  0.74856622  0.74993577  0.00699470  1
  Al0+  Al70  1  0.74660882  0.75294202  0.33410838  1
  Al0+  Al71  1  0.75073916  0.75187966  0.67237194  1
  Al0+  Al72  1  0.92967205  0.32241654  0.98371671  1
  Al0+  Al73  1  0.92574719  0.81969948  0.98469193  1
  Al0+  Al74  1  0.81971947  0.57337182  0.34847276  1
  Al0+  Al75  1  0.06879917  0.67797367  0.65168899  1
  Al0+  Al76  1  0.82243094  0.56985899  0.01439596  1
  Al0+  Al77  1  0.42662584  0.32247350  0.65037247  1
  Al0+  Al78  1  0.67757443  0.92907179  0.01600050  1
  Al0+  Al79  1  0.18104144  0.42978260  0.68259869  1
  Al0+  Al80  1  0.17952756  0.42693584  0.34689141  1
  Al0+  Al81  1  0.56906973  0.67645497  0.31805185  1
  Al0+  Al82  1  0.92818387  0.82340139  0.31955600  1
  Al0+  Al83  1  0.07367997  0.17800789  0.98418715  1
  Al0+  Al84  1  0.42794853  0.82344451  0.31545428  1
  Al0+  Al85  1  0.42963296  0.81839649  0.65565579  1
  Al0+  Al86  1  0.57146583  0.17934237  0.64915528  1
  Al0+  Al87  1  0.67825631  0.42556233  0.34757605  1
  Al0+  Al88  1  0.56876769  0.17850239  0.98649712  1
  Al0+  Al89  1  0.32149851  0.57169854  0.01219454  1
  Al0+  Al90  1  0.06825217  0.67548988  0.31718130  1
  Al0+  Al91  1  0.32133655  0.06775400  0.68075480  1
  Al0+  Al92  1  0.31992807  0.57440701  0.34944128  1
  Al0+  Al93  1  0.81867683  0.57039562  0.68233366  1
  Al0+  Al94  1  0.17754655  0.93100240  0.01373976  1
  Al0+  Al95  1  0.07312042  0.68010613  0.98404889  1
  Si0+  Si96  1  0.57075912  0.67819530  0.98560427  1
  Si0+  Si97  1  0.93093578  0.32042762  0.64909027  1
  Si0+  Si98  1  0.17715830  0.93139478  0.34917254  1
  Si0+  Si99  1  0.07277360  0.17882827  0.32083484  1
  Si0+  Si100  1  0.68139939  0.93243917  0.68119908  1
  Si0+  Si101  1  0.67675426  0.93112697  0.35042847  1
  Si0+  Si102  1  0.82064161  0.07346425  0.01589452  1
  Si0+  Si103  1  0.17902210  0.42707392  0.01578007  1
  Si0+  Si104  1  0.42972105  0.82061364  0.98608431  1
  Si0+  Si105  1  0.32314658  0.06945192  0.34864631  1
  Si0+  Si106  1  0.67724870  0.42507393  0.68454849  1
  Si0+  Si107  1  0.57303589  0.18093075  0.31713603  1
  Si0+  Si108  1  0.42934333  0.32486441  0.98408484  1
  Si0+  Si109  1  0.92868063  0.31836460  0.32052842  1
  Si0+  Si110  1  0.32367035  0.57441915  0.68082121  1
  Si0+  Si111  1  0.42745867  0.31970133  0.31789250  1
  Si0+  Si112  1  0.57540578  0.67815219  0.65322470  1
  Si0+  Si113  1  0.07134039  0.17730571  0.65126337  1
  Si0+  Si114  1  0.82386538  0.07392495  0.68279057  1
  Si0+  Si115  1  0.82146507  0.07006655  0.34794996  1
  Si0+  Si116  1  0.67881615  0.42745767  0.01237850  1
  Si0+  Si117  1  0.92619921  0.82330842  0.65178679  1
  Si0+  Si118  1  0.32235392  0.07293158  0.01773873  1
  Si0+  Si119  1  0.17672608  0.92586740  0.68232964  1
  O2-  O120  1  0.24815911  0.01045019  0.06194422  1
  O2-  O121  1  0.25422374  -0.00357432  0.39100408  1
  O2-  O122  1  0.24702524  -0.00727590  0.72686431  1
  O2-  O123  1  0.24609138  0.49742573  0.05859922  1
  O2-  O124  1  0.24652150  0.50291770  0.39834235  1
  O2-  O125  1  0.25866314  0.50306526  0.72661179  1
  O2-  O126  1  0.75541765  0.00207275  0.06147068  1
  O2-  O127  1  0.75233119  -0.00186626  0.39180963  1
  O2-  O128  1  0.75292468  0.00267150  0.72381083  1
  O2-  O129  1  0.74878915  0.49275121  0.05853345  1
  O2-  O130  1  0.74358511  0.50395157  0.39752105  1
  O2-  O131  1  0.74125349  0.49774912  0.72886083  1
  O2-  O132  1  0.00502729  0.25260702  0.27955269  1
  O2-  O133  1  0.00163235  0.24843476  0.60669213  1
  O2-  O134  1  0.00458762  0.25246617  0.93363892  1
  O2-  O135  1  -0.00704774  0.74561117  0.26955141  1
  O2-  O136  1  -0.00554147  0.75492212  0.60794408  1
  O2-  O137  1  -0.00172007  0.74946184  0.93320942  1
  O2-  O138  1  0.50535945  0.25524014  0.27569835  1
  O2-  O139  1  0.50197843  0.25359417  0.59924581  1
  O2-  O140  1  0.49452379  0.25288646  0.94017404  1
  O2-  O141  1  0.49402294  0.74528037  0.26636126  1
  O2-  O142  1  0.49929349  0.73873482  0.60994372  1
  O2-  O143  1  0.49985221  0.74925860  0.94298009  1
  O2-  O144  1  0.06998471  0.18021561  0.09864857  1
  O2-  O145  1  0.07101841  0.17662407  0.42627294  1
  O2-  O146  1  0.06843751  0.17539619  0.75566701  1
  O2-  O147  1  0.07362151  0.68073832  0.09711584  1
  O2-  O148  1  0.06663808  0.67654009  0.43119680  1
  O2-  O149  1  0.07092741  0.67939153  0.76444958  1
  O2-  O150  1  0.56845866  0.17990314  0.10025312  1
  O2-  O151  1  0.57323688  0.17857275  0.42186129  1
  O2-  O152  1  0.56958734  0.17746280  0.76265836  1
  O2-  O153  1  0.56928253  0.67700223  0.09017478  1
  O2-  O154  1  0.57097594  0.68331279  0.43215341  1
  O2-  O155  1  0.57816110  0.68285747  0.75911471  1
  O2-  O156  1  0.18315897  0.41911213  0.23375612  1
  O2-  O157  1  0.17979480  0.43005940  0.56971153  1
  O2-  O158  1  0.18157210  0.42593435  0.91012088  1
  O2-  O159  1  0.17383963  0.93742281  0.24438997  1
  O2-  O160  1  0.17468518  0.93006561  0.57660230  1
  O2-  O161  1  0.18439385  0.92910207  0.90049849  1
  O2-  O162  1  0.68606727  0.41827998  0.23410685  1
  O2-  O163  1  0.68133419  0.42211307  0.57929092  1
  O2-  O164  1  0.67680093  0.43132797  0.90690571  1
  O2-  O165  1  0.67355518  0.93508448  0.24568956  1
  O2-  O166  1  0.68307250  0.93249531  0.57600025  1
  O2-  O167  1  0.67453969  0.93156441  0.90237663  1
  O2-  O168  1  0.43157451  0.32447794  0.08993923  1
  O2-  O169  1  0.42345953  0.31336900  0.42238773  1
  O2-  O170  1  0.42788440  0.31931290  0.76422427  1
  O2-  O171  1  0.43112690  0.82191423  0.09062916  1
  O2-  O172  1  0.43395738  0.82807399  0.42921065  1
  O2-  O173  1  0.43168998  0.81969063  0.76924454  1
  O2-  O174  1  0.92843120  0.32021597  0.09794021  1
  O2-  O175  1  0.92607593  0.31382910  0.42576369  1
  O2-  O176  1  0.93114154  0.31890352  0.75390233  1
  O2-  O177  1  0.92692285  0.81733001  0.09800252  1
  O2-  O178  1  0.93479159  0.82973001  0.43331514  1
  O2-  O179  1  0.92378045  0.82432625  0.75679021  1
  O2-  O180  1  0.32394957  0.07175329  0.24374924  1
  O2-  O181  1  0.31917589  0.06657773  0.56706595  1
  O2-  O182  1  0.32545456  0.06867109  0.91227183  1
  O2-  O183  1  0.31936220  0.56959952  0.23557835  1
  O2-  O184  1  0.32106257  0.57573167  0.57580610  1
  O2-  O185  1  0.32359795  0.57063453  0.89873369  1
  O2-  O186  1  0.82050787  0.07347934  0.24344354  1
  O2-  O187  1  0.82584052  0.07303772  0.57723211  1
  O2-  O188  1  0.81771246  0.07362919  0.91007724  1
  O2-  O189  1  0.82157933  0.56908852  0.23511304  1
  O2-  O190  1  0.81771969  0.57098767  0.56947882  1
  O2-  O191  1  0.81986296  0.57004908  0.90093519  1
  O2-  O192  1  0.03955921  0.08961178  0.27234697  1
  O2-  O193  1  0.04251448  0.08556860  0.60253086  1
  O2-  O194  1  0.04347000  0.08142400  0.92920062  1
  O2-  O195  1  0.04412529  0.57500851  0.26631497  1
  O2-  O196  1  0.03447821  0.58159561  0.59981845  1
  O2-  O197  1  0.04876027  0.58051917  0.93248012  1
  O2-  O198  1  0.54074088  0.09105594  0.26890255  1
  O2-  O199  1  0.54129590  0.08195865  0.59530799  1
  O2-  O200  1  0.53574561  0.08201344  0.93345239  1
  O2-  O201  1  0.54741463  0.57516656  0.26743051  1
  O2-  O202  1  0.56202762  0.58140693  0.61049685  1
  O2-  O203  1  0.54376775  0.58692116  0.93644194  1
  O2-  O204  1  0.16542069  0.20135133  0.27324673  1
  O2-  O205  1  0.16393745  0.20397635  0.60586154  1
  O2-  O206  1  0.17475914  0.20034488  0.93383888  1
  O2-  O207  1  0.16585996  0.70808651  0.26626645  1
  O2-  O208  1  0.16373098  0.70731870  0.59396455  1
  O2-  O209  1  0.17108563  0.71406896  0.93185333  1
  O2-  O210  1  0.66632387  0.20493297  0.27062514  1
  O2-  O211  1  0.67195404  0.20404662  0.59726702  1
  O2-  O212  1  0.66419451  0.20482827  0.92906607  1
  O2-  O213  1  0.66631230  0.71040058  0.26558683  1
  O2-  O214  1  0.66518935  0.71431458  0.60553301  1
  O2-  O215  1  0.66178995  0.70857923  0.93912748  1
  O2-  O216  1  0.08422796  0.44932596  0.05948404  1
  O2-  O217  1  0.07933488  0.44834014  0.39963603  1
  O2-  O218  1  0.08480575  0.46132784  0.73642106  1
  O2-  O219  1  0.07995979  0.96121162  0.06707278  1
  O2-  O220  1  0.08891608  0.96642197  0.39970487  1
  O2-  O221  1  0.08383601  0.95350260  0.72904305  1
  O2-  O222  1  0.58609463  0.45309710  0.06027293  1
  O2-  O223  1  0.57668495  0.44278799  0.39721188  1
  O2-  O224  1  0.58067976  0.44425901  0.72715698  1
  O2-  O225  1  0.58328154  0.96478695  0.07198112  1
  O2-  O226  1  0.58747920  0.96646290  0.39873169  1
  O2-  O227  1  0.58994680  0.96144278  0.72822295  1
  O2-  O228  1  0.20476814  0.33309037  0.06204590  1
  O2-  O229  1  0.21181443  0.32858492  0.40102121  1
  O2-  O230  1  0.20844927  0.33248280  0.73686058  1
  O2-  O231  1  0.21287770  0.83810984  0.07089986  1
  O2-  O232  1  0.19884815  0.83782856  0.39432266  1
  O2-  O233  1  0.20234516  0.83114234  0.72482013  1
  O2-  O234  1  0.70170551  0.33132014  0.05432000  1
  O2-  O235  1  0.71334998  0.32962107  0.40397513  1
  O2-  O236  1  0.70773119  0.33223232  0.73036675  1
  O2-  O237  1  0.70468079  0.83313455  0.07209728  1
  O2-  O238  1  0.69892100  0.83921226  0.39945136  1
  O2-  O239  1  0.70689565  0.84130861  0.73125712  1
  O2-  O240  1  0.44731710  0.41372360  0.27304549  1
  O2-  O241  1  0.45029173  0.42240814  0.59775558  1
  O2-  O242  1  0.45782066  0.41648978  0.93549802  1
  O2-  O243  1  0.46323788  0.92014384  0.26164924  1
  O2-  O244  1  0.46608647  0.91222486  0.59989944  1
  O2-  O245  1  0.45943043  0.91215902  0.93917311  1
  O2-  O246  1  0.95196693  0.41072067  0.27399601  1
  O2-  O247  1  0.96028934  0.41153755  0.60271099  1
  O2-  O248  1  0.95835502  0.41912709  0.92831644  1
  O2-  O249  1  0.96116441  0.92060184  0.26515100  1
  O2-  O250  1  0.94990765  0.91835674  0.60650551  1
  O2-  O251  1  0.94821692  0.92078362  0.93496188  1
  O2-  O252  1  0.33996672  0.28271293  0.26723765  1
  O2-  O253  1  0.32954582  0.28661617  0.59851233  1
  O2-  O254  1  0.33479289  0.30264536  0.93947168  1
  O2-  O255  1  0.32611365  0.80584844  0.26696180  1
  O2-  O256  1  0.33290430  0.79565330  0.59852933  1
  O2-  O257  1  0.33823489  0.79369959  0.93884261  1
  O2-  O258  1  0.84024906  0.28316141  0.27127257  1
  O2-  O259  1  0.83984428  0.29140757  0.60115124  1
  O2-  O260  1  0.83349825  0.29142008  0.92715513  1
  O2-  O261  1  0.82466344  0.80807146  0.27452624  1
  O2-  O262  1  0.83208642  0.79821061  0.60584693  1
  O2-  O263  1  0.82508280  0.79283886  0.93477556  1
  O2-  O264  1  0.41277481  0.04123475  0.06680616  1
  O2-  O265  1  0.41557592  0.04334598  0.39593253  1
  O2-  O266  1  0.41858903  0.03638574  0.73328214  1
  O2-  O267  1  0.41783747  0.53968865  0.06726160  1
  O2-  O268  1  0.41853390  0.54623088  0.40165099  1
  O2-  O269  1  0.42044209  0.55499551  0.72417117  1
  O2-  O270  1  0.91590353  0.05398815  0.06034835  1
  O2-  O271  1  0.91343234  0.04405239  0.39737668  1
  O2-  O272  1  0.91564574  0.04771221  0.73105593  1
  O2-  O273  1  0.91981265  0.53881138  0.06595975  1
  O2-  O274  1  0.91560434  0.53822755  0.40241445  1
  O2-  O275  1  0.91346975  0.53483326  0.73579116  1
  O2-  O276  1  0.30491262  0.16953558  0.06126301  1
  O2-  O277  1  0.29204866  0.15934794  0.39764543  1
  O2-  O278  1  0.29101006  0.16292160  0.73633699  1
  O2-  O279  1  0.29353907  0.66799027  0.06711179  1
  O2-  O280  1  0.29574704  0.67596402  0.39791310  1
  O2-  O281  1  0.29363894  0.66756964  0.72635294  1
  O2-  O282  1  0.79039152  0.16654311  0.06125234  1
  O2-  O283  1  0.79200595  0.15980282  0.39900113  1
  O2-  O284  1  0.79663751  0.16611093  0.72890561  1
  O2-  O285  1  0.78824292  0.66397620  0.06939379  1
  O2-  O286  1  0.79276320  0.67307443  0.40127502  1
  O2-  O287  1  0.78970908  0.66777379  0.73689679  1
