# generated using pymatgen
data_Ca2Al2SiO7
_symmetry_space_group_name_H-M   'P 1'
_cell_length_a   15.45800147
_cell_length_b   15.45760932
_cell_length_c   15.28329459
_cell_angle_alpha   89.99987159
_cell_angle_beta   89.99243288
_cell_angle_gamma   90.02050816
_symmetry_Int_Tables_number   1
_chemical_formula_structural   Ca2Al2SiO7
_chemical_formula_sum   'Ca48 Al48 Si24 O168'
_cell_volume   3651.84741812
_cell_formula_units_Z   24
loop_
 _symmetry_equiv_pos_site_id
 _symmetry_equiv_pos_as_xyz
  1  'x, y, z'
loop_
 _atom_type_symbol
 _atom_type_oxidation_number
  Ca2+  2.0
  Al0+  0.0
  Si0+  0.0
  O2-  -2.0
loop_
 _atom_site_type_symbol
 _atom_site_label
 _atom_site_symmetry_multiplicity
 _atom_site_fract_x
 _atom_site_fract_y
 _atom_site_fract_z
 _atom_site_occupancy
  Ca2+  Ca0  1  0.16841802  0.08284924  0.17022375  1
  Ca2+  Ca1  1  0.18225365  0.07738305  0.50647578  1
  Ca2+  Ca2  1  0.16356580  0.07514326  0.83803809  1
  Ca2+  Ca3  1  0.17487346  0.57473446  0.17270059  1
  Ca2+  Ca4  1  0.17452263  0.58072487  0.49970345  1
  Ca2+  Ca5  1  0.17871677  0.58368211  0.83783787  1
  Ca2+  Ca6  1  0.66950848  0.08320158  0.17657799  1
  Ca2+  Ca7  1  0.67104187  0.08400049  0.50109903  1
  Ca2+  Ca8  1  0.67009760  0.09482734  0.83343869  1
  Ca2+  Ca9  1  0.67159392  0.57378766  0.17090152  1
  Ca2+  Ca10  1  0.67758790  0.58123031  0.50639777  1
  Ca2+  Ca11  1  0.66679324  0.56746554  0.83671537  1
  Ca2+  Ca12  1  0.07958292  0.32893685  0.15900280  1
  Ca2+  Ca13  1  0.08379507  0.33437524  0.49348902  1
  Ca2+  Ca14  1  0.07924707  0.33035879  0.83344233  1
  Ca2+  Ca15  1  0.07071699  0.83852375  0.15975216  1
  Ca2+  Ca16  1  0.07922301  0.83469325  0.49522367  1
  Ca2+  Ca17  1  0.08377328  0.83894319  0.83197402  1
  Ca2+  Ca18  1  0.58211678  0.32241331  0.15712879  1
  Ca2+  Ca19  1  0.58758399  0.32414341  0.49934328  1
  Ca2+  Ca20  1  0.58498490  0.32943478  0.83189339  1
  Ca2+  Ca21  1  0.57781137  0.83580831  0.16858858  1
  Ca2+  Ca22  1  0.57781221  0.83449839  0.48832855  1
  Ca2+  Ca23  1  0.58045866  0.82850458  0.82898819  1
  Ca2+  Ca24  1  0.33411031  0.42217564  0.17140892  1
  Ca2+  Ca25  1  0.33136185  0.42502317  0.50078064  1
  Ca2+  Ca26  1  0.34474374  0.42694650  0.84030929  1
  Ca2+  Ca27  1  0.32797563  0.92158852  0.17347806  1
  Ca2+  Ca28  1  0.33650518  0.92540967  0.50321353  1
  Ca2+  Ca29  1  0.32182838  0.92264065  0.83569215  1
  Ca2+  Ca30  1  0.83009677  0.41404753  0.17022817  1
  Ca2+  Ca31  1  0.82848889  0.42829679  0.50708428  1
  Ca2+  Ca32  1  0.82292960  0.41175981  0.83731170  1
  Ca2+  Ca33  1  0.82936917  0.91981137  0.17639264  1
  Ca2+  Ca34  1  0.83125064  0.92484775  0.49887670  1
  Ca2+  Ca35  1  0.83653782  0.92356026  0.83702302  1
  Ca2+  Ca36  1  0.42645009  0.16825416  0.16051705  1
  Ca2+  Ca37  1  0.42673585  0.15689487  0.49264780  1
  Ca2+  Ca38  1  0.42729082  0.16857380  0.82626845  1
  Ca2+  Ca39  1  0.40775525  0.66959804  0.16475666  1
  Ca2+  Ca40  1  0.41242000  0.67101247  0.49372931  1
  Ca2+  Ca41  1  0.41252061  0.66311265  0.82854709  1
  Ca2+  Ca42  1  0.92174370  0.16951479  0.15765863  1
  Ca2+  Ca43  1  0.91419002  0.16258707  0.49639925  1
  Ca2+  Ca44  1  0.91885770  0.16900896  0.83359663  1
  Ca2+  Ca45  1  0.91029851  0.67739257  0.16376545  1
  Ca2+  Ca46  1  0.91275341  0.67015997  0.48948373  1
  Ca2+  Ca47  1  0.91302699  0.67368039  0.82840175  1
  Al0+  Al48  1  -0.00095920  -0.00081040  -0.00334581  1
  Al0+  Al49  1  -0.00049056  -0.00001283  0.33233462  1
  Al0+  Al50  1  -0.00182794  0.00042288  0.67119300  1
  Al0+  Al51  1  0.00147829  0.50329509  -0.00479317  1
  Al0+  Al52  1  -0.00004580  0.49924667  0.33865784  1
  Al0+  Al53  1  0.00141916  0.50269315  0.66887142  1
  Al0+  Al54  1  0.50006649  -0.00200147  -0.00600695  1
  Al0+  Al55  1  0.50015032  -0.00238883  0.32957111  1
  Al0+  Al56  1  0.49982005  -0.00033625  0.66700959  1
  Al0+  Al57  1  0.50341662  0.50067743  0.00844594  1
  Al0+  Al58  1  0.50007630  0.49895882  0.33770860  1
  Al0+  Al59  1  0.50096032  0.49949001  0.66991383  1
  Al0+  Al60  1  0.25172313  0.25094695  -0.00952339  1
  Al0+  Al61  1  0.25051304  0.24929893  0.34087023  1
  Al0+  Al62  1  0.25054003  0.25088218  0.66799398  1
  Al0+  Al63  1  0.24783604  0.75223913  0.00873977  1
  Al0+  Al64  1  0.24835785  0.74849890  0.33043316  1
  Al0+  Al65  1  0.24778052  0.74941110  0.67179399  1
  Al0+  Al66  1  0.75097594  0.25030537  -0.00103332  1
  Al0+  Al67  1  0.75105866  0.24912100  0.33295125  1
  Al0+  Al68  1  0.74987478  0.24955463  0.66792225  1
  Al0+  Al69  1  0.74887192  0.75139909  -0.00576380  1
  Al0+  Al70  1  0.74825510  0.74988520  0.33482648  1
  Al0+  Al71  1  0.74986076  0.75102157  0.66756609  1
  Al0+  Al72  1  0.92791966  0.81970474  0.98424122  1
  Al0+  Al73  1  0.32216388  0.57252533  0.34900845  1
  Al0+  Al74  1  0.32139173  0.57008827  0.01572344  1
  Al0+  Al75  1  0.31915277  0.56868144  0.68014720  1
  Al0+  Al76  1  0.07216578  0.17828990  0.98463747  1
  Al0+  Al77  1  0.92913087  0.32391492  0.98502369  1
  Al0+  Al78  1  0.17808904  0.93244217  0.01705651  1
  Al0+  Al79  1  0.17867412  0.42742959  0.34736911  1
  Al0+  Al80  1  0.42753914  0.81929435  0.31929629  1
  Al0+  Al81  1  0.17934167  0.93053245  0.68067409  1
  Al0+  Al82  1  0.82267095  0.07226783  0.34646534  1
  Al0+  Al83  1  0.81934369  0.57049466  0.34419682  1
  Al0+  Al84  1  0.68243423  0.42806348  0.01676517  1
  Al0+  Al85  1  0.68130107  0.42935668  0.68168873  1
  Al0+  Al86  1  0.57033281  0.17956677  0.64952874  1
  Al0+  Al87  1  0.43048660  0.32391584  0.98628723  1
  Al0+  Al88  1  0.81916335  0.06974757  0.68215124  1
  Al0+  Al89  1  0.32142156  0.06937660  0.34380190  1
  Al0+  Al90  1  0.92906527  0.82041624  0.32043674  1
  Al0+  Al91  1  0.57090162  0.17680730  0.98387016  1
  Al0+  Al92  1  0.82346929  0.57425481  0.68329075  1
  Al0+  Al93  1  0.67826005  0.92919786  0.34661176  1
  Al0+  Al94  1  0.32456364  0.07294936  0.68314020  1
  Al0+  Al95  1  0.57107498  0.17972351  0.31963648  1
  Si0+  Si96  1  0.93006791  0.32176520  0.32088199  1
  Si0+  Si97  1  0.07256814  0.17929589  0.32145737  1
  Si0+  Si98  1  0.81868718  0.06926932  0.01442841  1
  Si0+  Si99  1  0.42799842  0.81837031  0.65338850  1
  Si0+  Si100  1  0.07068328  0.17780812  0.64991699  1
  Si0+  Si101  1  0.42680793  0.32241314  0.31871998  1
  Si0+  Si102  1  0.17654576  0.42651390  0.01405978  1
  Si0+  Si103  1  0.57098492  0.67815534  0.65204248  1
  Si0+  Si104  1  0.57026184  0.68011075  0.98548179  1
  Si0+  Si105  1  0.92843253  0.82188948  0.64970335  1
  Si0+  Si106  1  0.42726071  0.32445543  0.64773092  1
  Si0+  Si107  1  0.17626099  0.92804914  0.34799500  1
  Si0+  Si108  1  0.17648609  0.42670481  0.68534874  1
  Si0+  Si109  1  0.67819063  0.42561228  0.35036370  1
  Si0+  Si110  1  0.67649450  0.92729525  0.68409610  1
  Si0+  Si111  1  0.82263514  0.57483110  0.01510315  1
  Si0+  Si112  1  0.42610974  0.81971249  0.98397955  1
  Si0+  Si113  1  0.67714829  0.92619808  0.01399074  1
  Si0+  Si114  1  0.07384162  0.68028229  0.98265623  1
  Si0+  Si115  1  0.07096481  0.67564393  0.31540941  1
  Si0+  Si116  1  0.07190170  0.67995806  0.65063037  1
  Si0+  Si117  1  0.32394806  0.07282989  0.01510060  1
  Si0+  Si118  1  0.93048022  0.32121766  0.65064778  1
  Si0+  Si119  1  0.57205971  0.67566215  0.31695861  1
  O2-  O120  1  0.25188058  0.00885524  0.06170698  1
  O2-  O121  1  0.24838576  -0.00714163  0.39149143  1
  O2-  O122  1  0.24838129  0.00482291  0.73182998  1
  O2-  O123  1  0.24840107  0.49178520  0.05860220  1
  O2-  O124  1  0.25074092  0.49943391  0.39748323  1
  O2-  O125  1  0.24931174  0.49095210  0.72901589  1
  O2-  O126  1  0.74466477  0.00077627  0.05520980  1
  O2-  O127  1  0.74973737  0.00135872  0.39657534  1
  O2-  O128  1  0.74364592  -0.00370421  0.72973390  1
  O2-  O129  1  0.76116036  0.50063040  0.06078258  1
  O2-  O130  1  0.74421211  0.49762841  0.39287431  1
  O2-  O131  1  0.75378915  0.50075344  0.73296392  1
  O2-  O132  1  0.00085135  0.24996182  0.27965002  1
  O2-  O133  1  0.00324716  0.25229869  0.60681904  1
  O2-  O134  1  0.00264663  0.25332429  0.93488040  1
  O2-  O135  1  0.00290257  0.74545786  0.27186866  1
  O2-  O136  1  -0.00308066  0.74754009  0.60860397  1
  O2-  O137  1  0.00189525  0.74474466  0.93680010  1
  O2-  O138  1  0.49694095  0.25559601  0.27422300  1
  O2-  O139  1  0.49119052  0.25099321  0.60354028  1
  O2-  O140  1  0.49791970  0.24843510  0.93481695  1
  O2-  O141  1  0.49924506  0.74054062  0.27275120  1
  O2-  O142  1  0.50076698  0.74969691  0.60990749  1
  O2-  O143  1  0.49601686  0.74750790  0.94186441  1
  O2-  O144  1  0.06952769  0.17805306  0.09907206  1
  O2-  O145  1  0.07205527  0.17931532  0.42673082  1
  O2-  O146  1  0.06803676  0.17768777  0.75471333  1
  O2-  O147  1  0.07310517  0.68103454  0.08809644  1
  O2-  O148  1  0.07066616  0.67667685  0.42142667  1
  O2-  O149  1  0.07406829  0.68163566  0.75553372  1
  O2-  O150  1  0.57079748  0.17553032  0.09773895  1
  O2-  O151  1  0.57185460  0.18118033  0.43280256  1
  O2-  O152  1  0.57071677  0.18203294  0.76231435  1
  O2-  O153  1  0.57307980  0.68337449  0.09033914  1
  O2-  O154  1  0.57331786  0.67770043  0.42280544  1
  O2-  O155  1  0.56975664  0.67944600  0.75750552  1
  O2-  O156  1  0.17751959  0.42661497  0.23373730  1
  O2-  O157  1  0.17422798  0.42919743  0.57978769  1
  O2-  O158  1  0.17417339  0.43089365  0.90861755  1
  O2-  O159  1  0.17439482  0.93216710  0.24249518  1
  O2-  O160  1  0.18034826  0.92991212  0.56677611  1
  O2-  O161  1  0.18034445  0.93077254  0.90409787  1
  O2-  O162  1  0.68058828  0.42503845  0.24473412  1
  O2-  O163  1  0.68325802  0.43160647  0.56773569  1
  O2-  O164  1  0.68111581  0.43007200  0.90399622  1
  O2-  O165  1  0.67943123  0.92995923  0.23246972  1
  O2-  O166  1  0.67727132  0.92508861  0.57881146  1
  O2-  O167  1  0.67848579  0.92220342  0.90891797  1
  O2-  O168  1  0.43235614  0.32281701  0.10027625  1
  O2-  O169  1  0.42718256  0.32262090  0.42428770  1
  O2-  O170  1  0.43045351  0.32767954  0.75304432  1
  O2-  O171  1  0.42790025  0.82099773  0.08897834  1
  O2-  O172  1  0.42910888  0.81925023  0.43293788  1
  O2-  O173  1  0.42876346  0.81572627  0.75885356  1
  O2-  O174  1  0.92983820  0.32148090  0.09936167  1
  O2-  O175  1  0.93058416  0.32258857  0.42619604  1
  O2-  O176  1  0.93184477  0.31971101  0.75552689  1
  O2-  O177  1  0.92619669  0.81921644  0.09738087  1
  O2-  O178  1  0.93193114  0.82035140  0.43382745  1
  O2-  O179  1  0.92879343  0.82175054  0.75484710  1
  O2-  O180  1  0.31836080  0.07071264  0.23068927  1
  O2-  O181  1  0.32515948  0.06787703  0.56916397  1
  O2-  O182  1  0.32510523  0.06711409  0.90988694  1
  O2-  O183  1  0.31974056  0.57070830  0.23555622  1
  O2-  O184  1  0.31677620  0.57107868  0.56761723  1
  O2-  O185  1  0.32018584  0.57156366  0.90227459  1
  O2-  O186  1  0.82411215  0.07224660  0.23271663  1
  O2-  O187  1  0.82129588  0.06762314  0.56933921  1
  O2-  O188  1  0.81865492  0.06797887  0.90906164  1
  O2-  O189  1  0.81868074  0.56880463  0.23102139  1
  O2-  O190  1  0.82155403  0.57416216  0.56934466  1
  O2-  O191  1  0.81720676  0.57740486  0.90992986  1
  O2-  O192  1  0.04536709  0.08806461  0.27265661  1
  O2-  O193  1  0.03822350  0.08693324  0.60331001  1
  O2-  O194  1  0.03714250  0.08268809  0.93018884  1
  O2-  O195  1  0.04395075  0.58176636  0.27053356  1
  O2-  O196  1  0.04886193  0.58641528  0.60357405  1
  O2-  O197  1  0.05497983  0.58583096  0.93537178  1
  O2-  O198  1  0.54032162  0.08347826  0.26557353  1
  O2-  O199  1  0.54250728  0.07990677  0.59859940  1
  O2-  O200  1  0.54596939  0.07756493  0.92940862  1
  O2-  O201  1  0.55102606  0.57970159  0.27303748  1
  O2-  O202  1  0.54358047  0.58661757  0.60455515  1
  O2-  O203  1  0.54432264  0.58731962  0.94020027  1
  O2-  O204  1  0.16419944  0.20759758  0.27395577  1
  O2-  O205  1  0.16484907  0.20221029  0.60438348  1
  O2-  O206  1  0.17077306  0.20054622  0.92932550  1
  O2-  O207  1  0.16459695  0.69882143  0.26880708  1
  O2-  O208  1  0.16199366  0.71220753  0.60165094  1
  O2-  O209  1  0.16610788  0.71233801  0.93687560  1
  O2-  O210  1  0.66859768  0.20976343  0.26579848  1
  O2-  O211  1  0.66753800  0.21294722  0.59705521  1
  O2-  O212  1  0.66920116  0.20778453  0.93322741  1
  O2-  O213  1  0.66343101  0.70502374  0.26846569  1
  O2-  O214  1  0.66333886  0.70602703  0.60495112  1
  O2-  O215  1  0.65884209  0.71154624  0.93372180  1
  O2-  O216  1  0.08377836  0.45570046  0.06130295  1
  O2-  O217  1  0.08177591  0.45653341  0.40376047  1
  O2-  O218  1  0.08502292  0.45699753  0.73261567  1
  O2-  O219  1  0.07987532  0.96224720  0.06864371  1
  O2-  O220  1  0.08499841  0.95685534  0.39636731  1
  O2-  O221  1  0.08114460  0.95791845  0.73424725  1
  O2-  O222  1  0.58937765  0.46349570  0.07413112  1
  O2-  O223  1  0.58372027  0.44668308  0.39583356  1
  O2-  O224  1  0.58388581  0.45975042  0.73522745  1
  O2-  O225  1  0.58297277  0.94973067  0.05882441  1
  O2-  O226  1  0.58004110  0.95601501  0.39946288  1
  O2-  O227  1  0.58238847  0.94944299  0.72996295  1
  O2-  O228  1  0.19738124  0.33030806  0.05650560  1
  O2-  O229  1  0.20573558  0.33092787  0.40506957  1
  O2-  O230  1  0.19521928  0.33096695  0.72866111  1
  O2-  O231  1  0.20909409  0.83729153  0.07302088  1
  O2-  O232  1  0.19649397  0.83202991  0.39014548  1
  O2-  O233  1  0.20913135  0.83364462  0.73591288  1
  O2-  O234  1  0.71290096  0.33116328  0.07066697  1
  O2-  O235  1  0.70878326  0.33449841  0.39750420  1
  O2-  O236  1  0.71127254  0.33231303  0.73494750  1
  O2-  O237  1  0.70818500  0.83574120  0.06212109  1
  O2-  O238  1  0.70485719  0.83110381  0.40072613  1
  O2-  O239  1  0.70270313  0.83402442  0.73090623  1
  O2-  O240  1  0.45012992  0.41759736  0.27408578  1
  O2-  O241  1  0.45830211  0.41682138  0.60072615  1
  O2-  O242  1  0.46491467  0.42231454  0.93571134  1
  O2-  O243  1  0.46144889  0.91294523  0.26137660  1
  O2-  O244  1  0.45443877  0.91074940  0.60678227  1
  O2-  O245  1  0.45535607  0.90953270  0.93368331  1
  O2-  O246  1  0.95790643  0.41314022  0.27263787  1
  O2-  O247  1  0.95732854  0.41508637  0.60544052  1
  O2-  O248  1  0.95333902  0.42349032  0.93162871  1
  O2-  O249  1  0.96026854  0.91691375  0.26521713  1
  O2-  O250  1  0.95946312  0.91329266  0.60340559  1
  O2-  O251  1  0.96010553  0.91512512  0.92973905  1
  O2-  O252  1  0.33274511  0.29557420  0.27414957  1
  O2-  O253  1  0.33020025  0.30591143  0.60503965  1
  O2-  O254  1  0.33060719  0.30620629  0.93188806  1
  O2-  O255  1  0.32997797  0.79196971  0.26404967  1
  O2-  O256  1  0.33661704  0.78787273  0.60701152  1
  O2-  O257  1  0.33352219  0.79141054  0.93907266  1
  O2-  O258  1  0.83883050  0.29452639  0.27231700  1
  O2-  O259  1  0.83938004  0.29168662  0.60357999  1
  O2-  O260  1  0.83302780  0.29050357  0.93139051  1
  O2-  O261  1  0.83169333  0.78973292  0.26724941  1
  O2-  O262  1  0.83503072  0.79682574  0.60363124  1
  O2-  O263  1  0.83181772  0.79015717  0.92756462  1
  O2-  O264  1  0.41657471  0.04109705  0.06052585  1
  O2-  O265  1  0.41644548  0.03557292  0.39768825  1
  O2-  O266  1  0.42078791  0.03974248  0.73687105  1
  O2-  O267  1  0.41849732  0.54449194  0.07061419  1
  O2-  O268  1  0.42130547  0.54714723  0.40242362  1
  O2-  O269  1  0.41723947  0.54289728  0.73350608  1
  O2-  O270  1  0.90975025  0.03846635  0.06053557  1
  O2-  O271  1  0.92024161  0.04213807  0.40079637  1
  O2-  O272  1  0.91405885  0.03735730  0.73797704  1
  O2-  O273  1  0.92011831  0.55854311  0.05612370  1
  O2-  O274  1  0.91482670  0.54100454  0.40053999  1
  O2-  O275  1  0.92375202  0.55111608  0.73371214  1
  O2-  O276  1  0.30371462  0.16971855  0.05588831  1
  O2-  O277  1  0.29153309  0.16345315  0.40228015  1
  O2-  O278  1  0.30183877  0.17411836  0.73156699  1
  O2-  O279  1  0.28728556  0.66544995  0.06985650  1
  O2-  O280  1  0.29107229  0.67090261  0.40108756  1
  O2-  O281  1  0.28509902  0.66333465  0.73598187  1
  O2-  O282  1  0.79489380  0.16195615  0.06121761  1
  O2-  O283  1  0.79587725  0.17055012  0.40046539  1
  O2-  O284  1  0.78995031  0.16644011  0.73550200  1
  O2-  O285  1  0.78880400  0.66650443  0.06121989  1
  O2-  O286  1  0.78909855  0.66600532  0.40004067  1
  O2-  O287  1  0.79363129  0.67277004  0.73472310  1
