# generated using pymatgen
data_Ca2Al2SiO7
_symmetry_space_group_name_H-M   'P 1'
_cell_length_a   15.45341389
_cell_length_b   15.45373677
_cell_length_c   15.27997567
_cell_angle_alpha   90.00286596
_cell_angle_beta   89.98866713
_cell_angle_gamma   90.01739817
_symmetry_Int_Tables_number   1
_chemical_formula_structural   Ca2Al2SiO7
_chemical_formula_sum   'Ca48 Al48 Si24 O168'
_cell_volume   3649.05644120
_cell_formula_units_Z   24
loop_
 _symmetry_equiv_pos_site_id
 _symmetry_equiv_pos_as_xyz
  1  'x, y, z'
loop_
 _atom_type_symbol
 _atom_type_oxidation_number
  Ca2+  2.0
  Al0+  0.0
  Si0+  0.0
  O2-  -2.0
loop_
 _atom_site_type_symbol
 _atom_site_label
 _atom_site_symmetry_multiplicity
 _atom_site_fract_x
 _atom_site_fract_y
 _atom_site_fract_z
 _atom_site_occupancy
  Ca2+  Ca0  1  0.16900817  0.07510930  0.16958170  1
  Ca2+  Ca1  1  0.17267204  0.07748572  0.50299778  1
  Ca2+  Ca2  1  0.16183620  0.07305316  0.83555606  1
  Ca2+  Ca3  1  0.17237442  0.58126485  0.17060226  1
  Ca2+  Ca4  1  0.17948893  0.59162400  0.50155419  1
  Ca2+  Ca5  1  0.18201993  0.57926154  0.84127092  1
  Ca2+  Ca6  1  0.67864149  0.07895506  0.17522383  1
  Ca2+  Ca7  1  0.66371728  0.07106188  0.49980104  1
  Ca2+  Ca8  1  0.66999774  0.07704255  0.83678523  1
  Ca2+  Ca9  1  0.67781147  0.59220015  0.16675403  1
  Ca2+  Ca10  1  0.67705889  0.58365016  0.50994763  1
  Ca2+  Ca11  1  0.67041625  0.58216511  0.83400928  1
  Ca2+  Ca12  1  0.07944139  0.33168653  0.15755612  1
  Ca2+  Ca13  1  0.07482579  0.33694342  0.49736231  1
  Ca2+  Ca14  1  0.07300631  0.34332960  0.83239419  1
  Ca2+  Ca15  1  0.08027683  0.82724370  0.16036668  1
  Ca2+  Ca16  1  0.08424725  0.82721696  0.49468390  1
  Ca2+  Ca17  1  0.07817683  0.84060612  0.83169280  1
  Ca2+  Ca18  1  0.57742675  0.33561133  0.16623495  1
  Ca2+  Ca19  1  0.57394955  0.34149029  0.49899837  1
  Ca2+  Ca20  1  0.58055566  0.33530850  0.82292442  1
  Ca2+  Ca21  1  0.57954886  0.83170698  0.16332782  1
  Ca2+  Ca22  1  0.58437573  0.83090950  0.49498727  1
  Ca2+  Ca23  1  0.58791970  0.81937249  0.82757952  1
  Ca2+  Ca24  1  0.33128779  0.42636763  0.17114531  1
  Ca2+  Ca25  1  0.34066126  0.42554077  0.50506097  1
  Ca2+  Ca26  1  0.33493599  0.42488625  0.83760906  1
  Ca2+  Ca27  1  0.33008923  0.91621742  0.17446867  1
  Ca2+  Ca28  1  0.33312393  0.91749801  0.50240683  1
  Ca2+  Ca29  1  0.31899813  0.91235507  0.83682537  1
  Ca2+  Ca30  1  0.83813301  0.42743877  0.16877618  1
  Ca2+  Ca31  1  0.82952830  0.42646334  0.50898127  1
  Ca2+  Ca32  1  0.83621285  0.42511691  0.83766117  1
  Ca2+  Ca33  1  0.83141799  0.92269914  0.17107413  1
  Ca2+  Ca34  1  0.82047608  0.91733132  0.50259941  1
  Ca2+  Ca35  1  0.82996499  0.91913159  0.84048862  1
  Ca2+  Ca36  1  0.41283666  0.16930699  0.16737810  1
  Ca2+  Ca37  1  0.41261080  0.17812611  0.49101831  1
  Ca2+  Ca38  1  0.41751609  0.17593478  0.82571895  1
  Ca2+  Ca39  1  0.41895125  0.66693772  0.16336938  1
  Ca2+  Ca40  1  0.42253763  0.66684577  0.49359619  1
  Ca2+  Ca41  1  0.42711355  0.65615082  0.82851335  1
  Ca2+  Ca42  1  0.91059444  0.16968541  0.15701344  1
  Ca2+  Ca43  1  0.91197452  0.17106768  0.49801632  1
  Ca2+  Ca44  1  0.91077434  0.17897504  0.83078994  1
  Ca2+  Ca45  1  0.91841067  0.66845429  0.16011407  1
  Ca2+  Ca46  1  0.92216594  0.66054371  0.49268774  1
  Ca2+  Ca47  1  0.91186020  0.66856873  0.83096227  1
  Al0+  Al48  1  0.00029609  -0.00030134  0.00435800  1
  Al0+  Al49  1  -0.00064685  0.00068084  0.33781113  1
  Al0+  Al50  1  0.00038628  0.00058875  0.66691569  1
  Al0+  Al51  1  0.00080940  0.49999698  0.00272114  1
  Al0+  Al52  1  0.00081190  0.49913244  0.33150041  1
  Al0+  Al53  1  0.00145140  0.50133095  0.66382160  1
  Al0+  Al54  1  0.49860640  -0.00041506  -0.00383331  1
  Al0+  Al55  1  0.49895854  0.00052193  0.33565515  1
  Al0+  Al56  1  0.49956110  -0.00007740  0.67343281  1
  Al0+  Al57  1  0.50054680  0.49976629  0.00057742  1
  Al0+  Al58  1  0.49943276  0.50030746  0.32917901  1
  Al0+  Al59  1  0.50312473  0.50090184  0.66434548  1
  Al0+  Al60  1  0.24922839  0.24895104  0.00020792  1
  Al0+  Al61  1  0.24736308  0.24951488  0.33135586  1
  Al0+  Al62  1  0.24876768  0.24974402  0.66205710  1
  Al0+  Al63  1  0.25017176  0.75045271  0.00728317  1
  Al0+  Al64  1  0.25011030  0.74734254  0.32798871  1
  Al0+  Al65  1  0.24990109  0.75056429  0.67634669  1
  Al0+  Al66  1  0.74864318  0.24972353  -0.00130915  1
  Al0+  Al67  1  0.74860807  0.25031368  0.33651081  1
  Al0+  Al68  1  0.74908076  0.24958023  0.66197659  1
  Al0+  Al69  1  0.74908478  0.74940337  -0.00433547  1
  Al0+  Al70  1  0.75175751  0.74999718  0.34029362  1
  Al0+  Al71  1  0.75052686  0.75165512  0.66872244  1
  Al0+  Al72  1  0.32054838  0.57036141  0.34801801  1
  Al0+  Al73  1  0.81956586  0.57128912  0.01355608  1
  Al0+  Al74  1  0.56955968  0.67983638  0.98598113  1
  Al0+  Al75  1  0.67765550  0.92907937  0.68333088  1
  Al0+  Al76  1  0.07050595  0.67862565  0.31873768  1
  Al0+  Al77  1  0.57144389  0.68086140  0.65117067  1
  Al0+  Al78  1  0.43001617  0.82163960  0.32114533  1
  Al0+  Al79  1  0.31966101  0.07168781  0.34616591  1
  Al0+  Al80  1  0.67850481  0.92870340  0.34689106  1
  Al0+  Al81  1  0.32408283  0.57019136  0.01745237  1
  Al0+  Al82  1  0.17866467  0.42817822  0.01461016  1
  Al0+  Al83  1  0.42778360  0.32207661  0.31712384  1
  Al0+  Al84  1  0.82295608  0.07361879  0.35042249  1
  Al0+  Al85  1  0.42979903  0.32032798  0.65289007  1
  Al0+  Al86  1  0.82411373  0.57105436  0.68289244  1
  Al0+  Al87  1  0.81845345  0.07129919  0.01140840  1
  Al0+  Al88  1  0.17857974  0.92984187  0.01615816  1
  Al0+  Al89  1  0.92906226  0.32155824  0.98705188  1
  Al0+  Al90  1  0.82223628  0.56979387  0.34652225  1
  Al0+  Al91  1  0.32193734  0.56986497  0.67907107  1
  Al0+  Al92  1  0.67986335  0.42861862  0.68054330  1
  Al0+  Al93  1  0.17939526  0.92958039  0.67941300  1
  Al0+  Al94  1  0.92913157  0.32219628  0.65148134  1
  Al0+  Al95  1  0.93061150  0.82092023  0.98705897  1
  Si0+  Si96  1  0.07269131  0.68077968  0.65394234  1
  Si0+  Si97  1  0.42567667  0.82355540  0.98188015  1
  Si0+  Si98  1  0.42586623  0.82181653  0.65273823  1
  Si0+  Si99  1  0.42883302  0.31932810  0.98521679  1
  Si0+  Si100  1  0.07325559  0.67795254  0.98225981  1
  Si0+  Si101  1  0.57445918  0.67869651  0.31686959  1
  Si0+  Si102  1  0.67751741  0.42628361  0.01719818  1
  Si0+  Si103  1  0.92964147  0.82287042  0.65104256  1
  Si0+  Si104  1  0.82195050  0.07139167  0.68381721  1
  Si0+  Si105  1  0.07002367  0.17732553  0.31758117  1
  Si0+  Si106  1  0.67709814  0.92719385  0.01555861  1
  Si0+  Si107  1  0.92791501  0.31925550  0.31771578  1
  Si0+  Si108  1  0.17881275  0.92643916  0.34949609  1
  Si0+  Si109  1  0.57177108  0.17446719  0.64861865  1
  Si0+  Si110  1  0.32118158  0.07474925  0.68348605  1
  Si0+  Si111  1  0.57121843  0.17811085  0.31607825  1
  Si0+  Si112  1  0.57118312  0.17775297  0.98468461  1
  Si0+  Si113  1  0.07054832  0.17580341  0.64779636  1
  Si0+  Si114  1  0.17810215  0.42703503  0.35096873  1
  Si0+  Si115  1  0.67721515  0.42843933  0.34892798  1
  Si0+  Si116  1  0.07276443  0.17739365  0.98303941  1
  Si0+  Si117  1  0.32370986  0.07203350  0.01583968  1
  Si0+  Si118  1  0.17802469  0.42618049  0.68089324  1
  Si0+  Si119  1  0.92748045  0.82261910  0.31817850  1
  O2-  O120  1  0.25735459  0.00146308  0.06025360  1
  O2-  O121  1  0.24785405  -0.00536960  0.39378892  1
  O2-  O122  1  0.25390919  0.00447528  0.72691142  1
  O2-  O123  1  0.24956089  0.49991434  0.06612726  1
  O2-  O124  1  0.24799218  0.49389536  0.39581359  1
  O2-  O125  1  0.24970917  0.49180461  0.72436051  1
  O2-  O126  1  0.74444614  -0.00312393  0.05944466  1
  O2-  O127  1  0.75123929  0.00028912  0.39763276  1
  O2-  O128  1  0.75240231  0.00436119  0.72887062  1
  O2-  O129  1  0.74660638  0.49479128  0.06094737  1
  O2-  O130  1  0.74583632  0.49714909  0.39244571  1
  O2-  O131  1  0.75408214  0.49684928  0.73243475  1
  O2-  O132  1  -0.00483369  0.24451572  0.27570385  1
  O2-  O133  1  0.00360994  0.24672187  0.60415450  1
  O2-  O134  1  0.00529445  0.24782278  0.93965706  1
  O2-  O135  1  -0.00473649  0.75355897  0.27343856  1
  O2-  O136  1  -0.00085025  0.74930891  0.61060794  1
  O2-  O137  1  0.00495443  0.74672219  0.93719636  1
  O2-  O138  1  0.50258939  0.24669550  0.27055725  1
  O2-  O139  1  0.50273068  0.24354374  0.60542834  1
  O2-  O140  1  0.49926716  0.24795977  0.94275442  1
  O2-  O141  1  0.50605440  0.74833069  0.27382723  1
  O2-  O142  1  0.49622662  0.75646912  0.60652269  1
  O2-  O143  1  0.49304797  0.75335133  0.93868170  1
  O2-  O144  1  0.07299100  0.17770851  0.08889189  1
  O2-  O145  1  0.07192325  0.17899367  0.42267895  1
  O2-  O146  1  0.06959160  0.17253460  0.75316140  1
  O2-  O147  1  0.07113641  0.67946485  0.08807322  1
  O2-  O148  1  0.07118179  0.68130632  0.43266676  1
  O2-  O149  1  0.07378481  0.68189329  0.75874795  1
  O2-  O150  1  0.57130718  0.17691793  0.08960991  1
  O2-  O151  1  0.57021365  0.17851407  0.42145952  1
  O2-  O152  1  0.57029396  0.17438708  0.75482986  1
  O2-  O153  1  0.57108047  0.68364933  0.09933728  1
  O2-  O154  1  0.57401376  0.67815792  0.42244832  1
  O2-  O155  1  0.57040596  0.68017354  0.76438717  1
  O2-  O156  1  0.17774064  0.42718904  0.24550156  1
  O2-  O157  1  0.17709747  0.42725096  0.57522822  1
  O2-  O158  1  0.18116904  0.42897970  0.90060098  1
  O2-  O159  1  0.17799434  0.92906382  0.24402763  1
  O2-  O160  1  0.18052691  0.92966545  0.56627056  1
  O2-  O161  1  0.17816070  0.93263651  0.90275485  1
  O2-  O162  1  0.67918835  0.42655048  0.24304056  1
  O2-  O163  1  0.68011595  0.43220319  0.56677324  1
  O2-  O164  1  0.67663837  0.42483383  0.91189447  1
  O2-  O165  1  0.68007437  0.92994374  0.23294930  1
  O2-  O166  1  0.67803956  0.93009831  0.57043659  1
  O2-  O167  1  0.67830623  0.92925526  0.90983465  1
  O2-  O168  1  0.42943050  0.31755996  0.09032362  1
  O2-  O169  1  0.42942099  0.32194419  0.43019542  1
  O2-  O170  1  0.43017138  0.31779806  0.76663112  1
  O2-  O171  1  0.42869238  0.82790352  0.08749554  1
  O2-  O172  1  0.42880849  0.81988566  0.43445749  1
  O2-  O173  1  0.42487096  0.81970774  0.75834228  1
  O2-  O174  1  0.92884189  0.31862552  0.10049711  1
  O2-  O175  1  0.93067282  0.32037276  0.42289043  1
  O2-  O176  1  0.93108519  0.32155377  0.76460796  1
  O2-  O177  1  0.93119560  0.82054440  0.10026962  1
  O2-  O178  1  0.92917072  0.82258470  0.42413842  1
  O2-  O179  1  0.93130538  0.82589617  0.75623405  1
  O2-  O180  1  0.31599300  0.07129753  0.23294962  1
  O2-  O181  1  0.32016484  0.07557283  0.57792684  1
  O2-  O182  1  0.32358220  0.07352143  0.91014148  1
  O2-  O183  1  0.31965798  0.56929277  0.23543678  1
  O2-  O184  1  0.31966692  0.57264340  0.56585891  1
  O2-  O185  1  0.32565843  0.56621869  0.90346776  1
  O2-  O186  1  0.82207051  0.07407942  0.23656883  1
  O2-  O187  1  0.82282905  0.06847368  0.57830430  1
  O2-  O188  1  0.81540016  0.07213434  0.89832558  1
  O2-  O189  1  0.82208170  0.56990409  0.23320310  1
  O2-  O190  1  0.82498157  0.56987492  0.56898010  1
  O2-  O191  1  0.81901436  0.57071362  0.90103347  1
  O2-  O192  1  0.04646413  0.08334143  0.27165101  1
  O2-  O193  1  0.04262696  0.08362320  0.59885721  1
  O2-  O194  1  0.04463945  0.08443348  0.93765239  1
  O2-  O195  1  0.04041582  0.58160760  0.26467792  1
  O2-  O196  1  0.04906066  0.58899541  0.60424888  1
  O2-  O197  1  0.04871011  0.58385516  0.93763906  1
  O2-  O198  1  0.54544130  0.08511815  0.26927391  1
  O2-  O199  1  0.54438785  0.08038792  0.60412360  1
  O2-  O200  1  0.54430416  0.08613744  0.93497637  1
  O2-  O201  1  0.54893894  0.58579445  0.26952849  1
  O2-  O202  1  0.54132830  0.58506594  0.59616487  1
  O2-  O203  1  0.54047989  0.58163332  0.93296309  1
  O2-  O204  1  0.15945953  0.20768608  0.26701676  1
  O2-  O205  1  0.16486721  0.19915627  0.60161102  1
  O2-  O206  1  0.16713348  0.19958461  0.93592006  1
  O2-  O207  1  0.16520466  0.70952704  0.26191327  1
  O2-  O208  1  0.16364013  0.71358725  0.60661034  1
  O2-  O209  1  0.16843322  0.70388561  0.93938773  1
  O2-  O210  1  0.66516211  0.20562808  0.26999212  1
  O2-  O211  1  0.66555202  0.19673240  0.60198838  1
  O2-  O212  1  0.66132357  0.20654224  0.93475447  1
  O2-  O213  1  0.66891089  0.70568214  0.27251083  1
  O2-  O214  1  0.66874997  0.71315234  0.59866343  1
  O2-  O215  1  0.66438253  0.71180473  0.92927445  1
  O2-  O216  1  0.08076266  0.45462419  0.06928326  1
  O2-  O217  1  0.08473488  0.45442080  0.39657272  1
  O2-  O218  1  0.08615288  0.45609871  0.72731571  1
  O2-  O219  1  0.08470721  0.96368592  0.07281296  1
  O2-  O220  1  0.08567613  0.95241463  0.39643184  1
  O2-  O221  1  0.08330922  0.96265855  0.73398167  1
  O2-  O222  1  0.58444335  0.45228874  0.06378696  1
  O2-  O223  1  0.58309370  0.45407626  0.39290265  1
  O2-  O224  1  0.58297416  0.45936733  0.73471351  1
  O2-  O225  1  0.58185556  0.95229507  0.05840965  1
  O2-  O226  1  0.58130827  0.95835475  0.40150313  1
  O2-  O227  1  0.58132864  0.95799627  0.73964865  1
  O2-  O228  1  0.20519971  0.32825165  0.06640104  1
  O2-  O229  1  0.19996287  0.33249132  0.39605260  1
  O2-  O230  1  0.19813438  0.33067396  0.72536461  1
  O2-  O231  1  0.20574548  0.83323498  0.07086479  1
  O2-  O232  1  0.20513829  0.83274572  0.39367996  1
  O2-  O233  1  0.20881010  0.83584378  0.73924578  1
  O2-  O234  1  0.70154145  0.33260170  0.06374323  1
  O2-  O235  1  0.70047470  0.33501072  0.39591155  1
  O2-  O236  1  0.70105627  0.32644958  0.72946843  1
  O2-  O237  1  0.70401780  0.83452306  0.06096237  1
  O2-  O238  1  0.70738987  0.83211032  0.40342987  1
  O2-  O239  1  0.71186444  0.83433941  0.73743393  1
  O2-  O240  1  0.46082658  0.41713442  0.26074172  1
  O2-  O241  1  0.46370619  0.41535979  0.59800016  1
  O2-  O242  1  0.45772033  0.41086353  0.93855880  1
  O2-  O243  1  0.45760724  0.91929110  0.26629339  1
  O2-  O244  1  0.44821579  0.91837326  0.61078925  1
  O2-  O245  1  0.44949352  0.91722532  0.93363556  1
  O2-  O246  1  0.95972295  0.40954951  0.26964727  1
  O2-  O247  1  0.96270998  0.41785251  0.59567709  1
  O2-  O248  1  0.96071874  0.41815265  0.93308863  1
  O2-  O249  1  0.95309573  0.91729856  0.27363248  1
  O2-  O250  1  0.96017106  0.91337746  0.60236479  1
  O2-  O251  1  0.96285376  0.91782708  0.93327734  1
  O2-  O252  1  0.33078509  0.28962023  0.26461859  1
  O2-  O253  1  0.33206418  0.29232386  0.59853156  1
  O2-  O254  1  0.33716293  0.29142239  0.93729534  1
  O2-  O255  1  0.33478375  0.79007292  0.26490163  1
  O2-  O256  1  0.33179961  0.79533900  0.60779971  1
  O2-  O257  1  0.33024904  0.79904464  0.93933146  1
  O2-  O258  1  0.83411516  0.29556355  0.27235717  1
  O2-  O259  1  0.83274478  0.29158276  0.59643649  1
  O2-  O260  1  0.83250058  0.28940121  0.93293966  1
  O2-  O261  1  0.83342158  0.79725492  0.27319754  1
  O2-  O262  1  0.83732506  0.79710692  0.60451149  1
  O2-  O263  1  0.83413026  0.79173856  0.93197916  1
  O2-  O264  1  0.41851397  0.04911717  0.06116337  1
  O2-  O265  1  0.41655049  0.04599268  0.40073560  1
  O2-  O266  1  0.41482037  0.05275456  0.73067554  1
  O2-  O267  1  0.42125387  0.53859343  0.07094590  1
  O2-  O268  1  0.41911276  0.54090527  0.39870622  1
  O2-  O269  1  0.41812191  0.53810844  0.73155834  1
  O2-  O270  1  0.91505304  0.04312018  0.06568720  1
  O2-  O271  1  0.92175799  0.04790975  0.40412187  1
  O2-  O272  1  0.91529449  0.04516602  0.72946282  1
  O2-  O273  1  0.91659342  0.54216002  0.06704338  1
  O2-  O274  1  0.91828219  0.53610812  0.39990836  1
  O2-  O275  1  0.92402960  0.54453061  0.73385251  1
  O2-  O276  1  0.29634556  0.16466760  0.06256808  1
  O2-  O277  1  0.28462254  0.16695806  0.40065245  1
  O2-  O278  1  0.29264413  0.16749169  0.73038246  1
  O2-  O279  1  0.29922509  0.66983534  0.06823358  1
  O2-  O280  1  0.28676473  0.66668224  0.40076066  1
  O2-  O281  1  0.28925461  0.66356788  0.73701751  1
  O2-  O282  1  0.78595432  0.16689214  0.06684236  1
  O2-  O283  1  0.79274137  0.17147774  0.40361840  1
  O2-  O284  1  0.79676127  0.16616838  0.72680778  1
  O2-  O285  1  0.78632796  0.66774730  0.06691447  1
  O2-  O286  1  0.79653651  0.66644657  0.40201310  1
  O2-  O287  1  0.79550165  0.67003191  0.73298082  1
