# generated using pymatgen
data_Ca2Al2SiO7
_symmetry_space_group_name_H-M   'P 1'
_cell_length_a   15.45534239
_cell_length_b   15.45497085
_cell_length_c   15.28140760
_cell_angle_alpha   90.00095652
_cell_angle_beta   90.00721300
_cell_angle_gamma   90.01233554
_symmetry_Int_Tables_number   1
_chemical_formula_structural   Ca2Al2SiO7
_chemical_formula_sum   'Ca48 Al48 Si24 O168'
_cell_volume   3650.14542196
_cell_formula_units_Z   24
loop_
 _symmetry_equiv_pos_site_id
 _symmetry_equiv_pos_as_xyz
  1  'x, y, z'
loop_
 _atom_type_symbol
 _atom_type_oxidation_number
  Ca2+  2.0
  Al0+  0.0
  Si0+  0.0
  O2-  -2.0
loop_
 _atom_site_type_symbol
 _atom_site_label
 _atom_site_symmetry_multiplicity
 _atom_site_fract_x
 _atom_site_fract_y
 _atom_site_fract_z
 _atom_site_occupancy
  Ca2+  Ca0  1  0.15753950  0.07336283  0.17028413  1
  Ca2+  Ca1  1  0.17050313  0.07300810  0.50929926  1
  Ca2+  Ca2  1  0.15584078  0.07597093  0.83440487  1
  Ca2+  Ca3  1  0.17341917  0.58487483  0.17121977  1
  Ca2+  Ca4  1  0.17839207  0.58398577  0.50218067  1
  Ca2+  Ca5  1  0.17625511  0.59130724  0.84114780  1
  Ca2+  Ca6  1  0.67373813  0.08624147  0.17089220  1
  Ca2+  Ca7  1  0.67264351  0.07765323  0.50747386  1
  Ca2+  Ca8  1  0.65941158  0.08004901  0.83530188  1
  Ca2+  Ca9  1  0.66883319  0.57385661  0.17061366  1
  Ca2+  Ca10  1  0.65716119  0.57399969  0.50288855  1
  Ca2+  Ca11  1  0.67535922  0.57030816  0.84177435  1
  Ca2+  Ca12  1  0.07954601  0.32863454  0.15469477  1
  Ca2+  Ca13  1  0.09050405  0.32646528  0.49539285  1
  Ca2+  Ca14  1  0.07910663  0.32617720  0.82819125  1
  Ca2+  Ca15  1  0.08351132  0.83255308  0.16300649  1
  Ca2+  Ca16  1  0.07685642  0.84264000  0.49618546  1
  Ca2+  Ca17  1  0.08248798  0.83329898  0.83064532  1
  Ca2+  Ca18  1  0.58907706  0.33263360  0.16063234  1
  Ca2+  Ca19  1  0.58726375  0.33280255  0.49896795  1
  Ca2+  Ca20  1  0.59036488  0.32558702  0.82918655  1
  Ca2+  Ca21  1  0.57527339  0.82644250  0.16709458  1
  Ca2+  Ca22  1  0.57667832  0.82726933  0.48952905  1
  Ca2+  Ca23  1  0.58199936  0.83203157  0.82402050  1
  Ca2+  Ca24  1  0.32709028  0.42676197  0.17405702  1
  Ca2+  Ca25  1  0.33336945  0.42794532  0.50076686  1
  Ca2+  Ca26  1  0.33458429  0.42869453  0.83728899  1
  Ca2+  Ca27  1  0.32172576  0.91431342  0.17202143  1
  Ca2+  Ca28  1  0.32386387  0.91495309  0.50629784  1
  Ca2+  Ca29  1  0.32165663  0.92468662  0.83561018  1
  Ca2+  Ca30  1  0.82901382  0.41699536  0.16767375  1
  Ca2+  Ca31  1  0.82138716  0.41905619  0.50376641  1
  Ca2+  Ca32  1  0.82663421  0.41360605  0.84143580  1
  Ca2+  Ca33  1  0.83851328  0.92583898  0.17514074  1
  Ca2+  Ca34  1  0.83460446  0.91846661  0.50491570  1
  Ca2+  Ca35  1  0.83060212  0.91309573  0.83123890  1
  Ca2+  Ca36  1  0.42495406  0.17155771  0.15821844  1
  Ca2+  Ca37  1  0.42294730  0.15873125  0.49998823  1
  Ca2+  Ca38  1  0.42561854  0.16437264  0.82473935  1
  Ca2+  Ca39  1  0.41307160  0.66469093  0.16831225  1
  Ca2+  Ca40  1  0.41788974  0.66789044  0.49064186  1
  Ca2+  Ca41  1  0.41330297  0.66421893  0.83018978  1
  Ca2+  Ca42  1  0.91895199  0.17294957  0.15881894  1
  Ca2+  Ca43  1  0.92138399  0.16268917  0.49780093  1
  Ca2+  Ca44  1  0.92561880  0.17079618  0.83365927  1
  Ca2+  Ca45  1  0.92225340  0.66988920  0.15856438  1
  Ca2+  Ca46  1  0.91517466  0.68247227  0.49384673  1
  Ca2+  Ca47  1  0.92250605  0.66633109  0.82945857  1
  Al0+  Al48  1  -0.00228659  -0.00082025  0.00027637  1
  Al0+  Al49  1  0.00002399  0.00157503  0.33720071  1
  Al0+  Al50  1  -0.00102969  0.00098570  0.66364003  1
  Al0+  Al51  1  0.00012484  0.50189138  -0.00659704  1
  Al0+  Al52  1  -0.00195207  0.49914374  0.33847871  1
  Al0+  Al53  1  0.00074011  0.50047954  0.66230866  1
  Al0+  Al54  1  0.49760658  -0.00049155  -0.00190017  1
  Al0+  Al55  1  0.50108904  -0.00097326  0.32535632  1
  Al0+  Al56  1  0.50019225  -0.00064654  0.66776175  1
  Al0+  Al57  1  0.50029219  0.50113056  0.00741502  1
  Al0+  Al58  1  0.50067379  0.49788207  0.33585533  1
  Al0+  Al59  1  0.50064392  0.49830856  0.67607299  1
  Al0+  Al60  1  0.25294271  0.24909947  -0.00612226  1
  Al0+  Al61  1  0.25219003  0.24857689  0.33347310  1
  Al0+  Al62  1  0.25227518  0.25236869  0.66439451  1
  Al0+  Al63  1  0.24865923  0.75280308  0.00399720  1
  Al0+  Al64  1  0.24863264  0.75117036  0.33851123  1
  Al0+  Al65  1  0.24988270  0.75051886  0.67384442  1
  Al0+  Al66  1  0.74968324  0.24757910  -0.00531910  1
  Al0+  Al67  1  0.75285223  0.24979984  0.34232372  1
  Al0+  Al68  1  0.75010340  0.24886609  0.66532291  1
  Al0+  Al69  1  0.74748996  0.74937334  0.00388522  1
  Al0+  Al70  1  0.74964829  0.75075574  0.32164815  1
  Al0+  Al71  1  0.75044604  0.74938101  0.66579960  1
  Al0+  Al72  1  0.68196015  0.42701884  0.01573058  1
  Al0+  Al73  1  0.92923449  0.81879326  0.65324878  1
  Al0+  Al74  1  0.31953412  0.57002828  0.68204648  1
  Al0+  Al75  1  0.07182272  0.18094054  0.65069008  1
  Al0+  Al76  1  0.31943501  0.57017589  0.34881506  1
  Al0+  Al77  1  0.17820488  0.93316988  0.01532265  1
  Al0+  Al78  1  0.07134071  0.68108480  0.98766660  1
  Al0+  Al79  1  0.32241543  0.07294803  0.68073202  1
  Al0+  Al80  1  0.18009105  0.93068922  0.34762435  1
  Al0+  Al81  1  0.92936321  0.32232917  0.98544943  1
  Al0+  Al82  1  0.17589065  0.42566754  0.34679691  1
  Al0+  Al83  1  0.68074203  0.43020126  0.34836577  1
  Al0+  Al84  1  0.07252329  0.17698499  0.98582039  1
  Al0+  Al85  1  0.82438383  0.57274610  0.01508438  1
  Al0+  Al86  1  0.68103149  0.42859865  0.68220874  1
  Al0+  Al87  1  0.57033915  0.17804841  0.65046937  1
  Al0+  Al88  1  0.31949096  0.57167081  0.01589565  1
  Al0+  Al89  1  0.56992234  0.17931271  0.98635375  1
  Al0+  Al90  1  0.67953300  0.92779484  0.67760381  1
  Al0+  Al91  1  0.93008945  0.82334565  0.31800775  1
  Al0+  Al92  1  0.42599054  0.82142482  0.31794205  1
  Al0+  Al93  1  0.57034285  0.67532307  0.31689707  1
  Al0+  Al94  1  0.17667403  0.93116273  0.68368219  1
  Al0+  Al95  1  0.82013243  0.07019835  0.34747607  1
  Si0+  Si96  1  0.67411319  0.92726255  0.01617392  1
  Si0+  Si97  1  0.92522703  0.82218726  0.98362728  1
  Si0+  Si98  1  0.07178953  0.18074874  0.31915825  1
  Si0+  Si99  1  0.57059812  0.67845990  0.98342725  1
  Si0+  Si100  1  0.42866591  0.81954060  0.98301510  1
  Si0+  Si101  1  0.43010650  0.32470072  0.64897775  1
  Si0+  Si102  1  0.07501895  0.67802008  0.64858184  1
  Si0+  Si103  1  0.32569811  0.07235158  0.34744527  1
  Si0+  Si104  1  0.92818311  0.32080230  0.32056921  1
  Si0+  Si105  1  0.82229732  0.57542952  0.35019272  1
  Si0+  Si106  1  0.17829961  0.42575393  0.01261388  1
  Si0+  Si107  1  0.42885252  0.32491044  0.98310277  1
  Si0+  Si108  1  0.17620013  0.42782031  0.68383560  1
  Si0+  Si109  1  0.56998194  0.67796113  0.65491770  1
  Si0+  Si110  1  0.32414419  0.07297373  0.01726804  1
  Si0+  Si111  1  0.07011794  0.67693243  0.31877811  1
  Si0+  Si112  1  0.82156434  0.07142319  0.68534453  1
  Si0+  Si113  1  0.67704547  0.92739675  0.34674719  1
  Si0+  Si114  1  0.82295928  0.57272048  0.68127655  1
  Si0+  Si115  1  0.92768156  0.32306284  0.64671781  1
  Si0+  Si116  1  0.81814407  0.06732571  0.01312943  1
  Si0+  Si117  1  0.57391190  0.17994275  0.31929467  1
  Si0+  Si118  1  0.42967445  0.31978736  0.31834234  1
  Si0+  Si119  1  0.42881179  0.81993714  0.65381754  1
  O2-  O120  1  0.24936346  0.01171274  0.06193644  1
  O2-  O121  1  0.25931828  0.00191839  0.39149343  1
  O2-  O122  1  0.24607201  0.00672348  0.73255399  1
  O2-  O123  1  0.24508718  0.49497896  0.05909320  1
  O2-  O124  1  0.24574774  0.49922318  0.39783980  1
  O2-  O125  1  0.24157313  0.49889092  0.72908292  1
  O2-  O126  1  0.74759914  -0.00370244  0.05698718  1
  O2-  O127  1  0.74652303  -0.00625322  0.39259049  1
  O2-  O128  1  0.75143932  0.00330227  0.72838776  1
  O2-  O129  1  0.75439197  0.49876352  0.06532664  1
  O2-  O130  1  0.75040914  0.51010659  0.39485600  1
  O2-  O131  1  0.75978713  0.49971638  0.72639562  1
  O2-  O132  1  0.00556019  0.25675902  0.27803229  1
  O2-  O133  1  -0.00062437  0.25755764  0.60216516  1
  O2-  O134  1  0.00603360  0.25438258  0.93644305  1
  O2-  O135  1  0.00145293  0.74506788  0.27303468  1
  O2-  O136  1  0.00529537  0.74587359  0.60502740  1
  O2-  O137  1  -0.00840917  0.75087886  0.94076558  1
  O2-  O138  1  0.50135674  0.24880004  0.27651393  1
  O2-  O139  1  0.49466589  0.25194731  0.60360403  1
  O2-  O140  1  0.49651263  0.25496852  0.93936255  1
  O2-  O141  1  0.49654808  0.74717269  0.26795955  1
  O2-  O142  1  0.49947316  0.74861215  0.61173667  1
  O2-  O143  1  0.50019525  0.74932443  0.93962727  1
  O2-  O144  1  0.06790100  0.17658164  0.10002308  1
  O2-  O145  1  0.07085218  0.18036826  0.42418347  1
  O2-  O146  1  0.06721902  0.18160671  0.76360549  1
  O2-  O147  1  0.07275499  0.68410060  0.10090110  1
  O2-  O148  1  0.06826829  0.67703143  0.42438904  1
  O2-  O149  1  0.07448724  0.67809514  0.75431333  1
  O2-  O150  1  0.56989201  0.17930195  0.10022207  1
  O2-  O151  1  0.57264966  0.17907270  0.42418438  1
  O2-  O152  1  0.56959670  0.17875169  0.76351539  1
  O2-  O153  1  0.57007077  0.67994242  0.08821266  1
  O2-  O154  1  0.56936619  0.67707125  0.43151652  1
  O2-  O155  1  0.56971029  0.68003588  0.76029892  1
  O2-  O156  1  0.17781810  0.42340130  0.23298526  1
  O2-  O157  1  0.17783638  0.42891347  0.57824976  1
  O2-  O158  1  0.18171979  0.42602636  0.90707486  1
  O2-  O159  1  0.17838548  0.93355029  0.23431898  1
  O2-  O160  1  0.17879932  0.93015958  0.57006487  1
  O2-  O161  1  0.17900296  0.93247556  0.90265572  1
  O2-  O162  1  0.68468796  0.42552389  0.23578991  1
  O2-  O163  1  0.67961423  0.43155337  0.56884484  1
  O2-  O164  1  0.68250352  0.42808234  0.90214391  1
  O2-  O165  1  0.67623893  0.93240421  0.24083200  1
  O2-  O166  1  0.68028243  0.92756449  0.56462370  1
  O2-  O167  1  0.67343450  0.92715965  0.91086993  1
  O2-  O168  1  0.42794934  0.32263958  0.08908764  1
  O2-  O169  1  0.42943507  0.31948132  0.42320837  1
  O2-  O170  1  0.43331471  0.32701506  0.75454596  1
  O2-  O171  1  0.43017414  0.81991307  0.08799806  1
  O2-  O172  1  0.42905981  0.82278874  0.43200323  1
  O2-  O173  1  0.43030695  0.81883849  0.75935521  1
  O2-  O174  1  0.92837822  0.31823497  0.09976599  1
  O2-  O175  1  0.92586671  0.31727432  0.42543775  1
  O2-  O176  1  0.92778017  0.32269014  0.75221030  1
  O2-  O177  1  0.92769223  0.82521984  0.08922164  1
  O2-  O178  1  0.93066371  0.82345820  0.43122699  1
  O2-  O179  1  0.92698039  0.81531999  0.76639236  1
  O2-  O180  1  0.32458953  0.07545182  0.24181776  1
  O2-  O181  1  0.32354211  0.06646248  0.56676714  1
  O2-  O182  1  0.33006139  0.06795174  0.91241872  1
  O2-  O183  1  0.31749522  0.56786606  0.23526255  1
  O2-  O184  1  0.32156985  0.56962688  0.56935436  1
  O2-  O185  1  0.31956322  0.57127064  0.90258153  1
  O2-  O186  1  0.81870936  0.07259839  0.23373214  1
  O2-  O187  1  0.82093382  0.07015519  0.57941528  1
  O2-  O188  1  0.81856855  0.06530345  0.90830534  1
  O2-  O189  1  0.82540890  0.57149966  0.24494217  1
  O2-  O190  1  0.81958116  0.57411898  0.57563325  1
  O2-  O191  1  0.81975800  0.57560481  0.90127327  1
  O2-  O192  1  0.03690222  0.09133958  0.27206928  1
  O2-  O193  1  0.03800498  0.08525188  0.59654744  1
  O2-  O194  1  0.03409431  0.08175560  0.93234183  1
  O2-  O195  1  0.04540532  0.58219610  0.27357729  1
  O2-  O196  1  0.05254039  0.58344164  0.60241940  1
  O2-  O197  1  0.04800345  0.58431930  0.93017524  1
  O2-  O198  1  0.55008775  0.08812943  0.26953238  1
  O2-  O199  1  0.53991293  0.08063411  0.59657741  1
  O2-  O200  1  0.53808947  0.08215600  0.93282856  1
  O2-  O201  1  0.54258076  0.57617674  0.26500172  1
  O2-  O202  1  0.54007734  0.58569195  0.60996492  1
  O2-  O203  1  0.54227318  0.58583686  0.93807270  1
  O2-  O204  1  0.16564744  0.20147859  0.27208962  1
  O2-  O205  1  0.17008325  0.20907525  0.59745977  1
  O2-  O206  1  0.17355435  0.19613360  0.93425942  1
  O2-  O207  1  0.16393619  0.70380502  0.27467771  1
  O2-  O208  1  0.16901375  0.70546439  0.60444235  1
  O2-  O209  1  0.16607514  0.71802481  0.93288344  1
  O2-  O210  1  0.66587901  0.21141908  0.27424975  1
  O2-  O211  1  0.66785210  0.20822525  0.59748761  1
  O2-  O212  1  0.66581564  0.20592971  0.92986954  1
  O2-  O213  1  0.66725613  0.70361936  0.26040649  1
  O2-  O214  1  0.66140681  0.70411001  0.60653301  1
  O2-  O215  1  0.66270210  0.70681610  0.93638959  1
  O2-  O216  1  0.08312037  0.44885591  0.05533676  1
  O2-  O217  1  0.07663941  0.44843952  0.40120152  1
  O2-  O218  1  0.08016296  0.44951121  0.72693498  1
  O2-  O219  1  0.08001955  0.96097221  0.06878681  1
  O2-  O220  1  0.08618631  0.96705760  0.40244271  1
  O2-  O221  1  0.07727736  0.95906325  0.73482922  1
  O2-  O222  1  0.58391294  0.45651475  0.06879123  1
  O2-  O223  1  0.58324361  0.45605395  0.40284588  1
  O2-  O224  1  0.58709061  0.46104447  0.73895033  1
  O2-  O225  1  0.58350946  0.95828208  0.06384279  1
  O2-  O226  1  0.58334330  0.95424432  0.39213039  1
  O2-  O227  1  0.58356103  0.95673366  0.73358451  1
  O2-  O228  1  0.20413308  0.33137859  0.05824640  1
  O2-  O229  1  0.20911031  0.32825038  0.40007748  1
  O2-  O230  1  0.20361568  0.33495265  0.72948845  1
  O2-  O231  1  0.21381494  0.83896843  0.07007030  1
  O2-  O232  1  0.20478428  0.83389731  0.40324658  1
  O2-  O233  1  0.20736818  0.83380070  0.73690519  1
  O2-  O234  1  0.70950336  0.32680287  0.06596534  1
  O2-  O235  1  0.71593218  0.33645180  0.40528863  1
  O2-  O236  1  0.71034716  0.33040195  0.73319705  1
  O2-  O237  1  0.69797856  0.83499846  0.06369778  1
  O2-  O238  1  0.69972252  0.83152704  0.38827920  1
  O2-  O239  1  0.71081807  0.83184324  0.73407640  1
  O2-  O240  1  0.45794841  0.41075201  0.27041240  1
  O2-  O241  1  0.46340347  0.41650724  0.60268928  1
  O2-  O242  1  0.45583455  0.41907665  0.93895714  1
  O2-  O243  1  0.45621233  0.91834681  0.26045171  1
  O2-  O244  1  0.45667443  0.91077479  0.60586193  1
  O2-  O245  1  0.45696862  0.91124824  0.93575425  1
  O2-  O246  1  0.94742098  0.41562403  0.27546442  1
  O2-  O247  1  0.94840341  0.41852067  0.60111950  1
  O2-  O248  1  0.95088211  0.42104990  0.93038008  1
  O2-  O249  1  0.96442249  0.91995454  0.26530330  1
  O2-  O250  1  0.95695943  0.91641150  0.59985077  1
  O2-  O251  1  0.95326974  0.91420723  0.93609651  1
  O2-  O252  1  0.33871166  0.29127652  0.26847724  1
  O2-  O253  1  0.33482534  0.30666966  0.60347868  1
  O2-  O254  1  0.33574405  0.30235004  0.93441640  1
  O2-  O255  1  0.32638622  0.79399916  0.26666169  1
  O2-  O256  1  0.33642430  0.79139562  0.60819647  1
  O2-  O257  1  0.33719397  0.79067336  0.93660723  1
  O2-  O258  1  0.83911391  0.28477217  0.27252866  1
  O2-  O259  1  0.83529464  0.29310346  0.60062976  1
  O2-  O260  1  0.83464921  0.28571026  0.93006118  1
  O2-  O261  1  0.83281353  0.79978232  0.26199307  1
  O2-  O262  1  0.83298971  0.78694242  0.59714961  1
  O2-  O263  1  0.82901041  0.80048401  0.94053321  1
  O2-  O264  1  0.41477793  0.04049431  0.06676734  1
  O2-  O265  1  0.42120372  0.04859174  0.39070372  1
  O2-  O266  1  0.41850323  0.03942897  0.73538240  1
  O2-  O267  1  0.41593192  0.54287995  0.07043938  1
  O2-  O268  1  0.41707436  0.53861156  0.40113903  1
  O2-  O269  1  0.41420196  0.53688483  0.73873976  1
  O2-  O270  1  0.90874842  0.03968926  0.06332895  1
  O2-  O271  1  0.91538434  0.03953043  0.40323418  1
  O2-  O272  1  0.91397315  0.04345783  0.73109604  1
  O2-  O273  1  0.92480948  0.54811163  0.06572047  1
  O2-  O274  1  0.91354885  0.54790560  0.40007779  1
  O2-  O275  1  0.91957914  0.55228922  0.72367884  1
  O2-  O276  1  0.30734122  0.17047741  0.05874097  1
  O2-  O277  1  0.30042765  0.16494840  0.39519183  1
  O2-  O278  1  0.30399507  0.17542110  0.72871429  1
  O2-  O279  1  0.28690579  0.66749964  0.06918804  1
  O2-  O280  1  0.29309795  0.66846475  0.40254154  1
  O2-  O281  1  0.29168828  0.66658224  0.73776772  1
  O2-  O282  1  0.78928264  0.15883930  0.06029818  1
  O2-  O283  1  0.78882072  0.16359979  0.40643200  1
  O2-  O284  1  0.79677355  0.16533908  0.72978752  1
  O2-  O285  1  0.79347947  0.67057188  0.06917011  1
  O2-  O286  1  0.79857158  0.67177157  0.39115022  1
  O2-  O287  1  0.79310416  0.66359334  0.72957856  1
