# generated using pymatgen
data_Ca2Al2SiO7
_symmetry_space_group_name_H-M   'P 1'
_cell_length_a   15.45795259
_cell_length_b   15.45733623
_cell_length_c   15.28298011
_cell_angle_alpha   89.99943906
_cell_angle_beta   89.98416838
_cell_angle_gamma   89.99596843
_symmetry_Int_Tables_number   1
_chemical_formula_structural   Ca2Al2SiO7
_chemical_formula_sum   'Ca48 Al48 Si24 O168'
_cell_volume   3651.69632844
_cell_formula_units_Z   24
loop_
 _symmetry_equiv_pos_site_id
 _symmetry_equiv_pos_as_xyz
  1  'x, y, z'
loop_
 _atom_type_symbol
 _atom_type_oxidation_number
  Ca2+  2.0
  Al0+  0.0
  Si0+  0.0
  O2-  -2.0
loop_
 _atom_site_type_symbol
 _atom_site_label
 _atom_site_symmetry_multiplicity
 _atom_site_fract_x
 _atom_site_fract_y
 _atom_site_fract_z
 _atom_site_occupancy
  Ca2+  Ca0  1  0.17535486  0.08071540  0.17523761  1
  Ca2+  Ca1  1  0.17736653  0.09001244  0.50681736  1
  Ca2+  Ca2  1  0.16733676  0.08692093  0.83260140  1
  Ca2+  Ca3  1  0.17060972  0.57987787  0.17437374  1
  Ca2+  Ca4  1  0.16700910  0.58413004  0.49863015  1
  Ca2+  Ca5  1  0.16159007  0.58731808  0.83774714  1
  Ca2+  Ca6  1  0.67658863  0.07827352  0.17296795  1
  Ca2+  Ca7  1  0.67061689  0.07995081  0.49959408  1
  Ca2+  Ca8  1  0.67119511  0.08435509  0.83659427  1
  Ca2+  Ca9  1  0.67445213  0.58162525  0.17323189  1
  Ca2+  Ca10  1  0.67175817  0.57107498  0.50130234  1
  Ca2+  Ca11  1  0.67460334  0.57888551  0.84053202  1
  Ca2+  Ca12  1  0.07229010  0.33998975  0.16616991  1
  Ca2+  Ca13  1  0.07488039  0.33206609  0.49565111  1
  Ca2+  Ca14  1  0.06832614  0.32914651  0.82680810  1
  Ca2+  Ca15  1  0.07798163  0.82569205  0.16395474  1
  Ca2+  Ca16  1  0.07251130  0.83038677  0.49764001  1
  Ca2+  Ca17  1  0.07701071  0.82211201  0.82661403  1
  Ca2+  Ca18  1  0.57874328  0.33769275  0.16364376  1
  Ca2+  Ca19  1  0.59264287  0.32940235  0.49736443  1
  Ca2+  Ca20  1  0.58063421  0.33006152  0.82619263  1
  Ca2+  Ca21  1  0.57613404  0.83267525  0.16471865  1
  Ca2+  Ca22  1  0.57943799  0.83517139  0.48907750  1
  Ca2+  Ca23  1  0.58357667  0.82787751  0.83485139  1
  Ca2+  Ca24  1  0.32749973  0.42192446  0.17727920  1
  Ca2+  Ca25  1  0.32582469  0.42092239  0.49996664  1
  Ca2+  Ca26  1  0.32992430  0.41498703  0.83913686  1
  Ca2+  Ca27  1  0.33689164  0.91670439  0.17470215  1
  Ca2+  Ca28  1  0.33727392  0.92621463  0.50260490  1
  Ca2+  Ca29  1  0.33500106  0.92083581  0.83629437  1
  Ca2+  Ca30  1  0.83437927  0.42606539  0.17465728  1
  Ca2+  Ca31  1  0.83067341  0.41404325  0.50068665  1
  Ca2+  Ca32  1  0.83162063  0.41341491  0.83883189  1
  Ca2+  Ca33  1  0.83062878  0.92588863  0.17849431  1
  Ca2+  Ca34  1  0.83516809  0.91486162  0.50078280  1
  Ca2+  Ca35  1  0.83946524  0.92374093  0.83936024  1
  Ca2+  Ca36  1  0.41723808  0.17194096  0.16281940  1
  Ca2+  Ca37  1  0.42171945  0.15861328  0.49660360  1
  Ca2+  Ca38  1  0.42133299  0.17129755  0.82622836  1
  Ca2+  Ca39  1  0.42223725  0.67278695  0.16013521  1
  Ca2+  Ca40  1  0.41730513  0.67155777  0.48926623  1
  Ca2+  Ca41  1  0.42292696  0.67089116  0.83432859  1
  Ca2+  Ca42  1  0.90596025  0.17635473  0.16477879  1
  Ca2+  Ca43  1  0.91455149  0.17687170  0.49337768  1
  Ca2+  Ca44  1  0.91597179  0.17490463  0.82592485  1
  Ca2+  Ca45  1  0.91498756  0.66543066  0.16232289  1
  Ca2+  Ca46  1  0.91441670  0.67409155  0.49398782  1
  Ca2+  Ca47  1  0.92509995  0.66477351  0.82806221  1
  Al0+  Al48  1  0.00309362  0.00051675  0.00717219  1
  Al0+  Al49  1  0.00152487  0.00031504  0.33233903  1
  Al0+  Al50  1  0.00250217  -0.00074963  0.66201989  1
  Al0+  Al51  1  -0.00130196  0.49831868  -0.00450975  1
  Al0+  Al52  1  0.00043830  0.49879548  0.33731714  1
  Al0+  Al53  1  0.00153708  0.50069013  0.65929987  1
  Al0+  Al54  1  0.49966897  0.00080045  -0.00314138  1
  Al0+  Al55  1  0.50110049  -0.00030071  0.33385809  1
  Al0+  Al56  1  0.50046074  0.00163458  0.67021389  1
  Al0+  Al57  1  0.49851342  0.50055788  -0.00866135  1
  Al0+  Al58  1  0.50015847  0.49943908  0.34052474  1
  Al0+  Al59  1  0.50003899  0.50060682  0.67190729  1
  Al0+  Al60  1  0.24933187  0.24995083  -0.00230820  1
  Al0+  Al61  1  0.25105681  0.24957048  0.34088623  1
  Al0+  Al62  1  0.25069690  0.25305797  0.67041541  1
  Al0+  Al63  1  0.24949972  0.75077473  -0.00719397  1
  Al0+  Al64  1  0.24983345  0.75135290  0.33280416  1
  Al0+  Al65  1  0.25021275  0.75130360  0.66437826  1
  Al0+  Al66  1  0.74823133  0.24956600  0.00091735  1
  Al0+  Al67  1  0.75048264  0.24815613  0.33286655  1
  Al0+  Al68  1  0.74653747  0.24887942  0.66393600  1
  Al0+  Al69  1  0.74888870  0.75055216  0.00009184  1
  Al0+  Al70  1  0.74936046  0.75003515  0.33527833  1
  Al0+  Al71  1  0.74821803  0.74852007  0.66546347  1
  Al0+  Al72  1  0.56830250  0.17911467  0.65166977  1
  Al0+  Al73  1  0.92673173  0.82070239  0.65276055  1
  Al0+  Al74  1  0.82166614  0.57000960  0.01166412  1
  Al0+  Al75  1  0.82238560  0.57211347  0.34878495  1
  Al0+  Al76  1  0.42861770  0.82246557  0.98319490  1
  Al0+  Al77  1  0.17847645  0.42846575  0.34886271  1
  Al0+  Al78  1  0.06850249  0.67879693  0.98835603  1
  Al0+  Al79  1  0.68029518  0.42774266  0.68314264  1
  Al0+  Al80  1  0.82191100  0.07136863  0.01297502  1
  Al0+  Al81  1  0.67977058  0.92943260  0.34746320  1
  Al0+  Al82  1  0.42933556  0.82130531  0.32084480  1
  Al0+  Al83  1  0.07318986  0.67863417  0.64866758  1
  Al0+  Al84  1  0.57352229  0.67828043  0.98457381  1
  Al0+  Al85  1  0.92912904  0.31983886  0.31708160  1
  Al0+  Al86  1  0.92731987  0.82142018  0.31735352  1
  Al0+  Al87  1  0.67839439  0.42783661  0.34662302  1
  Al0+  Al88  1  0.92687921  0.31962449  0.65011600  1
  Al0+  Al89  1  0.32122212  0.07152767  0.68370119  1
  Al0+  Al90  1  0.82327835  0.07086847  0.35002297  1
  Al0+  Al91  1  0.42698676  0.32123866  0.98761546  1
  Al0+  Al92  1  0.32106700  0.06955724  0.34600345  1
  Al0+  Al93  1  0.07335910  0.17934881  0.65220661  1
  Al0+  Al94  1  0.32122577  0.57319795  0.34640643  1
  Al0+  Al95  1  0.92839079  0.31876052  0.98775952  1
  Si0+  Si96  1  0.43153242  0.82092107  0.65175447  1
  Si0+  Si97  1  0.07340824  0.17605237  0.98529567  1
  Si0+  Si98  1  0.32078686  0.57189159  0.01244487  1
  Si0+  Si99  1  0.67665457  0.92818224  0.01618347  1
  Si0+  Si100  1  0.57018967  0.67757221  0.65042405  1
  Si0+  Si101  1  0.17924230  0.42897139  0.01303596  1
  Si0+  Si102  1  0.32107333  0.07127109  0.01465555  1
  Si0+  Si103  1  0.67561602  0.42831987  0.01516048  1
  Si0+  Si104  1  0.57040914  0.17868109  0.31691443  1
  Si0+  Si105  1  0.42804777  0.32449210  0.64864154  1
  Si0+  Si106  1  0.17848950  0.92761834  0.68504692  1
  Si0+  Si107  1  0.57094935  0.67533404  0.31826107  1
  Si0+  Si108  1  0.82124603  0.06906878  0.68014241  1
  Si0+  Si109  1  0.67809423  0.92708881  0.68324971  1
  Si0+  Si110  1  0.07104981  0.67834202  0.31574950  1
  Si0+  Si111  1  0.57070796  0.17910194  0.98377675  1
  Si0+  Si112  1  0.82206155  0.57189569  0.68346436  1
  Si0+  Si113  1  0.32080640  0.57352955  0.68467261  1
  Si0+  Si114  1  0.42833719  0.32135249  0.32117224  1
  Si0+  Si115  1  0.17862510  0.43106336  0.68468424  1
  Si0+  Si116  1  0.17732166  0.92710294  0.35064856  1
  Si0+  Si117  1  0.92821815  0.82467835  0.98688054  1
  Si0+  Si118  1  0.07552309  0.17870427  0.31612402  1
  Si0+  Si119  1  0.18097922  0.92699862  0.01569901  1
  O2-  O120  1  0.25257625  -0.00165332  0.05726838  1
  O2-  O121  1  0.24562479  -0.00334590  0.39401046  1
  O2-  O122  1  0.24462698  -0.00125028  0.73079460  1
  O2-  O123  1  0.25113556  0.49969508  0.05484409  1
  O2-  O124  1  0.24898934  0.50276413  0.39828210  1
  O2-  O125  1  0.24860099  0.50368857  0.72748150  1
  O2-  O126  1  0.74972603  -0.00680707  0.05825324  1
  O2-  O127  1  0.75527585  -0.00449334  0.40054680  1
  O2-  O128  1  0.75411003  -0.00593453  0.72375699  1
  O2-  O129  1  0.74414597  0.49742428  0.05800888  1
  O2-  O130  1  0.75195981  0.49769292  0.39720981  1
  O2-  O131  1  0.75758677  0.49987539  0.72932673  1
  O2-  O132  1  0.00480212  0.24462503  0.27071900  1
  O2-  O133  1  -0.00102711  0.24704971  0.60075503  1
  O2-  O134  1  -0.00036740  0.23977690  0.94268098  1
  O2-  O135  1  -0.00004940  0.74423674  0.27065268  1
  O2-  O136  1  -0.00279688  0.74765527  0.60180875  1
  O2-  O137  1  -0.00828414  0.75177576  0.94200963  1
  O2-  O138  1  0.50046450  0.25234241  0.27695601  1
  O2-  O139  1  0.49465241  0.25453797  0.60382056  1
  O2-  O140  1  0.50233479  0.24815778  0.93998297  1
  O2-  O141  1  0.50132448  0.74393205  0.27476877  1
  O2-  O142  1  0.50048764  0.74944074  0.60784542  1
  O2-  O143  1  0.50210621  0.75152842  0.93399052  1
  O2-  O144  1  0.07999880  0.17766811  0.09037158  1
  O2-  O145  1  0.07754142  0.18135693  0.42137636  1
  O2-  O146  1  0.07025424  0.18148705  0.76662432  1
  O2-  O147  1  0.07185673  0.68006718  0.10101011  1
  O2-  O148  1  0.07304594  0.68198791  0.42093716  1
  O2-  O149  1  0.07280240  0.68050806  0.76294109  1
  O2-  O150  1  0.56878259  0.17780928  0.08940545  1
  O2-  O151  1  0.56870672  0.17672101  0.42195346  1
  O2-  O152  1  0.56759683  0.17921804  0.76524729  1
  O2-  O153  1  0.57030629  0.67657797  0.09798023  1
  O2-  O154  1  0.56830488  0.67542546  0.42426075  1
  O2-  O155  1  0.56968706  0.67934597  0.75540439  1
  O2-  O156  1  0.18111940  0.42884973  0.23420074  1
  O2-  O157  1  0.18198523  0.42976341  0.58016057  1
  O2-  O158  1  0.18046858  0.42907375  0.90782935  1
  O2-  O159  1  0.17942443  0.92726371  0.24436753  1
  O2-  O160  1  0.18215975  0.92534647  0.57991509  1
  O2-  O161  1  0.17925020  0.92795629  0.91079131  1
  O2-  O162  1  0.67494117  0.43056022  0.23267000  1
  O2-  O163  1  0.67863430  0.43029601  0.57062083  1
  O2-  O164  1  0.67730933  0.42713215  0.90942876  1
  O2-  O165  1  0.67727933  0.93363884  0.23366317  1
  O2-  O166  1  0.67408797  0.92793172  0.57879580  1
  O2-  O167  1  0.67561402  0.93027817  0.91007261  1
  O2-  O168  1  0.42556732  0.31966261  0.10106271  1
  O2-  O169  1  0.42759958  0.32004666  0.42592727  1
  O2-  O170  1  0.42923467  0.32306762  0.75485979  1
  O2-  O171  1  0.42850087  0.82221582  0.09661217  1
  O2-  O172  1  0.43205301  0.82200815  0.43438741  1
  O2-  O173  1  0.43297116  0.81969685  0.75681278  1
  O2-  O174  1  0.93052322  0.32095223  0.10055739  1
  O2-  O175  1  0.92898179  0.31795786  0.42968910  1
  O2-  O176  1  0.92730491  0.31808504  0.76452214  1
  O2-  O177  1  0.93202967  0.82575207  0.09205588  1
  O2-  O178  1  0.93039907  0.82057191  0.43016222  1
  O2-  O179  1  0.92795584  0.82145038  0.76721213  1
  O2-  O180  1  0.32056662  0.07025557  0.23217720  1
  O2-  O181  1  0.32312239  0.06740102  0.57083630  1
  O2-  O182  1  0.31927538  0.07188143  0.90974959  1
  O2-  O183  1  0.32146504  0.57107277  0.23209794  1
  O2-  O184  1  0.32254090  0.57323016  0.57992134  1
  O2-  O185  1  0.31890783  0.57107380  0.90703621  1
  O2-  O186  1  0.81833414  0.07177927  0.23602302  1
  O2-  O187  1  0.81859625  0.06904553  0.57574380  1
  O2-  O188  1  0.82101958  0.07039968  0.89903198  1
  O2-  O189  1  0.82104348  0.57105764  0.23449636  1
  O2-  O190  1  0.81731578  0.57474811  0.57842815  1
  O2-  O191  1  0.82310454  0.56693199  0.89842772  1
  O2-  O192  1  0.05516246  0.08326602  0.27146154  1
  O2-  O193  1  0.05525885  0.07831505  0.60194684  1
  O2-  O194  1  0.05320059  0.08018561  0.94130227  1
  O2-  O195  1  0.04968280  0.58278058  0.27257953  1
  O2-  O196  1  0.05158454  0.57941953  0.59649318  1
  O2-  O197  1  0.03981543  0.58313200  0.93135114  1
  O2-  O198  1  0.53825897  0.08922390  0.26777057  1
  O2-  O199  1  0.53575445  0.08244737  0.59863709  1
  O2-  O200  1  0.54499710  0.08640992  0.93589624  1
  O2-  O201  1  0.54444134  0.58178728  0.27236377  1
  O2-  O202  1  0.53954816  0.58601699  0.60489175  1
  O2-  O203  1  0.54269878  0.58244747  0.92731327  1
  O2-  O204  1  0.16956552  0.20646082  0.27031905  1
  O2-  O205  1  0.17197413  0.21125937  0.60169642  1
  O2-  O206  1  0.16414174  0.20606177  0.93539983  1
  O2-  O207  1  0.16401234  0.70713365  0.26882586  1
  O2-  O208  1  0.17112829  0.71030198  0.59618719  1
  O2-  O209  1  0.16328211  0.71090415  0.93126017  1
  O2-  O210  1  0.66167785  0.20515521  0.26842743  1
  O2-  O211  1  0.66397352  0.20791954  0.59650414  1
  O2-  O212  1  0.66368555  0.20444286  0.93665173  1
  O2-  O213  1  0.66396177  0.70170107  0.27257539  1
  O2-  O214  1  0.66203584  0.70346408  0.60342863  1
  O2-  O215  1  0.67141349  0.70729565  0.92887763  1
  O2-  O216  1  0.08802358  0.45816892  0.05981023  1
  O2-  O217  1  0.08142527  0.45470165  0.40326918  1
  O2-  O218  1  0.08538880  0.45795637  0.73045070  1
  O2-  O219  1  0.09076451  0.95411517  0.06697173  1
  O2-  O220  1  0.08412128  0.95175758  0.39642531  1
  O2-  O221  1  0.08394524  0.95090192  0.73126273  1
  O2-  O222  1  0.58018004  0.45362643  0.05799805  1
  O2-  O223  1  0.58151924  0.45457496  0.40396436  1
  O2-  O224  1  0.58324029  0.46028702  0.73712784  1
  O2-  O225  1  0.58390899  0.95868872  0.06208439  1
  O2-  O226  1  0.58378030  0.96341772  0.40235794  1
  O2-  O227  1  0.58931422  0.96052947  0.73357864  1
  O2-  O228  1  0.20698792  0.33707111  0.06041836  1
  O2-  O229  1  0.21085288  0.33305250  0.40477077  1
  O2-  O230  1  0.20824482  0.34080260  0.73492265  1
  O2-  O231  1  0.21021999  0.83540858  0.06274938  1
  O2-  O232  1  0.20313081  0.83438548  0.39709790  1
  O2-  O233  1  0.20872526  0.83512439  0.73239707  1
  O2-  O234  1  0.69823970  0.33406929  0.06087097  1
  O2-  O235  1  0.70513407  0.32875837  0.39761774  1
  O2-  O236  1  0.70684518  0.32898766  0.73608374  1
  O2-  O237  1  0.69543903  0.83295931  0.06084048  1
  O2-  O238  1  0.70027901  0.82963191  0.39978989  1
  O2-  O239  1  0.70115835  0.83335234  0.73003029  1
  O2-  O240  1  0.45498655  0.41399869  0.27420366  1
  O2-  O241  1  0.45382343  0.41904820  0.60550157  1
  O2-  O242  1  0.45286201  0.41687638  0.92981822  1
  O2-  O243  1  0.46328405  0.91658127  0.26524401  1
  O2-  O244  1  0.46109145  0.91289785  0.60682054  1
  O2-  O245  1  0.45595069  0.92143444  0.93000844  1
  O2-  O246  1  0.96177574  0.41757584  0.26534905  1
  O2-  O247  1  0.95516286  0.41805390  0.59903474  1
  O2-  O248  1  0.96337989  0.41184258  0.93009677  1
  O2-  O249  1  0.96041487  0.91838232  0.26400125  1
  O2-  O250  1  0.95619973  0.91813410  0.59905802  1
  O2-  O251  1  0.96046900  0.91673039  0.94040380  1
  O2-  O252  1  0.33715904  0.29132114  0.27331622  1
  O2-  O253  1  0.33317260  0.30134852  0.60604150  1
  O2-  O254  1  0.33185177  0.28859547  0.93079411  1
  O2-  O255  1  0.33148956  0.79496876  0.26678595  1
  O2-  O256  1  0.33896792  0.79555350  0.60575557  1
  O2-  O257  1  0.33201259  0.79262703  0.92742223  1
  O2-  O258  1  0.83232094  0.28786237  0.26316885  1
  O2-  O259  1  0.82887419  0.29020519  0.59859904  1
  O2-  O260  1  0.83053120  0.29052481  0.93472689  1
  O2-  O261  1  0.82888647  0.79414040  0.26506306  1
  O2-  O262  1  0.82712005  0.79453395  0.60068923  1
  O2-  O263  1  0.83201638  0.80766224  0.94377860  1
  O2-  O264  1  0.41440792  0.04654020  0.06063452  1
  O2-  O265  1  0.41620710  0.03658791  0.40044823  1
  O2-  O266  1  0.41662837  0.03731177  0.73904933  1
  O2-  O267  1  0.41360521  0.54507728  0.05763001  1
  O2-  O268  1  0.41736692  0.54435820  0.40299564  1
  O2-  O269  1  0.41188445  0.54461678  0.73361698  1
  O2-  O270  1  0.91972595  0.04630384  0.06769848  1
  O2-  O271  1  0.92429633  0.04875753  0.39905858  1
  O2-  O272  1  0.91511065  0.04510578  0.72626325  1
  O2-  O273  1  0.91755755  0.53653792  0.06581048  1
  O2-  O274  1  0.92072057  0.54682775  0.40135068  1
  O2-  O275  1  0.91914533  0.55052097  0.72410618  1
  O2-  O276  1  0.29104676  0.16273230  0.06216985  1
  O2-  O277  1  0.29412186  0.16520272  0.40296028  1
  O2-  O278  1  0.29355771  0.17006685  0.73656396  1
  O2-  O279  1  0.29211467  0.66419201  0.05795803  1
  O2-  O280  1  0.29375207  0.67169830  0.40009196  1
  O2-  O281  1  0.29395499  0.66639941  0.73113512  1
  O2-  O282  1  0.78598824  0.16613738  0.06790113  1
  O2-  O283  1  0.78850513  0.16676140  0.40242901  1
  O2-  O284  1  0.78773317  0.15905115  0.72792290  1
  O2-  O285  1  0.79502662  0.66899581  0.06381770  1
  O2-  O286  1  0.79213481  0.66915004  0.40216846  1
  O2-  O287  1  0.79174067  0.66422217  0.73109808  1
