# generated using pymatgen
data_Ca2Al2SiO7
_symmetry_space_group_name_H-M   'P 1'
_cell_length_a   15.45655591
_cell_length_b   15.45700363
_cell_length_c   15.28237049
_cell_angle_alpha   90.01607138
_cell_angle_beta   90.01059915
_cell_angle_gamma   89.98939283
_symmetry_Int_Tables_number   1
_chemical_formula_structural   Ca2Al2SiO7
_chemical_formula_sum   'Ca48 Al48 Si24 O168'
_cell_volume   3651.14205163
_cell_formula_units_Z   24
loop_
 _symmetry_equiv_pos_site_id
 _symmetry_equiv_pos_as_xyz
  1  'x, y, z'
loop_
 _atom_type_symbol
 _atom_type_oxidation_number
  Ca2+  2.0
  Al0+  0.0
  Si0+  0.0
  O2-  -2.0
loop_
 _atom_site_type_symbol
 _atom_site_label
 _atom_site_symmetry_multiplicity
 _atom_site_fract_x
 _atom_site_fract_y
 _atom_site_fract_z
 _atom_site_occupancy
  Ca2+  Ca0  1  0.16735972  0.07612921  0.17733168  1
  Ca2+  Ca1  1  0.16692805  0.07460111  0.49789843  1
  Ca2+  Ca2  1  0.16875599  0.06983195  0.83698118  1
  Ca2+  Ca3  1  0.17007108  0.57868023  0.17393339  1
  Ca2+  Ca4  1  0.17051045  0.57754872  0.50480911  1
  Ca2+  Ca5  1  0.16157137  0.58408815  0.83425197  1
  Ca2+  Ca6  1  0.66566378  0.07458309  0.16872747  1
  Ca2+  Ca7  1  0.66425910  0.07550087  0.49895764  1
  Ca2+  Ca8  1  0.66648445  0.07979020  0.84412246  1
  Ca2+  Ca9  1  0.66630470  0.58102359  0.17289643  1
  Ca2+  Ca10  1  0.66420487  0.59061203  0.50175250  1
  Ca2+  Ca11  1  0.66681715  0.57808386  0.83928656  1
  Ca2+  Ca12  1  0.08711926  0.32613116  0.16535627  1
  Ca2+  Ca13  1  0.08616541  0.33311389  0.49334674  1
  Ca2+  Ca14  1  0.07149958  0.33890342  0.82531305  1
  Ca2+  Ca15  1  0.07766717  0.83657110  0.15860731  1
  Ca2+  Ca16  1  0.08463808  0.83395755  0.49349201  1
  Ca2+  Ca17  1  0.08976640  0.82535864  0.83022729  1
  Ca2+  Ca18  1  0.57753365  0.32869467  0.16026264  1
  Ca2+  Ca19  1  0.56673292  0.33388947  0.49434064  1
  Ca2+  Ca20  1  0.58208384  0.32882174  0.82994815  1
  Ca2+  Ca21  1  0.58106048  0.83611682  0.16696530  1
  Ca2+  Ca22  1  0.57401991  0.82695111  0.49037092  1
  Ca2+  Ca23  1  0.57818581  0.83105507  0.82429896  1
  Ca2+  Ca24  1  0.33018425  0.42368384  0.18138687  1
  Ca2+  Ca25  1  0.32680937  0.41632965  0.50184632  1
  Ca2+  Ca26  1  0.32954763  0.41517746  0.83223381  1
  Ca2+  Ca27  1  0.32200974  0.92066878  0.17807193  1
  Ca2+  Ca28  1  0.32872048  0.91266240  0.50209108  1
  Ca2+  Ca29  1  0.32406395  0.90595486  0.83439240  1
  Ca2+  Ca30  1  0.82873853  0.41192146  0.16553689  1
  Ca2+  Ca31  1  0.83306096  0.41836925  0.50736785  1
  Ca2+  Ca32  1  0.83166308  0.41489235  0.84226001  1
  Ca2+  Ca33  1  0.82531631  0.90404879  0.17246726  1
  Ca2+  Ca34  1  0.83027476  0.91054896  0.49740133  1
  Ca2+  Ca35  1  0.82662036  0.91596666  0.84250779  1
  Ca2+  Ca36  1  0.41485598  0.16846668  0.16746391  1
  Ca2+  Ca37  1  0.40181937  0.17704040  0.49475605  1
  Ca2+  Ca38  1  0.42316386  0.17004733  0.83042209  1
  Ca2+  Ca39  1  0.41448403  0.66999679  0.17166230  1
  Ca2+  Ca40  1  0.42250735  0.67379218  0.49272372  1
  Ca2+  Ca41  1  0.42516483  0.67309544  0.82310847  1
  Ca2+  Ca42  1  0.92362220  0.16983813  0.16494668  1
  Ca2+  Ca43  1  0.92527486  0.17190843  0.49566790  1
  Ca2+  Ca44  1  0.91431858  0.17818680  0.83167935  1
  Ca2+  Ca45  1  0.92524190  0.67760537  0.16191698  1
  Ca2+  Ca46  1  0.92609855  0.67138932  0.49610860  1
  Ca2+  Ca47  1  0.92814386  0.67142585  0.83290923  1
  Al0+  Al48  1  -0.00153211  0.00167996  -0.00177993  1
  Al0+  Al49  1  -0.00189677  0.00258529  0.32902652  1
  Al0+  Al50  1  -0.00095255  0.00146946  0.67430436  1
  Al0+  Al51  1  0.00034426  0.50109115  -0.00439818  1
  Al0+  Al52  1  -0.00385371  0.50081404  0.33541724  1
  Al0+  Al53  1  -0.00114094  0.50191856  0.66275424  1
  Al0+  Al54  1  0.50023192  0.00154072  -0.00111718  1
  Al0+  Al55  1  0.50036518  0.00079534  0.33905792  1
  Al0+  Al56  1  0.50030668  0.00044795  0.66467745  1
  Al0+  Al57  1  0.49927661  0.50025409  0.00363316  1
  Al0+  Al58  1  0.50020358  0.49943424  0.32957939  1
  Al0+  Al59  1  0.50089238  0.49793685  0.66123427  1
  Al0+  Al60  1  0.25047286  0.25025927  -0.00241655  1
  Al0+  Al61  1  0.24780515  0.24924723  0.32941322  1
  Al0+  Al62  1  0.24905640  0.24863358  0.67187651  1
  Al0+  Al63  1  0.25070150  0.74949243  0.00150879  1
  Al0+  Al64  1  0.25181401  0.74756502  0.33663904  1
  Al0+  Al65  1  0.25083348  0.74823608  0.66345542  1
  Al0+  Al66  1  0.74867296  0.24939030  -0.00167260  1
  Al0+  Al67  1  0.74950218  0.24965842  0.33562095  1
  Al0+  Al68  1  0.75094882  0.24974117  0.66198078  1
  Al0+  Al69  1  0.75100316  0.74848564  0.00022088  1
  Al0+  Al70  1  0.75094426  0.74833361  0.33147828  1
  Al0+  Al71  1  0.75218678  0.74930274  0.66735508  1
  Al0+  Al72  1  0.07334124  0.68104849  0.98550042  1
  Al0+  Al73  1  0.92700832  0.82314609  0.98372372  1
  Al0+  Al74  1  0.67883941  0.42842889  0.01348440  1
  Al0+  Al75  1  0.42806849  0.31832548  0.65367420  1
  Al0+  Al76  1  0.17643099  0.92812066  0.34704589  1
  Al0+  Al77  1  0.17707356  0.42946620  0.34673952  1
  Al0+  Al78  1  0.06965184  0.18120150  0.32031313  1
  Al0+  Al79  1  0.57380141  0.67852206  0.65314894  1
  Al0+  Al80  1  0.57141617  0.67993943  0.31521357  1
  Al0+  Al81  1  0.32340177  0.57082490  0.35053922  1
  Al0+  Al82  1  0.17956495  0.92932432  0.01388823  1
  Al0+  Al83  1  0.93173774  0.82069656  0.32092895  1
  Al0+  Al84  1  0.32116702  0.07117192  0.34769172  1
  Al0+  Al85  1  0.67917814  0.92775874  0.01303271  1
  Al0+  Al86  1  0.07056294  0.68027566  0.65105579  1
  Al0+  Al87  1  0.17831623  0.42914313  0.68178999  1
  Al0+  Al88  1  0.17985476  0.92756508  0.68120974  1
  Al0+  Al89  1  0.42903269  0.82201654  0.65128671  1
  Al0+  Al90  1  0.42751208  0.82337680  0.31641514  1
  Al0+  Al91  1  0.92923032  0.32141689  0.65198223  1
  Al0+  Al92  1  0.42839383  0.31902390  0.31886837  1
  Al0+  Al93  1  0.93109649  0.31909321  0.98799903  1
  Al0+  Al94  1  0.56880497  0.17965292  0.98764025  1
  Al0+  Al95  1  0.68034170  0.92809940  0.34795146  1
  Si0+  Si96  1  0.81897920  0.57061993  0.34957966  1
  Si0+  Si97  1  0.42735276  0.32497031  0.98275137  1
  Si0+  Si98  1  0.57329698  0.17743370  0.64830966  1
  Si0+  Si99  1  0.57112787  0.67703944  0.98607807  1
  Si0+  Si100  1  0.32345800  0.56983738  0.68395391  1
  Si0+  Si101  1  0.92523308  0.32442304  0.31662318  1
  Si0+  Si102  1  0.07268630  0.67618093  0.31822826  1
  Si0+  Si103  1  0.17768382  0.42905195  0.01318419  1
  Si0+  Si104  1  0.57487611  0.17809179  0.31691298  1
  Si0+  Si105  1  0.07501178  0.17744335  0.98036124  1
  Si0+  Si106  1  0.82176928  0.07424501  0.35135534  1
  Si0+  Si107  1  0.32196320  0.07363839  0.01596588  1
  Si0+  Si108  1  0.32165536  0.57035484  0.01445182  1
  Si0+  Si109  1  0.67912365  0.42808631  0.68066565  1
  Si0+  Si110  1  0.32341596  0.07242751  0.68590640  1
  Si0+  Si111  1  0.43058219  0.82097116  0.98646122  1
  Si0+  Si112  1  0.82097470  0.07331967  0.01702762  1
  Si0+  Si113  1  0.82121441  0.57115840  0.68326590  1
  Si0+  Si114  1  0.92866728  0.82473053  0.65131708  1
  Si0+  Si115  1  0.67919519  0.42720246  0.34942988  1
  Si0+  Si116  1  0.82022802  0.07303258  0.68327328  1
  Si0+  Si117  1  0.68029763  0.92949576  0.68130578  1
  Si0+  Si118  1  0.07073040  0.17701900  0.65206025  1
  Si0+  Si119  1  0.82299068  0.57045592  0.01773173  1
  O2-  O120  1  0.25048534  0.00788815  0.05920472  1
  O2-  O121  1  0.25341280  -0.00511269  0.39762864  1
  O2-  O122  1  0.25797922  -0.00036419  0.72872631  1
  O2-  O123  1  0.25100394  0.49755036  0.05457377  1
  O2-  O124  1  0.24832965  0.50076631  0.39865678  1
  O2-  O125  1  0.25383223  0.50277116  0.73036555  1
  O2-  O126  1  0.75844327  -0.00178206  0.05985736  1
  O2-  O127  1  0.75421359  0.00410555  0.39526166  1
  O2-  O128  1  0.74915872  0.00170864  0.72507598  1
  O2-  O129  1  0.75302706  0.50276846  0.06203007  1
  O2-  O130  1  0.74940757  0.49829208  0.39245151  1
  O2-  O131  1  0.74887820  0.50004169  0.72399680  1
  O2-  O132  1  -0.00334661  0.25857275  0.27386488  1
  O2-  O133  1  0.00670680  0.24972501  0.60673080  1
  O2-  O134  1  0.00736810  0.24809061  0.93756694  1
  O2-  O135  1  0.01216501  0.75219994  0.27436461  1
  O2-  O136  1  0.00067994  0.76042679  0.60655685  1
  O2-  O137  1  0.00371558  0.75570894  0.93478417  1
  O2-  O138  1  0.50369210  0.24425882  0.27313400  1
  O2-  O139  1  0.50117729  0.24268347  0.60548639  1
  O2-  O140  1  0.49557974  0.25530365  0.93967884  1
  O2-  O141  1  0.50003673  0.75219947  0.26463302  1
  O2-  O142  1  0.50290741  0.75087092  0.60368179  1
  O2-  O143  1  0.50415512  0.75179336  0.94422373  1
  O2-  O144  1  0.07623989  0.17882282  0.08582992  1
  O2-  O145  1  0.06665246  0.18059964  0.43360104  1
  O2-  O146  1  0.06628371  0.17684806  0.75783287  1
  O2-  O147  1  0.07280937  0.67865158  0.09893706  1
  O2-  O148  1  0.06669144  0.67257413  0.42367054  1
  O2-  O149  1  0.06787456  0.67955759  0.76420169  1
  O2-  O150  1  0.56716417  0.17988849  0.10033564  1
  O2-  O151  1  0.58058210  0.18318601  0.42236936  1
  O2-  O152  1  0.57540857  0.17873954  0.75430451  1
  O2-  O153  1  0.56936269  0.67455676  0.09039944  1
  O2-  O154  1  0.57280519  0.68173414  0.42870948  1
  O2-  O155  1  0.57385691  0.67955788  0.76778861  1
  O2-  O156  1  0.17727039  0.43121221  0.23217974  1
  O2-  O157  1  0.17897533  0.42913693  0.56936587  1
  O2-  O158  1  0.17779004  0.42950403  0.90798230  1
  O2-  O159  1  0.17465676  0.93201070  0.23321567  1
  O2-  O160  1  0.17577870  0.93120859  0.56891128  1
  O2-  O161  1  0.18443450  0.92758521  0.90041952  1
  O2-  O162  1  0.68181838  0.42531152  0.24421237  1
  O2-  O163  1  0.68097954  0.42709129  0.57561555  1
  O2-  O164  1  0.67894211  0.43080873  0.89978464  1
  O2-  O165  1  0.68247934  0.92933636  0.23470255  1
  O2-  O166  1  0.68279032  0.92962339  0.57655352  1
  O2-  O167  1  0.67784624  0.93062062  0.89917515  1
  O2-  O168  1  0.42676876  0.32585130  0.08793234  1
  O2-  O169  1  0.42918572  0.31834744  0.43214906  1
  O2-  O170  1  0.43220788  0.31821446  0.76728118  1
  O2-  O171  1  0.42971809  0.82074785  0.09090867  1
  O2-  O172  1  0.43024901  0.82227851  0.42970205  1
  O2-  O173  1  0.43192292  0.82001076  0.76634662  1
  O2-  O174  1  0.93213810  0.31720298  0.10097498  1
  O2-  O175  1  0.92276993  0.32296843  0.42223100  1
  O2-  O176  1  0.92617371  0.31946156  0.76526794  1
  O2-  O177  1  0.92627460  0.81852405  0.09716467  1
  O2-  O178  1  0.93038403  0.81715408  0.43449481  1
  O2-  O179  1  0.92519286  0.82215232  0.75665139  1
  O2-  O180  1  0.31796642  0.07165161  0.23360335  1
  O2-  O181  1  0.32133133  0.07555501  0.58100664  1
  O2-  O182  1  0.32220764  0.07431624  0.91015770  1
  O2-  O183  1  0.32189285  0.56822792  0.23583536  1
  O2-  O184  1  0.32366100  0.56757208  0.57912757  1
  O2-  O185  1  0.32497644  0.56992606  0.90930289  1
  O2-  O186  1  0.81975692  0.07935015  0.24616115  1
  O2-  O187  1  0.82077766  0.07388533  0.57845132  1
  O2-  O188  1  0.81643141  0.07627936  0.91093029  1
  O2-  O189  1  0.81974616  0.56894559  0.24456346  1
  O2-  O190  1  0.82073197  0.57130803  0.57806141  1
  O2-  O191  1  0.82169815  0.56905851  0.91175815  1
  O2-  O192  1  0.03487593  0.08794227  0.26218273  1
  O2-  O193  1  0.03850963  0.08535332  0.60600431  1
  O2-  O194  1  0.04694838  0.08498419  0.93377378  1
  O2-  O195  1  0.03708050  0.58597038  0.26995396  1
  O2-  O196  1  0.03345828  0.58700098  0.59569556  1
  O2-  O197  1  0.04141628  0.58394422  0.93081640  1
  O2-  O198  1  0.55268236  0.08288833  0.27435750  1
  O2-  O199  1  0.55190480  0.08259832  0.60407350  1
  O2-  O200  1  0.53769484  0.08437878  0.92941301  1
  O2-  O201  1  0.54490500  0.58038231  0.26354505  1
  O2-  O202  1  0.54879572  0.57958680  0.60073305  1
  O2-  O203  1  0.53930149  0.58649755  0.93735734  1
  O2-  O204  1  0.16344903  0.21123773  0.26104565  1
  O2-  O205  1  0.16636525  0.19759748  0.61018970  1
  O2-  O206  1  0.16914164  0.20111815  0.93402206  1
  O2-  O207  1  0.16951065  0.69087007  0.27688350  1
  O2-  O208  1  0.16865296  0.70384380  0.59883795  1
  O2-  O209  1  0.17239241  0.70717263  0.93122324  1
  O2-  O210  1  0.66721335  0.20692670  0.26903570  1
  O2-  O211  1  0.66530980  0.20520448  0.60088845  1
  O2-  O212  1  0.66441003  0.21041443  0.93142958  1
  O2-  O213  1  0.67039425  0.70698153  0.26283240  1
  O2-  O214  1  0.67310972  0.70571051  0.60144051  1
  O2-  O215  1  0.66482524  0.69891797  0.94008547  1
  O2-  O216  1  0.08645277  0.45770134  0.06055437  1
  O2-  O217  1  0.07674726  0.45477304  0.39824311  1
  O2-  O218  1  0.08068441  0.46302723  0.73326823  1
  O2-  O219  1  0.07993724  0.95715499  0.06292795  1
  O2-  O220  1  0.07873423  0.96260186  0.39887805  1
  O2-  O221  1  0.08386674  0.96032031  0.73734963  1
  O2-  O222  1  0.58221358  0.45828678  0.06788509  1
  O2-  O223  1  0.58725022  0.45518054  0.39524499  1
  O2-  O224  1  0.58671430  0.45386447  0.72817450  1
  O2-  O225  1  0.58346406  0.96298510  0.06603186  1
  O2-  O226  1  0.58540128  0.95910781  0.40452420  1
  O2-  O227  1  0.58729467  0.95564058  0.72785693  1
  O2-  O228  1  0.20312457  0.33529426  0.05842845  1
  O2-  O229  1  0.20539238  0.33072659  0.39722348  1
  O2-  O230  1  0.20675914  0.33210089  0.73762200  1
  O2-  O231  1  0.21211738  0.83321313  0.06732842  1
  O2-  O232  1  0.19863172  0.82745925  0.39696759  1
  O2-  O233  1  0.21112190  0.82982628  0.73422160  1
  O2-  O234  1  0.71080707  0.33239284  0.06753760  1
  O2-  O235  1  0.70723701  0.33628642  0.39872053  1
  O2-  O236  1  0.70854742  0.33571492  0.72709661  1
  O2-  O237  1  0.70585531  0.82940420  0.06572742  1
  O2-  O238  1  0.71557252  0.83235145  0.40113077  1
  O2-  O239  1  0.70929729  0.83781854  0.72917447  1
  O2-  O240  1  0.46152171  0.41409069  0.26391526  1
  O2-  O241  1  0.46037315  0.41308912  0.59820907  1
  O2-  O242  1  0.45464709  0.41798187  0.93625040  1
  O2-  O243  1  0.45639530  0.92357254  0.26699058  1
  O2-  O244  1  0.45496419  0.92150646  0.60038041  1
  O2-  O245  1  0.45585942  0.91288890  0.93820106  1
  O2-  O246  1  0.94555502  0.41937339  0.27157636  1
  O2-  O247  1  0.95556134  0.41844648  0.59839493  1
  O2-  O248  1  0.95841085  0.41612974  0.93283191  1
  O2-  O249  1  0.95114635  0.91950321  0.26714050  1
  O2-  O250  1  0.94879216  0.92093608  0.60901304  1
  O2-  O251  1  0.94613144  0.92495306  0.93387066  1
  O2-  O252  1  0.33301522  0.28906159  0.26277998  1
  O2-  O253  1  0.33009435  0.28815858  0.60249954  1
  O2-  O254  1  0.33367723  0.29930595  0.93594378  1
  O2-  O255  1  0.32865036  0.79234929  0.26436236  1
  O2-  O256  1  0.33168153  0.79329231  0.59924593  1
  O2-  O257  1  0.34057312  0.78836053  0.93838761  1
  O2-  O258  1  0.83259850  0.29434203  0.27054002  1
  O2-  O259  1  0.83402202  0.28847427  0.59617807  1
  O2-  O260  1  0.83483784  0.28721388  0.93332708  1
  O2-  O261  1  0.83835106  0.78176520  0.26647328  1
  O2-  O262  1  0.83681181  0.79416377  0.60441922  1
  O2-  O263  1  0.82973703  0.78933344  0.92968133  1
  O2-  O264  1  0.41486188  0.04645491  0.06143651  1
  O2-  O265  1  0.42180873  0.05447439  0.40085585  1
  O2-  O266  1  0.41964846  0.05059209  0.72995786  1
  O2-  O267  1  0.41223673  0.54318296  0.06450304  1
  O2-  O268  1  0.42192835  0.53937939  0.40105741  1
  O2-  O269  1  0.41756366  0.54180781  0.72989781  1
  O2-  O270  1  0.91761256  0.05659990  0.05962851  1
  O2-  O271  1  0.91474361  0.04819418  0.39750011  1
  O2-  O272  1  0.91067783  0.04745766  0.73450054  1
  O2-  O273  1  0.91614880  0.54266489  0.06353735  1
  O2-  O274  1  0.90993451  0.54363502  0.39971528  1
  O2-  O275  1  0.91179100  0.54139446  0.73119283  1
  O2-  O276  1  0.29998553  0.16939396  0.06054592  1
  O2-  O277  1  0.28479322  0.16741765  0.39999532  1
  O2-  O278  1  0.29505731  0.16350418  0.73644642  1
  O2-  O279  1  0.29295496  0.66106513  0.06298604  1
  O2-  O280  1  0.29922161  0.66934147  0.40381035  1
  O2-  O281  1  0.29885010  0.66401275  0.72956201  1
  O2-  O282  1  0.78862452  0.16355150  0.06540113  1
  O2-  O283  1  0.79463262  0.16680976  0.40069704  1
  O2-  O284  1  0.79008567  0.16491220  0.73065794  1
  O2-  O285  1  0.79721595  0.66370385  0.06371075  1
  O2-  O286  1  0.78980478  0.66067602  0.39908897  1
  O2-  O287  1  0.79453740  0.66286642  0.73248703  1
