# generated using pymatgen
data_Ca2Al2SiO7
_symmetry_space_group_name_H-M   'P 1'
_cell_length_a   15.45914155
_cell_length_b   15.45900298
_cell_length_c   15.28387927
_cell_angle_alpha   90.00129651
_cell_angle_beta   89.99464444
_cell_angle_gamma   90.02578639
_symmetry_Int_Tables_number   1
_chemical_formula_structural   Ca2Al2SiO7
_chemical_formula_sum   'Ca48 Al48 Si24 O168'
_cell_volume   3652.58563824
_cell_formula_units_Z   24
loop_
 _symmetry_equiv_pos_site_id
 _symmetry_equiv_pos_as_xyz
  1  'x, y, z'
loop_
 _atom_type_symbol
 _atom_type_oxidation_number
  Ca2+  2.0
  Al0+  0.0
  Si0+  0.0
  O2-  -2.0
loop_
 _atom_site_type_symbol
 _atom_site_label
 _atom_site_symmetry_multiplicity
 _atom_site_fract_x
 _atom_site_fract_y
 _atom_site_fract_z
 _atom_site_occupancy
  Ca2+  Ca0  1  0.16533085  0.07573826  0.16555687  1
  Ca2+  Ca1  1  0.17161669  0.07360611  0.50598419  1
  Ca2+  Ca2  1  0.17135029  0.07380574  0.84038738  1
  Ca2+  Ca3  1  0.16044154  0.57003153  0.16685832  1
  Ca2+  Ca4  1  0.17419444  0.57617645  0.50311206  1
  Ca2+  Ca5  1  0.16865676  0.58307303  0.84081731  1
  Ca2+  Ca6  1  0.67788603  0.08132814  0.17115744  1
  Ca2+  Ca7  1  0.66995230  0.07983186  0.49817698  1
  Ca2+  Ca8  1  0.67388901  0.08199663  0.84053044  1
  Ca2+  Ca9  1  0.68007099  0.57849105  0.17263939  1
  Ca2+  Ca10  1  0.66930563  0.57550480  0.50828343  1
  Ca2+  Ca11  1  0.67475541  0.58571434  0.83213423  1
  Ca2+  Ca12  1  0.08148187  0.32838149  0.15228072  1
  Ca2+  Ca13  1  0.08447830  0.33201655  0.49302323  1
  Ca2+  Ca14  1  0.08146174  0.33183028  0.83897107  1
  Ca2+  Ca15  1  0.08913597  0.82715233  0.15921215  1
  Ca2+  Ca16  1  0.08116479  0.83786016  0.49908945  1
  Ca2+  Ca17  1  0.08109770  0.83421809  0.83010323  1
  Ca2+  Ca18  1  0.57266887  0.33979735  0.16360404  1
  Ca2+  Ca19  1  0.58023664  0.33942942  0.49292530  1
  Ca2+  Ca20  1  0.57966884  0.33571623  0.83009303  1
  Ca2+  Ca21  1  0.57971265  0.83693832  0.16134689  1
  Ca2+  Ca22  1  0.58742621  0.82602594  0.49509370  1
  Ca2+  Ca23  1  0.57599659  0.82866983  0.82806298  1
  Ca2+  Ca24  1  0.32325479  0.40470858  0.16749765  1
  Ca2+  Ca25  1  0.33043972  0.41553904  0.50299398  1
  Ca2+  Ca26  1  0.33037707  0.42277550  0.83924261  1
  Ca2+  Ca27  1  0.32507713  0.91649455  0.16621576  1
  Ca2+  Ca28  1  0.32085874  0.91991524  0.50955324  1
  Ca2+  Ca29  1  0.32686705  0.92345564  0.84428935  1
  Ca2+  Ca30  1  0.83754708  0.42580763  0.17157902  1
  Ca2+  Ca31  1  0.82259478  0.42814779  0.50570753  1
  Ca2+  Ca32  1  0.83184839  0.42479074  0.84089048  1
  Ca2+  Ca33  1  0.83390485  0.93046698  0.17222979  1
  Ca2+  Ca34  1  0.83303782  0.91851468  0.50071187  1
  Ca2+  Ca35  1  0.83515229  0.91783882  0.83807121  1
  Ca2+  Ca36  1  0.41420453  0.17506939  0.15825854  1
  Ca2+  Ca37  1  0.41621944  0.17093028  0.49419138  1
  Ca2+  Ca38  1  0.40436939  0.17042068  0.83325780  1
  Ca2+  Ca39  1  0.42007790  0.67507174  0.15790756  1
  Ca2+  Ca40  1  0.42270110  0.65821717  0.49991490  1
  Ca2+  Ca41  1  0.41770561  0.67099227  0.82642990  1
  Ca2+  Ca42  1  0.91973016  0.16999975  0.15496900  1
  Ca2+  Ca43  1  0.91779967  0.16704715  0.49366016  1
  Ca2+  Ca44  1  0.92093480  0.16637572  0.83502162  1
  Ca2+  Ca45  1  0.92093817  0.66295555  0.15813206  1
  Ca2+  Ca46  1  0.90831162  0.67019103  0.49924099  1
  Ca2+  Ca47  1  0.92070542  0.66619197  0.82873857  1
  Al0+  Al48  1  -0.00027971  -0.00071044  0.00400295  1
  Al0+  Al49  1  0.00145654  -0.00032314  0.33938013  1
  Al0+  Al50  1  0.00012479  0.00010946  0.66412919  1
  Al0+  Al51  1  0.00077552  0.50063754  -0.00203703  1
  Al0+  Al52  1  0.00229574  0.50078345  0.34339038  1
  Al0+  Al53  1  -0.00118218  0.49948718  0.66606894  1
  Al0+  Al54  1  0.49901153  0.00057983  -0.00113254  1
  Al0+  Al55  1  0.50125855  0.00054718  0.33482703  1
  Al0+  Al56  1  0.50023622  0.00268291  0.66758918  1
  Al0+  Al57  1  0.50138560  0.50056023  -0.00482796  1
  Al0+  Al58  1  0.50043298  0.50123295  0.32661127  1
  Al0+  Al59  1  0.49849829  0.49947568  0.67003847  1
  Al0+  Al60  1  0.24996262  0.24935119  -0.00331132  1
  Al0+  Al61  1  0.24935261  0.24911850  0.33334784  1
  Al0+  Al62  1  0.24864581  0.24865804  0.66695404  1
  Al0+  Al63  1  0.25155225  0.74992924  -0.00517033  1
  Al0+  Al64  1  0.24982207  0.74953517  0.33721455  1
  Al0+  Al65  1  0.24744990  0.74877249  0.67120716  1
  Al0+  Al66  1  0.74790733  0.25115044  0.00028109  1
  Al0+  Al67  1  0.75036280  0.25127786  0.33871131  1
  Al0+  Al68  1  0.74814697  0.25004180  0.66787832  1
  Al0+  Al69  1  0.74993082  0.74821966  0.00447782  1
  Al0+  Al70  1  0.75133593  0.75283505  0.33449527  1
  Al0+  Al71  1  0.74951774  0.75008373  0.66154248  1
  Al0+  Al72  1  0.18096786  0.92681174  0.34851421  1
  Al0+  Al73  1  0.07055206  0.67890943  0.98765185  1
  Al0+  Al74  1  0.82339957  0.57201999  0.34951995  1
  Al0+  Al75  1  0.92700809  0.32214400  0.98580836  1
  Al0+  Al76  1  0.18071183  0.42701836  0.34622604  1
  Al0+  Al77  1  0.18143051  0.43113183  0.01117467  1
  Al0+  Al78  1  0.17695664  0.92920288  0.68351935  1
  Al0+  Al79  1  0.82038285  0.57285474  0.68367109  1
  Al0+  Al80  1  0.67806735  0.42787210  0.68408486  1
  Al0+  Al81  1  0.42862855  0.32075409  0.98371597  1
  Al0+  Al82  1  0.67659593  0.43097122  0.34681005  1
  Al0+  Al83  1  0.31987600  0.56904641  0.67976153  1
  Al0+  Al84  1  0.67744603  0.92992024  0.34833334  1
  Al0+  Al85  1  0.43007290  0.82168026  0.98611816  1
  Al0+  Al86  1  0.07056548  0.17628233  0.98446712  1
  Al0+  Al87  1  0.32163157  0.07177366  0.01710051  1
  Al0+  Al88  1  0.32219386  0.07128665  0.68162876  1
  Al0+  Al89  1  0.82137282  0.56998611  0.01375172  1
  Al0+  Al90  1  0.56811079  0.68009955  0.65224225  1
  Al0+  Al91  1  0.42917426  0.32046205  0.31914746  1
  Al0+  Al92  1  0.82246344  0.07222566  0.34931660  1
  Al0+  Al93  1  0.93041855  0.82064935  0.65228669  1
  Al0+  Al94  1  0.82074516  0.07160281  0.01164549  1
  Al0+  Al95  1  0.17891656  0.92673297  0.01589818  1
  Si0+  Si96  1  0.07183533  0.67903342  0.31979968  1
  Si0+  Si97  1  0.57368960  0.17701070  0.31609369  1
  Si0+  Si98  1  0.57174977  0.17799736  0.98279451  1
  Si0+  Si99  1  0.42793513  0.82126401  0.32036938  1
  Si0+  Si100  1  0.57258483  0.68029217  0.31644493  1
  Si0+  Si101  1  0.07353345  0.67519994  0.64737476  1
  Si0+  Si102  1  0.06923446  0.18065749  0.64972742  1
  Si0+  Si103  1  0.32490862  0.57256726  0.01628530  1
  Si0+  Si104  1  0.67633758  0.42793060  0.01743264  1
  Si0+  Si105  1  0.06984659  0.17847519  0.31865932  1
  Si0+  Si106  1  0.93020887  0.32230500  0.32152610  1
  Si0+  Si107  1  0.42935653  0.31909893  0.65158701  1
  Si0+  Si108  1  0.57396711  0.17775830  0.64967089  1
  Si0+  Si109  1  0.67770100  0.92739236  0.01423052  1
  Si0+  Si110  1  0.92668173  0.82144055  0.98683303  1
  Si0+  Si111  1  0.17652148  0.42635847  0.68383542  1
  Si0+  Si112  1  0.57402621  0.67856780  0.98269241  1
  Si0+  Si113  1  0.92665456  0.32147915  0.64997459  1
  Si0+  Si114  1  0.32223950  0.57274530  0.34669410  1
  Si0+  Si115  1  0.32170253  0.07213124  0.34887988  1
  Si0+  Si116  1  0.67892272  0.92871340  0.68114002  1
  Si0+  Si117  1  0.93002880  0.82211994  0.31712506  1
  Si0+  Si118  1  0.42668054  0.82349757  0.64964083  1
  Si0+  Si119  1  0.82046679  0.07097374  0.68140441  1
  O2-  O120  1  0.24970609  -0.00029045  0.06680716  1
  O2-  O121  1  0.25705136  0.00043246  0.39376654  1
  O2-  O122  1  0.25517043  -0.00493562  0.73132375  1
  O2-  O123  1  0.25778543  0.50294766  0.06111942  1
  O2-  O124  1  0.25804481  0.49964574  0.39080417  1
  O2-  O125  1  0.24159002  0.49870392  0.72658113  1
  O2-  O126  1  0.74694205  -0.00420912  0.05765545  1
  O2-  O127  1  0.74984872  0.00082488  0.39963969  1
  O2-  O128  1  0.75000589  -0.00048488  0.72348280  1
  O2-  O129  1  0.74852949  0.49354674  0.06041861  1
  O2-  O130  1  0.74791502  0.50279320  0.39769620  1
  O2-  O131  1  0.75165862  0.49797099  0.73372108  1
  O2-  O132  1  -0.00167413  0.24941746  0.27763114  1
  O2-  O133  1  -0.00035145  0.25273784  0.60637552  1
  O2-  O134  1  -0.00339544  0.24758166  0.93510744  1
  O2-  O135  1  -0.00084311  0.74840359  0.27658768  1
  O2-  O136  1  0.00437745  0.74455850  0.60437651  1
  O2-  O137  1  -0.00380033  0.75442683  0.94204942  1
  O2-  O138  1  0.50545605  0.24658605  0.27263685  1
  O2-  O139  1  0.50070859  0.24802703  0.60959816  1
  O2-  O140  1  0.50239718  0.24515204  0.93684794  1
  O2-  O141  1  0.50144640  0.75287475  0.27671483  1
  O2-  O142  1  0.49307804  0.75402945  0.60260446  1
  O2-  O143  1  0.50436985  0.74665999  0.93948112  1
  O2-  O144  1  0.06906970  0.17749911  0.09881416  1
  O2-  O145  1  0.07026387  0.18005135  0.42435714  1
  O2-  O146  1  0.06812622  0.18014722  0.75417176  1
  O2-  O147  1  0.06900565  0.67764656  0.10152896  1
  O2-  O148  1  0.07403347  0.68017191  0.42473019  1
  O2-  O149  1  0.07291639  0.67363684  0.75274420  1
  O2-  O150  1  0.57258697  0.17881014  0.08836224  1
  O2-  O151  1  0.57098248  0.17526021  0.42199693  1
  O2-  O152  1  0.57891750  0.17649342  0.75419841  1
  O2-  O153  1  0.57383529  0.67960772  0.08871161  1
  O2-  O154  1  0.57044283  0.67862560  0.42157591  1
  O2-  O155  1  0.56784754  0.68398591  0.76518271  1
  O2-  O156  1  0.17799345  0.42684476  0.23354860  1
  O2-  O157  1  0.17975966  0.42427163  0.57761204  1
  O2-  O158  1  0.18198076  0.43409760  0.89811980  1
  O2-  O159  1  0.18166474  0.92425653  0.23612241  1
  O2-  O160  1  0.17735703  0.93334109  0.56928861  1
  O2-  O161  1  0.17926061  0.92715463  0.90281004  1
  O2-  O162  1  0.67608923  0.43369572  0.23337199  1
  O2-  O163  1  0.67798440  0.42825735  0.57035484  1
  O2-  O164  1  0.67513636  0.42934077  0.91200036  1
  O2-  O165  1  0.67782989  0.93130828  0.23461292  1
  O2-  O166  1  0.67854450  0.93068070  0.57615389  1
  O2-  O167  1  0.67913792  0.92683776  0.90821948  1
  O2-  O168  1  0.43040175  0.32082570  0.09704162  1
  O2-  O169  1  0.42837839  0.31858999  0.43285201  1
  O2-  O170  1  0.42888983  0.31805863  0.75638490  1
  O2-  O171  1  0.43212064  0.81969777  0.10019328  1
  O2-  O172  1  0.42714040  0.81895360  0.42531417  1
  O2-  O173  1  0.43125827  0.82323951  0.75500015  1
  O2-  O174  1  0.92965076  0.32209777  0.10019080  1
  O2-  O175  1  0.93355532  0.32008587  0.42699622  1
  O2-  O176  1  0.92633426  0.31964467  0.75461675  1
  O2-  O177  1  0.92531905  0.81992259  0.09259370  1
  O2-  O178  1  0.93117339  0.82285145  0.42234480  1
  O2-  O179  1  0.93058405  0.82247386  0.76543288  1
  O2-  O180  1  0.31994281  0.07306378  0.24379642  1
  O2-  O181  1  0.31982165  0.07294073  0.56730256  1
  O2-  O182  1  0.32091375  0.06906188  0.90378422  1
  O2-  O183  1  0.31940968  0.57795440  0.24157985  1
  O2-  O184  1  0.32110233  0.56405559  0.56597292  1
  O2-  O185  1  0.32427128  0.57101123  0.91059836  1
  O2-  O186  1  0.82327967  0.07150115  0.23582885  1
  O2-  O187  1  0.81928119  0.07145189  0.57634682  1
  O2-  O188  1  0.81889413  0.06886155  0.89797203  1
  O2-  O189  1  0.82527038  0.56958161  0.23562438  1
  O2-  O190  1  0.81721324  0.57152440  0.57014886  1
  O2-  O191  1  0.81900966  0.57304432  0.90120767  1
  O2-  O192  1  0.04228692  0.08576066  0.27320922  1
  O2-  O193  1  0.03923920  0.09019456  0.60046910  1
  O2-  O194  1  0.04020758  0.07792119  0.93206278  1
  O2-  O195  1  0.04447493  0.58542552  0.27502615  1
  O2-  O196  1  0.04940498  0.58056158  0.60111030  1
  O2-  O197  1  0.03900759  0.58479844  0.93033525  1
  O2-  O198  1  0.54890965  0.08314844  0.26951768  1
  O2-  O199  1  0.54666952  0.08594566  0.60075527  1
  O2-  O200  1  0.54974062  0.08358965  0.93662343  1
  O2-  O201  1  0.54424210  0.59055000  0.26553264  1
  O2-  O202  1  0.53516013  0.58269481  0.59931637  1
  O2-  O203  1  0.55007413  0.58546306  0.93576234  1
  O2-  O204  1  0.16152671  0.20605783  0.27189037  1
  O2-  O205  1  0.16117343  0.20863233  0.60122291  1
  O2-  O206  1  0.16715979  0.20706242  0.93037619  1
  O2-  O207  1  0.16334940  0.70799911  0.27216593  1
  O2-  O208  1  0.16782314  0.70031137  0.60117247  1
  O2-  O209  1  0.16718720  0.70632013  0.93248976  1
  O2-  O210  1  0.66879786  0.20159840  0.27249955  1
  O2-  O211  1  0.66465925  0.20655021  0.59961072  1
  O2-  O212  1  0.66438748  0.20483647  0.93477957  1
  O2-  O213  1  0.66447362  0.70927774  0.26945595  1
  O2-  O214  1  0.66326917  0.71205122  0.59620605  1
  O2-  O215  1  0.66702496  0.70660909  0.93658736  1
  O2-  O216  1  0.08573954  0.46314597  0.06591593  1
  O2-  O217  1  0.08798162  0.45983207  0.40593164  1
  O2-  O218  1  0.08099406  0.44712189  0.72629349  1
  O2-  O219  1  0.08009106  0.95251098  0.06922792  1
  O2-  O220  1  0.08594559  0.95986188  0.40316030  1
  O2-  O221  1  0.08009224  0.96421815  0.73470751  1
  O2-  O222  1  0.58390043  0.45878286  0.06340775  1
  O2-  O223  1  0.57739572  0.46033157  0.39852357  1
  O2-  O224  1  0.58007228  0.45673057  0.73583534  1
  O2-  O225  1  0.58493188  0.95397673  0.06048351  1
  O2-  O226  1  0.57911166  0.95624198  0.40359894  1
  O2-  O227  1  0.58745353  0.95708452  0.72859721  1
  O2-  O228  1  0.21010006  0.33373239  0.06394277  1
  O2-  O229  1  0.21025376  0.33085499  0.40243684  1
  O2-  O230  1  0.20555807  0.33419291  0.72930499  1
  O2-  O231  1  0.21165485  0.82829053  0.06738654  1
  O2-  O232  1  0.21124509  0.83124474  0.40493745  1
  O2-  O233  1  0.19523108  0.82744716  0.73146479  1
  O2-  O234  1  0.69570696  0.33299355  0.06228686  1
  O2-  O235  1  0.70133293  0.33210026  0.39986515  1
  O2-  O236  1  0.70440221  0.32810661  0.73549192  1
  O2-  O237  1  0.70092222  0.83425062  0.06209886  1
  O2-  O238  1  0.70633937  0.83208461  0.40116769  1
  O2-  O239  1  0.70703294  0.83748143  0.72787171  1
  O2-  O240  1  0.45622975  0.41763197  0.26339077  1
  O2-  O241  1  0.45680478  0.41091085  0.60449832  1
  O2-  O242  1  0.45999284  0.41775217  0.92990541  1
  O2-  O243  1  0.45330076  0.91425779  0.27384518  1
  O2-  O244  1  0.45314101  0.91778012  0.60467435  1
  O2-  O245  1  0.46113956  0.91755784  0.93083018  1
  O2-  O246  1  0.96068346  0.41479185  0.27715659  1
  O2-  O247  1  0.95264726  0.41385296  0.60223835  1
  O2-  O248  1  0.96024268  0.41776939  0.93069851  1
  O2-  O249  1  0.96079274  0.91411234  0.27149019  1
  O2-  O250  1  0.96150750  0.91725151  0.59606326  1
  O2-  O251  1  0.95025230  0.91528051  0.94091134  1
  O2-  O252  1  0.33250660  0.28689280  0.26603431  1
  O2-  O253  1  0.33693214  0.29093842  0.60391391  1
  O2-  O254  1  0.33283389  0.29134648  0.92833519  1
  O2-  O255  1  0.33728448  0.78964294  0.27230728  1
  O2-  O256  1  0.33098846  0.79890527  0.60734526  1
  O2-  O257  1  0.33552712  0.79060359  0.92945711  1
  O2-  O258  1  0.83636488  0.29916438  0.27644444  1
  O2-  O259  1  0.83544648  0.29030993  0.60268860  1
  O2-  O260  1  0.82724548  0.29694257  0.93393011  1
  O2-  O261  1  0.83679041  0.79941340  0.27003801  1
  O2-  O262  1  0.83373037  0.79216717  0.59628825  1
  O2-  O263  1  0.83285515  0.79545963  0.94071181  1
  O2-  O264  1  0.42123085  0.04427078  0.06863869  1
  O2-  O265  1  0.41699387  0.05168731  0.39314865  1
  O2-  O266  1  0.42353943  0.05207152  0.73238175  1
  O2-  O267  1  0.41999804  0.54949142  0.06042226  1
  O2-  O268  1  0.41743447  0.55012136  0.38970671  1
  O2-  O269  1  0.41367255  0.53644790  0.73646473  1
  O2-  O270  1  0.91545595  0.04147271  0.06860320  1
  O2-  O271  1  0.91908545  0.04158529  0.40459874  1
  O2-  O272  1  0.91247502  0.04315564  0.72681364  1
  O2-  O273  1  0.91783393  0.53953280  0.06733435  1
  O2-  O274  1  0.91950191  0.54333476  0.40627916  1
  O2-  O275  1  0.92126820  0.54646669  0.73204740  1
  O2-  O276  1  0.29346797  0.17080094  0.06753047  1
  O2-  O277  1  0.29152299  0.16334082  0.39735873  1
  O2-  O278  1  0.28840915  0.16834668  0.73353863  1
  O2-  O279  1  0.29920466  0.66626672  0.06067004  1
  O2-  O280  1  0.29307255  0.66261530  0.39841825  1
  O2-  O281  1  0.29445899  0.66681947  0.73343471  1
  O2-  O282  1  0.78908968  0.16783353  0.06599109  1
  O2-  O283  1  0.79581336  0.17025368  0.40380715  1
  O2-  O284  1  0.79162944  0.16198035  0.72865501  1
  O2-  O285  1  0.78983318  0.66560204  0.07052005  1
  O2-  O286  1  0.79778705  0.67252885  0.39742701  1
  O2-  O287  1  0.78910265  0.67160504  0.73372907  1
