# generated using pymatgen
data_Ca2Al2SiO7
_symmetry_space_group_name_H-M   'P 1'
_cell_length_a   15.45815473
_cell_length_b   15.45865117
_cell_length_c   15.28417224
_cell_angle_alpha   89.99907609
_cell_angle_beta   90.00669997
_cell_angle_gamma   89.98531210
_symmetry_Int_Tables_number   1
_chemical_formula_structural   Ca2Al2SiO7
_chemical_formula_sum   'Ca48 Al48 Si24 O168'
_cell_volume   3652.33960816
_cell_formula_units_Z   24
loop_
 _symmetry_equiv_pos_site_id
 _symmetry_equiv_pos_as_xyz
  1  'x, y, z'
loop_
 _atom_type_symbol
 _atom_type_oxidation_number
  Ca2+  2.0
  Al0+  0.0
  Si0+  0.0
  O2-  -2.0
loop_
 _atom_site_type_symbol
 _atom_site_label
 _atom_site_symmetry_multiplicity
 _atom_site_fract_x
 _atom_site_fract_y
 _atom_site_fract_z
 _atom_site_occupancy
  Ca2+  Ca0  1  0.16620016  0.08312517  0.17264489  1
  Ca2+  Ca1  1  0.16617556  0.08446603  0.50388138  1
  Ca2+  Ca2  1  0.16594622  0.07904391  0.83742934  1
  Ca2+  Ca3  1  0.16881186  0.57683608  0.17235824  1
  Ca2+  Ca4  1  0.16542813  0.57913767  0.50200772  1
  Ca2+  Ca5  1  0.16680332  0.57716468  0.84207286  1
  Ca2+  Ca6  1  0.66937240  0.08586842  0.17261253  1
  Ca2+  Ca7  1  0.65758412  0.07176660  0.50070497  1
  Ca2+  Ca8  1  0.66950953  0.07642573  0.84081807  1
  Ca2+  Ca9  1  0.67555148  0.57611208  0.17124813  1
  Ca2+  Ca10  1  0.67003937  0.58316752  0.50640651  1
  Ca2+  Ca11  1  0.67926458  0.59159069  0.83554391  1
  Ca2+  Ca12  1  0.08466541  0.33411073  0.16318838  1
  Ca2+  Ca13  1  0.08641594  0.33429504  0.49449915  1
  Ca2+  Ca14  1  0.07992202  0.34511297  0.83385307  1
  Ca2+  Ca15  1  0.07993310  0.81807681  0.15888154  1
  Ca2+  Ca16  1  0.07779196  0.82017096  0.49429282  1
  Ca2+  Ca17  1  0.07119028  0.81879873  0.82939386  1
  Ca2+  Ca18  1  0.58542617  0.32685681  0.15789577  1
  Ca2+  Ca19  1  0.57804282  0.33314319  0.49104484  1
  Ca2+  Ca20  1  0.57016964  0.33541415  0.83041735  1
  Ca2+  Ca21  1  0.57856888  0.83789225  0.16940002  1
  Ca2+  Ca22  1  0.58600459  0.82923045  0.49636649  1
  Ca2+  Ca23  1  0.58635439  0.82776353  0.82639948  1
  Ca2+  Ca24  1  0.32790921  0.42570757  0.17026444  1
  Ca2+  Ca25  1  0.32286202  0.41691880  0.50471225  1
  Ca2+  Ca26  1  0.32529002  0.41621747  0.84151323  1
  Ca2+  Ca27  1  0.33439841  0.91632092  0.17447044  1
  Ca2+  Ca28  1  0.33667617  0.91658839  0.49951191  1
  Ca2+  Ca29  1  0.33124600  0.91834225  0.83822920  1
  Ca2+  Ca30  1  0.83420173  0.41826742  0.16697836  1
  Ca2+  Ca31  1  0.82551437  0.42105739  0.50289994  1
  Ca2+  Ca32  1  0.83814667  0.42910343  0.84077784  1
  Ca2+  Ca33  1  0.83228888  0.92098271  0.16807257  1
  Ca2+  Ca34  1  0.82409504  0.91226930  0.50727180  1
  Ca2+  Ca35  1  0.83461403  0.91566170  0.83896320  1
  Ca2+  Ca36  1  0.43097700  0.17500401  0.15934307  1
  Ca2+  Ca37  1  0.42028691  0.17602636  0.49487490  1
  Ca2+  Ca38  1  0.41806191  0.17963328  0.83326025  1
  Ca2+  Ca39  1  0.40949776  0.66631044  0.16510386  1
  Ca2+  Ca40  1  0.41969377  0.66984053  0.49358992  1
  Ca2+  Ca41  1  0.42483841  0.65869856  0.82985495  1
  Ca2+  Ca42  1  0.91867832  0.17242170  0.15912483  1
  Ca2+  Ca43  1  0.92461640  0.16917829  0.49317406  1
  Ca2+  Ca44  1  0.91188640  0.17227554  0.83692150  1
  Ca2+  Ca45  1  0.92743826  0.66491899  0.15725275  1
  Ca2+  Ca46  1  0.92351553  0.66255167  0.50248597  1
  Ca2+  Ca47  1  0.92177592  0.66545286  0.82563672  1
  Al0+  Al48  1  -0.00149762  -0.00130320  0.00173847  1
  Al0+  Al49  1  0.00042826  0.00100435  0.33047780  1
  Al0+  Al50  1  -0.00087530  0.00024270  0.66399565  1
  Al0+  Al51  1  0.00101810  0.49775478  0.00187332  1
  Al0+  Al52  1  0.00045661  0.50027500  0.33342791  1
  Al0+  Al53  1  -0.00080100  0.49868250  0.66823748  1
  Al0+  Al54  1  0.49999279  -0.00071757  -0.00438507  1
  Al0+  Al55  1  0.50065126  0.00098175  0.32967568  1
  Al0+  Al56  1  0.49987249  0.00134288  0.67415200  1
  Al0+  Al57  1  0.49889853  0.50023132  -0.00007778  1
  Al0+  Al58  1  0.50042238  0.50223610  0.33956874  1
  Al0+  Al59  1  0.49829468  0.49923759  0.65582678  1
  Al0+  Al60  1  0.25153342  0.24756425  0.00145506  1
  Al0+  Al61  1  0.25053772  0.25037351  0.33154593  1
  Al0+  Al62  1  0.25055653  0.25078075  0.66783667  1
  Al0+  Al63  1  0.24959461  0.75026520  -0.00259160  1
  Al0+  Al64  1  0.24978203  0.75109517  0.32986008  1
  Al0+  Al65  1  0.24961401  0.75033735  0.66499167  1
  Al0+  Al66  1  0.75249679  0.24645599  -0.00624256  1
  Al0+  Al67  1  0.75126427  0.25052984  0.33623768  1
  Al0+  Al68  1  0.74913697  0.24775808  0.66564963  1
  Al0+  Al69  1  0.74841984  0.75141363  0.00592023  1
  Al0+  Al70  1  0.74937456  0.75175828  0.33574218  1
  Al0+  Al71  1  0.74859027  0.75049188  0.66666527  1
  Al0+  Al72  1  0.57059977  0.18102398  0.32087430  1
  Al0+  Al73  1  0.67974164  0.42780818  0.34533458  1
  Al0+  Al74  1  0.67977005  0.93018385  0.68187485  1
  Al0+  Al75  1  0.67914834  0.93168469  0.34720492  1
  Al0+  Al76  1  0.42815485  0.32000017  0.65020364  1
  Al0+  Al77  1  0.82137600  0.57249909  0.01376063  1
  Al0+  Al78  1  0.32042370  0.57478622  0.35094481  1
  Al0+  Al79  1  0.57024104  0.68043616  0.65342803  1
  Al0+  Al80  1  0.93096413  0.32004561  0.98651737  1
  Al0+  Al81  1  0.06939447  0.67901098  0.31815791  1
  Al0+  Al82  1  0.17956113  0.42873555  0.34990275  1
  Al0+  Al83  1  0.92714212  0.82079877  0.98650075  1
  Al0+  Al84  1  0.92828999  0.82171831  0.65026299  1
  Al0+  Al85  1  0.82056607  0.07047612  0.01430242  1
  Al0+  Al86  1  0.07100680  0.67700384  0.98411854  1
  Al0+  Al87  1  0.42921939  0.32224422  0.98619251  1
  Al0+  Al88  1  0.18064802  0.42955160  0.68208259  1
  Al0+  Al89  1  0.17904304  0.42720385  0.01673863  1
  Al0+  Al90  1  0.81752950  0.56771501  0.67947670  1
  Al0+  Al91  1  0.32280285  0.57250721  0.01430254  1
  Al0+  Al92  1  0.07249669  0.17880150  0.32002004  1
  Al0+  Al93  1  0.07151751  0.67610022  0.65032823  1
  Al0+  Al94  1  0.57338720  0.17735600  0.98239675  1
  Al0+  Al95  1  0.43121917  0.81947619  0.32082195  1
  Si0+  Si96  1  0.32226130  0.06926311  0.01628059  1
  Si0+  Si97  1  0.17813397  0.92975228  0.34787506  1
  Si0+  Si98  1  0.57068530  0.67907130  0.98812172  1
  Si0+  Si99  1  0.57145177  0.17713542  0.64942295  1
  Si0+  Si100  1  0.82193836  0.57263000  0.35008500  1
  Si0+  Si101  1  0.07070924  0.17931183  0.65368321  1
  Si0+  Si102  1  0.32329180  0.57367597  0.68193798  1
  Si0+  Si103  1  0.67543508  0.92814485  0.01940761  1
  Si0+  Si104  1  0.57435396  0.67656409  0.31528671  1
  Si0+  Si105  1  0.92842479  0.32143512  0.31786085  1
  Si0+  Si106  1  0.42824441  0.32463932  0.31608371  1
  Si0+  Si107  1  0.31938497  0.07087603  0.68262480  1
  Si0+  Si108  1  0.42829327  0.82159685  0.98441807  1
  Si0+  Si109  1  0.67470364  0.42496459  0.68257883  1
  Si0+  Si110  1  0.42719170  0.82517782  0.65196488  1
  Si0+  Si111  1  0.82502873  0.07308648  0.68404599  1
  Si0+  Si112  1  0.17952567  0.92986923  0.01504425  1
  Si0+  Si113  1  0.07314184  0.17610660  0.98351517  1
  Si0+  Si114  1  0.32098102  0.07011016  0.34714786  1
  Si0+  Si115  1  0.82402565  0.07241345  0.35137216  1
  Si0+  Si116  1  0.92568025  0.82269567  0.31601342  1
  Si0+  Si117  1  0.17709718  0.92824329  0.68087559  1
  Si0+  Si118  1  0.92762645  0.32112859  0.65172627  1
  Si0+  Si119  1  0.67872435  0.42804898  0.01181292  1
  O2-  O120  1  0.25089641  -0.00043414  0.05945152  1
  O2-  O121  1  0.24710445  0.00270771  0.39141960  1
  O2-  O122  1  0.25043211  -0.00293581  0.72408098  1
  O2-  O123  1  0.24991555  0.50164183  0.06417583  1
  O2-  O124  1  0.25069309  0.50073680  0.40126914  1
  O2-  O125  1  0.25333231  0.50710904  0.72664789  1
  O2-  O126  1  0.74426120  -0.00230982  0.06138442  1
  O2-  O127  1  0.75580589  0.00364697  0.39575823  1
  O2-  O128  1  0.75576894  0.00422946  0.72656916  1
  O2-  O129  1  0.74755344  0.49547381  0.05806890  1
  O2-  O130  1  0.75098804  0.50538143  0.39301214  1
  O2-  O131  1  0.74267285  0.49321135  0.72777302  1
  O2-  O132  1  -0.00161006  0.25352033  0.27447500  1
  O2-  O133  1  -0.00147235  0.24880576  0.61134110  1
  O2-  O134  1  0.00854387  0.24781257  0.93869294  1
  O2-  O135  1  -0.00768564  0.75219362  0.27265760  1
  O2-  O136  1  0.00095581  0.75033784  0.60071066  1
  O2-  O137  1  -0.00667527  0.74419820  0.93567151  1
  O2-  O138  1  0.50245894  0.26105790  0.27324289  1
  O2-  O139  1  0.50748936  0.24939080  0.60421342  1
  O2-  O140  1  0.50275903  0.25185355  0.93475983  1
  O2-  O141  1  0.50304919  0.74318097  0.27179845  1
  O2-  O142  1  0.49364700  0.75468892  0.60848357  1
  O2-  O143  1  0.49821571  0.74898749  0.94492233  1
  O2-  O144  1  0.07161760  0.17425230  0.08903079  1
  O2-  O145  1  0.07084917  0.17704534  0.43378846  1
  O2-  O146  1  0.07150961  0.17629596  0.75844181  1
  O2-  O147  1  0.07244205  0.68061834  0.09787994  1
  O2-  O148  1  0.06832282  0.68037803  0.43124212  1
  O2-  O149  1  0.07110067  0.67685875  0.76347392  1
  O2-  O150  1  0.57165120  0.17750296  0.09643133  1
  O2-  O151  1  0.56492916  0.17926271  0.43408707  1
  O2-  O152  1  0.56918618  0.17650575  0.75457448  1
  O2-  O153  1  0.57136376  0.67992696  0.09299051  1
  O2-  O154  1  0.57637391  0.67952742  0.42086732  1
  O2-  O155  1  0.56989451  0.68183452  0.76720018  1
  O2-  O156  1  0.18042288  0.42700339  0.23704065  1
  O2-  O157  1  0.18153909  0.42529414  0.56934470  1
  O2-  O158  1  0.18138325  0.42760780  0.90275578  1
  O2-  O159  1  0.17999299  0.93126423  0.24267040  1
  O2-  O160  1  0.17754399  0.93132789  0.57563106  1
  O2-  O161  1  0.18228213  0.93250935  0.90948937  1
  O2-  O162  1  0.68305404  0.42707788  0.23194608  1
  O2-  O163  1  0.67821520  0.42427836  0.57678459  1
  O2-  O164  1  0.67766052  0.43188626  0.90621818  1
  O2-  O165  1  0.67844049  0.93428164  0.23442255  1
  O2-  O166  1  0.67712085  0.93325116  0.56865496  1
  O2-  O167  1  0.67343499  0.92737788  0.91380055  1
  O2-  O168  1  0.43197580  0.32029660  0.09965900  1
  O2-  O169  1  0.42662499  0.31902531  0.42196703  1
  O2-  O170  1  0.42672398  0.31742883  0.76301825  1
  O2-  O171  1  0.42896759  0.82609506  0.08927999  1
  O2-  O172  1  0.43355986  0.82225511  0.43391164  1
  O2-  O173  1  0.42703201  0.82668668  0.75777470  1
  O2-  O174  1  0.92896905  0.31719761  0.09957509  1
  O2-  O175  1  0.92753162  0.31951951  0.42401344  1
  O2-  O176  1  0.92731351  0.32086735  0.75656825  1
  O2-  O177  1  0.93162718  0.82196973  0.10020636  1
  O2-  O178  1  0.92706903  0.82403956  0.42157319  1
  O2-  O179  1  0.93090245  0.82269676  0.76352411  1
  O2-  O180  1  0.32047527  0.06711495  0.24208426  1
  O2-  O181  1  0.31896382  0.07087994  0.57724189  1
  O2-  O182  1  0.32082223  0.06700972  0.91068944  1
  O2-  O183  1  0.31820509  0.57436282  0.23758175  1
  O2-  O184  1  0.32270728  0.57375391  0.57664830  1
  O2-  O185  1  0.32494383  0.57273088  0.90052234  1
  O2-  O186  1  0.82431334  0.07248205  0.24591162  1
  O2-  O187  1  0.82767885  0.07517775  0.57854016  1
  O2-  O188  1  0.82081230  0.06801906  0.90113383  1
  O2-  O189  1  0.82156732  0.57180359  0.24434494  1
  O2-  O190  1  0.81691974  0.56446805  0.56613445  1
  O2-  O191  1  0.81874602  0.57330829  0.90055883  1
  O2-  O192  1  0.04334726  0.08208376  0.26454015  1
  O2-  O193  1  0.04468804  0.08803027  0.60356282  1
  O2-  O194  1  0.04346502  0.08392218  0.93652632  1
  O2-  O195  1  0.03978028  0.58181224  0.26517437  1
  O2-  O196  1  0.03822907  0.57876843  0.59764855  1
  O2-  O197  1  0.04684284  0.57713668  0.93467989  1
  O2-  O198  1  0.53477502  0.08772495  0.26446146  1
  O2-  O199  1  0.53854861  0.08462851  0.60478939  1
  O2-  O200  1  0.53974528  0.08018006  0.92906400  1
  O2-  O201  1  0.55200017  0.58139937  0.27140661  1
  O2-  O202  1  0.54355609  0.58440429  0.59623831  1
  O2-  O203  1  0.54502379  0.58804476  0.93854392  1
  O2-  O204  1  0.16985655  0.20537606  0.26534377  1
  O2-  O205  1  0.16212272  0.20748408  0.60591866  1
  O2-  O206  1  0.16900228  0.19471904  0.93935907  1
  O2-  O207  1  0.16408565  0.71483495  0.26461007  1
  O2-  O208  1  0.17074037  0.70547865  0.59879411  1
  O2-  O209  1  0.16751293  0.71211322  0.93032594  1
  O2-  O210  1  0.67026228  0.20627752  0.27051267  1
  O2-  O211  1  0.66744078  0.19519200  0.60462158  1
  O2-  O212  1  0.67189558  0.19995688  0.92886709  1
  O2-  O213  1  0.66718076  0.70560478  0.26903334  1
  O2-  O214  1  0.66447069  0.71354498  0.59730930  1
  O2-  O215  1  0.66137450  0.71012924  0.94038129  1
  O2-  O216  1  0.08007173  0.45168773  0.06928277  1
  O2-  O217  1  0.07934509  0.45520082  0.40109375  1
  O2-  O218  1  0.08236803  0.45699896  0.73362754  1
  O2-  O219  1  0.08896804  0.95842878  0.06333915  1
  O2-  O220  1  0.08596552  0.95683129  0.39519607  1
  O2-  O221  1  0.08722059  0.96083519  0.72898354  1
  O2-  O222  1  0.58619003  0.45372836  0.05965134  1
  O2-  O223  1  0.58305623  0.45467332  0.40094494  1
  O2-  O224  1  0.57918100  0.45061061  0.72356803  1
  O2-  O225  1  0.58089750  0.95488371  0.06355867  1
  O2-  O226  1  0.58297501  0.96600722  0.40079642  1
  O2-  O227  1  0.58352844  0.96078711  0.73836019  1
  O2-  O228  1  0.20682388  0.32689739  0.06725624  1
  O2-  O229  1  0.20836733  0.32855176  0.40154391  1
  O2-  O230  1  0.21251788  0.33267054  0.73582802  1
  O2-  O231  1  0.20841994  0.83844983  0.06172760  1
  O2-  O232  1  0.20922272  0.84001857  0.39615103  1
  O2-  O233  1  0.20379585  0.83658891  0.72903065  1
  O2-  O234  1  0.70508870  0.33332882  0.05441749  1
  O2-  O235  1  0.71206498  0.33318031  0.40388758  1
  O2-  O236  1  0.69861251  0.33008845  0.72688557  1
  O2-  O237  1  0.69922962  0.83560022  0.06815787  1
  O2-  O238  1  0.70632554  0.83363937  0.40108878  1
  O2-  O239  1  0.70846320  0.83348792  0.73571486  1
  O2-  O240  1  0.44908568  0.42107706  0.27558985  1
  O2-  O241  1  0.45348652  0.41592156  0.59320940  1
  O2-  O242  1  0.45623586  0.42047087  0.93141278  1
  O2-  O243  1  0.46350438  0.91487834  0.26419040  1
  O2-  O244  1  0.45393983  0.91945953  0.60755210  1
  O2-  O245  1  0.45692352  0.91179824  0.93369711  1
  O2-  O246  1  0.95197783  0.41526371  0.27233811  1
  O2-  O247  1  0.95650052  0.41096446  0.60247907  1
  O2-  O248  1  0.96014021  0.41616705  0.93125440  1
  O2-  O249  1  0.95295220  0.91628661  0.27085417  1
  O2-  O250  1  0.95626050  0.92091375  0.59699172  1
  O2-  O251  1  0.96070416  0.91771945  0.93300177  1
  O2-  O252  1  0.33738921  0.29256784  0.26939356  1
  O2-  O253  1  0.33380671  0.28093521  0.59624188  1
  O2-  O254  1  0.33250669  0.28679880  0.93285210  1
  O2-  O255  1  0.33385422  0.79453504  0.26527479  1
  O2-  O256  1  0.33253012  0.80438935  0.60592226  1
  O2-  O257  1  0.33617898  0.79821563  0.93575281  1
  O2-  O258  1  0.83589084  0.29407876  0.27118142  1
  O2-  O259  1  0.83548790  0.29341940  0.60355612  1
  O2-  O260  1  0.83703609  0.28735181  0.92858989  1
  O2-  O261  1  0.83078908  0.80035526  0.27131896  1
  O2-  O262  1  0.83006673  0.79248394  0.59874078  1
  O2-  O263  1  0.82466713  0.80045814  0.93904424  1
  O2-  O264  1  0.41385383  0.03867215  0.06227879  1
  O2-  O265  1  0.41048225  0.03783398  0.39601096  1
  O2-  O266  1  0.41013136  0.04495947  0.73293141  1
  O2-  O267  1  0.42130927  0.54487290  0.06897135  1
  O2-  O268  1  0.42133047  0.55263988  0.40169597  1
  O2-  O269  1  0.41784183  0.54538249  0.72494739  1
  O2-  O270  1  0.91695386  0.03949836  0.06990167  1
  O2-  O271  1  0.91847797  0.04690738  0.39691201  1
  O2-  O272  1  0.91879171  0.04839121  0.73065264  1
  O2-  O273  1  0.91659377  0.53960631  0.06774091  1
  O2-  O274  1  0.91407424  0.54400492  0.39670643  1
  O2-  O275  1  0.91327666  0.53525295  0.73360600  1
  O2-  O276  1  0.29690563  0.16050467  0.06484169  1
  O2-  O277  1  0.29546917  0.16237011  0.39464826  1
  O2-  O278  1  0.28674101  0.15994170  0.73185157  1
  O2-  O279  1  0.29753570  0.67364481  0.06419382  1
  O2-  O280  1  0.29150888  0.67423961  0.40225026  1
  O2-  O281  1  0.30342507  0.66968153  0.72665781  1
  O2-  O282  1  0.79193949  0.16804445  0.06797500  1
  O2-  O283  1  0.80016210  0.16592628  0.39816491  1
  O2-  O284  1  0.79827206  0.16696205  0.72998419  1
  O2-  O285  1  0.78868410  0.66705102  0.07078669  1
  O2-  O286  1  0.79756025  0.66665704  0.39567855  1
  O2-  O287  1  0.78621378  0.66435778  0.73239301  1
