# generated using pymatgen
data_Ca2Al2SiO7
_symmetry_space_group_name_H-M   'P 1'
_cell_length_a   15.45862270
_cell_length_b   15.45893134
_cell_length_c   15.28470452
_cell_angle_alpha   90.01186531
_cell_angle_beta   89.99052866
_cell_angle_gamma   89.99149472
_symmetry_Int_Tables_number   1
_chemical_formula_structural   Ca2Al2SiO7
_chemical_formula_sum   'Ca48 Al48 Si24 O168'
_cell_volume   3652.64355347
_cell_formula_units_Z   24
loop_
 _symmetry_equiv_pos_site_id
 _symmetry_equiv_pos_as_xyz
  1  'x, y, z'
loop_
 _atom_type_symbol
 _atom_type_oxidation_number
  Ca2+  2.0
  Al0+  0.0
  Si0+  0.0
  O2-  -2.0
loop_
 _atom_site_type_symbol
 _atom_site_label
 _atom_site_symmetry_multiplicity
 _atom_site_fract_x
 _atom_site_fract_y
 _atom_site_fract_z
 _atom_site_occupancy
  Ca2+  Ca0  1  0.17057255  0.07439726  0.17084960  1
  Ca2+  Ca1  1  0.17086214  0.08040597  0.49772802  1
  Ca2+  Ca2  1  0.16907392  0.07505096  0.83966904  1
  Ca2+  Ca3  1  0.17942523  0.57869608  0.16863760  1
  Ca2+  Ca4  1  0.17482462  0.57950818  0.51051936  1
  Ca2+  Ca5  1  0.17396576  0.57767142  0.83672285  1
  Ca2+  Ca6  1  0.66617884  0.08315019  0.16356184  1
  Ca2+  Ca7  1  0.67463212  0.08672462  0.50971884  1
  Ca2+  Ca8  1  0.67311907  0.08487804  0.83947326  1
  Ca2+  Ca9  1  0.66823167  0.57491121  0.17436238  1
  Ca2+  Ca10  1  0.66400806  0.57829352  0.50284664  1
  Ca2+  Ca11  1  0.66342574  0.58667322  0.83460643  1
  Ca2+  Ca12  1  0.07988244  0.33596160  0.16264413  1
  Ca2+  Ca13  1  0.07987747  0.33571058  0.49598883  1
  Ca2+  Ca14  1  0.08762247  0.33802532  0.82957686  1
  Ca2+  Ca15  1  0.07667779  0.84375545  0.16189465  1
  Ca2+  Ca16  1  0.07712319  0.83334235  0.49647909  1
  Ca2+  Ca17  1  0.07670758  0.83187725  0.82594584  1
  Ca2+  Ca18  1  0.57382954  0.32960187  0.16115690  1
  Ca2+  Ca19  1  0.57393065  0.33188335  0.49668693  1
  Ca2+  Ca20  1  0.57099568  0.32512965  0.82938618  1
  Ca2+  Ca21  1  0.58331702  0.83259377  0.15985160  1
  Ca2+  Ca22  1  0.57751846  0.82749358  0.50344030  1
  Ca2+  Ca23  1  0.57903753  0.82923585  0.82504491  1
  Ca2+  Ca24  1  0.34065252  0.42300088  0.17091629  1
  Ca2+  Ca25  1  0.33593352  0.42326463  0.50828973  1
  Ca2+  Ca26  1  0.33231857  0.42243531  0.83734009  1
  Ca2+  Ca27  1  0.32023275  0.92143066  0.17695366  1
  Ca2+  Ca28  1  0.33194587  0.91883988  0.50290791  1
  Ca2+  Ca29  1  0.32888740  0.91132166  0.84011991  1
  Ca2+  Ca30  1  0.82544084  0.41306198  0.17604186  1
  Ca2+  Ca31  1  0.82531147  0.40798954  0.50291055  1
  Ca2+  Ca32  1  0.83066417  0.42154114  0.83744838  1
  Ca2+  Ca33  1  0.83309349  0.91742592  0.16575902  1
  Ca2+  Ca34  1  0.83705385  0.91799881  0.50686404  1
  Ca2+  Ca35  1  0.83177871  0.92337444  0.84188961  1
  Ca2+  Ca36  1  0.41483696  0.17696487  0.15854055  1
  Ca2+  Ca37  1  0.41393873  0.17811103  0.49369773  1
  Ca2+  Ca38  1  0.42697184  0.17258133  0.82482883  1
  Ca2+  Ca39  1  0.41335989  0.66119024  0.16514166  1
  Ca2+  Ca40  1  0.41354598  0.66333270  0.50197039  1
  Ca2+  Ca41  1  0.41636829  0.66834886  0.82499459  1
  Ca2+  Ca42  1  0.91472494  0.16944567  0.16403757  1
  Ca2+  Ca43  1  0.91775963  0.16855342  0.49616473  1
  Ca2+  Ca44  1  0.91463683  0.16133691  0.83070901  1
  Ca2+  Ca45  1  0.92026277  0.67969119  0.16008440  1
  Ca2+  Ca46  1  0.92516960  0.67534720  0.49598505  1
  Ca2+  Ca47  1  0.92365036  0.68039785  0.82431740  1
  Al0+  Al48  1  -0.00155687  0.00305885  0.00361142  1
  Al0+  Al49  1  -0.00070167  -0.00012582  0.33268547  1
  Al0+  Al50  1  -0.00020488  0.00289682  0.66672318  1
  Al0+  Al51  1  0.00151546  0.50191665  0.00344296  1
  Al0+  Al52  1  -0.00011853  0.50277920  0.32636759  1
  Al0+  Al53  1  -0.00166818  0.50045786  0.66619786  1
  Al0+  Al54  1  0.50202811  -0.00020801  -0.00034429  1
  Al0+  Al55  1  0.50140075  -0.00121363  0.33721995  1
  Al0+  Al56  1  0.50231153  -0.00087481  0.65913632  1
  Al0+  Al57  1  0.50091046  0.50022329  -0.00108183  1
  Al0+  Al58  1  0.50224521  0.49805122  0.33782860  1
  Al0+  Al59  1  0.50042777  0.49907284  0.66552728  1
  Al0+  Al60  1  0.24617053  0.25144815  -0.00167929  1
  Al0+  Al61  1  0.24955763  0.24997190  0.33033011  1
  Al0+  Al62  1  0.24881159  0.24852168  0.66645295  1
  Al0+  Al63  1  0.24903815  0.74738628  0.00971485  1
  Al0+  Al64  1  0.24989235  0.74867922  0.34117806  1
  Al0+  Al65  1  0.24889906  0.74938214  0.66334813  1
  Al0+  Al66  1  0.75057619  0.25053917  -0.00007134  1
  Al0+  Al67  1  0.74930402  0.24903973  0.33381638  1
  Al0+  Al68  1  0.75015137  0.24936585  0.67093873  1
  Al0+  Al69  1  0.75081394  0.75190058  -0.00096748  1
  Al0+  Al70  1  0.75117022  0.74965287  0.32927918  1
  Al0+  Al71  1  0.74872095  0.75033185  0.65861053  1
  Al0+  Al72  1  0.57153488  0.17769874  0.98439573  1
  Al0+  Al73  1  0.17687331  0.42744910  0.68079763  1
  Al0+  Al74  1  0.42733801  0.31860114  0.65069189  1
  Al0+  Al75  1  0.82028118  0.07241221  0.01809268  1
  Al0+  Al76  1  0.93024498  0.82094965  0.31632713  1
  Al0+  Al77  1  0.42630204  0.82166940  0.65215018  1
  Al0+  Al78  1  0.42969342  0.32060152  0.31863196  1
  Al0+  Al79  1  0.32299620  0.56885019  0.01638690  1
  Al0+  Al80  1  0.17727634  0.92976639  0.35109858  1
  Al0+  Al81  1  0.42665743  0.32256281  0.98355734  1
  Al0+  Al82  1  0.93040028  0.82257372  0.98476318  1
  Al0+  Al83  1  0.92811347  0.32110567  0.32080582  1
  Al0+  Al84  1  0.82066367  0.07026991  0.68066725  1
  Al0+  Al85  1  0.07044388  0.67730387  0.65188368  1
  Al0+  Al86  1  0.57364980  0.17924762  0.65020256  1
  Al0+  Al87  1  0.67803352  0.92751011  0.01459695  1
  Al0+  Al88  1  0.93026176  0.82375852  0.65162930  1
  Al0+  Al89  1  0.17728372  0.42702897  0.01753290  1
  Al0+  Al90  1  0.32256859  0.07263895  0.34776036  1
  Al0+  Al91  1  0.17973561  0.92907034  0.01180896  1
  Al0+  Al92  1  0.32145071  0.56800053  0.35036654  1
  Al0+  Al93  1  0.68198941  0.42835466  0.34781117  1
  Al0+  Al94  1  0.57119532  0.67716875  0.65089793  1
  Al0+  Al95  1  0.32185583  0.57133997  0.68324357  1
  Si0+  Si96  1  0.56992496  0.67949228  0.31738988  1
  Si0+  Si97  1  0.32293423  0.07038341  0.68087485  1
  Si0+  Si98  1  0.57172744  0.67951855  0.98784752  1
  Si0+  Si99  1  0.42866848  0.82125329  0.31812366  1
  Si0+  Si100  1  0.07111857  0.17855395  0.65230568  1
  Si0+  Si101  1  0.57280048  0.17574712  0.31642605  1
  Si0+  Si102  1  0.68128439  0.43074672  0.01367590  1
  Si0+  Si103  1  0.17509696  0.42794158  0.34877613  1
  Si0+  Si104  1  0.81853663  0.06942168  0.34862859  1
  Si0+  Si105  1  0.92869282  0.32146996  0.65490190  1
  Si0+  Si106  1  0.82016555  0.57259736  0.68042350  1
  Si0+  Si107  1  0.42708200  0.81987362  0.99095056  1
  Si0+  Si108  1  0.67987456  0.42890491  0.68390941  1
  Si0+  Si109  1  0.07516119  0.67854229  0.31323857  1
  Si0+  Si110  1  0.07105118  0.17874286  0.31516638  1
  Si0+  Si111  1  0.67869775  0.92494548  0.35033367  1
  Si0+  Si112  1  0.67774021  0.92633032  0.68166254  1
  Si0+  Si113  1  0.07275667  0.67820734  0.98349335  1
  Si0+  Si114  1  0.92885225  0.32361594  0.98479634  1
  Si0+  Si115  1  0.17949174  0.93073496  0.68085967  1
  Si0+  Si116  1  0.06880172  0.17978150  0.98454461  1
  Si0+  Si117  1  0.82179610  0.57287528  0.01411462  1
  Si0+  Si118  1  0.32321252  0.07218861  0.01272732  1
  Si0+  Si119  1  0.82260113  0.57353513  0.34914732  1
  O2-  O120  1  0.25814014  0.00043958  0.05759266  1
  O2-  O121  1  0.25232079  -0.00046912  0.39975306  1
  O2-  O122  1  0.25581443  -0.00419925  0.72409362  1
  O2-  O123  1  0.25464256  0.49324798  0.06663948  1
  O2-  O124  1  0.24516964  0.49356896  0.39422739  1
  O2-  O125  1  0.24993978  0.49795170  0.73123003  1
  O2-  O126  1  0.74793508  0.00031836  0.06723222  1
  O2-  O127  1  0.74851871  -0.00212731  0.39127112  1
  O2-  O128  1  0.74637852  -0.00511729  0.72575630  1
  O2-  O129  1  0.75277344  0.50060399  0.05732879  1
  O2-  O130  1  0.76024507  0.49992805  0.39480017  1
  O2-  O131  1  0.74772437  0.50395219  0.72521680  1
  O2-  O132  1  0.00492424  0.25051066  0.27148119  1
  O2-  O133  1  0.00272162  0.25370767  0.61306899  1
  O2-  O134  1  0.00059169  0.25399862  0.94218835  1
  O2-  O135  1  0.00761969  0.74903096  0.26921509  1
  O2-  O136  1  0.00119723  0.75154568  0.60078903  1
  O2-  O137  1  0.00661943  0.74935437  0.93903875  1
  O2-  O138  1  0.49968745  0.24023096  0.27320876  1
  O2-  O139  1  0.49862506  0.24647977  0.59910548  1
  O2-  O140  1  0.49521145  0.24583061  0.93572726  1
  O2-  O141  1  0.49896769  0.75003019  0.27424757  1
  O2-  O142  1  0.49591023  0.74651035  0.60215063  1
  O2-  O143  1  0.50007631  0.75094317  0.94837926  1
  O2-  O144  1  0.06694782  0.17878183  0.08949368  1
  O2-  O145  1  0.06890620  0.17764692  0.42113788  1
  O2-  O146  1  0.07026661  0.17437625  0.75727660  1
  O2-  O147  1  0.06958662  0.67746869  0.08907271  1
  O2-  O148  1  0.07158607  0.67647554  0.41854850  1
  O2-  O149  1  0.06778535  0.67910707  0.76583813  1
  O2-  O150  1  0.57174245  0.18114421  0.09831521  1
  O2-  O151  1  0.57643481  0.17856790  0.42165398  1
  O2-  O152  1  0.57391840  0.18211313  0.76365835  1
  O2-  O153  1  0.57340865  0.67800438  0.09316908  1
  O2-  O154  1  0.57140649  0.68073628  0.42190063  1
  O2-  O155  1  0.57390836  0.68076325  0.76511836  1
  O2-  O156  1  0.17447203  0.43030316  0.24335182  1
  O2-  O157  1  0.17368355  0.42747998  0.56713560  1
  O2-  O158  1  0.17255846  0.43165255  0.90456205  1
  O2-  O159  1  0.17744613  0.93293572  0.23713228  1
  O2-  O160  1  0.17677686  0.93577289  0.57622217  1
  O2-  O161  1  0.18098219  0.92968678  0.89818031  1
  O2-  O162  1  0.68239780  0.43107150  0.23412805  1
  O2-  O163  1  0.68381825  0.42656831  0.57884565  1
  O2-  O164  1  0.68326078  0.43308492  0.90849131  1
  O2-  O165  1  0.67818605  0.92351904  0.24546539  1
  O2-  O166  1  0.68004571  0.92647770  0.57563404  1
  O2-  O167  1  0.67955765  0.92302485  0.90153490  1
  O2-  O168  1  0.43167910  0.32314822  0.09752403  1
  O2-  O169  1  0.43174258  0.32159824  0.43124924  1
  O2-  O170  1  0.42828187  0.31691438  0.76415537  1
  O2-  O171  1  0.42794442  0.81883863  0.09619647  1
  O2-  O172  1  0.43123923  0.82138395  0.42272407  1
  O2-  O173  1  0.42790398  0.82326045  0.76665160  1
  O2-  O174  1  0.92761199  0.32283356  0.08988603  1
  O2-  O175  1  0.92762089  0.31670641  0.43421614  1
  O2-  O176  1  0.92714656  0.32190845  0.76013026  1
  O2-  O177  1  0.93033110  0.81978159  0.09802182  1
  O2-  O178  1  0.92924987  0.81981030  0.42912146  1
  O2-  O179  1  0.93213805  0.82389666  0.76534056  1
  O2-  O180  1  0.32089698  0.07014394  0.23363292  1
  O2-  O181  1  0.31861727  0.07174583  0.57609814  1
  O2-  O182  1  0.32080495  0.06974283  0.90671478  1
  O2-  O183  1  0.32288336  0.56731074  0.23724971  1
  O2-  O184  1  0.32039432  0.56805016  0.56964112  1
  O2-  O185  1  0.32330329  0.57279921  0.90357844  1
  O2-  O186  1  0.81749205  0.07081088  0.24395538  1
  O2-  O187  1  0.82157301  0.07192611  0.56708804  1
  O2-  O188  1  0.82086669  0.07158665  0.90461120  1
  O2-  O189  1  0.81724319  0.57465671  0.24311704  1
  O2-  O190  1  0.82085579  0.56916281  0.57550094  1
  O2-  O191  1  0.82059605  0.57152166  0.90877035  1
  O2-  O192  1  0.04009946  0.08708060  0.26854503  1
  O2-  O193  1  0.03810850  0.09066164  0.60072866  1
  O2-  O194  1  0.03739698  0.08999070  0.93509254  1
  O2-  O195  1  0.04814300  0.58639365  0.26417006  1
  O2-  O196  1  0.03730500  0.58070387  0.59716282  1
  O2-  O197  1  0.04332413  0.58562283  0.93736113  1
  O2-  O198  1  0.55319722  0.07919220  0.27338518  1
  O2-  O199  1  0.55408076  0.07890271  0.59899682  1
  O2-  O200  1  0.54915139  0.07713849  0.93206389  1
  O2-  O201  1  0.54244428  0.58710274  0.27103462  1
  O2-  O202  1  0.54818521  0.57765845  0.59874289  1
  O2-  O203  1  0.54564998  0.58844401  0.93850337  1
  O2-  O204  1  0.16476387  0.20049161  0.26809957  1
  O2-  O205  1  0.16237046  0.20272412  0.60267934  1
  O2-  O206  1  0.16101506  0.20240854  0.93514748  1
  O2-  O207  1  0.17026923  0.70323717  0.27026412  1
  O2-  O208  1  0.16834961  0.70311660  0.59881505  1
  O2-  O209  1  0.16804201  0.70225131  0.94100781  1
  O2-  O210  1  0.66442761  0.20641026  0.26905511  1
  O2-  O211  1  0.67160899  0.21301199  0.59865980  1
  O2-  O212  1  0.66950518  0.21105920  0.93278178  1
  O2-  O213  1  0.66153888  0.70723810  0.26866218  1
  O2-  O214  1  0.66744687  0.70655075  0.59325419  1
  O2-  O215  1  0.66287292  0.70656603  0.93869148  1
  O2-  O216  1  0.07969551  0.45957378  0.07203913  1
  O2-  O217  1  0.08027653  0.45460788  0.39286892  1
  O2-  O218  1  0.07704651  0.45529160  0.73321308  1
  O2-  O219  1  0.08601876  0.96638249  0.06632898  1
  O2-  O220  1  0.07955138  0.96260661  0.40333212  1
  O2-  O221  1  0.09037348  0.96575023  0.72956645  1
  O2-  O222  1  0.59058761  0.46032429  0.06153378  1
  O2-  O223  1  0.58886659  0.46356401  0.40403686  1
  O2-  O224  1  0.58794882  0.45478914  0.73089956  1
  O2-  O225  1  0.57884110  0.95337519  0.06933701  1
  O2-  O226  1  0.58644197  0.94917593  0.39803588  1
  O2-  O227  1  0.58302441  0.95027973  0.72627094  1
  O2-  O228  1  0.19534868  0.32497397  0.06735972  1
  O2-  O229  1  0.19518274  0.33173899  0.39080131  1
  O2-  O230  1  0.20136472  0.32679554  0.73248482  1
  O2-  O231  1  0.20553743  0.83340987  0.06932657  1
  O2-  O232  1  0.20311045  0.83097292  0.40283578  1
  O2-  O233  1  0.20107221  0.83687269  0.72606040  1
  O2-  O234  1  0.70972384  0.33989390  0.06161362  1
  O2-  O235  1  0.71273239  0.33197158  0.40261492  1
  O2-  O236  1  0.71382989  0.34041833  0.73374036  1
  O2-  O237  1  0.70820421  0.82947623  0.06961447  1
  O2-  O238  1  0.70968141  0.83370485  0.39676642  1
  O2-  O239  1  0.70202166  0.83152271  0.72596369  1
  O2-  O240  1  0.46888011  0.41551858  0.26606421  1
  O2-  O241  1  0.45887614  0.41657670  0.60027645  1
  O2-  O242  1  0.46282052  0.41897660  0.93078520  1
  O2-  O243  1  0.45713361  0.91330473  0.27110392  1
  O2-  O244  1  0.45760525  0.91752315  0.59494062  1
  O2-  O245  1  0.45063921  0.91229343  0.94297764  1
  O2-  O246  1  0.95142973  0.41959297  0.26599954  1
  O2-  O247  1  0.95085745  0.41324110  0.60542960  1
  O2-  O248  1  0.95480278  0.41690402  0.93866314  1
  O2-  O249  1  0.95881318  0.91905476  0.26390509  1
  O2-  O250  1  0.96094815  0.92178137  0.59875894  1
  O2-  O251  1  0.95939459  0.92107225  0.93481020  1
  O2-  O252  1  0.33114824  0.29495891  0.26530188  1
  O2-  O253  1  0.32855314  0.28997251  0.59819086  1
  O2-  O254  1  0.32524520  0.30039051  0.93482875  1
  O2-  O255  1  0.33532698  0.79362190  0.27382767  1
  O2-  O256  1  0.32778071  0.79835465  0.59811697  1
  O2-  O257  1  0.33546237  0.79019553  0.94413139  1
  O2-  O258  1  0.83286704  0.28643186  0.26565640  1
  O2-  O259  1  0.83876774  0.28902808  0.60711763  1
  O2-  O260  1  0.83756905  0.29603788  0.93638318  1
  O2-  O261  1  0.83398082  0.78731023  0.26201078  1
  O2-  O262  1  0.83211153  0.79652821  0.59872818  1
  O2-  O263  1  0.83423678  0.78865689  0.93169526  1
  O2-  O264  1  0.41779316  0.05226695  0.05799812  1
  O2-  O265  1  0.42159921  0.04603103  0.40073224  1
  O2-  O266  1  0.41732991  0.04597400  0.72444735  1
  O2-  O267  1  0.42336964  0.54336256  0.06888490  1
  O2-  O268  1  0.41825645  0.53739751  0.40298976  1
  O2-  O269  1  0.42225264  0.54496097  0.73387408  1
  O2-  O270  1  0.91791298  0.04456296  0.07225657  1
  O2-  O271  1  0.91116475  0.04327701  0.39481435  1
  O2-  O272  1  0.91802360  0.04186069  0.73499603  1
  O2-  O273  1  0.91330035  0.54747877  0.06247795  1
  O2-  O274  1  0.91924325  0.55447974  0.39025495  1
  O2-  O275  1  0.90974998  0.54213589  0.73058558  1
  O2-  O276  1  0.29258276  0.16445801  0.05807923  1
  O2-  O277  1  0.29031801  0.17048423  0.40041330  1
  O2-  O278  1  0.29036947  0.15966346  0.72997544  1
  O2-  O279  1  0.29172588  0.66484264  0.07402655  1
  O2-  O280  1  0.29370772  0.66536421  0.40350666  1
  O2-  O281  1  0.29399520  0.67170626  0.73344151  1
  O2-  O282  1  0.79293492  0.17225841  0.06998737  1
  O2-  O283  1  0.79042811  0.16070978  0.39709480  1
  O2-  O284  1  0.79075188  0.16658490  0.73679119  1
  O2-  O285  1  0.79156105  0.66314244  0.06238664  1
  O2-  O286  1  0.79066525  0.66474592  0.39617916  1
  O2-  O287  1  0.79269349  0.66537459  0.72638051  1
