# generated using pymatgen
data_Ca2Al2SiO7
_symmetry_space_group_name_H-M   'P 1'
_cell_length_a   15.46130622
_cell_length_b   15.46073320
_cell_length_c   15.28543090
_cell_angle_alpha   90.00194205
_cell_angle_beta   90.00630529
_cell_angle_gamma   89.98045816
_symmetry_Int_Tables_number   1
_chemical_formula_structural   Ca2Al2SiO7
_chemical_formula_sum   'Ca48 Al48 Si24 O168'
_cell_volume   3653.87701361
_cell_formula_units_Z   24
loop_
 _symmetry_equiv_pos_site_id
 _symmetry_equiv_pos_as_xyz
  1  'x, y, z'
loop_
 _atom_type_symbol
 _atom_type_oxidation_number
  Ca2+  2.0
  Al0+  0.0
  Si0+  0.0
  O2-  -2.0
loop_
 _atom_site_type_symbol
 _atom_site_label
 _atom_site_symmetry_multiplicity
 _atom_site_fract_x
 _atom_site_fract_y
 _atom_site_fract_z
 _atom_site_occupancy
  Ca2+  Ca0  1  0.16207486  0.07720324  0.17380716  1
  Ca2+  Ca1  1  0.16661050  0.06954989  0.51147318  1
  Ca2+  Ca2  1  0.16491491  0.08427704  0.83416492  1
  Ca2+  Ca3  1  0.16523711  0.58399804  0.17631568  1
  Ca2+  Ca4  1  0.16258506  0.58526013  0.49992663  1
  Ca2+  Ca5  1  0.15985874  0.58658544  0.83558709  1
  Ca2+  Ca6  1  0.67264447  0.07997475  0.16932076  1
  Ca2+  Ca7  1  0.67352456  0.08431311  0.50251085  1
  Ca2+  Ca8  1  0.66406960  0.08144270  0.84096292  1
  Ca2+  Ca9  1  0.67096774  0.57320357  0.17590914  1
  Ca2+  Ca10  1  0.67293296  0.57948900  0.50890560  1
  Ca2+  Ca11  1  0.67490651  0.58859026  0.83427036  1
  Ca2+  Ca12  1  0.07426398  0.33270192  0.16059577  1
  Ca2+  Ca13  1  0.07313725  0.33276193  0.49490424  1
  Ca2+  Ca14  1  0.07616789  0.32324858  0.82793854  1
  Ca2+  Ca15  1  0.07736540  0.82836066  0.16543369  1
  Ca2+  Ca16  1  0.08721210  0.82777219  0.49138686  1
  Ca2+  Ca17  1  0.08238619  0.82492024  0.82946320  1
  Ca2+  Ca18  1  0.58634777  0.32819174  0.16369966  1
  Ca2+  Ca19  1  0.58707514  0.32959088  0.49689545  1
  Ca2+  Ca20  1  0.58359329  0.31964473  0.82792248  1
  Ca2+  Ca21  1  0.57099304  0.84036957  0.16109155  1
  Ca2+  Ca22  1  0.57655169  0.82639869  0.49618530  1
  Ca2+  Ca23  1  0.57828326  0.83649353  0.82989683  1
  Ca2+  Ca24  1  0.32230545  0.42649007  0.17975262  1
  Ca2+  Ca25  1  0.32545495  0.42202963  0.49924474  1
  Ca2+  Ca26  1  0.33136696  0.41960005  0.83734674  1
  Ca2+  Ca27  1  0.32906485  0.91266766  0.17359081  1
  Ca2+  Ca28  1  0.32214078  0.91466894  0.50402811  1
  Ca2+  Ca29  1  0.32885348  0.91824477  0.83299510  1
  Ca2+  Ca30  1  0.83237782  0.41113101  0.17365486  1
  Ca2+  Ca31  1  0.83560976  0.41803405  0.50385271  1
  Ca2+  Ca32  1  0.84546484  0.41974198  0.83223348  1
  Ca2+  Ca33  1  0.83681421  0.91954405  0.17185671  1
  Ca2+  Ca34  1  0.84240231  0.92395396  0.50051308  1
  Ca2+  Ca35  1  0.82498660  0.91404921  0.84374649  1
  Ca2+  Ca36  1  0.42392668  0.16789938  0.15965807  1
  Ca2+  Ca37  1  0.42179298  0.15715776  0.50173410  1
  Ca2+  Ca38  1  0.42636136  0.15846291  0.82727943  1
  Ca2+  Ca39  1  0.40943273  0.67729304  0.16643717  1
  Ca2+  Ca40  1  0.41900746  0.66770582  0.49232703  1
  Ca2+  Ca41  1  0.42383316  0.67472012  0.82892313  1
  Ca2+  Ca42  1  0.91839914  0.17406709  0.16367787  1
  Ca2+  Ca43  1  0.91785172  0.17353973  0.49458755  1
  Ca2+  Ca44  1  0.92499314  0.17587872  0.82837267  1
  Ca2+  Ca45  1  0.92818177  0.67378883  0.16243188  1
  Ca2+  Ca46  1  0.92556220  0.67114083  0.49510883  1
  Ca2+  Ca47  1  0.92404101  0.66888419  0.82725271  1
  Al0+  Al48  1  -0.00028102  -0.00030916  -0.00514540  1
  Al0+  Al49  1  -0.00006742  0.00076509  0.33913685  1
  Al0+  Al50  1  -0.00115364  0.00031877  0.67264507  1
  Al0+  Al51  1  0.00039377  0.50069283  -0.00379946  1
  Al0+  Al52  1  -0.00157196  0.49897137  0.32913992  1
  Al0+  Al53  1  -0.00065531  0.50200664  0.66395776  1
  Al0+  Al54  1  0.49919327  -0.00019957  -0.00267672  1
  Al0+  Al55  1  0.50263558  -0.00131423  0.32970709  1
  Al0+  Al56  1  0.49881100  0.00006163  0.66327942  1
  Al0+  Al57  1  0.50009759  0.50126867  0.00278693  1
  Al0+  Al58  1  0.50016800  0.49690748  0.34049943  1
  Al0+  Al59  1  0.50051187  0.49884072  0.66570416  1
  Al0+  Al60  1  0.25071914  0.25176999  -0.00032772  1
  Al0+  Al61  1  0.25255936  0.25048398  0.33766272  1
  Al0+  Al62  1  0.25106405  0.24971547  0.66816664  1
  Al0+  Al63  1  0.25194585  0.75192577  -0.00825728  1
  Al0+  Al64  1  0.25270355  0.75059107  0.33375052  1
  Al0+  Al65  1  0.24945069  0.74996915  0.66899660  1
  Al0+  Al66  1  0.74972555  0.25046993  -0.00765133  1
  Al0+  Al67  1  0.75126010  0.24820979  0.33751073  1
  Al0+  Al68  1  0.74751116  0.25018068  0.66080978  1
  Al0+  Al69  1  0.74848962  0.74908489  0.00713239  1
  Al0+  Al70  1  0.74839676  0.74962314  0.33003051  1
  Al0+  Al71  1  0.74930017  0.74861684  0.66658970  1
  Al0+  Al72  1  0.93054292  0.32042755  0.64923623  1
  Al0+  Al73  1  0.17510487  0.42784482  0.34857797  1
  Al0+  Al74  1  0.07100477  0.68149308  0.65115823  1
  Al0+  Al75  1  0.32113089  0.07080820  0.68236368  1
  Al0+  Al76  1  0.17687209  0.92718653  0.68553153  1
  Al0+  Al77  1  0.92539345  0.82139016  0.98522659  1
  Al0+  Al78  1  0.07286554  0.17656763  0.65011883  1
  Al0+  Al79  1  0.07083319  0.68094635  0.98433435  1
  Al0+  Al80  1  0.68057923  0.42778801  0.34746829  1
  Al0+  Al81  1  0.43030965  0.82105495  0.98424045  1
  Al0+  Al82  1  0.31948018  0.57192341  0.34864484  1
  Al0+  Al83  1  0.43160135  0.81961944  0.32042136  1
  Al0+  Al84  1  0.07114106  0.67982556  0.31913319  1
  Al0+  Al85  1  0.82042366  0.56999494  0.68069031  1
  Al0+  Al86  1  0.92736542  0.82475261  0.31954364  1
  Al0+  Al87  1  0.81997510  0.06868514  0.34642446  1
  Al0+  Al88  1  0.18050339  0.93108270  0.34448731  1
  Al0+  Al89  1  0.92823761  0.32115914  0.98440304  1
  Al0+  Al90  1  0.92913317  0.31927439  0.31927287  1
  Al0+  Al91  1  0.67746009  0.92875870  0.01443173  1
  Al0+  Al92  1  0.56898089  0.17794469  0.65017233  1
  Al0+  Al93  1  0.07422059  0.17781146  0.98663380  1
  Al0+  Al94  1  0.56888688  0.18070533  0.98793584  1
  Al0+  Al95  1  0.57205584  0.67838529  0.65397883  1
  Si0+  Si96  1  0.42804201  0.32455320  0.98533950  1
  Si0+  Si97  1  0.81949540  0.07357919  0.68346035  1
  Si0+  Si98  1  0.07425434  0.17817014  0.31980664  1
  Si0+  Si99  1  0.32100968  0.07172280  0.01542370  1
  Si0+  Si100  1  0.57197260  0.67388116  0.31657643  1
  Si0+  Si101  1  0.42708905  0.32397906  0.64868537  1
  Si0+  Si102  1  0.32616735  0.07298206  0.34782883  1
  Si0+  Si103  1  0.67686744  0.42698079  0.68587160  1
  Si0+  Si104  1  0.17931597  0.43010917  0.01394580  1
  Si0+  Si105  1  0.42897995  0.82021562  0.64886967  1
  Si0+  Si106  1  0.82129607  0.57368298  0.34914706  1
  Si0+  Si107  1  0.67871429  0.42832898  0.01363572  1
  Si0+  Si108  1  0.17896307  0.43051184  0.68268523  1
  Si0+  Si109  1  0.57192103  0.67493058  0.98578555  1
  Si0+  Si110  1  0.17950862  0.92882665  0.01510848  1
  Si0+  Si111  1  0.82178375  0.07279519  0.01486289  1
  Si0+  Si112  1  0.82264772  0.57000091  0.01690212  1
  Si0+  Si113  1  0.67564672  0.92682830  0.35055604  1
  Si0+  Si114  1  0.92538483  0.82232955  0.65204383  1
  Si0+  Si115  1  0.32321000  0.57080163  0.68376052  1
  Si0+  Si116  1  0.42835773  0.32163144  0.31833612  1
  Si0+  Si117  1  0.57101969  0.17979962  0.31776249  1
  Si0+  Si118  1  0.32177611  0.57239341  0.01387125  1
  Si0+  Si119  1  0.67999491  0.92973497  0.67963702  1
  O2-  O120  1  0.24627558  0.00480448  0.05741184  1
  O2-  O121  1  0.25398726  0.00798282  0.39013839  1
  O2-  O122  1  0.24651815  0.00296539  0.73461232  1
  O2-  O123  1  0.24964765  0.50242531  0.05525230  1
  O2-  O124  1  0.24443914  0.50291605  0.39868299  1
  O2-  O125  1  0.25126333  0.50074215  0.72634112  1
  O2-  O126  1  0.75585899  0.00091947  0.05944608  1
  O2-  O127  1  0.74960523  -0.01054201  0.39432175  1
  O2-  O128  1  0.75018191  0.00012394  0.72447635  1
  O2-  O129  1  0.75099557  0.49756347  0.05679455  1
  O2-  O130  1  0.75157558  0.50574772  0.39326909  1
  O2-  O131  1  0.74620469  0.49480370  0.73013731  1
  O2-  O132  1  0.00942207  0.24972309  0.27411934  1
  O2-  O133  1  0.00087914  0.24729822  0.59869356  1
  O2-  O134  1  0.00083286  0.24859141  0.93746427  1
  O2-  O135  1  -0.00182349  0.75144911  0.27009673  1
  O2-  O136  1  -0.00034102  0.76030216  0.60755118  1
  O2-  O137  1  -0.00276539  0.75075998  0.93363174  1
  O2-  O138  1  0.49792734  0.24908835  0.27580680  1
  O2-  O139  1  0.49379318  0.25289429  0.60474945  1
  O2-  O140  1  0.49478610  0.25537922  0.94006286  1
  O2-  O141  1  0.50557759  0.74436601  0.27188534  1
  O2-  O142  1  0.49507703  0.74883924  0.60557745  1
  O2-  O143  1  0.50754806  0.74720091  0.94093132  1
  O2-  O144  1  0.07578151  0.18007721  0.10064325  1
  O2-  O145  1  0.07193688  0.17792823  0.42488030  1
  O2-  O146  1  0.07073495  0.18047801  0.76380752  1
  O2-  O147  1  0.07233633  0.68053662  0.09755835  1
  O2-  O148  1  0.06975256  0.68130364  0.43271650  1
  O2-  O149  1  0.06880706  0.68027525  0.76421872  1
  O2-  O150  1  0.56879529  0.18303220  0.10140688  1
  O2-  O151  1  0.56943251  0.17913940  0.42268341  1
  O2-  O152  1  0.56880642  0.17814844  0.76343806  1
  O2-  O153  1  0.56772502  0.66928824  0.09094007  1
  O2-  O154  1  0.57142894  0.67513915  0.42223428  1
  O2-  O155  1  0.57089556  0.68183197  0.76743161  1
  O2-  O156  1  0.17939733  0.42602089  0.23431937  1
  O2-  O157  1  0.18028203  0.43189304  0.57793567  1
  O2-  O158  1  0.18214781  0.42921926  0.90863196  1
  O2-  O159  1  0.18142406  0.93231319  0.23065397  1
  O2-  O160  1  0.18071793  0.92476098  0.57178977  1
  O2-  O161  1  0.18260649  0.92733259  0.91046174  1
  O2-  O162  1  0.68114173  0.42714144  0.23338411  1
  O2-  O163  1  0.67604566  0.42850306  0.58031163  1
  O2-  O164  1  0.67410122  0.43037016  0.90914701  1
  O2-  O165  1  0.67050481  0.93259384  0.24524796  1
  O2-  O166  1  0.68079000  0.93058313  0.57454822  1
  O2-  O167  1  0.67610562  0.93152831  0.90064354  1
  O2-  O168  1  0.42903723  0.32417410  0.09104377  1
  O2-  O169  1  0.42853730  0.32190132  0.42309901  1
  O2-  O170  1  0.43028385  0.32764024  0.75465358  1
  O2-  O171  1  0.42829848  0.81992049  0.09736894  1
  O2-  O172  1  0.43443257  0.82035604  0.43328344  1
  O2-  O173  1  0.43174645  0.82066335  0.75478395  1
  O2-  O174  1  0.92740872  0.32002729  0.09825937  1
  O2-  O175  1  0.92683875  0.31709937  0.43168311  1
  O2-  O176  1  0.93307707  0.31966683  0.76285597  1
  O2-  O177  1  0.92814927  0.82048855  0.09859260  1
  O2-  O178  1  0.92901861  0.82407466  0.43324871  1
  O2-  O179  1  0.92090179  0.81772250  0.75747281  1
  O2-  O180  1  0.32818223  0.07324846  0.24184052  1
  O2-  O181  1  0.32448967  0.06473193  0.56871889  1
  O2-  O182  1  0.32325624  0.07050633  0.91084184  1
  O2-  O183  1  0.32058985  0.56939212  0.23430275  1
  O2-  O184  1  0.32509676  0.56988238  0.57918782  1
  O2-  O185  1  0.32554608  0.56880942  0.90864852  1
  O2-  O186  1  0.81642473  0.07196044  0.23318683  1
  O2-  O187  1  0.81823575  0.07282558  0.57817030  1
  O2-  O188  1  0.81766371  0.07393419  0.90926605  1
  O2-  O189  1  0.81887120  0.57269571  0.24313832  1
  O2-  O190  1  0.81793014  0.57066448  0.56784991  1
  O2-  O191  1  0.82159339  0.57087196  0.91173026  1
  O2-  O192  1  0.04383296  0.08630116  0.27343007  1
  O2-  O193  1  0.04437583  0.07605029  0.60205619  1
  O2-  O194  1  0.04911528  0.07964930  0.93319106  1
  O2-  O195  1  0.04350180  0.58136836  0.26553069  1
  O2-  O196  1  0.03778643  0.58618288  0.59774276  1
  O2-  O197  1  0.04370720  0.58214665  0.93195948  1
  O2-  O198  1  0.54522600  0.08792436  0.26942818  1
  O2-  O199  1  0.53817820  0.08207902  0.59437647  1
  O2-  O200  1  0.53646995  0.08579435  0.93297032  1
  O2-  O201  1  0.54526268  0.57941412  0.27262909  1
  O2-  O202  1  0.54454673  0.58040117  0.60170940  1
  O2-  O203  1  0.54279706  0.58348722  0.93613160  1
  O2-  O204  1  0.17082476  0.19780244  0.27635611  1
  O2-  O205  1  0.17376321  0.20160914  0.60149836  1
  O2-  O206  1  0.17231773  0.20807567  0.93309614  1
  O2-  O207  1  0.17028784  0.70755222  0.26799625  1
  O2-  O208  1  0.17039544  0.70693300  0.60053103  1
  O2-  O209  1  0.16849086  0.70889434  0.92981847  1
  O2-  O210  1  0.66133847  0.21141410  0.27101297  1
  O2-  O211  1  0.66410718  0.20944765  0.59461867  1
  O2-  O212  1  0.66342581  0.21054303  0.93054125  1
  O2-  O213  1  0.66607232  0.69578822  0.27012151  1
  O2-  O214  1  0.66634179  0.71167965  0.59775519  1
  O2-  O215  1  0.66731705  0.69702601  0.94361727  1
  O2-  O216  1  0.08705143  0.45728441  0.06038600  1
  O2-  O217  1  0.07553309  0.45333197  0.39951157  1
  O2-  O218  1  0.08829572  0.46142782  0.72977479  1
  O2-  O219  1  0.08540924  0.95249845  0.06014489  1
  O2-  O220  1  0.08524657  0.95907303  0.40153099  1
  O2-  O221  1  0.07703587  0.95111508  0.73826965  1
  O2-  O222  1  0.58726213  0.45651494  0.06381996  1
  O2-  O223  1  0.58354314  0.45295870  0.40307603  1
  O2-  O224  1  0.58269447  0.45191144  0.73179773  1
  O2-  O225  1  0.58183419  0.96495508  0.06819361  1
  O2-  O226  1  0.58528866  0.95956537  0.39973495  1
  O2-  O227  1  0.58745751  0.95786105  0.72545717  1
  O2-  O228  1  0.20799931  0.33895685  0.06282818  1
  O2-  O229  1  0.20897667  0.33118162  0.40303312  1
  O2-  O230  1  0.20685065  0.33875672  0.73066749  1
  O2-  O231  1  0.21428911  0.83816386  0.06071265  1
  O2-  O232  1  0.21503695  0.83647056  0.39895457  1
  O2-  O233  1  0.21107591  0.83005494  0.73934004  1
  O2-  O234  1  0.70562123  0.33545005  0.05979513  1
  O2-  O235  1  0.71214798  0.33278962  0.40293804  1
  O2-  O236  1  0.70152048  0.33185163  0.72930116  1
  O2-  O237  1  0.69967288  0.83053666  0.06982661  1
  O2-  O238  1  0.69277143  0.82963354  0.39209497  1
  O2-  O239  1  0.70633384  0.83803625  0.72806843  1
  O2-  O240  1  0.45843885  0.41260335  0.27045026  1
  O2-  O241  1  0.45533814  0.41587287  0.60073184  1
  O2-  O242  1  0.45455184  0.41793948  0.93896953  1
  O2-  O243  1  0.46318384  0.91577213  0.26396260  1
  O2-  O244  1  0.45781875  0.91181984  0.60198326  1
  O2-  O245  1  0.46146484  0.91648502  0.92941962  1
  O2-  O246  1  0.95313088  0.41673785  0.26419069  1
  O2-  O247  1  0.96010632  0.41869817  0.59778338  1
  O2-  O248  1  0.95838082  0.41868490  0.93192410  1
  O2-  O249  1  0.95713552  0.92340281  0.26745658  1
  O2-  O250  1  0.94438246  0.91936277  0.61193829  1
  O2-  O251  1  0.94866590  0.92065306  0.93284317  1
  O2-  O252  1  0.33651622  0.29531087  0.26936243  1
  O2-  O253  1  0.33258965  0.30162400  0.60439727  1
  O2-  O254  1  0.33454248  0.30152428  0.93882892  1
  O2-  O255  1  0.33624161  0.78931179  0.26426713  1
  O2-  O256  1  0.33495608  0.79450409  0.60581939  1
  O2-  O257  1  0.33736074  0.78807507  0.92599145  1
  O2-  O258  1  0.83344826  0.28255111  0.26599508  1
  O2-  O259  1  0.83009112  0.29521155  0.59967508  1
  O2-  O260  1  0.83051648  0.29598084  0.92901385  1
  O2-  O261  1  0.82652880  0.80098997  0.26821727  1
  O2-  O262  1  0.83448846  0.79245577  0.60327436  1
  O2-  O263  1  0.82479891  0.79302067  0.93641520  1
  O2-  O264  1  0.41131658  0.04031865  0.06384991  1
  O2-  O265  1  0.41899323  0.04321002  0.39356342  1
  O2-  O266  1  0.41954546  0.03737863  0.73516821  1
  O2-  O267  1  0.41264164  0.54431223  0.06387199  1
  O2-  O268  1  0.41619532  0.53882147  0.40304174  1
  O2-  O269  1  0.41456302  0.54087162  0.73244203  1
  O2-  O270  1  0.91693542  0.05070083  0.05965040  1
  O2-  O271  1  0.91575047  0.04254716  0.40425717  1
  O2-  O272  1  0.91158956  0.05043923  0.73166836  1
  O2-  O273  1  0.91444872  0.54127413  0.06368898  1
  O2-  O274  1  0.91441060  0.54641906  0.39352564  1
  O2-  O275  1  0.91696515  0.53880314  0.73543319  1
  O2-  O276  1  0.29960444  0.16642754  0.06176949  1
  O2-  O277  1  0.30830513  0.16787188  0.39405321  1
  O2-  O278  1  0.30199290  0.17247602  0.73427972  1
  O2-  O279  1  0.29445445  0.66566468  0.05792648  1
  O2-  O280  1  0.29719106  0.67072198  0.40213927  1
  O2-  O281  1  0.29693027  0.66279645  0.73118979  1
  O2-  O282  1  0.79115222  0.16601193  0.06010567  1
  O2-  O283  1  0.78270914  0.16120942  0.40383102  1
  O2-  O284  1  0.78693075  0.16463815  0.72916678  1
  O2-  O285  1  0.79423354  0.66014619  0.06700118  1
  O2-  O286  1  0.79651014  0.66780543  0.39502763  1
  O2-  O287  1  0.78609132  0.66567154  0.73619244  1
