# generated using pymatgen
data_Ca2Al2SiO7
_symmetry_space_group_name_H-M   'P 1'
_cell_length_a   15.45531128
_cell_length_b   15.45472067
_cell_length_c   15.28084507
_cell_angle_alpha   90.00018094
_cell_angle_beta   89.99126743
_cell_angle_gamma   89.99365914
_symmetry_Int_Tables_number   1
_chemical_formula_structural   Ca2Al2SiO7
_chemical_formula_sum   'Ca48 Al48 Si24 O168'
_cell_volume   3649.94467327
_cell_formula_units_Z   24
loop_
 _symmetry_equiv_pos_site_id
 _symmetry_equiv_pos_as_xyz
  1  'x, y, z'
loop_
 _atom_type_symbol
 _atom_type_oxidation_number
  Ca2+  2.0
  Al0+  0.0
  Si0+  0.0
  O2-  -2.0
loop_
 _atom_site_type_symbol
 _atom_site_label
 _atom_site_symmetry_multiplicity
 _atom_site_fract_x
 _atom_site_fract_y
 _atom_site_fract_z
 _atom_site_occupancy
  Ca2+  Ca0  1  0.17363820  0.08420116  0.16734835  1
  Ca2+  Ca1  1  0.17157491  0.08403940  0.50983497  1
  Ca2+  Ca2  1  0.17675446  0.09018170  0.83353367  1
  Ca2+  Ca3  1  0.18078679  0.58387485  0.17027212  1
  Ca2+  Ca4  1  0.17210763  0.57768680  0.50578792  1
  Ca2+  Ca5  1  0.16857625  0.57795294  0.83688899  1
  Ca2+  Ca6  1  0.66497756  0.07929625  0.17441245  1
  Ca2+  Ca7  1  0.66999545  0.08855676  0.49645178  1
  Ca2+  Ca8  1  0.66301888  0.07337252  0.84106359  1
  Ca2+  Ca9  1  0.66343644  0.57035495  0.17103483  1
  Ca2+  Ca10  1  0.66420364  0.58148151  0.50277617  1
  Ca2+  Ca11  1  0.67491714  0.58269688  0.83913689  1
  Ca2+  Ca12  1  0.06843723  0.33870586  0.16323067  1
  Ca2+  Ca13  1  0.08044776  0.33228976  0.49972746  1
  Ca2+  Ca14  1  0.08109130  0.33334077  0.82670249  1
  Ca2+  Ca15  1  0.07630556  0.83455977  0.16620046  1
  Ca2+  Ca16  1  0.07961281  0.82603130  0.49493116  1
  Ca2+  Ca17  1  0.08083453  0.82305649  0.82781279  1
  Ca2+  Ca18  1  0.58158357  0.33371400  0.16522356  1
  Ca2+  Ca19  1  0.57332231  0.33279113  0.48984067  1
  Ca2+  Ca20  1  0.57091663  0.34444366  0.83456241  1
  Ca2+  Ca21  1  0.57649311  0.82927377  0.16289276  1
  Ca2+  Ca22  1  0.57966359  0.81952858  0.49304585  1
  Ca2+  Ca23  1  0.58150670  0.82935388  0.83136195  1
  Ca2+  Ca24  1  0.34661478  0.42686942  0.17033221  1
  Ca2+  Ca25  1  0.33540033  0.41782717  0.50440102  1
  Ca2+  Ca26  1  0.32916128  0.41527463  0.83863780  1
  Ca2+  Ca27  1  0.34161936  0.91873276  0.16993062  1
  Ca2+  Ca28  1  0.33914611  0.92282020  0.50237574  1
  Ca2+  Ca29  1  0.33894617  0.92901825  0.84150491  1
  Ca2+  Ca30  1  0.82435483  0.41237204  0.17198111  1
  Ca2+  Ca31  1  0.82545832  0.41688074  0.50255241  1
  Ca2+  Ca32  1  0.83028853  0.42767035  0.84330573  1
  Ca2+  Ca33  1  0.82725703  0.92054344  0.17420806  1
  Ca2+  Ca34  1  0.83764715  0.91944890  0.49873111  1
  Ca2+  Ca35  1  0.82474827  0.91759893  0.84031426  1
  Ca2+  Ca36  1  0.41937168  0.17753329  0.16051645  1
  Ca2+  Ca37  1  0.41754378  0.17753948  0.49541538  1
  Ca2+  Ca38  1  0.40955053  0.17538232  0.82862705  1
  Ca2+  Ca39  1  0.41685429  0.67046681  0.16317267  1
  Ca2+  Ca40  1  0.42640942  0.66616363  0.48927803  1
  Ca2+  Ca41  1  0.42060232  0.66865396  0.83067671  1
  Ca2+  Ca42  1  0.90763032  0.17789148  0.16648462  1
  Ca2+  Ca43  1  0.92247033  0.16869840  0.48950239  1
  Ca2+  Ca44  1  0.92227745  0.17590491  0.82929099  1
  Ca2+  Ca45  1  0.91424572  0.66710775  0.16343371  1
  Ca2+  Ca46  1  0.92032120  0.66550688  0.49832193  1
  Ca2+  Ca47  1  0.91749407  0.66020136  0.82511756  1
  Al0+  Al48  1  0.00133401  -0.00090628  -0.00321416  1
  Al0+  Al49  1  0.00123575  -0.00184958  0.33291679  1
  Al0+  Al50  1  0.00042336  0.00079333  0.66640188  1
  Al0+  Al51  1  0.00045019  0.50055108  -0.00033336  1
  Al0+  Al52  1  0.00125911  0.49923730  0.32949693  1
  Al0+  Al53  1  0.00024425  0.50060841  0.66849259  1
  Al0+  Al54  1  0.49939907  -0.00044443  0.00543390  1
  Al0+  Al55  1  0.50088669  -0.00100450  0.33194050  1
  Al0+  Al56  1  0.50113546  0.00175232  0.67044726  1
  Al0+  Al57  1  0.50118252  0.50010104  0.00122080  1
  Al0+  Al58  1  0.50114997  0.50038832  0.33660470  1
  Al0+  Al59  1  0.49960004  0.50114030  0.65983838  1
  Al0+  Al60  1  0.24939696  0.24924493  0.00322155  1
  Al0+  Al61  1  0.24915752  0.25016700  0.32937859  1
  Al0+  Al62  1  0.24842639  0.25099239  0.66568788  1
  Al0+  Al63  1  0.24909214  0.75117279  -0.00203998  1
  Al0+  Al64  1  0.25035934  0.74956577  0.33632215  1
  Al0+  Al65  1  0.24865486  0.75136741  0.66202319  1
  Al0+  Al66  1  0.75080596  0.24996324  -0.00593609  1
  Al0+  Al67  1  0.75046335  0.24910165  0.33710730  1
  Al0+  Al68  1  0.74780309  0.25032083  0.67077588  1
  Al0+  Al69  1  0.75005834  0.75148297  0.00772560  1
  Al0+  Al70  1  0.75070464  0.74943123  0.32617592  1
  Al0+  Al71  1  0.74900394  0.75059842  0.66606073  1
  Al0+  Al72  1  0.57071246  0.68077622  0.65420545  1
  Al0+  Al73  1  0.42929313  0.31957825  0.65374694  1
  Al0+  Al74  1  0.32001623  0.57141794  0.01092965  1
  Al0+  Al75  1  0.42780324  0.82009350  0.31905736  1
  Al0+  Al76  1  0.67971692  0.42837193  0.01471972  1
  Al0+  Al77  1  0.82080005  0.06941956  0.34683300  1
  Al0+  Al78  1  0.82369300  0.57146828  0.01691617  1
  Al0+  Al79  1  0.06911816  0.18024068  0.65320470  1
  Al0+  Al80  1  0.07149657  0.67726066  0.65268007  1
  Al0+  Al81  1  0.32074057  0.57014346  0.34843167  1
  Al0+  Al82  1  0.42745744  0.32107848  0.31739137  1
  Al0+  Al83  1  0.57174952  0.17944447  0.31933279  1
  Al0+  Al84  1  0.42974741  0.32180073  0.98542727  1
  Al0+  Al85  1  0.93047887  0.82094573  0.31938925  1
  Al0+  Al86  1  0.68038002  0.42918173  0.34938925  1
  Al0+  Al87  1  0.92994555  0.32010861  0.32205177  1
  Al0+  Al88  1  0.67843800  0.92990172  0.01551517  1
  Al0+  Al89  1  0.31975829  0.07157811  0.01586662  1
  Al0+  Al90  1  0.31987690  0.06970025  0.67909797  1
  Al0+  Al91  1  0.81873601  0.56997545  0.67769171  1
  Al0+  Al92  1  0.18064774  0.43052313  0.67976229  1
  Al0+  Al93  1  0.92810822  0.32179996  0.98423709  1
  Al0+  Al94  1  0.42849737  0.82143919  0.98476965  1
  Al0+  Al95  1  0.57218289  0.67706202  0.31553133  1
  Si0+  Si96  1  0.57353444  0.17487902  0.65091395  1
  Si0+  Si97  1  0.92622538  0.32230350  0.65055253  1
  Si0+  Si98  1  0.67767719  0.92615855  0.35205986  1
  Si0+  Si99  1  0.32131331  0.07184267  0.34850306  1
  Si0+  Si100  1  0.92776873  0.82135093  0.98458854  1
  Si0+  Si101  1  0.17881873  0.92939613  0.34964570  1
  Si0+  Si102  1  0.17708895  0.92721939  0.01677234  1
  Si0+  Si103  1  0.42841808  0.82498390  0.65178107  1
  Si0+  Si104  1  0.82415086  0.57305748  0.34996733  1
  Si0+  Si105  1  0.17567096  0.42735224  0.34949716  1
  Si0+  Si106  1  0.07270224  0.17571992  0.31546185  1
  Si0+  Si107  1  0.82380470  0.07279668  0.68272507  1
  Si0+  Si108  1  0.07069932  0.68012742  0.98512150  1
  Si0+  Si109  1  0.17592992  0.92624723  0.68401970  1
  Si0+  Si110  1  0.32362717  0.57395055  0.68227617  1
  Si0+  Si111  1  0.92760594  0.82186778  0.65115515  1
  Si0+  Si112  1  0.82396342  0.07087734  0.01426108  1
  Si0+  Si113  1  0.07208807  0.67739935  0.31551204  1
  Si0+  Si114  1  0.57169617  0.17693939  0.98266726  1
  Si0+  Si115  1  0.17807397  0.42699985  0.01765231  1
  Si0+  Si116  1  0.68129291  0.93012061  0.68057557  1
  Si0+  Si117  1  0.67498083  0.42710442  0.68376272  1
  Si0+  Si118  1  0.57243949  0.67893130  0.98314209  1
  Si0+  Si119  1  0.07204402  0.17747245  0.98275321  1
  O2-  O120  1  0.24603032  -0.00504774  0.06164695  1
  O2-  O121  1  0.25034167  0.00039345  0.39103425  1
  O2-  O122  1  0.24724678  -0.00744023  0.72721187  1
  O2-  O123  1  0.24975283  0.49317988  0.06005717  1
  O2-  O124  1  0.24751507  0.49269664  0.39338053  1
  O2-  O125  1  0.25456220  0.50609376  0.72708954  1
  O2-  O126  1  0.75354716  0.00541613  0.05960743  1
  O2-  O127  1  0.74711126  -0.00542801  0.39648888  1
  O2-  O128  1  0.75086982  0.00303178  0.72344491  1
  O2-  O129  1  0.75354135  0.49795496  0.06613430  1
  O2-  O130  1  0.75464391  0.50597867  0.39484646  1
  O2-  O131  1  0.74609687  0.49428455  0.72596858  1
  O2-  O132  1  0.00478257  0.24587677  0.27324749  1
  O2-  O133  1  -0.00962049  0.24974127  0.60560217  1
  O2-  O134  1  0.00383811  0.24694650  0.93916076  1
  O2-  O135  1  0.00142304  0.74373491  0.27072373  1
  O2-  O136  1  -0.00228147  0.75416870  0.60790301  1
  O2-  O137  1  -0.00501001  0.74693792  0.94249774  1
  O2-  O138  1  0.49898667  0.24873006  0.26735171  1
  O2-  O139  1  0.50723373  0.24667496  0.60942838  1
  O2-  O140  1  0.50424740  0.24664811  0.93771349  1
  O2-  O141  1  0.49883350  0.74875434  0.26741328  1
  O2-  O142  1  0.49145021  0.75146122  0.60839348  1
  O2-  O143  1  0.50300351  0.74684339  0.93764677  1
  O2-  O144  1  0.07100772  0.17490522  0.08818719  1
  O2-  O145  1  0.07278284  0.17434897  0.42130358  1
  O2-  O146  1  0.06765183  0.18148103  0.76632780  1
  O2-  O147  1  0.07223162  0.68350745  0.09000311  1
  O2-  O148  1  0.07125838  0.67813809  0.42129872  1
  O2-  O149  1  0.07030707  0.67898674  0.76618507  1
  O2-  O150  1  0.57149874  0.17656858  0.08792812  1
  O2-  O151  1  0.56902119  0.18059347  0.43359566  1
  O2-  O152  1  0.57369347  0.16940304  0.75624074  1
  O2-  O153  1  0.57109324  0.67961090  0.08817317  1
  O2-  O154  1  0.57186407  0.68015438  0.42984445  1
  O2-  O155  1  0.57261247  0.68391471  0.76744325  1
  O2-  O156  1  0.17114562  0.43054357  0.24411282  1
  O2-  O157  1  0.18065506  0.43092496  0.56672251  1
  O2-  O158  1  0.17710507  0.42794009  0.91163285  1
  O2-  O159  1  0.17621115  0.93047220  0.24456065  1
  O2-  O160  1  0.17363409  0.92741289  0.57837089  1
  O2-  O161  1  0.17485367  0.92714661  0.91122482  1
  O2-  O162  1  0.68221621  0.42706500  0.23664295  1
  O2-  O163  1  0.67626697  0.42511253  0.57838891  1
  O2-  O164  1  0.67895673  0.43291180  0.90055212  1
  O2-  O165  1  0.67847510  0.92814852  0.24665406  1
  O2-  O166  1  0.68210158  0.92949503  0.57595599  1
  O2-  O167  1  0.68115116  0.92930808  0.90118804  1
  O2-  O168  1  0.43044959  0.32105455  0.09776157  1
  O2-  O169  1  0.42540134  0.31773609  0.43137719  1
  O2-  O170  1  0.42904271  0.31948339  0.76717344  1
  O2-  O171  1  0.42846942  0.81978126  0.09723204  1
  O2-  O172  1  0.42938076  0.82097707  0.43334629  1
  O2-  O173  1  0.43113414  0.82717181  0.75743822  1
  O2-  O174  1  0.92834999  0.31933941  0.09746036  1
  O2-  O175  1  0.93225366  0.31889489  0.43535947  1
  O2-  O176  1  0.92839362  0.32104033  0.75622515  1
  O2-  O177  1  0.93171289  0.82510755  0.08922417  1
  O2-  O178  1  0.93483496  0.82192262  0.43281123  1
  O2-  O179  1  0.92697244  0.82219104  0.75714948  1
  O2-  O180  1  0.31883971  0.07137418  0.24357985  1
  O2-  O181  1  0.31871575  0.06766149  0.56575413  1
  O2-  O182  1  0.31740726  0.07197607  0.90238317  1
  O2-  O183  1  0.31764857  0.57222083  0.23506737  1
  O2-  O184  1  0.32243008  0.57249931  0.57684096  1
  O2-  O185  1  0.31618143  0.57233173  0.89756769  1
  O2-  O186  1  0.82081276  0.06747235  0.23378906  1
  O2-  O187  1  0.82589894  0.07217521  0.57792574  1
  O2-  O188  1  0.82491818  0.06664301  0.90797675  1
  O2-  O189  1  0.82562235  0.57035100  0.24474962  1
  O2-  O190  1  0.81811394  0.57024079  0.56475677  1
  O2-  O191  1  0.82275180  0.57235512  0.90265032  1
  O2-  O192  1  0.04690414  0.08265834  0.26924390  1
  O2-  O193  1  0.04273422  0.08157540  0.59985672  1
  O2-  O194  1  0.04687641  0.08388615  0.93478769  1
  O2-  O195  1  0.04973814  0.58394656  0.26834262  1
  O2-  O196  1  0.03866566  0.58218405  0.59752553  1
  O2-  O197  1  0.04740356  0.58710285  0.93808246  1
  O2-  O198  1  0.54677584  0.07956968  0.26863402  1
  O2-  O199  1  0.54685560  0.08237366  0.60284261  1
  O2-  O200  1  0.54359384  0.08329409  0.93771111  1
  O2-  O201  1  0.54292759  0.57885119  0.26541684  1
  O2-  O202  1  0.54414203  0.58456285  0.59815579  1
  O2-  O203  1  0.54745165  0.58566559  0.93655144  1
  O2-  O204  1  0.16575004  0.20016839  0.26833168  1
  O2-  O205  1  0.16359630  0.21325844  0.59744734  1
  O2-  O206  1  0.16544816  0.20420500  0.93721571  1
  O2-  O207  1  0.16422087  0.70828610  0.27042171  1
  O2-  O208  1  0.16742927  0.70749298  0.59616858  1
  O2-  O209  1  0.15926233  0.71255441  0.93412930  1
  O2-  O210  1  0.67076805  0.20577926  0.26807696  1
  O2-  O211  1  0.66912698  0.19798951  0.60684457  1
  O2-  O212  1  0.66627304  0.19729214  0.93539609  1
  O2-  O213  1  0.67028060  0.70372334  0.26244563  1
  O2-  O214  1  0.66502040  0.71637212  0.59841610  1
  O2-  O215  1  0.66676223  0.70848145  0.93952331  1
  O2-  O216  1  0.08613715  0.45774667  0.06383200  1
  O2-  O217  1  0.08364810  0.45639304  0.39806323  1
  O2-  O218  1  0.08428631  0.46094597  0.73506725  1
  O2-  O219  1  0.08351421  0.95505839  0.06343341  1
  O2-  O220  1  0.08822892  0.95785301  0.39927937  1
  O2-  O221  1  0.08265753  0.95300902  0.73133602  1
  O2-  O222  1  0.58221424  0.45779103  0.06824088  1
  O2-  O223  1  0.58447309  0.45979379  0.40465184  1
  O2-  O224  1  0.58200806  0.45748458  0.72832288  1
  O2-  O225  1  0.58343818  0.96009320  0.07108378  1
  O2-  O226  1  0.58446726  0.95238072  0.39918630  1
  O2-  O227  1  0.58993436  0.95725736  0.73002503  1
  O2-  O228  1  0.19719519  0.33241315  0.06318775  1
  O2-  O229  1  0.19704358  0.33101483  0.39248045  1
  O2-  O230  1  0.21086538  0.33458463  0.73513927  1
  O2-  O231  1  0.20066485  0.83386636  0.06335535  1
  O2-  O232  1  0.20513801  0.83773438  0.39835759  1
  O2-  O233  1  0.19849461  0.83113232  0.72888154  1
  O2-  O234  1  0.70668059  0.32739022  0.06309887  1
  O2-  O235  1  0.71320576  0.33395803  0.40531313  1
  O2-  O236  1  0.69562337  0.33225794  0.73075465  1
  O2-  O237  1  0.71008510  0.83564755  0.07175900  1
  O2-  O238  1  0.70609224  0.83209721  0.39596029  1
  O2-  O239  1  0.71157658  0.84032893  0.73070179  1
  O2-  O240  1  0.45785879  0.41971583  0.26908659  1
  O2-  O241  1  0.45700796  0.41623617  0.59872211  1
  O2-  O242  1  0.46010036  0.41877770  0.93069909  1
  O2-  O243  1  0.45567987  0.91880445  0.26727123  1
  O2-  O244  1  0.45991640  0.91675523  0.60500113  1
  O2-  O245  1  0.46139359  0.91885009  0.93293881  1
  O2-  O246  1  0.96001343  0.41583317  0.26542871  1
  O2-  O247  1  0.95586222  0.41415887  0.60476652  1
  O2-  O248  1  0.96077381  0.41864780  0.93120922  1
  O2-  O249  1  0.96605599  0.91527398  0.26341086  1
  O2-  O250  1  0.95302361  0.91582734  0.60562333  1
  O2-  O251  1  0.95853255  0.91142716  0.93396579  1
  O2-  O252  1  0.32827591  0.29523627  0.26413782  1
  O2-  O253  1  0.33438782  0.28601147  0.59905972  1
  O2-  O254  1  0.33089553  0.29021186  0.93508862  1
  O2-  O255  1  0.32766192  0.79503192  0.26803280  1
  O2-  O256  1  0.33216688  0.80796796  0.60796857  1
  O2-  O257  1  0.33071491  0.79361510  0.93064082  1
  O2-  O258  1  0.83508283  0.28579002  0.26844263  1
  O2-  O259  1  0.82987215  0.29989681  0.60865362  1
  O2-  O260  1  0.83334215  0.29083073  0.92617831  1
  O2-  O261  1  0.83373537  0.79632491  0.26429082  1
  O2-  O262  1  0.83526936  0.79578587  0.60379561  1
  O2-  O263  1  0.83408394  0.79749218  0.93912035  1
  O2-  O264  1  0.41552462  0.04153100  0.06996001  1
  O2-  O265  1  0.41305555  0.04358900  0.39585488  1
  O2-  O266  1  0.41712354  0.04217359  0.73463135  1
  O2-  O267  1  0.41724437  0.54438693  0.06424476  1
  O2-  O268  1  0.41684124  0.54125353  0.40343177  1
  O2-  O269  1  0.41782060  0.54854467  0.72689046  1
  O2-  O270  1  0.91715591  0.04309850  0.05982434  1
  O2-  O271  1  0.91806317  0.03674741  0.40060484  1
  O2-  O272  1  0.91443245  0.04311651  0.73196271  1
  O2-  O273  1  0.92401349  0.54709457  0.06781540  1
  O2-  O274  1  0.91885964  0.54669906  0.39449747  1
  O2-  O275  1  0.91533032  0.54095549  0.73271607  1
  O2-  O276  1  0.28610501  0.16628696  0.07203343  1
  O2-  O277  1  0.29181886  0.16386780  0.39502011  1
  O2-  O278  1  0.28425214  0.16459044  0.73299378  1
  O2-  O279  1  0.28437150  0.66672774  0.06499567  1
  O2-  O280  1  0.28761795  0.66605752  0.40386201  1
  O2-  O281  1  0.29923598  0.66971895  0.72506028  1
  O2-  O282  1  0.80130535  0.16629676  0.05595413  1
  O2-  O283  1  0.79108198  0.16416083  0.40478992  1
  O2-  O284  1  0.79778225  0.16506866  0.73088205  1
  O2-  O285  1  0.79842061  0.67071708  0.06860379  1
  O2-  O286  1  0.80142303  0.66892651  0.39296574  1
  O2-  O287  1  0.78920407  0.66757901  0.73218135  1
