# generated using pymatgen
data_Ca2Al2SiO7
_symmetry_space_group_name_H-M   'P 1'
_cell_length_a   15.46108319
_cell_length_b   15.46114419
_cell_length_c   15.28570572
_cell_angle_alpha   89.99935894
_cell_angle_beta   90.00675201
_cell_angle_gamma   90.02259114
_symmetry_Int_Tables_number   1
_chemical_formula_structural   Ca2Al2SiO7
_chemical_formula_sum   'Ca48 Al48 Si24 O168'
_cell_volume   3653.98705787
_cell_formula_units_Z   24
loop_
 _symmetry_equiv_pos_site_id
 _symmetry_equiv_pos_as_xyz
  1  'x, y, z'
loop_
 _atom_type_symbol
 _atom_type_oxidation_number
  Ca2+  2.0
  Al0+  0.0
  Si0+  0.0
  O2-  -2.0
loop_
 _atom_site_type_symbol
 _atom_site_label
 _atom_site_symmetry_multiplicity
 _atom_site_fract_x
 _atom_site_fract_y
 _atom_site_fract_z
 _atom_site_occupancy
  Ca2+  Ca0  1  0.17059187  0.07607549  0.17295148  1
  Ca2+  Ca1  1  0.17133356  0.07793519  0.50411196  1
  Ca2+  Ca2  1  0.17588054  0.07556059  0.83712579  1
  Ca2+  Ca3  1  0.16864956  0.57545868  0.17122749  1
  Ca2+  Ca4  1  0.17831557  0.58131453  0.51190438  1
  Ca2+  Ca5  1  0.16137784  0.57655478  0.83183385  1
  Ca2+  Ca6  1  0.67585368  0.07734674  0.17070934  1
  Ca2+  Ca7  1  0.66346819  0.07196038  0.50791213  1
  Ca2+  Ca8  1  0.66843509  0.07983217  0.83423004  1
  Ca2+  Ca9  1  0.67395051  0.58842266  0.17006095  1
  Ca2+  Ca10  1  0.66245156  0.58236983  0.50879727  1
  Ca2+  Ca11  1  0.66874881  0.57965783  0.83293152  1
  Ca2+  Ca12  1  0.08331185  0.32636458  0.15872800  1
  Ca2+  Ca13  1  0.09172691  0.32654828  0.49704526  1
  Ca2+  Ca14  1  0.08122884  0.34091363  0.82956197  1
  Ca2+  Ca15  1  0.08270193  0.83730666  0.15842688  1
  Ca2+  Ca16  1  0.08292074  0.84017423  0.49952155  1
  Ca2+  Ca17  1  0.07584515  0.83816776  0.82507152  1
  Ca2+  Ca18  1  0.57834149  0.32920792  0.16133924  1
  Ca2+  Ca19  1  0.57846332  0.33028757  0.50463210  1
  Ca2+  Ca20  1  0.57680255  0.32579093  0.81877717  1
  Ca2+  Ca21  1  0.58540020  0.83174269  0.16744172  1
  Ca2+  Ca22  1  0.58663359  0.82627589  0.49609447  1
  Ca2+  Ca23  1  0.58329317  0.82814187  0.82227536  1
  Ca2+  Ca24  1  0.32732069  0.42037191  0.16928049  1
  Ca2+  Ca25  1  0.33336446  0.42529800  0.51038203  1
  Ca2+  Ca26  1  0.32561549  0.41787927  0.82956268  1
  Ca2+  Ca27  1  0.32243587  0.92506778  0.17344621  1
  Ca2+  Ca28  1  0.32394696  0.92584846  0.50808620  1
  Ca2+  Ca29  1  0.32535436  0.92379117  0.83734012  1
  Ca2+  Ca30  1  0.83833153  0.42122668  0.16363748  1
  Ca2+  Ca31  1  0.82461970  0.41968514  0.50929386  1
  Ca2+  Ca32  1  0.82969372  0.42155160  0.84101874  1
  Ca2+  Ca33  1  0.83376502  0.91884344  0.16732478  1
  Ca2+  Ca34  1  0.82424622  0.91124598  0.50574110  1
  Ca2+  Ca35  1  0.83251801  0.91464257  0.83492208  1
  Ca2+  Ca36  1  0.41335455  0.15901703  0.16357212  1
  Ca2+  Ca37  1  0.40860501  0.16823155  0.50111871  1
  Ca2+  Ca38  1  0.41567486  0.16830298  0.82213160  1
  Ca2+  Ca39  1  0.42097251  0.66368791  0.16827860  1
  Ca2+  Ca40  1  0.42417362  0.65840327  0.49575602  1
  Ca2+  Ca41  1  0.42173214  0.66606820  0.82261259  1
  Ca2+  Ca42  1  0.92349414  0.16786442  0.15816915  1
  Ca2+  Ca43  1  0.92542829  0.16863671  0.49446976  1
  Ca2+  Ca44  1  0.91409957  0.17013521  0.83180931  1
  Ca2+  Ca45  1  0.91809935  0.67413157  0.15565468  1
  Ca2+  Ca46  1  0.92567261  0.67118045  0.50454571  1
  Ca2+  Ca47  1  0.92131270  0.67601260  0.82661562  1
  Al0+  Al48  1  -0.00144476  0.00050504  0.00079431  1
  Al0+  Al49  1  -0.00067639  0.00217870  0.33067363  1
  Al0+  Al50  1  -0.00239400  0.00275650  0.66418863  1
  Al0+  Al51  1  -0.00085140  0.49935856  0.00527849  1
  Al0+  Al52  1  -0.00180582  0.50192426  0.33415311  1
  Al0+  Al53  1  -0.00100524  0.50323034  0.66352690  1
  Al0+  Al54  1  0.50053703  -0.00251526  0.00234139  1
  Al0+  Al55  1  0.50045869  -0.00031230  0.33837835  1
  Al0+  Al56  1  0.50232225  -0.00116866  0.67111591  1
  Al0+  Al57  1  0.50023804  0.49720759  -0.00118311  1
  Al0+  Al58  1  0.50170629  0.49911542  0.32825093  1
  Al0+  Al59  1  0.50036473  0.49825725  0.66802963  1
  Al0+  Al60  1  0.25096574  0.25096951  0.00610821  1
  Al0+  Al61  1  0.24913269  0.24995584  0.32852074  1
  Al0+  Al62  1  0.24908403  0.25202868  0.66931557  1
  Al0+  Al63  1  0.25283758  0.74842416  0.00237589  1
  Al0+  Al64  1  0.25094416  0.74932841  0.33870802  1
  Al0+  Al65  1  0.24988852  0.75021870  0.67163021  1
  Al0+  Al66  1  0.74953609  0.24905294  0.00115315  1
  Al0+  Al67  1  0.74846939  0.25158304  0.33145609  1
  Al0+  Al68  1  0.74842933  0.25035481  0.66458729  1
  Al0+  Al69  1  0.75117647  0.74756377  -0.00087461  1
  Al0+  Al70  1  0.75104492  0.74871676  0.33206220  1
  Al0+  Al71  1  0.75050160  0.75118438  0.66296034  1
  Al0+  Al72  1  0.56910522  0.67957142  0.65414441  1
  Al0+  Al73  1  0.32242659  0.07058901  0.01559297  1
  Al0+  Al74  1  0.57194544  0.17627124  0.65084416  1
  Al0+  Al75  1  0.32105382  0.07293411  0.35001991  1
  Al0+  Al76  1  0.68040744  0.92780156  0.68049372  1
  Al0+  Al77  1  0.32281227  0.57227944  0.68207329  1
  Al0+  Al78  1  0.17556836  0.92905787  0.68226505  1
  Al0+  Al79  1  0.81911812  0.57017522  0.01301200  1
  Al0+  Al80  1  0.93000796  0.82183227  0.98611898  1
  Al0+  Al81  1  0.32097414  0.07112434  0.68181986  1
  Al0+  Al82  1  0.17668188  0.42967470  0.68005520  1
  Al0+  Al83  1  0.81959062  0.07213294  0.01280218  1
  Al0+  Al84  1  0.07316818  0.67904129  0.65152318  1
  Al0+  Al85  1  0.93018516  0.82352947  0.64968920  1
  Al0+  Al86  1  0.17630119  0.92871995  0.34926743  1
  Al0+  Al87  1  0.17820615  0.92774356  0.01450809  1
  Al0+  Al88  1  0.32216999  0.56874202  0.34583407  1
  Al0+  Al89  1  0.68183130  0.92869687  0.34647627  1
  Al0+  Al90  1  0.92972383  0.32099022  0.98598757  1
  Al0+  Al91  1  0.67930043  0.42832226  0.67983082  1
  Al0+  Al92  1  0.07003387  0.18068926  0.31798628  1
  Al0+  Al93  1  0.57115528  0.67888565  0.31753788  1
  Al0+  Al94  1  0.42744507  0.31919395  0.65138128  1
  Al0+  Al95  1  0.17889467  0.43110962  0.01478850  1
  Si0+  Si96  1  0.57125939  0.67792385  0.98454269  1
  Si0+  Si97  1  0.93003149  0.81916001  0.31717070  1
  Si0+  Si98  1  0.17685190  0.42932586  0.34872240  1
  Si0+  Si99  1  0.57046800  0.17777416  0.98669946  1
  Si0+  Si100  1  0.92509005  0.32413703  0.31616746  1
  Si0+  Si101  1  0.67721382  0.42733770  0.01788011  1
  Si0+  Si102  1  0.43054323  0.32019003  0.31611512  1
  Si0+  Si103  1  0.42820218  0.32050170  0.98441312  1
  Si0+  Si104  1  0.67906760  0.42858864  0.34753770  1
  Si0+  Si105  1  0.82123320  0.07445746  0.34969248  1
  Si0+  Si106  1  0.07296592  0.67815537  0.31778188  1
  Si0+  Si107  1  0.82122541  0.57212119  0.68273403  1
  Si0+  Si108  1  0.92701767  0.32338646  0.65231328  1
  Si0+  Si109  1  0.82103959  0.57132147  0.34993765  1
  Si0+  Si110  1  0.82169699  0.07371199  0.68172797  1
  Si0+  Si111  1  0.67889113  0.92563687  0.01651357  1
  Si0+  Si112  1  0.06971019  0.18143447  0.65335928  1
  Si0+  Si113  1  0.32632407  0.57133848  0.01783542  1
  Si0+  Si114  1  0.42721559  0.82301277  0.65114327  1
  Si0+  Si115  1  0.42991722  0.82018567  0.98561526  1
  Si0+  Si116  1  0.57209948  0.17675809  0.31656684  1
  Si0+  Si117  1  0.07291900  0.17914759  0.98154221  1
  Si0+  Si118  1  0.07378966  0.67725512  0.98594519  1
  Si0+  Si119  1  0.42781426  0.82292605  0.31692687  1
  O2-  O120  1  0.24878026  0.00056677  0.06525279  1
  O2-  O121  1  0.24924060  0.00023769  0.39790630  1
  O2-  O122  1  0.25076395  -0.00226312  0.73155975  1
  O2-  O123  1  0.25372899  0.50627547  0.06097258  1
  O2-  O124  1  0.24441564  0.49799749  0.39274228  1
  O2-  O125  1  0.24673826  0.50345710  0.73037724  1
  O2-  O126  1  0.74769922  -0.00535954  0.05985632  1
  O2-  O127  1  0.75360675  0.00575110  0.39413628  1
  O2-  O128  1  0.75372577  0.00428470  0.72558459  1
  O2-  O129  1  0.74452188  0.49650218  0.06325173  1
  O2-  O130  1  0.75170026  0.49781367  0.38965897  1
  O2-  O131  1  0.75443075  0.50167978  0.72697984  1
  O2-  O132  1  -0.00536219  0.25639669  0.27284201  1
  O2-  O133  1  0.00033919  0.25496393  0.61067036  1
  O2-  O134  1  0.00451427  0.24825443  0.93650463  1
  O2-  O135  1  0.00539747  0.75237079  0.27499741  1
  O2-  O136  1  0.00667438  0.75583004  0.59977258  1
  O2-  O137  1  0.01016369  0.75107750  0.94274207  1
  O2-  O138  1  0.49816570  0.24505423  0.27405931  1
  O2-  O139  1  0.49672755  0.24474134  0.59999561  1
  O2-  O140  1  0.49630474  0.24553634  0.94504086  1
  O2-  O141  1  0.49658235  0.75391051  0.27082412  1
  O2-  O142  1  0.49250733  0.75123041  0.60583872  1
  O2-  O143  1  0.49964178  0.74777532  0.94307296  1
  O2-  O144  1  0.07059051  0.18124631  0.08741255  1
  O2-  O145  1  0.06851395  0.18332570  0.43156018  1
  O2-  O146  1  0.06729324  0.18038124  0.75818443  1
  O2-  O147  1  0.07121391  0.67664793  0.09234375  1
  O2-  O148  1  0.06952290  0.67387386  0.42204761  1
  O2-  O149  1  0.06562137  0.67410115  0.76492891  1
  O2-  O150  1  0.57086923  0.18006330  0.09241742  1
  O2-  O151  1  0.57752462  0.17942455  0.42061943  1
  O2-  O152  1  0.57405713  0.17985909  0.76504557  1
  O2-  O153  1  0.57111005  0.67807166  0.08989984  1
  O2-  O154  1  0.57152679  0.67711770  0.42996026  1
  O2-  O155  1  0.57067845  0.68135075  0.76785655  1
  O2-  O156  1  0.17666992  0.43113174  0.24286467  1
  O2-  O157  1  0.17779592  0.42893069  0.56620706  1
  O2-  O158  1  0.17862366  0.43238484  0.90234138  1
  O2-  O159  1  0.17615386  0.92909613  0.23556336  1
  O2-  O160  1  0.17532387  0.93422714  0.56879143  1
  O2-  O161  1  0.17995813  0.92878799  0.90152272  1
  O2-  O162  1  0.67937668  0.42790256  0.24218527  1
  O2-  O163  1  0.68221857  0.42920430  0.56607042  1
  O2-  O164  1  0.67642214  0.42818074  0.91269199  1
  O2-  O165  1  0.68515742  0.92958995  0.23283179  1
  O2-  O166  1  0.68292694  0.92651420  0.56727317  1
  O2-  O167  1  0.67750542  0.92527384  0.91129177  1
  O2-  O168  1  0.43188441  0.32449475  0.09006295  1
  O2-  O169  1  0.43247959  0.32312948  0.42047374  1
  O2-  O170  1  0.42914874  0.31835655  0.76541951  1
  O2-  O171  1  0.43187434  0.82022160  0.09079316  1
  O2-  O172  1  0.42965968  0.82255641  0.42203488  1
  O2-  O173  1  0.43190043  0.82221205  0.75732218  1
  O2-  O174  1  0.93111167  0.31925836  0.09933630  1
  O2-  O175  1  0.92215154  0.32398831  0.42175912  1
  O2-  O176  1  0.92533749  0.32231347  0.75732139  1
  O2-  O177  1  0.92736887  0.81832375  0.09993884  1
  O2-  O178  1  0.92750553  0.81660910  0.42178011  1
  O2-  O179  1  0.92844491  0.82114494  0.76332235  1
  O2-  O180  1  0.32019888  0.07066903  0.23637994  1
  O2-  O181  1  0.31696570  0.07172159  0.56839012  1
  O2-  O182  1  0.32422797  0.06945460  0.90264111  1
  O2-  O183  1  0.32111912  0.56501144  0.23216861  1
  O2-  O184  1  0.32489382  0.56752330  0.56821823  1
  O2-  O185  1  0.33199399  0.56975521  0.91321234  1
  O2-  O186  1  0.81939389  0.07491290  0.24387140  1
  O2-  O187  1  0.82224405  0.07518843  0.57598918  1
  O2-  O188  1  0.81497652  0.07538128  0.90021108  1
  O2-  O189  1  0.82163703  0.57177457  0.24462999  1
  O2-  O190  1  0.82082332  0.56953751  0.57650060  1
  O2-  O191  1  0.81573180  0.56947865  0.90048555  1
  O2-  O192  1  0.03732190  0.08508403  0.26220605  1
  O2-  O193  1  0.03861398  0.09246966  0.60241304  1
  O2-  O194  1  0.04532654  0.08598757  0.93694200  1
  O2-  O195  1  0.04052305  0.58718870  0.26909396  1
  O2-  O196  1  0.03810610  0.58341745  0.59377642  1
  O2-  O197  1  0.04116043  0.58571721  0.94100199  1
  O2-  O198  1  0.54722186  0.08385662  0.26962472  1
  O2-  O199  1  0.54915287  0.07548503  0.60123608  1
  O2-  O200  1  0.54799572  0.08354073  0.94173887  1
  O2-  O201  1  0.54112205  0.58260225  0.26076728  1
  O2-  O202  1  0.54168268  0.58189594  0.60090557  1
  O2-  O203  1  0.54488453  0.58447048  0.93919212  1
  O2-  O204  1  0.16555620  0.21172304  0.26116511  1
  O2-  O205  1  0.16070130  0.20957914  0.60513252  1
  O2-  O206  1  0.16781775  0.20557637  0.93943728  1
  O2-  O207  1  0.16680927  0.70050933  0.27195331  1
  O2-  O208  1  0.17490673  0.69927475  0.60265220  1
  O2-  O209  1  0.17075623  0.69375702  0.94343800  1
  O2-  O210  1  0.66249008  0.20916159  0.26658472  1
  O2-  O211  1  0.66874149  0.20930730  0.59566460  1
  O2-  O212  1  0.66066187  0.20863406  0.93905430  1
  O2-  O213  1  0.66797943  0.71126994  0.26301928  1
  O2-  O214  1  0.66510483  0.71054879  0.59917086  1
  O2-  O215  1  0.66260071  0.70541127  0.93730468  1
  O2-  O216  1  0.08355673  0.46044264  0.07201321  1
  O2-  O217  1  0.08165291  0.45178614  0.39309753  1
  O2-  O218  1  0.07695134  0.45778210  0.73151659  1
  O2-  O219  1  0.07898630  0.95468321  0.06598283  1
  O2-  O220  1  0.07705708  0.95893327  0.39947182  1
  O2-  O221  1  0.07735693  0.96228228  0.73278631  1
  O2-  O222  1  0.58332490  0.45269236  0.06440687  1
  O2-  O223  1  0.58812837  0.45844697  0.39347960  1
  O2-  O224  1  0.58464203  0.45882393  0.73573599  1
  O2-  O225  1  0.58622127  0.95169132  0.06421270  1
  O2-  O226  1  0.58473949  0.95554334  0.39964925  1
  O2-  O227  1  0.58501571  0.95553625  0.73760659  1
  O2-  O228  1  0.21100096  0.33580468  0.07079203  1
  O2-  O229  1  0.20363083  0.33529313  0.39125620  1
  O2-  O230  1  0.20431054  0.33284226  0.73557537  1
  O2-  O231  1  0.20707315  0.82836130  0.06695921  1
  O2-  O232  1  0.20202396  0.82940299  0.40066919  1
  O2-  O233  1  0.19782101  0.82927187  0.73376435  1
  O2-  O234  1  0.70350841  0.33457305  0.06510585  1
  O2-  O235  1  0.70508116  0.33636938  0.39521234  1
  O2-  O236  1  0.70998396  0.33189799  0.73374125  1
  O2-  O237  1  0.70516344  0.83236932  0.06255537  1
  O2-  O238  1  0.71517588  0.83228330  0.39896769  1
  O2-  O239  1  0.71355798  0.83211029  0.73501700  1
  O2-  O240  1  0.46432906  0.40854280  0.26463422  1
  O2-  O241  1  0.46205180  0.41566113  0.59833112  1
  O2-  O242  1  0.45926067  0.41088632  0.93589924  1
  O2-  O243  1  0.45589761  0.91622449  0.27033899  1
  O2-  O244  1  0.45694230  0.91499756  0.60510872  1
  O2-  O245  1  0.45957917  0.91113492  0.93744182  1
  O2-  O246  1  0.94990793  0.41916461  0.27148302  1
  O2-  O247  1  0.95014904  0.41568358  0.60388815  1
  O2-  O248  1  0.95895387  0.41896488  0.93409082  1
  O2-  O249  1  0.95156123  0.91357570  0.27176073  1
  O2-  O250  1  0.95182812  0.92382101  0.59648851  1
  O2-  O251  1  0.95343625  0.92048471  0.93296641  1
  O2-  O252  1  0.33772931  0.29666507  0.26811326  1
  O2-  O253  1  0.32772809  0.29494840  0.59830256  1
  O2-  O254  1  0.33484659  0.29651444  0.93971891  1
  O2-  O255  1  0.33422812  0.79532068  0.27086019  1
  O2-  O256  1  0.33154367  0.80322291  0.60821374  1
  O2-  O257  1  0.33792402  0.79361991  0.93797813  1
  O2-  O258  1  0.83137388  0.29953269  0.26870202  1
  O2-  O259  1  0.83733674  0.29278585  0.60199878  1
  O2-  O260  1  0.83142311  0.29097573  0.93424501  1
  O2-  O261  1  0.84074762  0.78544862  0.26807841  1
  O2-  O262  1  0.83441586  0.78791838  0.59529448  1
  O2-  O263  1  0.83415125  0.78623081  0.93280094  1
  O2-  O264  1  0.42095365  0.04007185  0.06899197  1
  O2-  O265  1  0.42083867  0.04849524  0.40089198  1
  O2-  O266  1  0.42040951  0.04565742  0.73336152  1
  O2-  O267  1  0.41807549  0.53977931  0.06617195  1
  O2-  O268  1  0.41906889  0.53441122  0.39646961  1
  O2-  O269  1  0.41900977  0.53917547  0.73649888  1
  O2-  O270  1  0.91615740  0.04397702  0.06759620  1
  O2-  O271  1  0.91508216  0.04987940  0.39408364  1
  O2-  O272  1  0.91448188  0.04962056  0.72914583  1
  O2-  O273  1  0.91389109  0.53952397  0.07067928  1
  O2-  O274  1  0.91291969  0.54494640  0.39832068  1
  O2-  O275  1  0.91444232  0.54734249  0.72828953  1
  O2-  O276  1  0.29856283  0.17008634  0.06819547  1
  O2-  O277  1  0.29187455  0.17301450  0.39864339  1
  O2-  O278  1  0.29076858  0.16903973  0.73410765  1
  O2-  O279  1  0.30575775  0.66604967  0.06350889  1
  O2-  O280  1  0.29802211  0.66625686  0.39922504  1
  O2-  O281  1  0.30121016  0.67155138  0.73558671  1
  O2-  O282  1  0.78625047  0.16658198  0.07059407  1
  O2-  O283  1  0.79627178  0.16914456  0.39415684  1
  O2-  O284  1  0.79511824  0.16678845  0.72814740  1
  O2-  O285  1  0.78654771  0.66540913  0.07005237  1
  O2-  O286  1  0.79051313  0.66136000  0.39721090  1
  O2-  O287  1  0.79277640  0.66468135  0.72749969  1
