# generated using pymatgen
data_Ca2Al2SiO7
_symmetry_space_group_name_H-M   'P 1'
_cell_length_a   15.46108688
_cell_length_b   15.46059072
_cell_length_c   15.28589311
_cell_angle_alpha   89.99347709
_cell_angle_beta   90.01502775
_cell_angle_gamma   89.99273003
_symmetry_Int_Tables_number   1
_chemical_formula_structural   Ca2Al2SiO7
_chemical_formula_sum   'Ca48 Al48 Si24 O168'
_cell_volume   3653.90205158
_cell_formula_units_Z   24
loop_
 _symmetry_equiv_pos_site_id
 _symmetry_equiv_pos_as_xyz
  1  'x, y, z'
loop_
 _atom_type_symbol
 _atom_type_oxidation_number
  Ca2+  2.0
  Al0+  0.0
  Si0+  0.0
  O2-  -2.0
loop_
 _atom_site_type_symbol
 _atom_site_label
 _atom_site_symmetry_multiplicity
 _atom_site_fract_x
 _atom_site_fract_y
 _atom_site_fract_z
 _atom_site_occupancy
  Ca2+  Ca0  1  0.15559119  0.07243205  0.17060903  1
  Ca2+  Ca1  1  0.16593541  0.07804190  0.50009177  1
  Ca2+  Ca2  1  0.17266042  0.08050031  0.84170075  1
  Ca2+  Ca3  1  0.15575515  0.58015098  0.16975866  1
  Ca2+  Ca4  1  0.16011725  0.58070531  0.50542813  1
  Ca2+  Ca5  1  0.15297044  0.57628035  0.83915117  1
  Ca2+  Ca6  1  0.66943547  0.07637090  0.17563492  1
  Ca2+  Ca7  1  0.66754301  0.07453903  0.50205753  1
  Ca2+  Ca8  1  0.66771649  0.07026216  0.84211849  1
  Ca2+  Ca9  1  0.68091296  0.59256899  0.16957313  1
  Ca2+  Ca10  1  0.67474154  0.58979247  0.50288051  1
  Ca2+  Ca11  1  0.67156208  0.59069960  0.84253435  1
  Ca2+  Ca12  1  0.08638555  0.32091921  0.16097302  1
  Ca2+  Ca13  1  0.08669926  0.32745678  0.49539075  1
  Ca2+  Ca14  1  0.09053887  0.33372346  0.83407470  1
  Ca2+  Ca15  1  0.07241669  0.83132722  0.15747633  1
  Ca2+  Ca16  1  0.07446934  0.82897422  0.48778809  1
  Ca2+  Ca17  1  0.07221551  0.82981803  0.82755375  1
  Ca2+  Ca18  1  0.58315146  0.32148266  0.16379750  1
  Ca2+  Ca19  1  0.57316272  0.32460729  0.48575846  1
  Ca2+  Ca20  1  0.58491157  0.32450445  0.83127718  1
  Ca2+  Ca21  1  0.58829472  0.83437584  0.15945653  1
  Ca2+  Ca22  1  0.58862738  0.83589183  0.50080700  1
  Ca2+  Ca23  1  0.59374598  0.82564227  0.83040838  1
  Ca2+  Ca24  1  0.33131819  0.41508070  0.16753518  1
  Ca2+  Ca25  1  0.32839217  0.41461681  0.50525358  1
  Ca2+  Ca26  1  0.32187316  0.42081252  0.83826400  1
  Ca2+  Ca27  1  0.31646594  0.91137470  0.16984921  1
  Ca2+  Ca28  1  0.32575177  0.92283448  0.50345933  1
  Ca2+  Ca29  1  0.32685946  0.92045475  0.83776260  1
  Ca2+  Ca30  1  0.83856364  0.43196616  0.17074205  1
  Ca2+  Ca31  1  0.83768304  0.42566073  0.50082371  1
  Ca2+  Ca32  1  0.83351898  0.42882037  0.84288052  1
  Ca2+  Ca33  1  0.82639021  0.91385847  0.17424355  1
  Ca2+  Ca34  1  0.82990678  0.91332181  0.49741268  1
  Ca2+  Ca35  1  0.82767332  0.90462832  0.83620212  1
  Ca2+  Ca36  1  0.42733494  0.16683747  0.16550383  1
  Ca2+  Ca37  1  0.41840021  0.16824472  0.49118222  1
  Ca2+  Ca38  1  0.41975435  0.16053538  0.83154045  1
  Ca2+  Ca39  1  0.42574913  0.66966380  0.16131159  1
  Ca2+  Ca40  1  0.42538673  0.66452560  0.49753925  1
  Ca2+  Ca41  1  0.42889633  0.66695193  0.83160430  1
  Ca2+  Ca42  1  0.92523547  0.15739338  0.16596440  1
  Ca2+  Ca43  1  0.91983776  0.16704462  0.48957090  1
  Ca2+  Ca44  1  0.92467955  0.16643234  0.83452832  1
  Ca2+  Ca45  1  0.91906625  0.67457256  0.16248592  1
  Ca2+  Ca46  1  0.92403646  0.67678406  0.49477324  1
  Ca2+  Ca47  1  0.92097804  0.67578585  0.83286230  1
  Al0+  Al48  1  -0.00040031  0.00161047  -0.00840773  1
  Al0+  Al49  1  -0.00277313  -0.00087533  0.33538560  1
  Al0+  Al50  1  -0.00125513  0.00178979  0.66267750  1
  Al0+  Al51  1  -0.00089707  0.49948957  0.00771339  1
  Al0+  Al52  1  0.00036614  0.49955290  0.33778803  1
  Al0+  Al53  1  -0.00101189  0.49926728  0.66814953  1
  Al0+  Al54  1  0.49961958  0.00082610  -0.00040413  1
  Al0+  Al55  1  0.49809714  -0.00097066  0.33294520  1
  Al0+  Al56  1  0.50123627  -0.00139604  0.67471189  1
  Al0+  Al57  1  0.49910325  0.49864626  -0.00354338  1
  Al0+  Al58  1  0.49800742  0.50029963  0.32869957  1
  Al0+  Al59  1  0.49975563  0.49847456  0.66313431  1
  Al0+  Al60  1  0.25131937  0.25174597  0.00066953  1
  Al0+  Al61  1  0.24968335  0.25060237  0.32456565  1
  Al0+  Al62  1  0.25109680  0.25090438  0.67514812  1
  Al0+  Al63  1  0.25133839  0.74851264  -0.00069345  1
  Al0+  Al64  1  0.25129185  0.74671502  0.33659758  1
  Al0+  Al65  1  0.25290781  0.74893890  0.66524606  1
  Al0+  Al66  1  0.74966135  0.25023903  -0.00548699  1
  Al0+  Al67  1  0.74933848  0.25130160  0.33257989  1
  Al0+  Al68  1  0.75112591  0.24925261  0.66578657  1
  Al0+  Al69  1  0.75060405  0.75043376  0.00178455  1
  Al0+  Al70  1  0.75136725  0.74898211  0.34056831  1
  Al0+  Al71  1  0.75129201  0.74974555  0.66163532  1
  Al0+  Al72  1  0.67633263  0.92886438  0.34978762  1
  Al0+  Al73  1  0.57003832  0.67873920  0.65204322  1
  Al0+  Al74  1  0.57151639  0.17807616  0.98385397  1
  Al0+  Al75  1  0.92871484  0.82210533  0.98476859  1
  Al0+  Al76  1  0.06894435  0.17908935  0.32105176  1
  Al0+  Al77  1  0.07215375  0.67708493  0.98599551  1
  Al0+  Al78  1  0.07182781  0.17983850  0.98487579  1
  Al0+  Al79  1  0.68072792  0.93018830  0.01347735  1
  Al0+  Al80  1  0.82088872  0.07316133  0.34771540  1
  Al0+  Al81  1  0.57193932  0.17678816  0.31914427  1
  Al0+  Al82  1  0.17990271  0.43068587  0.01706460  1
  Al0+  Al83  1  0.82161743  0.56974668  0.35071902  1
  Al0+  Al84  1  0.81894524  0.57070617  0.01385876  1
  Al0+  Al85  1  0.42756089  0.32246349  0.31648726  1
  Al0+  Al86  1  0.57080104  0.68087355  0.98924709  1
  Al0+  Al87  1  0.17752034  0.92698222  0.34603517  1
  Al0+  Al88  1  0.07307239  0.67757554  0.31790785  1
  Al0+  Al89  1  0.92973561  0.82243081  0.64789677  1
  Al0+  Al90  1  0.17975332  0.43218837  0.68052236  1
  Al0+  Al91  1  0.31960877  0.07007861  0.67950162  1
  Al0+  Al92  1  0.68317649  0.93015631  0.68257645  1
  Al0+  Al93  1  0.17815978  0.92899506  0.01097547  1
  Al0+  Al94  1  0.92834962  0.82012639  0.31657941  1
  Al0+  Al95  1  0.07216852  0.67714268  0.65211643  1
  Si0+  Si96  1  0.42862145  0.82432079  0.64990538  1
  Si0+  Si97  1  0.82396464  0.07645722  0.68567725  1
  Si0+  Si98  1  0.42932512  0.31856837  0.65280013  1
  Si0+  Si99  1  0.32374517  0.57072031  0.34971709  1
  Si0+  Si100  1  0.81791369  0.56820568  0.68259643  1
  Si0+  Si101  1  0.92717581  0.32382596  0.31770774  1
  Si0+  Si102  1  0.32527686  0.57187351  0.01765650  1
  Si0+  Si103  1  0.42644818  0.82294630  0.98318490  1
  Si0+  Si104  1  0.67568706  0.42937167  0.34897257  1
  Si0+  Si105  1  0.17611822  0.92684747  0.68197095  1
  Si0+  Si106  1  0.82196169  0.07527024  0.01470390  1
  Si0+  Si107  1  0.32194077  0.07252204  0.01888805  1
  Si0+  Si108  1  0.57068887  0.68029095  0.31929308  1
  Si0+  Si109  1  0.07294373  0.18199497  0.65268497  1
  Si0+  Si110  1  0.42752455  0.82114743  0.31968306  1
  Si0+  Si111  1  0.92802213  0.32104176  0.65207635  1
  Si0+  Si112  1  0.42865134  0.32150615  0.97906128  1
  Si0+  Si113  1  0.67612868  0.42588384  0.01581352  1
  Si0+  Si114  1  0.31946297  0.07197116  0.34672558  1
  Si0+  Si115  1  0.32613901  0.57278872  0.68382858  1
  Si0+  Si116  1  0.18126487  0.42830863  0.34820508  1
  Si0+  Si117  1  0.57111480  0.17731886  0.65218177  1
  Si0+  Si118  1  0.92876355  0.32313914  0.98401612  1
  Si0+  Si119  1  0.67673724  0.42638440  0.68041766  1
  O2-  O120  1  0.25179492  0.00438105  0.06084502  1
  O2-  O121  1  0.25091507  0.00406431  0.39225034  1
  O2-  O122  1  0.24510356  -0.00465340  0.72630141  1
  O2-  O123  1  0.25228401  0.50820332  0.06271866  1
  O2-  O124  1  0.25079487  0.50070231  0.39055440  1
  O2-  O125  1  0.24984579  0.51202128  0.72693643  1
  O2-  O126  1  0.75350300  0.00675432  0.05862459  1
  O2-  O127  1  0.74711496  0.00317282  0.39839627  1
  O2-  O128  1  0.75851491  0.00462022  0.72904479  1
  O2-  O129  1  0.74267065  0.49600953  0.06004247  1
  O2-  O130  1  0.74547074  0.49484672  0.39667549  1
  O2-  O131  1  0.74520859  0.49836586  0.72481192  1
  O2-  O132  1  -0.00893690  0.25078531  0.27425103  1
  O2-  O133  1  -0.00175802  0.24910635  0.61020819  1
  O2-  O134  1  -0.00229726  0.25547167  0.93816078  1
  O2-  O135  1  0.00381700  0.75123863  0.26777274  1
  O2-  O136  1  0.00855831  0.75555722  0.60100408  1
  O2-  O137  1  0.00475173  0.75297068  0.93617532  1
  O2-  O138  1  0.50153167  0.25111138  0.26961187  1
  O2-  O139  1  0.50073368  0.24874957  0.60964258  1
  O2-  O140  1  0.49709560  0.25249942  0.93488221  1
  O2-  O141  1  0.50335998  0.75483812  0.27778027  1
  O2-  O142  1  0.49407211  0.75231922  0.60522868  1
  O2-  O143  1  0.49737337  0.75560553  0.94029852  1
  O2-  O144  1  0.06983903  0.17936037  0.09776729  1
  O2-  O145  1  0.07269371  0.18399835  0.43485722  1
  O2-  O146  1  0.07303378  0.18422679  0.75764280  1
  O2-  O147  1  0.06924930  0.67764993  0.09914507  1
  O2-  O148  1  0.07225398  0.67728149  0.43172448  1
  O2-  O149  1  0.06593698  0.67449361  0.76523333  1
  O2-  O150  1  0.57061237  0.17972307  0.09644059  1
  O2-  O151  1  0.56753659  0.17830187  0.43362920  1
  O2-  O152  1  0.57064960  0.18000364  0.75720788  1
  O2-  O153  1  0.56954912  0.68211185  0.10255140  1
  O2-  O154  1  0.56705693  0.67699809  0.42456116  1
  O2-  O155  1  0.57000381  0.67819589  0.76513864  1
  O2-  O156  1  0.18191762  0.42831710  0.24350326  1
  O2-  O157  1  0.18340533  0.42717969  0.56724139  1
  O2-  O158  1  0.18198127  0.43084656  0.90359414  1
  O2-  O159  1  0.17902101  0.92723658  0.23295567  1
  O2-  O160  1  0.17777985  0.92952405  0.57621519  1
  O2-  O161  1  0.18176743  0.93194966  0.89756081  1
  O2-  O162  1  0.67555510  0.43221636  0.24360385  1
  O2-  O163  1  0.67785795  0.42497901  0.57553114  1
  O2-  O164  1  0.67822058  0.42563715  0.90950193  1
  O2-  O165  1  0.67585768  0.92837003  0.23629060  1
  O2-  O166  1  0.67996275  0.93372469  0.57007091  1
  O2-  O167  1  0.68234263  0.92916077  0.90020159  1
  O2-  O168  1  0.42955622  0.32208221  0.08434505  1
  O2-  O169  1  0.42638585  0.32100519  0.43107672  1
  O2-  O170  1  0.43096431  0.31917785  0.75755849  1
  O2-  O171  1  0.42530054  0.82141773  0.08905456  1
  O2-  O172  1  0.42579349  0.81894200  0.42487320  1
  O2-  O173  1  0.42890678  0.82445423  0.75532598  1
  O2-  O174  1  0.92852545  0.32284284  0.08932053  1
  O2-  O175  1  0.93120005  0.32539098  0.42397966  1
  O2-  O176  1  0.92619900  0.32201529  0.75689387  1
  O2-  O177  1  0.92650211  0.82177592  0.09782281  1
  O2-  O178  1  0.92907425  0.81794124  0.43019515  1
  O2-  O179  1  0.92786714  0.81901513  0.76142770  1
  O2-  O180  1  0.32026112  0.07001698  0.24155329  1
  O2-  O181  1  0.31811710  0.07177592  0.56617417  1
  O2-  O182  1  0.32147535  0.07144059  0.91264411  1
  O2-  O183  1  0.32873911  0.57131062  0.24519106  1
  O2-  O184  1  0.33204539  0.56676009  0.57838241  1
  O2-  O185  1  0.33099685  0.56791150  0.91225574  1
  O2-  O186  1  0.82052887  0.07240730  0.23416621  1
  O2-  O187  1  0.82097576  0.08390619  0.58079987  1
  O2-  O188  1  0.81926819  0.07833338  0.90886627  1
  O2-  O189  1  0.81976801  0.56944699  0.23781797  1
  O2-  O190  1  0.81745733  0.56445330  0.57747019  1
  O2-  O191  1  0.81679912  0.56875264  0.90012128  1
  O2-  O192  1  0.03900461  0.08254412  0.26784807  1
  O2-  O193  1  0.04979791  0.08906779  0.60574503  1
  O2-  O194  1  0.04095949  0.08635622  0.92553108  1
  O2-  O195  1  0.04210538  0.57801094  0.26934121  1
  O2-  O196  1  0.03783116  0.57949158  0.59938745  1
  O2-  O197  1  0.03780851  0.57860613  0.93629191  1
  O2-  O198  1  0.53999144  0.07969663  0.26569182  1
  O2-  O199  1  0.54134482  0.08538381  0.60761133  1
  O2-  O200  1  0.53847962  0.08214502  0.92924763  1
  O2-  O201  1  0.53944662  0.59057309  0.27041485  1
  O2-  O202  1  0.54030330  0.58135572  0.59733603  1
  O2-  O203  1  0.54178780  0.58334255  0.93468666  1
  O2-  O204  1  0.16279285  0.21173071  0.26391329  1
  O2-  O205  1  0.16379500  0.21507529  0.60675097  1
  O2-  O206  1  0.16908332  0.21205263  0.93247448  1
  O2-  O207  1  0.17535613  0.69763917  0.26971780  1
  O2-  O208  1  0.17658915  0.69231307  0.60560605  1
  O2-  O209  1  0.17432719  0.69565944  0.93617675  1
  O2-  O210  1  0.67014305  0.20549507  0.26608804  1
  O2-  O211  1  0.66348938  0.20491323  0.60592386  1
  O2-  O212  1  0.66709229  0.20988435  0.92730879  1
  O2-  O213  1  0.66399298  0.70531776  0.27563418  1
  O2-  O214  1  0.66525294  0.71018582  0.59710978  1
  O2-  O215  1  0.66591017  0.71203920  0.93375724  1
  O2-  O216  1  0.08279779  0.45557825  0.07195834  1
  O2-  O217  1  0.08940568  0.45308111  0.39730969  1
  O2-  O218  1  0.08107938  0.45673870  0.73441806  1
  O2-  O219  1  0.08085145  0.96211160  0.06189918  1
  O2-  O220  1  0.08286078  0.95929734  0.40145724  1
  O2-  O221  1  0.08213582  0.95402816  0.72587728  1
  O2-  O222  1  0.58099136  0.44804287  0.05905927  1
  O2-  O223  1  0.58187199  0.45698935  0.39471764  1
  O2-  O224  1  0.58381469  0.45118258  0.72704266  1
  O2-  O225  1  0.58159973  0.95767275  0.06434820  1
  O2-  O226  1  0.57615476  0.95503176  0.40214562  1
  O2-  O227  1  0.58669123  0.95947688  0.73787472  1
  O2-  O228  1  0.21426686  0.33426578  0.06976073  1
  O2-  O229  1  0.21181382  0.33655109  0.39504743  1
  O2-  O230  1  0.21548450  0.33857586  0.73767920  1
  O2-  O231  1  0.21046102  0.83238239  0.06472128  1
  O2-  O232  1  0.21269072  0.83203598  0.40134673  1
  O2-  O233  1  0.20196149  0.83245801  0.72649077  1
  O2-  O234  1  0.70380176  0.33252415  0.06094108  1
  O2-  O235  1  0.69712852  0.33460185  0.39451603  1
  O2-  O236  1  0.70597695  0.33484452  0.72846889  1
  O2-  O237  1  0.71064569  0.83435878  0.06807867  1
  O2-  O238  1  0.70567744  0.83121947  0.40388712  1
  O2-  O239  1  0.71378668  0.83114781  0.73269670  1
  O2-  O240  1  0.45500118  0.42066399  0.26231560  1
  O2-  O241  1  0.45527550  0.41002630  0.60350796  1
  O2-  O242  1  0.45395419  0.41460866  0.93150781  1
  O2-  O243  1  0.44854656  0.91376295  0.27177440  1
  O2-  O244  1  0.45907426  0.91677307  0.60388147  1
  O2-  O245  1  0.44927845  0.91728303  0.93813586  1
  O2-  O246  1  0.95906996  0.41489147  0.27118207  1
  O2-  O247  1  0.95759662  0.41154807  0.60345777  1
  O2-  O248  1  0.95596498  0.41615038  0.93790710  1
  O2-  O249  1  0.95211761  0.92032705  0.26714843  1
  O2-  O250  1  0.94993271  0.92454155  0.59794383  1
  O2-  O251  1  0.95220438  0.92030909  0.92881218  1
  O2-  O252  1  0.33167412  0.29345296  0.26024371  1
  O2-  O253  1  0.33729468  0.28899048  0.60668804  1
  O2-  O254  1  0.33531886  0.29484619  0.93332126  1
  O2-  O255  1  0.33881362  0.78681657  0.27043667  1
  O2-  O256  1  0.33396250  0.80334830  0.60348743  1
  O2-  O257  1  0.33527930  0.79485479  0.93354621  1
  O2-  O258  1  0.83123736  0.30767695  0.27392003  1
  O2-  O259  1  0.83603436  0.29538036  0.60280640  1
  O2-  O260  1  0.83559116  0.29927364  0.93516271  1
  O2-  O261  1  0.82926803  0.78696231  0.26775373  1
  O2-  O262  1  0.83417102  0.78672433  0.59464557  1
  O2-  O263  1  0.83269322  0.78594688  0.93151346  1
  O2-  O264  1  0.41536667  0.04619693  0.06407500  1
  O2-  O265  1  0.41202149  0.04577809  0.39489149  1
  O2-  O266  1  0.41511832  0.03973075  0.73640085  1
  O2-  O267  1  0.41682414  0.53994131  0.06611170  1
  O2-  O268  1  0.41446584  0.53989723  0.39917182  1
  O2-  O269  1  0.41646373  0.53796728  0.73250604  1
  O2-  O270  1  0.91705392  0.05046869  0.05646034  1
  O2-  O271  1  0.91799188  0.04492146  0.40382425  1
  O2-  O272  1  0.92008513  0.05445602  0.72839326  1
  O2-  O273  1  0.91253705  0.53731000  0.07106462  1
  O2-  O274  1  0.91658224  0.53510080  0.40678250  1
  O2-  O275  1  0.90822046  0.53664217  0.73002132  1
  O2-  O276  1  0.29916804  0.16727770  0.06228854  1
  O2-  O277  1  0.29349364  0.16662589  0.39121481  1
  O2-  O278  1  0.28961110  0.16488759  0.73786360  1
  O2-  O279  1  0.30721490  0.66771745  0.06135942  1
  O2-  O280  1  0.29931244  0.66155078  0.40069418  1
  O2-  O281  1  0.31222006  0.67017177  0.72599716  1
  O2-  O282  1  0.79757524  0.16958314  0.05997237  1
  O2-  O283  1  0.79747116  0.17442641  0.40004629  1
  O2-  O284  1  0.79642498  0.16931021  0.73387393  1
  O2-  O285  1  0.78557558  0.66498124  0.06943723  1
  O2-  O286  1  0.78815572  0.66351197  0.40748143  1
  O2-  O287  1  0.78947893  0.66035495  0.72711142  1
