# generated using pymatgen
data_Ca2Al2SiO7
_symmetry_space_group_name_H-M   'P 1'
_cell_length_a   15.45537683
_cell_length_b   15.45609171
_cell_length_c   15.28151959
_cell_angle_alpha   90.00267119
_cell_angle_beta   89.99580379
_cell_angle_gamma   89.99760670
_symmetry_Int_Tables_number   1
_chemical_formula_structural   Ca2Al2SiO7
_chemical_formula_sum   'Ca48 Al48 Si24 O168'
_cell_volume   3650.44512959
_cell_formula_units_Z   24
loop_
 _symmetry_equiv_pos_site_id
 _symmetry_equiv_pos_as_xyz
  1  'x, y, z'
loop_
 _atom_type_symbol
 _atom_type_oxidation_number
  Ca2+  2.0
  Al0+  0.0
  Si0+  0.0
  O2-  -2.0
loop_
 _atom_site_type_symbol
 _atom_site_label
 _atom_site_symmetry_multiplicity
 _atom_site_fract_x
 _atom_site_fract_y
 _atom_site_fract_z
 _atom_site_occupancy
  Ca2+  Ca0  1  0.16927012  0.07312626  0.17810728  1
  Ca2+  Ca1  1  0.17191328  0.09149511  0.50151627  1
  Ca2+  Ca2  1  0.17007111  0.08424904  0.83459574  1
  Ca2+  Ca3  1  0.17469446  0.57477747  0.17136743  1
  Ca2+  Ca4  1  0.17770716  0.58448898  0.50791891  1
  Ca2+  Ca5  1  0.16763522  0.57779114  0.83477181  1
  Ca2+  Ca6  1  0.67010705  0.07879773  0.17204143  1
  Ca2+  Ca7  1  0.67099962  0.08937214  0.50380765  1
  Ca2+  Ca8  1  0.66572135  0.08164459  0.83632515  1
  Ca2+  Ca9  1  0.66012935  0.57297798  0.17261429  1
  Ca2+  Ca10  1  0.66870824  0.57676728  0.50279471  1
  Ca2+  Ca11  1  0.67574641  0.57686516  0.83633103  1
  Ca2+  Ca12  1  0.08477509  0.32667030  0.16432315  1
  Ca2+  Ca13  1  0.07343290  0.32534181  0.49486834  1
  Ca2+  Ca14  1  0.08102146  0.33099308  0.82368534  1
  Ca2+  Ca15  1  0.08974983  0.83653029  0.16326889  1
  Ca2+  Ca16  1  0.08486627  0.83115070  0.49979698  1
  Ca2+  Ca17  1  0.07965097  0.82886099  0.82500396  1
  Ca2+  Ca18  1  0.57384730  0.33985420  0.16346477  1
  Ca2+  Ca19  1  0.57497986  0.33350010  0.49596945  1
  Ca2+  Ca20  1  0.57585942  0.33169632  0.82908724  1
  Ca2+  Ca21  1  0.57839003  0.82843369  0.15938459  1
  Ca2+  Ca22  1  0.58093529  0.82228498  0.49359074  1
  Ca2+  Ca23  1  0.57823793  0.83807598  0.83179388  1
  Ca2+  Ca24  1  0.33328282  0.41497508  0.17299874  1
  Ca2+  Ca25  1  0.34169225  0.42363383  0.50478236  1
  Ca2+  Ca26  1  0.33376993  0.41707822  0.83561655  1
  Ca2+  Ca27  1  0.32592226  0.91903536  0.17418718  1
  Ca2+  Ca28  1  0.32837035  0.93057348  0.50334096  1
  Ca2+  Ca29  1  0.32976121  0.92406792  0.84028358  1
  Ca2+  Ca30  1  0.81956724  0.41013207  0.17440068  1
  Ca2+  Ca31  1  0.83049913  0.41167672  0.50503270  1
  Ca2+  Ca32  1  0.83318182  0.41872439  0.83608953  1
  Ca2+  Ca33  1  0.82711533  0.92266115  0.17243499  1
  Ca2+  Ca34  1  0.83671172  0.92129324  0.50233381  1
  Ca2+  Ca35  1  0.82829345  0.91475054  0.83714183  1
  Ca2+  Ca36  1  0.40763748  0.17721529  0.16555771  1
  Ca2+  Ca37  1  0.41322660  0.17491104  0.49687678  1
  Ca2+  Ca38  1  0.41942454  0.17714101  0.82273133  1
  Ca2+  Ca39  1  0.41880241  0.66778577  0.16598842  1
  Ca2+  Ca40  1  0.41909614  0.65990147  0.49074320  1
  Ca2+  Ca41  1  0.41268481  0.67302121  0.83051430  1
  Ca2+  Ca42  1  0.91730159  0.16557503  0.17244453  1
  Ca2+  Ca43  1  0.92435700  0.17142141  0.49182847  1
  Ca2+  Ca44  1  0.92546493  0.17434581  0.82129080  1
  Ca2+  Ca45  1  0.91970892  0.66846797  0.16430753  1
  Ca2+  Ca46  1  0.91794081  0.66830296  0.50233679  1
  Ca2+  Ca47  1  0.92341400  0.67013620  0.81898407  1
  Al0+  Al48  1  0.00153907  0.00012726  0.00159503  1
  Al0+  Al49  1  -0.00251574  -0.00199160  0.33646310  1
  Al0+  Al50  1  -0.00083926  -0.00066075  0.66170018  1
  Al0+  Al51  1  0.00232857  0.50011762  0.00481059  1
  Al0+  Al52  1  -0.00194384  0.50151023  0.32713075  1
  Al0+  Al53  1  0.00026313  0.50189927  0.66211860  1
  Al0+  Al54  1  0.50161298  0.00010219  0.00159283  1
  Al0+  Al55  1  0.49824123  -0.00141986  0.33716462  1
  Al0+  Al56  1  0.49929396  0.00024480  0.66698763  1
  Al0+  Al57  1  0.50236069  0.50169038  -0.00357544  1
  Al0+  Al58  1  0.50153071  0.49919424  0.33251681  1
  Al0+  Al59  1  0.50039888  0.50148705  0.67190940  1
  Al0+  Al60  1  0.24984347  0.25163785  -0.00181208  1
  Al0+  Al61  1  0.24772680  0.24927100  0.32827335  1
  Al0+  Al62  1  0.25105595  0.25138768  0.66441852  1
  Al0+  Al63  1  0.25110131  0.75038579  -0.00145672  1
  Al0+  Al64  1  0.24967477  0.74931866  0.34015375  1
  Al0+  Al65  1  0.25000156  0.75099491  0.66816306  1
  Al0+  Al66  1  0.75141301  0.25151274  0.00322985  1
  Al0+  Al67  1  0.74841895  0.24884430  0.33826910  1
  Al0+  Al68  1  0.74797380  0.24835684  0.66505970  1
  Al0+  Al69  1  0.75112515  0.75093963  0.00398772  1
  Al0+  Al70  1  0.74980799  0.74732175  0.32662240  1
  Al0+  Al71  1  0.74940448  0.74883406  0.66769012  1
  Al0+  Al72  1  0.31970596  0.56675818  0.34519440  1
  Al0+  Al73  1  0.92639385  0.32201505  0.31586203  1
  Al0+  Al74  1  0.32069965  0.07338769  0.34865351  1
  Al0+  Al75  1  0.82137333  0.57037127  0.67891794  1
  Al0+  Al76  1  0.17939869  0.42830661  0.01376643  1
  Al0+  Al77  1  0.17755190  0.92748274  0.35103509  1
  Al0+  Al78  1  0.07309022  0.67928940  0.65100059  1
  Al0+  Al79  1  0.18008116  0.92917324  0.01171541  1
  Al0+  Al80  1  0.67830380  0.92894648  0.01404196  1
  Al0+  Al81  1  0.92626831  0.82054470  0.65140792  1
  Al0+  Al82  1  0.67962929  0.42979553  0.34844010  1
  Al0+  Al83  1  0.43043387  0.32331476  0.65145770  1
  Al0+  Al84  1  0.43056027  0.31977901  0.31921559  1
  Al0+  Al85  1  0.32099268  0.07279872  0.68225705  1
  Al0+  Al86  1  0.68009854  0.43027504  0.01338612  1
  Al0+  Al87  1  0.42883905  0.32165277  0.98509382  1
  Al0+  Al88  1  0.57068785  0.67871351  0.31911884  1
  Al0+  Al89  1  0.81758032  0.06897946  0.34847097  1
  Al0+  Al90  1  0.07221782  0.17851924  0.65190417  1
  Al0+  Al91  1  0.06960272  0.17779912  0.31548956  1
  Al0+  Al92  1  0.57023308  0.17622677  0.65186908  1
  Al0+  Al93  1  0.32297406  0.57278623  0.68289994  1
  Al0+  Al94  1  0.92763585  0.32276561  0.65333522  1
  Al0+  Al95  1  0.42935662  0.82143948  0.98678954  1
  Si0+  Si96  1  0.07372758  0.67973813  0.31618758  1
  Si0+  Si97  1  0.67864019  0.42673987  0.68488565  1
  Si0+  Si98  1  0.42811810  0.82196156  0.65164723  1
  Si0+  Si99  1  0.92877194  0.81975375  0.31573760  1
  Si0+  Si100  1  0.32206843  0.57224093  0.01575167  1
  Si0+  Si101  1  0.92941766  0.82137601  0.98645606  1
  Si0+  Si102  1  0.57193311  0.17512650  0.31650628  1
  Si0+  Si103  1  0.57458933  0.17845859  0.98563202  1
  Si0+  Si104  1  0.82340469  0.57362990  0.34941945  1
  Si0+  Si105  1  0.07018383  0.17840856  0.98486620  1
  Si0+  Si106  1  0.82379964  0.57236016  0.01786304  1
  Si0+  Si107  1  0.32230652  0.07279083  0.01543674  1
  Si0+  Si108  1  0.07093184  0.67836364  0.98583159  1
  Si0+  Si109  1  0.17868545  0.42964168  0.68064480  1
  Si0+  Si110  1  0.92880534  0.32151591  0.98579563  1
  Si0+  Si111  1  0.42724462  0.82182892  0.31840205  1
  Si0+  Si112  1  0.82317557  0.07195782  0.01563076  1
  Si0+  Si113  1  0.17468452  0.42743779  0.34936943  1
  Si0+  Si114  1  0.67712984  0.92445201  0.35004515  1
  Si0+  Si115  1  0.57412562  0.67899968  0.98054461  1
  Si0+  Si116  1  0.67918005  0.92771316  0.68073397  1
  Si0+  Si117  1  0.56993847  0.68066248  0.65392032  1
  Si0+  Si118  1  0.82157501  0.07076522  0.68182492  1
  Si0+  Si119  1  0.17741292  0.92942005  0.68471484  1
  O2-  O120  1  0.25540613  0.00215944  0.05917042  1
  O2-  O121  1  0.24644652  0.00327600  0.39885847  1
  O2-  O122  1  0.24441157  -0.00043853  0.72937857  1
  O2-  O123  1  0.25791072  0.49948625  0.05982426  1
  O2-  O124  1  0.24499469  0.49366162  0.39428354  1
  O2-  O125  1  0.24783222  0.49750460  0.72699507  1
  O2-  O126  1  0.75255220  0.00447791  0.05910839  1
  O2-  O127  1  0.74165357  -0.00465978  0.39612425  1
  O2-  O128  1  0.74987737  -0.00039269  0.72326758  1
  O2-  O129  1  0.75434529  0.50491580  0.06159834  1
  O2-  O130  1  0.75922955  0.50081118  0.39285166  1
  O2-  O131  1  0.75212961  0.49175631  0.72758657  1
  O2-  O132  1  -0.00005682  0.25213414  0.26410784  1
  O2-  O133  1  -0.00231554  0.24899119  0.60412010  1
  O2-  O134  1  0.00017131  0.25111232  0.94337346  1
  O2-  O135  1  0.00229052  0.75083612  0.27355691  1
  O2-  O136  1  0.00035126  0.75094949  0.60123827  1
  O2-  O137  1  -0.00091576  0.74929599  0.94436405  1
  O2-  O138  1  0.50135657  0.24107384  0.27122882  1
  O2-  O139  1  0.49997988  0.24907508  0.60170134  1
  O2-  O140  1  0.50423367  0.24557434  0.94177881  1
  O2-  O141  1  0.49795663  0.75574293  0.27322052  1
  O2-  O142  1  0.49529892  0.74696072  0.61011206  1
  O2-  O143  1  0.50589296  0.74897805  0.93738089  1
  O2-  O144  1  0.06869321  0.17632724  0.08938073  1
  O2-  O145  1  0.06797455  0.17955685  0.42861991  1
  O2-  O146  1  0.06980584  0.17907054  0.76686296  1
  O2-  O147  1  0.07004608  0.67887312  0.09116452  1
  O2-  O148  1  0.07381711  0.67929337  0.42070930  1
  O2-  O149  1  0.07160435  0.68084030  0.76562718  1
  O2-  O150  1  0.57683813  0.17851737  0.09093412  1
  O2-  O151  1  0.57180853  0.17666184  0.42181028  1
  O2-  O152  1  0.57054244  0.17615318  0.76625581  1
  O2-  O153  1  0.57310857  0.67858202  0.08606263  1
  O2-  O154  1  0.57068152  0.68004873  0.43278540  1
  O2-  O155  1  0.57181085  0.68444944  0.75910566  1
  O2-  O156  1  0.17631976  0.43085407  0.24314476  1
  O2-  O157  1  0.17867956  0.43162435  0.57537889  1
  O2-  O158  1  0.17449395  0.43096972  0.90090190  1
  O2-  O159  1  0.18136830  0.92619252  0.23662974  1
  O2-  O160  1  0.18013855  0.92735163  0.57970609  1
  O2-  O161  1  0.17781094  0.93076789  0.89889165  1
  O2-  O162  1  0.67813524  0.43273414  0.23491220  1
  O2-  O163  1  0.67602328  0.42965900  0.57957252  1
  O2-  O164  1  0.68364031  0.43089073  0.90031666  1
  O2-  O165  1  0.67982863  0.92483778  0.24419451  1
  O2-  O166  1  0.67969289  0.92504623  0.57594043  1
  O2-  O167  1  0.68110594  0.92863913  0.90055752  1
  O2-  O168  1  0.42888038  0.32125692  0.09820086  1
  O2-  O169  1  0.43329208  0.32307095  0.43165633  1
  O2-  O170  1  0.43281728  0.32322292  0.76563838  1
  O2-  O171  1  0.42925655  0.81822300  0.09973946  1
  O2-  O172  1  0.42923108  0.82042819  0.42414404  1
  O2-  O173  1  0.43074012  0.82283428  0.75718654  1
  O2-  O174  1  0.92727230  0.31998866  0.09029564  1
  O2-  O175  1  0.92781778  0.32098384  0.42910747  1
  O2-  O176  1  0.92926586  0.32100553  0.76828823  1
  O2-  O177  1  0.92969209  0.82083471  0.09165278  1
  O2-  O178  1  0.92465346  0.81688361  0.42025973  1
  O2-  O179  1  0.92574065  0.81934477  0.76601747  1
  O2-  O180  1  0.32130897  0.07021760  0.23435933  1
  O2-  O181  1  0.32224083  0.07018145  0.56987403  1
  O2-  O182  1  0.32017497  0.07220107  0.90965156  1
  O2-  O183  1  0.31807332  0.56785113  0.23168202  1
  O2-  O184  1  0.32477911  0.57204915  0.56991838  1
  O2-  O185  1  0.31822975  0.57405540  0.91017286  1
  O2-  O186  1  0.81643927  0.06531438  0.23459318  1
  O2-  O187  1  0.82058519  0.06983522  0.57720181  1
  O2-  O188  1  0.82472715  0.07115735  0.90984665  1
  O2-  O189  1  0.82188118  0.57664167  0.24350727  1
  O2-  O190  1  0.81514751  0.57392927  0.56641463  1
  O2-  O191  1  0.82493446  0.57236296  0.91218491  1
  O2-  O192  1  0.03669680  0.07843819  0.26513686  1
  O2-  O193  1  0.04594563  0.08006445  0.59988941  1
  O2-  O194  1  0.04081114  0.08714302  0.93638959  1
  O2-  O195  1  0.04557492  0.58901480  0.26590509  1
  O2-  O196  1  0.04596600  0.58236751  0.59635098  1
  O2-  O197  1  0.04248142  0.58642602  0.93866880  1
  O2-  O198  1  0.55032553  0.07873659  0.27287512  1
  O2-  O199  1  0.54526122  0.07709302  0.59891986  1
  O2-  O200  1  0.55216395  0.08366630  0.94033611  1
  O2-  O201  1  0.53569813  0.58491677  0.26318747  1
  O2-  O202  1  0.54583981  0.58751191  0.60870236  1
  O2-  O203  1  0.54882182  0.58661327  0.93234981  1
  O2-  O204  1  0.16792578  0.20341920  0.26053271  1
  O2-  O205  1  0.16938161  0.20808599  0.59948106  1
  O2-  O206  1  0.16200332  0.20574994  0.93764125  1
  O2-  O207  1  0.16536971  0.70891063  0.26872414  1
  O2-  O208  1  0.17135901  0.70938290  0.59858333  1
  O2-  O209  1  0.16230607  0.70583822  0.93827354  1
  O2-  O210  1  0.66527313  0.20162335  0.27106436  1
  O2-  O211  1  0.66919893  0.20217645  0.59998746  1
  O2-  O212  1  0.66828283  0.20529116  0.93862691  1
  O2-  O213  1  0.66663485  0.70698148  0.26158833  1
  O2-  O214  1  0.65924844  0.71233707  0.60452139  1
  O2-  O215  1  0.66929784  0.70515876  0.93715893  1
  O2-  O216  1  0.08500738  0.46177808  0.07130809  1
  O2-  O217  1  0.08071421  0.45604613  0.39236693  1
  O2-  O218  1  0.08528191  0.45655267  0.72752737  1
  O2-  O219  1  0.08347956  0.95894172  0.06714423  1
  O2-  O220  1  0.07652691  0.94817589  0.39994455  1
  O2-  O221  1  0.08164356  0.95235272  0.72864484  1
  O2-  O222  1  0.58332797  0.46308965  0.06630332  1
  O2-  O223  1  0.58623914  0.46717748  0.40327259  1
  O2-  O224  1  0.58851080  0.45954032  0.73391291  1
  O2-  O225  1  0.58218044  0.95740575  0.07010474  1
  O2-  O226  1  0.58185838  0.94342281  0.39469185  1
  O2-  O227  1  0.58766550  0.95542863  0.72925720  1
  O2-  O228  1  0.20741046  0.33094093  0.06749474  1
  O2-  O229  1  0.19603802  0.33207422  0.39086687  1
  O2-  O230  1  0.20333939  0.33637552  0.72812628  1
  O2-  O231  1  0.20917293  0.83173698  0.06543219  1
  O2-  O232  1  0.20856767  0.83092928  0.40581511  1
  O2-  O233  1  0.20504020  0.83648126  0.73170312  1
  O2-  O234  1  0.71038989  0.33399699  0.06853905  1
  O2-  O235  1  0.70514019  0.33254790  0.40238174  1
  O2-  O236  1  0.70020870  0.33174083  0.73030754  1
  O2-  O237  1  0.70992445  0.83307959  0.06964727  1
  O2-  O238  1  0.70749526  0.83103383  0.39388170  1
  O2-  O239  1  0.70807244  0.83755463  0.73124521  1
  O2-  O240  1  0.46586248  0.41441098  0.26388489  1
  O2-  O241  1  0.46206618  0.42236421  0.60137446  1
  O2-  O242  1  0.46002332  0.41876656  0.93190274  1
  O2-  O243  1  0.45047800  0.91599015  0.27208134  1
  O2-  O244  1  0.46040321  0.91122575  0.60323092  1
  O2-  O245  1  0.45989785  0.91882598  0.93292703  1
  O2-  O246  1  0.94886006  0.42268102  0.26315446  1
  O2-  O247  1  0.95355532  0.42042561  0.59942488  1
  O2-  O248  1  0.95692728  0.41485930  0.94115043  1
  O2-  O249  1  0.95366016  0.91180302  0.26809808  1
  O2-  O250  1  0.95188414  0.91875063  0.59843439  1
  O2-  O251  1  0.95729499  0.91314225  0.93881644  1
  O2-  O252  1  0.33238759  0.29346767  0.26506991  1
  O2-  O253  1  0.33124507  0.29928987  0.60036043  1
  O2-  O254  1  0.33167789  0.29228644  0.93075177  1
  O2-  O255  1  0.33408450  0.79244692  0.27348811  1
  O2-  O256  1  0.33534427  0.79842090  0.60626741  1
  O2-  O257  1  0.33382904  0.78917957  0.93030990  1
  O2-  O258  1  0.82770438  0.28807391  0.26547453  1
  O2-  O259  1  0.82834522  0.29602679  0.60342259  1
  O2-  O260  1  0.83723549  0.29383928  0.93742102  1
  O2-  O261  1  0.83880967  0.78911962  0.26477393  1
  O2-  O262  1  0.82879334  0.78940885  0.59807735  1
  O2-  O263  1  0.83652047  0.79539124  0.93991657  1
  O2-  O264  1  0.41699398  0.05092250  0.06003083  1
  O2-  O265  1  0.41888188  0.04372103  0.40243313  1
  O2-  O266  1  0.41704951  0.03802631  0.73644981  1
  O2-  O267  1  0.41853940  0.55240526  0.05725498  1
  O2-  O268  1  0.41615445  0.53657770  0.39882980  1
  O2-  O269  1  0.41931769  0.54439864  0.73955422  1
  O2-  O270  1  0.91485221  0.04266028  0.06339879  1
  O2-  O271  1  0.91235845  0.03513002  0.40268399  1
  O2-  O272  1  0.91326137  0.04238072  0.72988779  1
  O2-  O273  1  0.91698011  0.54755918  0.06496057  1
  O2-  O274  1  0.91963301  0.55451861  0.39235379  1
  O2-  O275  1  0.92003299  0.54541278  0.73247721  1
  O2-  O276  1  0.29381533  0.16568481  0.06036276  1
  O2-  O277  1  0.29241000  0.17276622  0.39937740  1
  O2-  O278  1  0.29196146  0.17047972  0.73570125  1
  O2-  O279  1  0.29185150  0.66383062  0.06316282  1
  O2-  O280  1  0.29118587  0.66314858  0.40034317  1
  O2-  O281  1  0.29175601  0.66998350  0.73659422  1
  O2-  O282  1  0.79909471  0.16537077  0.06229575  1
  O2-  O283  1  0.78872679  0.16460704  0.40393710  1
  O2-  O284  1  0.79344198  0.16205362  0.73106230  1
  O2-  O285  1  0.80004026  0.66661076  0.06385134  1
  O2-  O286  1  0.79279223  0.66602250  0.39510584  1
  O2-  O287  1  0.78563955  0.66494171  0.73611480  1
