# generated using pymatgen
data_Ca2Al2SiO7
_symmetry_space_group_name_H-M   'P 1'
_cell_length_a   15.45892651
_cell_length_b   15.45972133
_cell_length_c   15.28510473
_cell_angle_alpha   89.99101126
_cell_angle_beta   90.01360377
_cell_angle_gamma   90.00448637
_symmetry_Int_Tables_number   1
_chemical_formula_structural   Ca2Al2SiO7
_chemical_formula_sum   'Ca48 Al48 Si24 O168'
_cell_volume   3652.99765889
_cell_formula_units_Z   24
loop_
 _symmetry_equiv_pos_site_id
 _symmetry_equiv_pos_as_xyz
  1  'x, y, z'
loop_
 _atom_type_symbol
 _atom_type_oxidation_number
  Ca2+  2.0
  Al0+  0.0
  Si0+  0.0
  O2-  -2.0
loop_
 _atom_site_type_symbol
 _atom_site_label
 _atom_site_symmetry_multiplicity
 _atom_site_fract_x
 _atom_site_fract_y
 _atom_site_fract_z
 _atom_site_occupancy
  Ca2+  Ca0  1  0.16404915  0.07271572  0.16895346  1
  Ca2+  Ca1  1  0.17080972  0.08182597  0.50543902  1
  Ca2+  Ca2  1  0.16320520  0.07360181  0.84154077  1
  Ca2+  Ca3  1  0.17271193  0.58628033  0.17325302  1
  Ca2+  Ca4  1  0.17066578  0.58275246  0.50288556  1
  Ca2+  Ca5  1  0.17355670  0.59198826  0.83609059  1
  Ca2+  Ca6  1  0.66716183  0.08481631  0.16994645  1
  Ca2+  Ca7  1  0.65718237  0.07379715  0.50311811  1
  Ca2+  Ca8  1  0.66677337  0.08026560  0.83750020  1
  Ca2+  Ca9  1  0.67551987  0.57847673  0.17258769  1
  Ca2+  Ca10  1  0.67152548  0.57986646  0.50218836  1
  Ca2+  Ca11  1  0.67576848  0.57700644  0.84925412  1
  Ca2+  Ca12  1  0.07688700  0.33891648  0.16191500  1
  Ca2+  Ca13  1  0.08146003  0.34609306  0.49852846  1
  Ca2+  Ca14  1  0.07021422  0.34103329  0.82762420  1
  Ca2+  Ca15  1  0.08452703  0.82067942  0.15908899  1
  Ca2+  Ca16  1  0.07815281  0.82049934  0.49617828  1
  Ca2+  Ca17  1  0.07768097  0.82546915  0.82882340  1
  Ca2+  Ca18  1  0.59605960  0.32828647  0.16069234  1
  Ca2+  Ca19  1  0.58981468  0.32168712  0.49304462  1
  Ca2+  Ca20  1  0.59266482  0.32292782  0.83122047  1
  Ca2+  Ca21  1  0.57991077  0.82808100  0.16560377  1
  Ca2+  Ca22  1  0.58057139  0.83540480  0.49160524  1
  Ca2+  Ca23  1  0.58834623  0.82518253  0.83073105  1
  Ca2+  Ca24  1  0.32874927  0.43036273  0.17508384  1
  Ca2+  Ca25  1  0.32302099  0.42812658  0.50776252  1
  Ca2+  Ca26  1  0.32581325  0.42680611  0.83719523  1
  Ca2+  Ca27  1  0.33063703  0.91133737  0.16819224  1
  Ca2+  Ca28  1  0.33684078  0.91478059  0.50143727  1
  Ca2+  Ca29  1  0.32449852  0.91653494  0.83931437  1
  Ca2+  Ca30  1  0.82727972  0.42325237  0.16591666  1
  Ca2+  Ca31  1  0.83347334  0.41953722  0.49700095  1
  Ca2+  Ca32  1  0.83326646  0.41752661  0.84194799  1
  Ca2+  Ca33  1  0.82698481  0.92426661  0.17109232  1
  Ca2+  Ca34  1  0.82163498  0.91278896  0.50673552  1
  Ca2+  Ca35  1  0.83364875  0.92149907  0.83648606  1
  Ca2+  Ca36  1  0.42964244  0.17218280  0.16145945  1
  Ca2+  Ca37  1  0.42789058  0.16779048  0.49274965  1
  Ca2+  Ca38  1  0.42829895  0.16884029  0.82905100  1
  Ca2+  Ca39  1  0.41587747  0.66665495  0.16159843  1
  Ca2+  Ca40  1  0.41032360  0.67081848  0.49370656  1
  Ca2+  Ca41  1  0.41982931  0.65872720  0.83509023  1
  Ca2+  Ca42  1  0.91130047  0.17446876  0.15658583  1
  Ca2+  Ca43  1  0.91701790  0.17478772  0.49929474  1
  Ca2+  Ca44  1  0.90840893  0.17800711  0.83189967  1
  Ca2+  Ca45  1  0.92548441  0.65416298  0.16231914  1
  Ca2+  Ca46  1  0.92655958  0.66204299  0.49546921  1
  Ca2+  Ca47  1  0.92859163  0.66351215  0.82698094  1
  Al0+  Al48  1  -0.00034414  -0.00088843  0.01014151  1
  Al0+  Al49  1  -0.00027772  -0.00004412  0.33520360  1
  Al0+  Al50  1  -0.00183233  0.00160608  0.66274680  1
  Al0+  Al51  1  0.00059106  0.49982803  -0.00697909  1
  Al0+  Al52  1  -0.00029062  0.49964571  0.33399471  1
  Al0+  Al53  1  -0.00024575  0.49927721  0.66007398  1
  Al0+  Al54  1  0.49783621  0.00065270  -0.00477087  1
  Al0+  Al55  1  0.49992463  0.00026462  0.32587747  1
  Al0+  Al56  1  0.50116128  -0.00152380  0.66957771  1
  Al0+  Al57  1  0.49792588  0.49907716  0.00341366  1
  Al0+  Al58  1  0.50016809  0.49898780  0.34262694  1
  Al0+  Al59  1  0.49961072  0.49821758  0.67011924  1
  Al0+  Al60  1  0.25119263  0.24857694  -0.00070038  1
  Al0+  Al61  1  0.25061060  0.24866831  0.33497810  1
  Al0+  Al62  1  0.25069396  0.25151161  0.67262946  1
  Al0+  Al63  1  0.24888749  0.75089971  0.00297870  1
  Al0+  Al64  1  0.24856843  0.75150299  0.32912996  1
  Al0+  Al65  1  0.25104069  0.75112628  0.66719729  1
  Al0+  Al66  1  0.75080733  0.24806841  -0.00226821  1
  Al0+  Al67  1  0.75304431  0.24967571  0.33266959  1
  Al0+  Al68  1  0.75138808  0.24810915  0.65520939  1
  Al0+  Al69  1  0.75024848  0.75143602  0.00100693  1
  Al0+  Al70  1  0.75057362  0.75238495  0.34039314  1
  Al0+  Al71  1  0.74857289  0.74999698  0.66862917  1
  Al0+  Al72  1  0.07019117  0.68022538  0.98563863  1
  Al0+  Al73  1  0.67924764  0.42671041  0.34962259  1
  Al0+  Al74  1  0.67824419  0.92816826  0.68247634  1
  Al0+  Al75  1  0.42977424  0.81971684  0.31938640  1
  Al0+  Al76  1  0.93002202  0.32071302  0.64978912  1
  Al0+  Al77  1  0.57099964  0.18139367  0.31752190  1
  Al0+  Al78  1  0.32130206  0.57372309  0.68482108  1
  Al0+  Al79  1  0.67920494  0.42811564  0.01183394  1
  Al0+  Al80  1  0.57040403  0.18045297  0.98450723  1
  Al0+  Al81  1  0.31971488  0.57032649  0.01558838  1
  Al0+  Al82  1  0.17960367  0.92995642  0.01440237  1
  Al0+  Al83  1  0.06740233  0.68004783  0.31754207  1
  Al0+  Al84  1  0.82130001  0.57158833  0.34944036  1
  Al0+  Al85  1  0.92627084  0.82332950  0.65149332  1
  Al0+  Al86  1  0.82369670  0.57335401  0.01249205  1
  Al0+  Al87  1  0.17657941  0.42949449  0.68474647  1
  Al0+  Al88  1  0.32099866  0.57429959  0.34870133  1
  Al0+  Al89  1  0.67862541  0.93224394  0.34532250  1
  Al0+  Al90  1  0.56887012  0.17898549  0.65115859  1
  Al0+  Al91  1  0.57183829  0.67821005  0.98923150  1
  Al0+  Al92  1  0.81847226  0.06953280  0.01216424  1
  Al0+  Al93  1  0.93138247  0.31895407  0.98706589  1
  Al0+  Al94  1  0.07184122  0.68085160  0.64972220  1
  Al0+  Al95  1  0.17943682  0.42751402  0.34700188  1
  Si0+  Si96  1  0.07401559  0.17559152  0.31801611  1
  Si0+  Si97  1  0.42801510  0.82076674  0.98177271  1
  Si0+  Si98  1  0.07335190  0.17517980  0.98564927  1
  Si0+  Si99  1  0.82157253  0.07260885  0.68199800  1
  Si0+  Si100  1  0.93215368  0.31887796  0.31584457  1
  Si0+  Si101  1  0.82411982  0.07262022  0.35235304  1
  Si0+  Si102  1  0.32259679  0.07117678  0.68148737  1
  Si0+  Si103  1  0.68043146  0.42623072  0.68032965  1
  Si0+  Si104  1  0.81944247  0.57024229  0.68116023  1
  Si0+  Si105  1  0.42665990  0.32249056  0.64953369  1
  Si0+  Si106  1  0.57136117  0.67611129  0.65316893  1
  Si0+  Si107  1  0.32349933  0.07274006  0.01761954  1
  Si0+  Si108  1  0.67429855  0.92731007  0.01710548  1
  Si0+  Si109  1  0.92565256  0.82442268  0.31544185  1
  Si0+  Si110  1  0.57425266  0.67598328  0.31998727  1
  Si0+  Si111  1  0.17817780  0.92918029  0.35029769  1
  Si0+  Si112  1  0.07480199  0.17745744  0.65117305  1
  Si0+  Si113  1  0.92746464  0.82563178  0.98583187  1
  Si0+  Si114  1  0.32063880  0.06941983  0.34719871  1
  Si0+  Si115  1  0.17827325  0.93145461  0.67968005  1
  Si0+  Si116  1  0.17733827  0.42630349  0.01508022  1
  Si0+  Si117  1  0.42657243  0.32259786  0.31795775  1
  Si0+  Si118  1  0.42485506  0.32325108  0.98219502  1
  Si0+  Si119  1  0.43079713  0.81987648  0.65398567  1
  O2-  O120  1  0.25336330  0.00582122  0.06184862  1
  O2-  O121  1  0.24884167  0.00060105  0.39263340  1
  O2-  O122  1  0.24623163  0.00533674  0.72276970  1
  O2-  O123  1  0.24581996  0.49406171  0.06013899  1
  O2-  O124  1  0.25118389  0.49957927  0.39713377  1
  O2-  O125  1  0.24677614  0.50356616  0.73402429  1
  O2-  O126  1  0.74335267  -0.00386202  0.06013606  1
  O2-  O127  1  0.75460465  0.00431346  0.39504406  1
  O2-  O128  1  0.75558108  0.00142184  0.72630294  1
  O2-  O129  1  0.74648231  0.50544475  0.06043238  1
  O2-  O130  1  0.74638025  0.50278044  0.40052477  1
  O2-  O131  1  0.74846076  0.49919204  0.72347633  1
  O2-  O132  1  0.00447841  0.24747144  0.27568848  1
  O2-  O133  1  0.00998743  0.24900041  0.60588441  1
  O2-  O134  1  0.00818173  0.24555780  0.93996704  1
  O2-  O135  1  -0.00900596  0.75345146  0.27039795  1
  O2-  O136  1  -0.00318973  0.75075494  0.60056753  1
  O2-  O137  1  -0.00913119  0.75197063  0.94158763  1
  O2-  O138  1  0.50131484  0.26134952  0.27167762  1
  O2-  O139  1  0.49521849  0.25428712  0.60392817  1
  O2-  O140  1  0.49643940  0.25648227  0.93840184  1
  O2-  O141  1  0.50156551  0.74093539  0.27577586  1
  O2-  O142  1  0.49871927  0.74615976  0.61187007  1
  O2-  O143  1  0.49879953  0.75388152  0.93850207  1
  O2-  O144  1  0.07267379  0.17553986  0.09145826  1
  O2-  O145  1  0.07350576  0.17191800  0.42307023  1
  O2-  O146  1  0.07301667  0.17227392  0.75645108  1
  O2-  O147  1  0.07111288  0.68079750  0.09871514  1
  O2-  O148  1  0.06862543  0.68307841  0.43039948  1
  O2-  O149  1  0.07227147  0.68444669  0.76349677  1
  O2-  O150  1  0.56909697  0.18027704  0.09757520  1
  O2-  O151  1  0.56650650  0.17820711  0.43073327  1
  O2-  O152  1  0.56893367  0.17962564  0.76429638  1
  O2-  O153  1  0.57095966  0.68084739  0.10216324  1
  O2-  O154  1  0.57514268  0.68012774  0.42600099  1
  O2-  O155  1  0.57251401  0.67707133  0.75829084  1
  O2-  O156  1  0.18047331  0.42617479  0.23317753  1
  O2-  O157  1  0.18078478  0.42867306  0.57140368  1
  O2-  O158  1  0.17869617  0.42569506  0.90977657  1
  O2-  O159  1  0.17784605  0.93131684  0.24538860  1
  O2-  O160  1  0.18117064  0.93269940  0.57436649  1
  O2-  O161  1  0.18070682  0.93200919  0.90058661  1
  O2-  O162  1  0.68375006  0.42484577  0.23642356  1
  O2-  O163  1  0.68116486  0.42774489  0.57539904  1
  O2-  O164  1  0.68319348  0.42712646  0.89742950  1
  O2-  O165  1  0.67901691  0.93431043  0.23229628  1
  O2-  O166  1  0.67391168  0.93125806  0.56937714  1
  O2-  O167  1  0.67444626  0.92806632  0.91137270  1
  O2-  O168  1  0.42030775  0.31958100  0.08757047  1
  O2-  O169  1  0.42342427  0.31518460  0.42329913  1
  O2-  O170  1  0.42771415  0.32010391  0.75515676  1
  O2-  O171  1  0.42833410  0.82151060  0.08735287  1
  O2-  O172  1  0.43112049  0.82284569  0.43312160  1
  O2-  O173  1  0.43064524  0.82267402  0.75881802  1
  O2-  O174  1  0.93241293  0.31751101  0.10030995  1
  O2-  O175  1  0.93222060  0.31693992  0.42108716  1
  O2-  O176  1  0.92632582  0.31757471  0.76274038  1
  O2-  O177  1  0.93076145  0.82974927  0.09118320  1
  O2-  O178  1  0.92937351  0.82758997  0.42082249  1
  O2-  O179  1  0.93013445  0.82522222  0.76532326  1
  O2-  O180  1  0.31802725  0.06905739  0.24241037  1
  O2-  O181  1  0.32334525  0.06837983  0.57599867  1
  O2-  O182  1  0.32335377  0.07090595  0.91164993  1
  O2-  O183  1  0.31876977  0.57436109  0.23500506  1
  O2-  O184  1  0.32179387  0.57497650  0.57162892  1
  O2-  O185  1  0.31863055  0.57098626  0.90271164  1
  O2-  O186  1  0.82548493  0.07250004  0.24663860  1
  O2-  O187  1  0.82139339  0.07310106  0.57649385  1
  O2-  O188  1  0.81846890  0.06878363  0.89897866  1
  O2-  O189  1  0.82220570  0.56849674  0.23598070  1
  O2-  O190  1  0.81685629  0.57049819  0.57612833  1
  O2-  O191  1  0.82421049  0.57076679  0.89825269  1
  O2-  O192  1  0.04492018  0.08375954  0.27029958  1
  O2-  O193  1  0.04687721  0.08601161  0.60081215  1
  O2-  O194  1  0.04485690  0.08143291  0.94146822  1
  O2-  O195  1  0.03827470  0.58221761  0.26500528  1
  O2-  O196  1  0.04419591  0.58250472  0.59756782  1
  O2-  O197  1  0.04357505  0.58399379  0.92939828  1
  O2-  O198  1  0.53443785  0.08789730  0.26180140  1
  O2-  O199  1  0.53370507  0.08209913  0.59974291  1
  O2-  O200  1  0.53749412  0.08411334  0.92987786  1
  O2-  O201  1  0.55422034  0.57944299  0.27836059  1
  O2-  O202  1  0.54666409  0.58301053  0.60677115  1
  O2-  O203  1  0.54047434  0.58142603  0.93508537  1
  O2-  O204  1  0.16693596  0.19941144  0.27085276  1
  O2-  O205  1  0.17098538  0.19846132  0.60770026  1
  O2-  O206  1  0.16910399  0.19389226  0.94052298  1
  O2-  O207  1  0.16274150  0.71522183  0.26388788  1
  O2-  O208  1  0.16972187  0.71426672  0.59802467  1
  O2-  O209  1  0.16531043  0.71783402  0.93283366  1
  O2-  O210  1  0.67074335  0.20685460  0.26700653  1
  O2-  O211  1  0.66454571  0.20706797  0.59482711  1
  O2-  O212  1  0.66644974  0.20995523  0.92938416  1
  O2-  O213  1  0.66674605  0.70689947  0.27436159  1
  O2-  O214  1  0.66188071  0.70591344  0.60494802  1
  O2-  O215  1  0.66867384  0.70850841  0.93317175  1
  O2-  O216  1  0.08354121  0.45267636  0.05885344  1
  O2-  O217  1  0.08153186  0.45648867  0.39886703  1
  O2-  O218  1  0.07527642  0.45509930  0.73237148  1
  O2-  O219  1  0.08571034  0.96016889  0.07357830  1
  O2-  O220  1  0.08663662  0.95751698  0.39812862  1
  O2-  O221  1  0.08569421  0.95807855  0.72614467  1
  O2-  O222  1  0.57860059  0.44696782  0.06303354  1
  O2-  O223  1  0.57930504  0.44589288  0.40368600  1
  O2-  O224  1  0.58698556  0.44834282  0.72675900  1
  O2-  O225  1  0.57981120  0.95390548  0.06028547  1
  O2-  O226  1  0.58160625  0.96588317  0.39802382  1
  O2-  O227  1  0.58319063  0.96137753  0.73843141  1
  O2-  O228  1  0.19989717  0.33075636  0.05964067  1
  O2-  O229  1  0.20434150  0.32736017  0.40011234  1
  O2-  O230  1  0.20387017  0.33007177  0.73814164  1
  O2-  O231  1  0.21395737  0.83628600  0.07061198  1
  O2-  O232  1  0.20850409  0.83882679  0.39732381  1
  O2-  O233  1  0.21034642  0.84201566  0.72814717  1
  O2-  O234  1  0.71399365  0.33197273  0.06459490  1
  O2-  O235  1  0.71483138  0.32975194  0.40277705  1
  O2-  O236  1  0.71196646  0.33361069  0.72366236  1
  O2-  O237  1  0.69933183  0.83439926  0.06396454  1
  O2-  O238  1  0.70505975  0.83615143  0.40248682  1
  O2-  O239  1  0.70643857  0.83087249  0.73682723  1
  O2-  O240  1  0.44511972  0.41986580  0.27758482  1
  O2-  O241  1  0.45200908  0.41658553  0.60465289  1
  O2-  O242  1  0.44689034  0.41761284  0.93747144  1
  O2-  O243  1  0.46171552  0.91416091  0.26168306  1
  O2-  O244  1  0.46039777  0.91084087  0.60541110  1
  O2-  O245  1  0.44914477  0.91548449  0.93536054  1
  O2-  O246  1  0.95972086  0.41039696  0.26899857  1
  O2-  O247  1  0.95744175  0.41656867  0.59329628  1
  O2-  O248  1  0.96050890  0.41394951  0.92923341  1
  O2-  O249  1  0.95430759  0.91821957  0.26989966  1
  O2-  O250  1  0.95334239  0.92205610  0.59744543  1
  O2-  O251  1  0.96027279  0.91721439  0.93878984  1
  O2-  O252  1  0.33581366  0.28973723  0.26919558  1
  O2-  O253  1  0.33257212  0.29592883  0.60495797  1
  O2-  O254  1  0.33307296  0.29320678  0.93284216  1
  O2-  O255  1  0.33230034  0.79420966  0.26451841  1
  O2-  O256  1  0.33840858  0.79645188  0.60517011  1
  O2-  O257  1  0.33488929  0.79315977  0.93616909  1
  O2-  O258  1  0.84142105  0.28868258  0.26832286  1
  O2-  O259  1  0.83743616  0.28501941  0.59080863  1
  O2-  O260  1  0.83699591  0.28406079  0.93130080  1
  O2-  O261  1  0.82965313  0.80398054  0.27280960  1
  O2-  O262  1  0.82632686  0.79567163  0.60111286  1
  O2-  O263  1  0.83137645  0.80846339  0.94198230  1
  O2-  O264  1  0.41601151  0.04399851  0.06406782  1
  O2-  O265  1  0.41148192  0.03810490  0.39400340  1
  O2-  O266  1  0.41059254  0.03667321  0.73161409  1
  O2-  O267  1  0.41601158  0.54145491  0.07064572  1
  O2-  O268  1  0.42033174  0.55182910  0.40234211  1
  O2-  O269  1  0.42024645  0.54223791  0.73698010  1
  O2-  O270  1  0.91394142  0.04196309  0.07057928  1
  O2-  O271  1  0.91804392  0.04780103  0.39901606  1
  O2-  O272  1  0.91664419  0.05104712  0.72758859  1
  O2-  O273  1  0.92061567  0.53801327  0.06411570  1
  O2-  O274  1  0.91708412  0.53638215  0.40309940  1
  O2-  O275  1  0.91239129  0.54195709  0.72464508  1
  O2-  O276  1  0.30069744  0.16696918  0.06344506  1
  O2-  O277  1  0.29447262  0.16041244  0.39715698  1
  O2-  O278  1  0.30163855  0.16397211  0.72938801  1
  O2-  O279  1  0.28860194  0.66704546  0.06819741  1
  O2-  O280  1  0.28919281  0.67293492  0.39984320  1
  O2-  O281  1  0.29511918  0.67377933  0.73692672  1
  O2-  O282  1  0.78705625  0.16467839  0.06776367  1
  O2-  O283  1  0.79949356  0.16618257  0.39745736  1
  O2-  O284  1  0.79096341  0.16564531  0.72637776  1
  O2-  O285  1  0.80173025  0.67364675  0.06451476  1
  O2-  O286  1  0.79880356  0.67134552  0.40249764  1
  O2-  O287  1  0.79252782  0.66177740  0.72892613  1
