# generated using pymatgen
data_Ca2Al2SiO7
_symmetry_space_group_name_H-M   'P 1'
_cell_length_a   15.46665564
_cell_length_b   15.46836127
_cell_length_c   15.29059810
_cell_angle_alpha   89.99506483
_cell_angle_beta   89.99989174
_cell_angle_gamma   89.97853387
_symmetry_Int_Tables_number   1
_chemical_formula_structural   Ca2Al2SiO7
_chemical_formula_sum   'Ca48 Al48 Si24 O168'
_cell_volume   3658.18078536
_cell_formula_units_Z   24
loop_
 _symmetry_equiv_pos_site_id
 _symmetry_equiv_pos_as_xyz
  1  'x, y, z'
loop_
 _atom_type_symbol
 _atom_type_oxidation_number
  Ca2+  2.0
  Al0+  0.0
  Si0+  0.0
  O2-  -2.0
loop_
 _atom_site_type_symbol
 _atom_site_label
 _atom_site_symmetry_multiplicity
 _atom_site_fract_x
 _atom_site_fract_y
 _atom_site_fract_z
 _atom_site_occupancy
  Ca2+  Ca0  1  0.16972932  0.08471357  0.17639719  1
  Ca2+  Ca1  1  0.16964883  0.08730362  0.49333503  1
  Ca2+  Ca2  1  0.17012023  0.08604130  0.84494820  1
  Ca2+  Ca3  1  0.16938172  0.59005743  0.17120211  1
  Ca2+  Ca4  1  0.16456299  0.57678931  0.50312507  1
  Ca2+  Ca5  1  0.17104226  0.57775913  0.84077773  1
  Ca2+  Ca6  1  0.67398597  0.08676661  0.17751951  1
  Ca2+  Ca7  1  0.67022716  0.08572355  0.49834605  1
  Ca2+  Ca8  1  0.66681369  0.07492780  0.83646290  1
  Ca2+  Ca9  1  0.66769406  0.57574007  0.17345431  1
  Ca2+  Ca10  1  0.66921369  0.58126631  0.49322345  1
  Ca2+  Ca11  1  0.66880518  0.57609911  0.84653123  1
  Ca2+  Ca12  1  0.07018292  0.32435101  0.16322908  1
  Ca2+  Ca13  1  0.07439216  0.33307414  0.49174507  1
  Ca2+  Ca14  1  0.07716950  0.33335960  0.83020149  1
  Ca2+  Ca15  1  0.08403767  0.82543920  0.16332060  1
  Ca2+  Ca16  1  0.08691524  0.82628560  0.48811589  1
  Ca2+  Ca17  1  0.08083745  0.82885413  0.83828661  1
  Ca2+  Ca18  1  0.57899661  0.33532625  0.16632918  1
  Ca2+  Ca19  1  0.57585670  0.33035468  0.48534796  1
  Ca2+  Ca20  1  0.57769746  0.33819363  0.83762363  1
  Ca2+  Ca21  1  0.58208165  0.82170847  0.16494272  1
  Ca2+  Ca22  1  0.57995456  0.83106355  0.49003730  1
  Ca2+  Ca23  1  0.58599064  0.82692992  0.82986968  1
  Ca2+  Ca24  1  0.33817286  0.41822190  0.16860922  1
  Ca2+  Ca25  1  0.32629303  0.41247001  0.50098744  1
  Ca2+  Ca26  1  0.32671683  0.41800420  0.84434798  1
  Ca2+  Ca27  1  0.32940829  0.92787569  0.17763846  1
  Ca2+  Ca28  1  0.33195472  0.91764284  0.49384695  1
  Ca2+  Ca29  1  0.33057691  0.92672903  0.84331252  1
  Ca2+  Ca30  1  0.82548492  0.41387930  0.17656793  1
  Ca2+  Ca31  1  0.83447055  0.41617506  0.49744525  1
  Ca2+  Ca32  1  0.82965220  0.41072570  0.84039549  1
  Ca2+  Ca33  1  0.83827067  0.92183736  0.17426672  1
  Ca2+  Ca34  1  0.82887627  0.92667366  0.50160720  1
  Ca2+  Ca35  1  0.82931128  0.91183712  0.83941257  1
  Ca2+  Ca36  1  0.41169013  0.17537830  0.16549098  1
  Ca2+  Ca37  1  0.42302542  0.17092667  0.48577045  1
  Ca2+  Ca38  1  0.41130393  0.17147851  0.83701754  1
  Ca2+  Ca39  1  0.42526626  0.66693061  0.16266438  1
  Ca2+  Ca40  1  0.42470871  0.67518897  0.48526918  1
  Ca2+  Ca41  1  0.42284312  0.65686438  0.83674804  1
  Ca2+  Ca42  1  0.92292138  0.16911262  0.16280599  1
  Ca2+  Ca43  1  0.91830805  0.17759584  0.48807309  1
  Ca2+  Ca44  1  0.91969901  0.17872847  0.83374220  1
  Ca2+  Ca45  1  0.92613635  0.66656594  0.16331301  1
  Ca2+  Ca46  1  0.92144519  0.66637280  0.48920669  1
  Ca2+  Ca47  1  0.91961575  0.66883889  0.83678490  1
  Al0+  Al48  1  -0.00131115  -0.00090757  -0.00919103  1
  Al0+  Al49  1  0.00023601  -0.00030349  0.34255006  1
  Al0+  Al50  1  0.00118394  0.00051398  0.66788626  1
  Al0+  Al51  1  -0.00069484  0.50044322  -0.00737041  1
  Al0+  Al52  1  0.00001853  0.50145335  0.32867173  1
  Al0+  Al53  1  0.00033965  0.50007592  0.66847049  1
  Al0+  Al54  1  0.49973858  -0.00060459  0.00474451  1
  Al0+  Al55  1  0.49962460  0.00098436  0.33008920  1
  Al0+  Al56  1  0.50055460  -0.00108922  0.67161554  1
  Al0+  Al57  1  0.49941991  0.49886802  -0.00086865  1
  Al0+  Al58  1  0.50035104  0.50086839  0.33303716  1
  Al0+  Al59  1  0.50192668  0.50068954  0.66380576  1
  Al0+  Al60  1  0.25051839  0.25100232  -0.00263281  1
  Al0+  Al61  1  0.24905947  0.25063519  0.33197843  1
  Al0+  Al62  1  0.24986353  0.25050033  0.67129205  1
  Al0+  Al63  1  0.25082972  0.75066598  -0.00165584  1
  Al0+  Al64  1  0.25080097  0.75161545  0.33076375  1
  Al0+  Al65  1  0.25213878  0.75147310  0.66848282  1
  Al0+  Al66  1  0.74799535  0.24641017  -0.00091308  1
  Al0+  Al67  1  0.74714516  0.25107010  0.33753988  1
  Al0+  Al68  1  0.75039453  0.25027730  0.66468284  1
  Al0+  Al69  1  0.74836413  0.74738636  -0.00658134  1
  Al0+  Al70  1  0.75067377  0.74893688  0.33462356  1
  Al0+  Al71  1  0.75095731  0.74962873  0.66923316  1
  Al0+  Al72  1  0.68071001  0.92977629  0.68036833  1
  Al0+  Al73  1  0.92549404  0.32049264  0.98548701  1
  Al0+  Al74  1  0.67779520  0.42950470  0.34979106  1
  Al0+  Al75  1  0.17930066  0.92814802  0.34833758  1
  Al0+  Al76  1  0.92979126  0.32096361  0.65061940  1
  Al0+  Al77  1  0.57321480  0.67939079  0.31804589  1
  Al0+  Al78  1  0.82157433  0.07204304  0.34655532  1
  Al0+  Al79  1  0.43084110  0.31998301  0.98566315  1
  Al0+  Al80  1  0.82328018  0.57137612  0.34716316  1
  Al0+  Al81  1  0.07127037  0.17988269  0.98501494  1
  Al0+  Al82  1  0.68048247  0.42718556  0.01348428  1
  Al0+  Al83  1  0.17960227  0.42996962  0.68034324  1
  Al0+  Al84  1  0.32156948  0.07357958  0.34917637  1
  Al0+  Al85  1  0.31950380  0.57054044  0.01442543  1
  Al0+  Al86  1  0.92761898  0.32232168  0.31911617  1
  Al0+  Al87  1  0.56843839  0.67889868  0.98481338  1
  Al0+  Al88  1  0.07466974  0.67804865  0.98297632  1
  Al0+  Al89  1  0.92831584  0.82033467  0.98583669  1
  Al0+  Al90  1  0.57189843  0.17862708  0.31926027  1
  Al0+  Al91  1  0.32010442  0.07250488  0.01547343  1
  Al0+  Al92  1  0.42683875  0.32182635  0.31900797  1
  Al0+  Al93  1  0.42826622  0.82247169  0.31703456  1
  Al0+  Al94  1  0.06937416  0.17736174  0.32046884  1
  Al0+  Al95  1  0.07140351  0.67889262  0.32190601  1
  Si0+  Si96  1  0.57267168  0.67843785  0.65034239  1
  Si0+  Si97  1  0.17616157  0.92921449  0.01556356  1
  Si0+  Si98  1  0.56873484  0.17762933  0.65390690  1
  Si0+  Si99  1  0.67883969  0.92533916  0.01577362  1
  Si0+  Si100  1  0.81980735  0.06744876  0.01319165  1
  Si0+  Si101  1  0.42892512  0.32149316  0.65278738  1
  Si0+  Si102  1  0.17851147  0.92598488  0.68411007  1
  Si0+  Si103  1  0.67805871  0.92727342  0.34762309  1
  Si0+  Si104  1  0.82080778  0.57052916  0.68313505  1
  Si0+  Si105  1  0.82277220  0.07363542  0.68560120  1
  Si0+  Si106  1  0.92775562  0.82126084  0.65044854  1
  Si0+  Si107  1  0.07108538  0.68185929  0.65221268  1
  Si0+  Si108  1  0.82228597  0.57240392  0.01569292  1
  Si0+  Si109  1  0.43054837  0.82179776  0.65247824  1
  Si0+  Si110  1  0.42949583  0.82370361  0.98183709  1
  Si0+  Si111  1  0.92788728  0.82271820  0.32163562  1
  Si0+  Si112  1  0.57215454  0.17456315  0.98177704  1
  Si0+  Si113  1  0.07474888  0.17718495  0.64895163  1
  Si0+  Si114  1  0.32027991  0.06939749  0.68231091  1
  Si0+  Si115  1  0.32345115  0.57294103  0.68171342  1
  Si0+  Si116  1  0.17870931  0.43043825  0.34572512  1
  Si0+  Si117  1  0.32123329  0.57209174  0.34768674  1
  Si0+  Si118  1  0.67804126  0.42854664  0.68236894  1
  Si0+  Si119  1  0.17565109  0.42853420  0.01810096  1
  O2-  O120  1  0.24312697  -0.00087971  0.05912147  1
  O2-  O121  1  0.25031673  0.00086171  0.40011407  1
  O2-  O122  1  0.24543036  0.00185996  0.72451637  1
  O2-  O123  1  0.24097137  0.50058634  0.06221114  1
  O2-  O124  1  0.25087108  0.50043720  0.38948738  1
  O2-  O125  1  0.25692819  0.50272920  0.72599250  1
  O2-  O126  1  0.75072424  -0.00478263  0.05663098  1
  O2-  O127  1  0.74496233  -0.00224696  0.39217241  1
  O2-  O128  1  0.75673699  0.00198112  0.72995984  1
  O2-  O129  1  0.75969239  0.49792852  0.05797323  1
  O2-  O130  1  0.75243727  0.49942773  0.39990572  1
  O2-  O131  1  0.74953243  0.49907818  0.72463680  1
  O2-  O132  1  -0.00528566  0.24565202  0.27046333  1
  O2-  O133  1  0.00398153  0.24430886  0.60646155  1
  O2-  O134  1  0.00206279  0.25403739  0.93392652  1
  O2-  O135  1  -0.00380389  0.75404641  0.27801426  1
  O2-  O136  1  0.00227273  0.75418313  0.60837007  1
  O2-  O137  1  0.00018762  0.74866427  0.93407748  1
  O2-  O138  1  0.49838432  0.24895610  0.27005923  1
  O2-  O139  1  0.50031045  0.25099701  0.61173101  1
  O2-  O140  1  0.50344834  0.24343213  0.93736826  1
  O2-  O141  1  0.50100482  0.75099697  0.26847296  1
  O2-  O142  1  0.50005175  0.74898609  0.61052260  1
  O2-  O143  1  0.49507545  0.75358397  0.93451477  1
  O2-  O144  1  0.06813874  0.17727680  0.09792350  1
  O2-  O145  1  0.06974338  0.18198911  0.43467103  1
  O2-  O146  1  0.07593995  0.17737615  0.75443495  1
  O2-  O147  1  0.07467799  0.68085835  0.09613795  1
  O2-  O148  1  0.07152076  0.67880429  0.43604037  1
  O2-  O149  1  0.07059962  0.68367523  0.75684032  1
  O2-  O150  1  0.57449614  0.17295312  0.08630563  1
  O2-  O151  1  0.56995805  0.17991723  0.43426362  1
  O2-  O152  1  0.56693663  0.17636707  0.75903643  1
  O2-  O153  1  0.56950995  0.68085695  0.09679235  1
  O2-  O154  1  0.57092965  0.68203682  0.43282229  1
  O2-  O155  1  0.57163008  0.67648624  0.75536339  1
  O2-  O156  1  0.17817817  0.43195015  0.24116676  1
  O2-  O157  1  0.18101867  0.43182500  0.56695006  1
  O2-  O158  1  0.17920764  0.42907023  0.91171727  1
  O2-  O159  1  0.17886114  0.92692260  0.23515872  1
  O2-  O160  1  0.18042739  0.91973879  0.57998341  1
  O2-  O161  1  0.17922553  0.93020478  0.90883931  1
  O2-  O162  1  0.67688522  0.43162015  0.23643750  1
  O2-  O163  1  0.67442456  0.43007665  0.57816300  1
  O2-  O164  1  0.68073681  0.43012793  0.89891516  1
  O2-  O165  1  0.68192237  0.92503714  0.24212925  1
  O2-  O166  1  0.68053468  0.93119663  0.56776045  1
  O2-  O167  1  0.67873522  0.92719828  0.91000238  1
  O2-  O168  1  0.43173512  0.32077387  0.09758603  1
  O2-  O169  1  0.42686634  0.32108008  0.43398808  1
  O2-  O170  1  0.42967223  0.32229704  0.75774631  1
  O2-  O171  1  0.43269955  0.82422899  0.08649085  1
  O2-  O172  1  0.42977766  0.81933249  0.43216707  1
  O2-  O173  1  0.43102087  0.82292875  0.75740755  1
  O2-  O174  1  0.92362041  0.31624006  0.09813979  1
  O2-  O175  1  0.93282325  0.32310755  0.43326490  1
  O2-  O176  1  0.92876316  0.31941517  0.76352703  1
  O2-  O177  1  0.92823218  0.82203649  0.09907432  1
  O2-  O178  1  0.92825503  0.82084085  0.42786519  1
  O2-  O179  1  0.92658453  0.81849451  0.75522406  1
  O2-  O180  1  0.31821471  0.07352751  0.23616217  1
  O2-  O181  1  0.32257253  0.06912893  0.57792861  1
  O2-  O182  1  0.32053652  0.06883791  0.90091092  1
  O2-  O183  1  0.32067808  0.57262573  0.24292623  1
  O2-  O184  1  0.32303442  0.57504469  0.57625001  1
  O2-  O185  1  0.32014023  0.56613200  0.90035589  1
  O2-  O186  1  0.82270291  0.06823229  0.23316753  1
  O2-  O187  1  0.82083325  0.07334050  0.58030395  1
  O2-  O188  1  0.81659282  0.06695126  0.90770846  1
  O2-  O189  1  0.82448437  0.57197756  0.23411285  1
  O2-  O190  1  0.82109509  0.57295190  0.57855206  1
  O2-  O191  1  0.81830285  0.57462711  0.90915858  1
  O2-  O192  1  0.04419734  0.07666847  0.27217279  1
  O2-  O193  1  0.05289795  0.08115441  0.60580800  1
  O2-  O194  1  0.04177159  0.08299778  0.92847003  1
  O2-  O195  1  0.04238393  0.58489428  0.26425831  1
  O2-  O196  1  0.04184070  0.58995219  0.60666385  1
  O2-  O197  1  0.04768630  0.58022376  0.92783954  1
  O2-  O198  1  0.55102783  0.07913844  0.26707052  1
  O2-  O199  1  0.53844453  0.08643963  0.60702483  1
  O2-  O200  1  0.54461250  0.08084732  0.93536827  1
  O2-  O201  1  0.54270551  0.58215590  0.26694899  1
  O2-  O202  1  0.54598616  0.58669303  0.60197517  1
  O2-  O203  1  0.53534933  0.58376125  0.92877985  1
  O2-  O204  1  0.16647052  0.20757287  0.26839414  1
  O2-  O205  1  0.16882794  0.20462920  0.60462765  1
  O2-  O206  1  0.16951137  0.20717182  0.93092206  1
  O2-  O207  1  0.16650472  0.71016746  0.26742946  1
  O2-  O208  1  0.16489016  0.70786121  0.60710370  1
  O2-  O209  1  0.17175727  0.70940933  0.92724046  1
  O2-  O210  1  0.66951647  0.20737656  0.26677747  1
  O2-  O211  1  0.66201335  0.20229318  0.60860751  1
  O2-  O212  1  0.66427975  0.20011523  0.93240333  1
  O2-  O213  1  0.67164502  0.70703801  0.26585131  1
  O2-  O214  1  0.66458184  0.70816816  0.60504820  1
  O2-  O215  1  0.66370301  0.70907971  0.92728536  1
  O2-  O216  1  0.07932872  0.45010702  0.05928267  1
  O2-  O217  1  0.08870893  0.46152145  0.39494296  1
  O2-  O218  1  0.08449287  0.46352379  0.73555680  1
  O2-  O219  1  0.08040008  0.95170034  0.05690132  1
  O2-  O220  1  0.08205294  0.95276408  0.40644472  1
  O2-  O221  1  0.08446948  0.94949925  0.72974180  1
  O2-  O222  1  0.58501154  0.46226273  0.06459568  1
  O2-  O223  1  0.58012158  0.46196039  0.40491668  1
  O2-  O224  1  0.58584858  0.45788663  0.72985964  1
  O2-  O225  1  0.58752661  0.95266203  0.06268709  1
  O2-  O226  1  0.58396152  0.95094951  0.39324526  1
  O2-  O227  1  0.58507120  0.96138508  0.73747390  1
  O2-  O228  1  0.20567383  0.33610380  0.06201764  1
  O2-  O229  1  0.20627416  0.33973958  0.39562006  1
  O2-  O230  1  0.20907223  0.33349465  0.73608119  1
  O2-  O231  1  0.20213368  0.83525382  0.05910377  1
  O2-  O232  1  0.21236454  0.83063972  0.40378182  1
  O2-  O233  1  0.21116105  0.83670698  0.73466088  1
  O2-  O234  1  0.70463408  0.32779351  0.06418236  1
  O2-  O235  1  0.70198261  0.33137967  0.40534981  1
  O2-  O236  1  0.70462103  0.33568044  0.72859089  1
  O2-  O237  1  0.70585813  0.83246872  0.06000831  1
  O2-  O238  1  0.70481153  0.83525273  0.39692674  1
  O2-  O239  1  0.71082602  0.83258822  0.73522489  1
  O2-  O240  1  0.45484611  0.42039412  0.26834952  1
  O2-  O241  1  0.45546811  0.41378653  0.60520921  1
  O2-  O242  1  0.46391941  0.41441769  0.92843326  1
  O2-  O243  1  0.45345626  0.92084129  0.26530408  1
  O2-  O244  1  0.46061594  0.91303474  0.60551586  1
  O2-  O245  1  0.45853917  0.91654667  0.93461776  1
  O2-  O246  1  0.95982732  0.41779899  0.26467697  1
  O2-  O247  1  0.96162365  0.41879422  0.59963739  1
  O2-  O248  1  0.94741411  0.42040087  0.93242082  1
  O2-  O249  1  0.95312082  0.91638510  0.27748094  1
  O2-  O250  1  0.95129102  0.91606552  0.60702921  1
  O2-  O251  1  0.95537936  0.91637474  0.92610323  1
  O2-  O252  1  0.32899359  0.29567078  0.26566972  1
  O2-  O253  1  0.33630057  0.29354420  0.60757629  1
  O2-  O254  1  0.33479266  0.28996251  0.92935076  1
  O2-  O255  1  0.33151990  0.79303334  0.26389113  1
  O2-  O256  1  0.33800660  0.79507886  0.60572048  1
  O2-  O257  1  0.33471395  0.80185081  0.93663881  1
  O2-  O258  1  0.82673291  0.29884198  0.27313203  1
  O2-  O259  1  0.83154614  0.29176536  0.59840450  1
  O2-  O260  1  0.82956633  0.28463159  0.92986740  1
  O2-  O261  1  0.83464175  0.79962527  0.27514437  1
  O2-  O262  1  0.83682265  0.79051517  0.60325358  1
  O2-  O263  1  0.83139182  0.78994939  0.92920654  1
  O2-  O264  1  0.41689888  0.04125156  0.06783673  1
  O2-  O265  1  0.42098550  0.04463022  0.40129354  1
  O2-  O266  1  0.40989617  0.03757900  0.73205106  1
  O2-  O267  1  0.41505478  0.53642791  0.06692881  1
  O2-  O268  1  0.41228605  0.54546698  0.39719857  1
  O2-  O269  1  0.41851014  0.54767023  0.72600482  1
  O2-  O270  1  0.91273780  0.03999276  0.05760404  1
  O2-  O271  1  0.91450438  0.04024402  0.40732781  1
  O2-  O272  1  0.91819431  0.05070324  0.72938010  1
  O2-  O273  1  0.91978908  0.55514625  0.05571634  1
  O2-  O274  1  0.92223479  0.54343974  0.40135509  1
  O2-  O275  1  0.91248255  0.54359986  0.73093053  1
  O2-  O276  1  0.29240514  0.17069818  0.06577716  1
  O2-  O277  1  0.29127447  0.17159968  0.40399286  1
  O2-  O278  1  0.29583445  0.16226005  0.73007156  1
  O2-  O279  1  0.29464346  0.67009868  0.06510406  1
  O2-  O280  1  0.29233097  0.66299673  0.39630493  1
  O2-  O281  1  0.29761935  0.66602730  0.72941239  1
  O2-  O282  1  0.79010845  0.15787331  0.06078117  1
  O2-  O283  1  0.78918331  0.16644932  0.40374905  1
  O2-  O284  1  0.79239026  0.16597909  0.73199037  1
  O2-  O285  1  0.79035091  0.66427247  0.06058803  1
  O2-  O286  1  0.79410753  0.66942517  0.40330226  1
  O2-  O287  1  0.79214315  0.66185476  0.73152606  1
