# generated using pymatgen
data_Ca2Al2SiO7
_symmetry_space_group_name_H-M   'P 1'
_cell_length_a   15.46612649
_cell_length_b   15.46557316
_cell_length_c   15.29070555
_cell_angle_alpha   89.99978456
_cell_angle_beta   89.99002449
_cell_angle_gamma   89.99883433
_symmetry_Int_Tables_number   1
_chemical_formula_structural   Ca2Al2SiO7
_chemical_formula_sum   'Ca48 Al48 Si24 O168'
_cell_volume   3657.42219444
_cell_formula_units_Z   24
loop_
 _symmetry_equiv_pos_site_id
 _symmetry_equiv_pos_as_xyz
  1  'x, y, z'
loop_
 _atom_type_symbol
 _atom_type_oxidation_number
  Ca2+  2.0
  Al0+  0.0
  Si0+  0.0
  O2-  -2.0
loop_
 _atom_site_type_symbol
 _atom_site_label
 _atom_site_symmetry_multiplicity
 _atom_site_fract_x
 _atom_site_fract_y
 _atom_site_fract_z
 _atom_site_occupancy
  Ca2+  Ca0  1  0.17819290  0.07805358  0.17626218  1
  Ca2+  Ca1  1  0.16484271  0.08186848  0.49824592  1
  Ca2+  Ca2  1  0.17307250  0.08573630  0.83674594  1
  Ca2+  Ca3  1  0.17151433  0.57805668  0.17261319  1
  Ca2+  Ca4  1  0.18033756  0.58237568  0.50998527  1
  Ca2+  Ca5  1  0.17141303  0.57061500  0.83253169  1
  Ca2+  Ca6  1  0.66990249  0.07681214  0.17305699  1
  Ca2+  Ca7  1  0.67146497  0.07644428  0.51524447  1
  Ca2+  Ca8  1  0.66527048  0.08078643  0.82930665  1
  Ca2+  Ca9  1  0.65951003  0.58984958  0.16876672  1
  Ca2+  Ca10  1  0.66973957  0.58567691  0.51207779  1
  Ca2+  Ca11  1  0.66371790  0.58703986  0.82895123  1
  Ca2+  Ca12  1  0.09199296  0.32754043  0.16442004  1
  Ca2+  Ca13  1  0.08695009  0.32545069  0.50274766  1
  Ca2+  Ca14  1  0.08459155  0.33158812  0.81963064  1
  Ca2+  Ca15  1  0.07487984  0.84414595  0.16776045  1
  Ca2+  Ca16  1  0.07652254  0.83717709  0.49261503  1
  Ca2+  Ca17  1  0.07552862  0.83619719  0.82974374  1
  Ca2+  Ca18  1  0.57896463  0.32966878  0.16380700  1
  Ca2+  Ca19  1  0.58327108  0.33472244  0.50528752  1
  Ca2+  Ca20  1  0.57856184  0.32765066  0.81871556  1
  Ca2+  Ca21  1  0.57061394  0.82280383  0.16203054  1
  Ca2+  Ca22  1  0.57507308  0.82639631  0.49956891  1
  Ca2+  Ca23  1  0.57377087  0.82714802  0.82607195  1
  Ca2+  Ca24  1  0.32867514  0.42403133  0.17173000  1
  Ca2+  Ca25  1  0.33408908  0.42827723  0.50983992  1
  Ca2+  Ca26  1  0.32913169  0.41572795  0.83194239  1
  Ca2+  Ca27  1  0.33546585  0.92135055  0.17615734  1
  Ca2+  Ca28  1  0.33708738  0.91742776  0.50291524  1
  Ca2+  Ca29  1  0.34282571  0.92211479  0.83781981  1
  Ca2+  Ca30  1  0.82787883  0.42120249  0.17077697  1
  Ca2+  Ca31  1  0.82773520  0.42242596  0.51486961  1
  Ca2+  Ca32  1  0.83118920  0.41808021  0.82793650  1
  Ca2+  Ca33  1  0.83540429  0.91063831  0.17155520  1
  Ca2+  Ca34  1  0.82595228  0.91853861  0.51107988  1
  Ca2+  Ca35  1  0.82636549  0.91713002  0.83186521  1
  Ca2+  Ca36  1  0.41107765  0.16094079  0.16401504  1
  Ca2+  Ca37  1  0.41715973  0.17146077  0.50161573  1
  Ca2+  Ca38  1  0.41870360  0.17185607  0.82223488  1
  Ca2+  Ca39  1  0.41854963  0.67322135  0.16364357  1
  Ca2+  Ca40  1  0.42228910  0.66797261  0.49404047  1
  Ca2+  Ca41  1  0.42204295  0.67398119  0.82148686  1
  Ca2+  Ca42  1  0.92747166  0.16545557  0.16502912  1
  Ca2+  Ca43  1  0.92562437  0.16622901  0.50195571  1
  Ca2+  Ca44  1  0.92463112  0.17342978  0.81736782  1
  Ca2+  Ca45  1  0.91862663  0.67993059  0.16219830  1
  Ca2+  Ca46  1  0.91546997  0.66931136  0.49611765  1
  Ca2+  Ca47  1  0.91517089  0.66834452  0.82922981  1
  Al0+  Al48  1  0.00021982  0.00210440  -0.00516568  1
  Al0+  Al49  1  0.00130752  0.00329651  0.32750638  1
  Al0+  Al50  1  0.00018595  0.00054203  0.66735126  1
  Al0+  Al51  1  -0.00238724  0.49919343  0.00760099  1
  Al0+  Al52  1  -0.00330724  0.49920760  0.33240576  1
  Al0+  Al53  1  0.00063479  0.50071105  0.66930017  1
  Al0+  Al54  1  0.50364667  -0.00100623  0.00336048  1
  Al0+  Al55  1  0.50169987  0.00049472  0.33491740  1
  Al0+  Al56  1  0.49973823  -0.00053332  0.66407446  1
  Al0+  Al57  1  0.50036608  0.49762131  -0.00172936  1
  Al0+  Al58  1  0.49975756  0.49683616  0.33195231  1
  Al0+  Al59  1  0.50133764  0.50127390  0.66837767  1
  Al0+  Al60  1  0.25061148  0.24862848  0.00834135  1
  Al0+  Al61  1  0.25015132  0.24886405  0.33223000  1
  Al0+  Al62  1  0.25055754  0.24845186  0.66025215  1
  Al0+  Al63  1  0.24677158  0.74978272  -0.00296141  1
  Al0+  Al64  1  0.24820447  0.74963592  0.33640647  1
  Al0+  Al65  1  0.24773379  0.75158354  0.66963310  1
  Al0+  Al66  1  0.75163051  0.25088378  0.00341184  1
  Al0+  Al67  1  0.74989051  0.25063163  0.33128455  1
  Al0+  Al68  1  0.75265617  0.25070046  0.66691269  1
  Al0+  Al69  1  0.75090434  0.75043988  -0.00624569  1
  Al0+  Al70  1  0.74981762  0.74955861  0.32603828  1
  Al0+  Al71  1  0.74845503  0.75196094  0.67305491  1
  Al0+  Al72  1  0.93139832  0.82202551  0.98326473  1
  Al0+  Al73  1  0.32062036  0.57033697  0.34590658  1
  Al0+  Al74  1  0.42648394  0.82265158  0.98547057  1
  Al0+  Al75  1  0.17752462  0.92961257  0.34822148  1
  Al0+  Al76  1  0.56918236  0.67713767  0.98204607  1
  Al0+  Al77  1  0.07083929  0.18192089  0.31629895  1
  Al0+  Al78  1  0.42870397  0.32224849  0.65183426  1
  Al0+  Al79  1  0.82220529  0.57329481  0.68209252  1
  Al0+  Al80  1  0.07295439  0.17662733  0.65092126  1
  Al0+  Al81  1  0.18160428  0.42764549  0.67860033  1
  Al0+  Al82  1  0.32296737  0.57370833  0.68257080  1
  Al0+  Al83  1  0.17851271  0.42906122  0.01498531  1
  Al0+  Al84  1  0.42518432  0.82160431  0.65054084  1
  Al0+  Al85  1  0.93038482  0.82041005  0.32222337  1
  Al0+  Al86  1  0.67870217  0.42880630  0.68171278  1
  Al0+  Al87  1  0.56992082  0.67676937  0.31849154  1
  Al0+  Al88  1  0.93009865  0.32391125  0.65193825  1
  Al0+  Al89  1  0.42683064  0.82217784  0.31866828  1
  Al0+  Al90  1  0.67643135  0.92963062  0.68307158  1
  Al0+  Al91  1  0.32207332  0.06733026  0.01233452  1
  Al0+  Al92  1  0.32367838  0.07103162  0.35245404  1
  Al0+  Al93  1  0.57240447  0.17854462  0.65261777  1
  Al0+  Al94  1  0.57114413  0.68012948  0.65151398  1
  Al0+  Al95  1  0.82289585  0.07113039  0.68139957  1
  Si0+  Si96  1  0.32250037  0.57190767  0.01608328  1
  Si0+  Si97  1  0.92959873  0.82046961  0.65314728  1
  Si0+  Si98  1  0.42969422  0.31950364  0.31668376  1
  Si0+  Si99  1  0.07185917  0.67496677  0.31760060  1
  Si0+  Si100  1  0.82104644  0.07237941  0.34655165  1
  Si0+  Si101  1  0.92557617  0.32268972  0.31371295  1
  Si0+  Si102  1  0.07129639  0.18298861  0.98492178  1
  Si0+  Si103  1  0.57441795  0.17901843  0.98765837  1
  Si0+  Si104  1  0.07030326  0.67911210  0.65321547  1
  Si0+  Si105  1  0.81866697  0.57177963  0.34582772  1
  Si0+  Si106  1  0.68163829  0.92833100  0.34689887  1
  Si0+  Si107  1  0.07040335  0.67350350  0.98323561  1
  Si0+  Si108  1  0.68228557  0.92869245  0.01780141  1
  Si0+  Si109  1  0.17467548  0.92774693  0.01516434  1
  Si0+  Si110  1  0.82188537  0.07231173  0.01646365  1
  Si0+  Si111  1  0.57318590  0.17925911  0.31758693  1
  Si0+  Si112  1  0.31995985  0.06936623  0.68009474  1
  Si0+  Si113  1  0.67867543  0.42748262  0.01694258  1
  Si0+  Si114  1  0.81938964  0.57200578  0.01780738  1
  Si0+  Si115  1  0.67926985  0.42720806  0.34745546  1
  Si0+  Si116  1  0.42887790  0.31729744  0.98735507  1
  Si0+  Si117  1  0.17605701  0.42788460  0.35035575  1
  Si0+  Si118  1  0.92749242  0.32165806  0.98579979  1
  Si0+  Si119  1  0.17661746  0.92848982  0.68254719  1
  O2-  O120  1  0.25127399  -0.01192961  0.05790836  1
  O2-  O121  1  0.25357942  -0.00404022  0.40058281  1
  O2-  O122  1  0.25018509  -0.00243592  0.72329033  1
  O2-  O123  1  0.25105579  0.50598182  0.06141400  1
  O2-  O124  1  0.24174678  0.49944161  0.39240818  1
  O2-  O125  1  0.25490702  0.49666769  0.73102497  1
  O2-  O126  1  0.75365716  -0.00010120  0.06107404  1
  O2-  O127  1  0.75262765  -0.00032506  0.38858620  1
  O2-  O128  1  0.74785287  0.00333331  0.73289649  1
  O2-  O129  1  0.74517887  0.50305506  0.05931079  1
  O2-  O130  1  0.74808926  0.50079353  0.38720184  1
  O2-  O131  1  0.74987193  0.50151440  0.73263266  1
  O2-  O132  1  -0.00226490  0.25848378  0.26824303  1
  O2-  O133  1  0.00096820  0.25032205  0.60310210  1
  O2-  O134  1  0.00164985  0.25487761  0.94338209  1
  O2-  O135  1  0.00654257  0.74754815  0.27375788  1
  O2-  O136  1  -0.00234366  0.74802457  0.60995443  1
  O2-  O137  1  0.00694882  0.74717977  0.93861157  1
  O2-  O138  1  0.49841840  0.24569684  0.27412759  1
  O2-  O139  1  0.50335729  0.25260191  0.60138041  1
  O2-  O140  1  0.50014638  0.24629432  0.94639449  1
  O2-  O141  1  0.49577443  0.74677319  0.26920010  1
  O2-  O142  1  0.49463374  0.74678955  0.60169631  1
  O2-  O143  1  0.49288718  0.74597003  0.93518883  1
  O2-  O144  1  0.06908441  0.18313867  0.09002399  1
  O2-  O145  1  0.06795409  0.18145978  0.42843474  1
  O2-  O146  1  0.07358235  0.17690425  0.76530824  1
  O2-  O147  1  0.06702813  0.67112480  0.08903769  1
  O2-  O148  1  0.06671237  0.67064940  0.42285315  1
  O2-  O149  1  0.06963775  0.68170210  0.75838266  1
  O2-  O150  1  0.57712826  0.18181464  0.09327967  1
  O2-  O151  1  0.57925562  0.18238350  0.42139877  1
  O2-  O152  1  0.56689162  0.17792918  0.76715543  1
  O2-  O153  1  0.56825443  0.67887478  0.09611466  1
  O2-  O154  1  0.57457193  0.67740974  0.43089414  1
  O2-  O155  1  0.57084389  0.68386504  0.76488911  1
  O2-  O156  1  0.17804720  0.42899709  0.24393742  1
  O2-  O157  1  0.18142642  0.43149187  0.56508586  1
  O2-  O158  1  0.17932229  0.42661530  0.90270044  1
  O2-  O159  1  0.17491833  0.93478037  0.23428085  1
  O2-  O160  1  0.17248008  0.92858384  0.57802636  1
  O2-  O161  1  0.16871675  0.93387542  0.90988937  1
  O2-  O162  1  0.68139815  0.42382159  0.24168918  1
  O2-  O163  1  0.68176295  0.42995366  0.56751475  1
  O2-  O164  1  0.68128901  0.42027163  0.91331601  1
  O2-  O165  1  0.68376182  0.93066129  0.24118492  1
  O2-  O166  1  0.68082607  0.92859617  0.56880792  1
  O2-  O167  1  0.68166845  0.93209040  0.91353111  1
  O2-  O168  1  0.43099898  0.31742908  0.09295478  1
  O2-  O169  1  0.43212638  0.32189467  0.42088403  1
  O2-  O170  1  0.42598914  0.31612190  0.76624090  1
  O2-  O171  1  0.42945047  0.82396658  0.09900679  1
  O2-  O172  1  0.43171354  0.82335563  0.43130122  1
  O2-  O173  1  0.42621757  0.82275180  0.76431736  1
  O2-  O174  1  0.92433046  0.31827733  0.09111472  1
  O2-  O175  1  0.92121238  0.32217487  0.41808460  1
  O2-  O176  1  0.93330344  0.32319436  0.76646755  1
  O2-  O177  1  0.93190851  0.82160389  0.09679884  1
  O2-  O178  1  0.92770843  0.81795066  0.43508732  1
  O2-  O179  1  0.93326428  0.82144930  0.75827688  1
  O2-  O180  1  0.32181724  0.07116285  0.23815492  1
  O2-  O181  1  0.32010454  0.06952794  0.57559032  1
  O2-  O182  1  0.31949129  0.07262371  0.89932963  1
  O2-  O183  1  0.31991194  0.56598496  0.23203207  1
  O2-  O184  1  0.31934836  0.57456017  0.56880785  1
  O2-  O185  1  0.32299475  0.56843479  0.91129149  1
  O2-  O186  1  0.81782266  0.07340644  0.24062876  1
  O2-  O187  1  0.82519713  0.06476752  0.56724784  1
  O2-  O188  1  0.82034777  0.07504319  0.91252987  1
  O2-  O189  1  0.81933690  0.57033455  0.24037570  1
  O2-  O190  1  0.82216710  0.57447997  0.56780526  1
  O2-  O191  1  0.82329934  0.56971566  0.91370545  1
  O2-  O192  1  0.03693783  0.08790348  0.25866407  1
  O2-  O193  1  0.04023867  0.07948516  0.59746442  1
  O2-  O194  1  0.04314071  0.09184445  0.93736945  1
  O2-  O195  1  0.04155121  0.58309942  0.26833629  1
  O2-  O196  1  0.04459721  0.58790227  0.60496797  1
  O2-  O197  1  0.03730785  0.58168710  0.93795938  1
  O2-  O198  1  0.54926850  0.08645706  0.27002951  1
  O2-  O199  1  0.54203167  0.08201920  0.59837156  1
  O2-  O200  1  0.55184782  0.08549419  0.94343800  1
  O2-  O201  1  0.54456847  0.57660810  0.26559137  1
  O2-  O202  1  0.55077931  0.57923475  0.60186968  1
  O2-  O203  1  0.54869651  0.57480404  0.93382487  1
  O2-  O204  1  0.16794041  0.21204367  0.26151675  1
  O2-  O205  1  0.16930133  0.20377146  0.59500991  1
  O2-  O206  1  0.16445335  0.21018930  0.94072798  1
  O2-  O207  1  0.16619078  0.69570087  0.27217225  1
  O2-  O208  1  0.16032859  0.70980542  0.60489860  1
  O2-  O209  1  0.16570493  0.69208974  0.93867836  1
  O2-  O210  1  0.66270173  0.21145286  0.26568688  1
  O2-  O211  1  0.67235223  0.20221968  0.60174935  1
  O2-  O212  1  0.66509878  0.21058099  0.94081584  1
  O2-  O213  1  0.66681809  0.70810017  0.26226467  1
  O2-  O214  1  0.67014522  0.71270159  0.60101267  1
  O2-  O215  1  0.66784892  0.70751354  0.93240220  1
  O2-  O216  1  0.08104039  0.45607648  0.07117908  1
  O2-  O217  1  0.07939088  0.44843231  0.39174632  1
  O2-  O218  1  0.08490656  0.45907498  0.73324005  1
  O2-  O219  1  0.08396639  0.96276438  0.06316526  1
  O2-  O220  1  0.07952065  0.96455228  0.40003176  1
  O2-  O221  1  0.08691797  0.95952853  0.73260305  1
  O2-  O222  1  0.58531970  0.45077485  0.06463595  1
  O2-  O223  1  0.58616014  0.44982027  0.39248404  1
  O2-  O224  1  0.58027642  0.45314194  0.73603238  1
  O2-  O225  1  0.59210929  0.95810724  0.06800474  1
  O2-  O226  1  0.59088977  0.95676593  0.39384148  1
  O2-  O227  1  0.57859201  0.95978313  0.73644565  1
  O2-  O228  1  0.21346288  0.33492781  0.07235831  1
  O2-  O229  1  0.20416976  0.33465217  0.39321222  1
  O2-  O230  1  0.20783333  0.32752488  0.73011874  1
  O2-  O231  1  0.18741998  0.82963762  0.05671317  1
  O2-  O232  1  0.19234796  0.82733013  0.39752081  1
  O2-  O233  1  0.19910990  0.83687175  0.73236596  1
  O2-  O234  1  0.71194188  0.33827450  0.06890751  1
  O2-  O235  1  0.70998950  0.33645873  0.39485505  1
  O2-  O236  1  0.70738970  0.33051742  0.73540943  1
  O2-  O237  1  0.71310548  0.83687991  0.06325418  1
  O2-  O238  1  0.71176901  0.83651842  0.39182620  1
  O2-  O239  1  0.70961594  0.83522187  0.73989130  1
  O2-  O240  1  0.46153657  0.40829682  0.26501432  1
  O2-  O241  1  0.45553707  0.42106117  0.60046841  1
  O2-  O242  1  0.45565262  0.40876946  0.94036319  1
  O2-  O243  1  0.46039880  0.92054834  0.26646125  1
  O2-  O244  1  0.45649374  0.91872844  0.59810117  1
  O2-  O245  1  0.46267273  0.92025811  0.93427121  1
  O2-  O246  1  0.94703240  0.41801797  0.26778311  1
  O2-  O247  1  0.95834714  0.42226777  0.59865880  1
  O2-  O248  1  0.95059519  0.41608499  0.94335170  1
  O2-  O249  1  0.95831515  0.91703114  0.26568398  1
  O2-  O250  1  0.96021836  0.91082215  0.60539943  1
  O2-  O251  1  0.96065847  0.91909439  0.92916639  1
  O2-  O252  1  0.33735665  0.29427708  0.26891241  1
  O2-  O253  1  0.33356146  0.29046124  0.59537909  1
  O2-  O254  1  0.33698170  0.28788605  0.94213946  1
  O2-  O255  1  0.32587752  0.79773057  0.26837490  1
  O2-  O256  1  0.32374101  0.79903646  0.60161379  1
  O2-  O257  1  0.32344216  0.80590642  0.93703770  1
  O2-  O258  1  0.83368009  0.29252066  0.26440335  1
  O2-  O259  1  0.83183141  0.29731217  0.59922516  1
  O2-  O260  1  0.83680412  0.29057050  0.93854288  1
  O2-  O261  1  0.83678518  0.78731841  0.26281978  1
  O2-  O262  1  0.83651448  0.79560912  0.60856515  1
  O2-  O263  1  0.83580710  0.79031348  0.92982821  1
  O2-  O264  1  0.42102247  0.04408163  0.06691615  1
  O2-  O265  1  0.42488761  0.04886330  0.40217561  1
  O2-  O266  1  0.41163928  0.04311741  0.72829422  1
  O2-  O267  1  0.41491050  0.54099257  0.06268108  1
  O2-  O268  1  0.41609860  0.53361975  0.39819630  1
  O2-  O269  1  0.42150793  0.54877070  0.73453084  1
  O2-  O270  1  0.91514994  0.04482256  0.06205968  1
  O2-  O271  1  0.91409011  0.04772739  0.39001089  1
  O2-  O272  1  0.91949356  0.03867369  0.73667098  1
  O2-  O273  1  0.90848826  0.54131146  0.06978859  1
  O2-  O274  1  0.91096123  0.54533273  0.39316206  1
  O2-  O275  1  0.92000943  0.54501909  0.73670102  1
  O2-  O276  1  0.28777802  0.16141325  0.07029671  1
  O2-  O277  1  0.29222443  0.17024479  0.40128991  1
  O2-  O278  1  0.29081700  0.16082469  0.72736974  1
  O2-  O279  1  0.29814485  0.66716675  0.06023659  1
  O2-  O280  1  0.29438270  0.66728044  0.39981066  1
  O2-  O281  1  0.28695444  0.66944682  0.73697289  1
  O2-  O282  1  0.79265429  0.16309080  0.06686343  1
  O2-  O283  1  0.79102586  0.16384968  0.39254350  1
  O2-  O284  1  0.80052945  0.17078698  0.73320953  1
  O2-  O285  1  0.79311987  0.66541393  0.06329866  1
  O2-  O286  1  0.79199806  0.66403324  0.39211429  1
  O2-  O287  1  0.79478638  0.67057723  0.73742583  1
