# generated using pymatgen
data_Ca2Al2SiO7
_symmetry_space_group_name_H-M   'P 1'
_cell_length_a   15.46597611
_cell_length_b   15.46820094
_cell_length_c   15.28872238
_cell_angle_alpha   90.02085605
_cell_angle_beta   89.98399997
_cell_angle_gamma   89.99463791
_symmetry_Int_Tables_number   1
_chemical_formula_structural   Ca2Al2SiO7
_chemical_formula_sum   'Ca48 Al48 Si24 O168'
_cell_volume   3657.53328537
_cell_formula_units_Z   24
loop_
 _symmetry_equiv_pos_site_id
 _symmetry_equiv_pos_as_xyz
  1  'x, y, z'
loop_
 _atom_type_symbol
 _atom_type_oxidation_number
  Ca2+  2.0
  Al0+  0.0
  Si0+  0.0
  O2-  -2.0
loop_
 _atom_site_type_symbol
 _atom_site_label
 _atom_site_symmetry_multiplicity
 _atom_site_fract_x
 _atom_site_fract_y
 _atom_site_fract_z
 _atom_site_occupancy
  Ca2+  Ca0  1  0.16592245  0.08432953  0.16787982  1
  Ca2+  Ca1  1  0.17384339  0.07687446  0.51308350  1
  Ca2+  Ca2  1  0.16420371  0.08211759  0.83098895  1
  Ca2+  Ca3  1  0.17222818  0.59283485  0.16447605  1
  Ca2+  Ca4  1  0.17535729  0.58195155  0.50760125  1
  Ca2+  Ca5  1  0.17801226  0.59435402  0.83903989  1
  Ca2+  Ca6  1  0.66836401  0.07478631  0.17155533  1
  Ca2+  Ca7  1  0.67038901  0.06860282  0.50816853  1
  Ca2+  Ca8  1  0.67086858  0.07637706  0.83034322  1
  Ca2+  Ca9  1  0.66981605  0.57695342  0.17460933  1
  Ca2+  Ca10  1  0.66204930  0.57891591  0.49723945  1
  Ca2+  Ca11  1  0.66607581  0.57299693  0.83718526  1
  Ca2+  Ca12  1  0.07424969  0.32704022  0.15424785  1
  Ca2+  Ca13  1  0.08693607  0.32358509  0.49802300  1
  Ca2+  Ca14  1  0.08269097  0.32180809  0.83020345  1
  Ca2+  Ca15  1  0.06945389  0.82737367  0.15952554  1
  Ca2+  Ca16  1  0.07201428  0.84234186  0.50143153  1
  Ca2+  Ca17  1  0.07590966  0.83299276  0.82938220  1
  Ca2+  Ca18  1  0.57773375  0.34479876  0.16320735  1
  Ca2+  Ca19  1  0.58233255  0.33627128  0.49488300  1
  Ca2+  Ca20  1  0.58178875  0.34092008  0.83067899  1
  Ca2+  Ca21  1  0.57888517  0.82939277  0.16625304  1
  Ca2+  Ca22  1  0.57702687  0.83530125  0.49110199  1
  Ca2+  Ca23  1  0.57157593  0.83649461  0.82525633  1
  Ca2+  Ca24  1  0.33869415  0.41972518  0.16721925  1
  Ca2+  Ca25  1  0.33793173  0.42324332  0.50496637  1
  Ca2+  Ca26  1  0.33602634  0.43043787  0.84174772  1
  Ca2+  Ca27  1  0.33532673  0.91264952  0.16996647  1
  Ca2+  Ca28  1  0.33116098  0.91784394  0.51365169  1
  Ca2+  Ca29  1  0.32859114  0.91258555  0.83614004  1
  Ca2+  Ca30  1  0.82582484  0.42009115  0.17462495  1
  Ca2+  Ca31  1  0.82220806  0.42430340  0.50525364  1
  Ca2+  Ca32  1  0.82237891  0.40887637  0.84046058  1
  Ca2+  Ca33  1  0.83157453  0.91181207  0.17447661  1
  Ca2+  Ca34  1  0.82376415  0.91196281  0.50781006  1
  Ca2+  Ca35  1  0.83927056  0.91713777  0.83341211  1
  Ca2+  Ca36  1  0.42057867  0.18052809  0.16165428  1
  Ca2+  Ca37  1  0.41664470  0.17036067  0.49513750  1
  Ca2+  Ca38  1  0.41408605  0.17296232  0.82911136  1
  Ca2+  Ca39  1  0.42268210  0.67304931  0.16216226  1
  Ca2+  Ca40  1  0.42115094  0.67670335  0.49634790  1
  Ca2+  Ca41  1  0.41201031  0.67265129  0.82870525  1
  Ca2+  Ca42  1  0.92202347  0.17265417  0.15569643  1
  Ca2+  Ca43  1  0.91925759  0.15743277  0.50473633  1
  Ca2+  Ca44  1  0.92356554  0.16614284  0.82870767  1
  Ca2+  Ca45  1  0.91500977  0.67281336  0.16147256  1
  Ca2+  Ca46  1  0.91075859  0.67641497  0.49403419  1
  Ca2+  Ca47  1  0.91927246  0.67585778  0.82959441  1
  Al0+  Al48  1  0.00064606  -0.00005082  -0.00365358  1
  Al0+  Al49  1  0.00273890  -0.00096847  0.32853138  1
  Al0+  Al50  1  0.00101258  0.00040627  0.66501735  1
  Al0+  Al51  1  0.00040558  0.49976917  -0.00845123  1
  Al0+  Al52  1  0.00225062  0.49870067  0.33864228  1
  Al0+  Al53  1  -0.00111832  0.49911248  0.66554621  1
  Al0+  Al54  1  0.49918887  0.00090922  -0.00141062  1
  Al0+  Al55  1  0.49989684  0.00367147  0.33220492  1
  Al0+  Al56  1  0.50016012  0.00361071  0.66989097  1
  Al0+  Al57  1  0.49955473  0.50144798  0.00490830  1
  Al0+  Al58  1  0.49895992  0.50145615  0.33031703  1
  Al0+  Al59  1  0.49917748  0.50144833  0.67335459  1
  Al0+  Al60  1  0.25276986  0.25072636  -0.00626113  1
  Al0+  Al61  1  0.25106032  0.24981753  0.32905469  1
  Al0+  Al62  1  0.24882763  0.25079362  0.66470394  1
  Al0+  Al63  1  0.24957392  0.75197968  0.00177555  1
  Al0+  Al64  1  0.24808123  0.75095679  0.33303717  1
  Al0+  Al65  1  0.25005419  0.75019262  0.66899571  1
  Al0+  Al66  1  0.74845100  0.24612879  0.00349470  1
  Al0+  Al67  1  0.75193406  0.24888234  0.33753358  1
  Al0+  Al68  1  0.74853632  0.24897735  0.67211237  1
  Al0+  Al69  1  0.74760869  0.74867628  -0.00363312  1
  Al0+  Al70  1  0.74884758  0.75006217  0.33264823  1
  Al0+  Al71  1  0.74795812  0.74611050  0.66748745  1
  Al0+  Al72  1  0.43034101  0.82165822  0.98603122  1
  Al0+  Al73  1  0.68018103  0.43051420  0.68082864  1
  Al0+  Al74  1  0.67759111  0.92471259  0.68227826  1
  Al0+  Al75  1  0.68078401  0.42805086  0.01539128  1
  Al0+  Al76  1  0.92527976  0.32118155  0.98594340  1
  Al0+  Al77  1  0.57057638  0.67961480  0.31796172  1
  Al0+  Al78  1  0.43028825  0.32055383  0.32065206  1
  Al0+  Al79  1  0.07220759  0.17915653  0.98393070  1
  Al0+  Al80  1  0.92981129  0.81940875  0.32097084  1
  Al0+  Al81  1  0.82356384  0.57170137  0.34808523  1
  Al0+  Al82  1  0.43303446  0.32242253  0.98467351  1
  Al0+  Al83  1  0.67748591  0.42870061  0.34922548  1
  Al0+  Al84  1  0.32223160  0.07418369  0.68218370  1
  Al0+  Al85  1  0.42682939  0.82428841  0.31924696  1
  Al0+  Al86  1  0.42981189  0.82215508  0.65380729  1
  Al0+  Al87  1  0.31857117  0.56952617  0.67958465  1
  Al0+  Al88  1  0.82087716  0.06838411  0.68210916  1
  Al0+  Al89  1  0.07032813  0.18087289  0.65011339  1
  Al0+  Al90  1  0.92867861  0.81906745  0.65154328  1
  Al0+  Al91  1  0.31883069  0.57285622  0.01716156  1
  Al0+  Al92  1  0.92615093  0.82003147  0.98426840  1
  Al0+  Al93  1  0.67873562  0.93039759  0.34476840  1
  Al0+  Al94  1  0.07192250  0.67851896  0.98534141  1
  Al0+  Al95  1  0.17987942  0.92927803  0.68280669  1
  Si0+  Si96  1  0.17918589  0.92951340  0.34729295  1
  Si0+  Si97  1  0.17870052  0.42612062  0.01547507  1
  Si0+  Si98  1  0.43047588  0.32246547  0.65270934  1
  Si0+  Si99  1  0.07269775  0.67659109  0.64866471  1
  Si0+  Si100  1  0.57008875  0.67576905  0.65071427  1
  Si0+  Si101  1  0.31948516  0.57195645  0.34827366  1
  Si0+  Si102  1  0.67697953  0.92807354  0.01518582  1
  Si0+  Si103  1  0.57054969  0.67783520  0.98185904  1
  Si0+  Si104  1  0.57489204  0.17864345  0.31728464  1
  Si0+  Si105  1  0.32218337  0.07272775  0.01716337  1
  Si0+  Si106  1  0.82209813  0.06746466  0.01612224  1
  Si0+  Si107  1  0.31923665  0.07262390  0.34594480  1
  Si0+  Si108  1  0.82325033  0.57276163  0.01459489  1
  Si0+  Si109  1  0.82466198  0.57183876  0.68544190  1
  Si0+  Si110  1  0.92970841  0.32198908  0.32101082  1
  Si0+  Si111  1  0.17885021  0.93105360  0.01765373  1
  Si0+  Si112  1  0.92460347  0.32148262  0.64803470  1
  Si0+  Si113  1  0.07275439  0.67429549  0.31850749  1
  Si0+  Si114  1  0.57230608  0.18026018  0.65119429  1
  Si0+  Si115  1  0.17561756  0.42716214  0.68304144  1
  Si0+  Si116  1  0.18025770  0.42584470  0.34771316  1
  Si0+  Si117  1  0.07105687  0.17977777  0.31804597  1
  Si0+  Si118  1  0.57193532  0.17599623  0.98197897  1
  Si0+  Si119  1  0.82613072  0.07109217  0.34864267  1
  O2-  O120  1  0.25012321  0.00268740  0.06014888  1
  O2-  O121  1  0.25546438  -0.00451409  0.38816370  1
  O2-  O122  1  0.25442819  -0.00105566  0.73317083  1
  O2-  O123  1  0.24273615  0.49781477  0.06282016  1
  O2-  O124  1  0.24935510  0.49901096  0.38957071  1
  O2-  O125  1  0.24054778  0.49865168  0.72708536  1
  O2-  O126  1  0.75263276  -0.00540235  0.05771460  1
  O2-  O127  1  0.75594641  0.00331561  0.39066853  1
  O2-  O128  1  0.75358397  -0.00769342  0.73317982  1
  O2-  O129  1  0.75970385  0.49955125  0.05964552  1
  O2-  O130  1  0.75011759  0.50047580  0.39814556  1
  O2-  O131  1  0.75820273  0.50070902  0.72851629  1
  O2-  O132  1  -0.00189726  0.24891268  0.27749562  1
  O2-  O133  1  -0.00428099  0.25562374  0.60222637  1
  O2-  O134  1  0.00007040  0.25205287  0.93595171  1
  O2-  O135  1  0.00027042  0.73978032  0.27613455  1
  O2-  O136  1  0.00233075  0.74291031  0.60378038  1
  O2-  O137  1  -0.00290500  0.74689913  0.93524658  1
  O2-  O138  1  0.51064600  0.25180294  0.27357668  1
  O2-  O139  1  0.49897441  0.24979057  0.60958141  1
  O2-  O140  1  0.50874091  0.24952851  0.93743303  1
  O2-  O141  1  0.49893913  0.75296800  0.26884434  1
  O2-  O142  1  0.50837233  0.75148238  0.60734936  1
  O2-  O143  1  0.50408489  0.74800672  0.93741868  1
  O2-  O144  1  0.07004624  0.17950078  0.09877028  1
  O2-  O145  1  0.07346588  0.17982964  0.42274943  1
  O2-  O146  1  0.07078048  0.18333599  0.76249739  1
  O2-  O147  1  0.07161480  0.68280767  0.09954588  1
  O2-  O148  1  0.07696343  0.67454280  0.42376800  1
  O2-  O149  1  0.07198052  0.67677791  0.75390076  1
  O2-  O150  1  0.56884627  0.17227079  0.08780357  1
  O2-  O151  1  0.57145625  0.17600671  0.42271228  1
  O2-  O152  1  0.57382832  0.18178844  0.75615223  1
  O2-  O153  1  0.57102275  0.67960064  0.08742941  1
  O2-  O154  1  0.56591403  0.67849130  0.43168400  1
  O2-  O155  1  0.56609115  0.67204186  0.75622924  1
  O2-  O156  1  0.17958050  0.42196210  0.24314389  1
  O2-  O157  1  0.17840280  0.42662588  0.57662092  1
  O2-  O158  1  0.18372621  0.42344199  0.91034089  1
  O2-  O159  1  0.17598124  0.93280631  0.24216847  1
  O2-  O160  1  0.18080152  0.93161120  0.56825239  1
  O2-  O161  1  0.17918152  0.93086195  0.91312787  1
  O2-  O162  1  0.68060406  0.42877945  0.23581246  1
  O2-  O163  1  0.67823249  0.43183538  0.56792237  1
  O2-  O164  1  0.67994542  0.43077979  0.90216917  1
  O2-  O165  1  0.67946846  0.93369098  0.23108388  1
  O2-  O166  1  0.67692916  0.92817763  0.56837937  1
  O2-  O167  1  0.67448575  0.93113512  0.91069609  1
  O2-  O168  1  0.43271350  0.31979547  0.09809578  1
  O2-  O169  1  0.42652828  0.31730085  0.43402035  1
  O2-  O170  1  0.43249964  0.32319573  0.75756920  1
  O2-  O171  1  0.43305594  0.82231889  0.09917817  1
  O2-  O172  1  0.42488277  0.82329353  0.43281208  1
  O2-  O173  1  0.42867569  0.81864658  0.76683275  1
  O2-  O174  1  0.92700052  0.31762780  0.10068573  1
  O2-  O175  1  0.93233041  0.32226319  0.42579725  1
  O2-  O176  1  0.92504351  0.31968790  0.75331008  1
  O2-  O177  1  0.92698536  0.82043456  0.09834033  1
  O2-  O178  1  0.93317086  0.82309322  0.43371519  1
  O2-  O179  1  0.93079619  0.81735826  0.76424572  1
  O2-  O180  1  0.31509167  0.07629846  0.24085338  1
  O2-  O181  1  0.31991857  0.07580104  0.56759753  1
  O2-  O182  1  0.32380568  0.07214746  0.91277359  1
  O2-  O183  1  0.31718442  0.57266989  0.24342289  1
  O2-  O184  1  0.31949328  0.56644282  0.56575458  1
  O2-  O185  1  0.31890601  0.57175221  0.90418976  1
  O2-  O186  1  0.82765275  0.07175058  0.24275765  1
  O2-  O187  1  0.81705273  0.06870584  0.56795110  1
  O2-  O188  1  0.82221145  0.06831938  0.91162133  1
  O2-  O189  1  0.82706462  0.56721866  0.23437788  1
  O2-  O190  1  0.82584506  0.57140442  0.57992955  1
  O2-  O191  1  0.81850182  0.57527768  0.90926689  1
  O2-  O192  1  0.04544997  0.08831041  0.26885947  1
  O2-  O193  1  0.03999840  0.08468274  0.59516990  1
  O2-  O194  1  0.04292407  0.08169673  0.93188947  1
  O2-  O195  1  0.05343399  0.57865571  0.27352697  1
  O2-  O196  1  0.05111223  0.58074549  0.60373651  1
  O2-  O197  1  0.05444339  0.57850451  0.93163133  1
  O2-  O198  1  0.54386259  0.08855249  0.26689850  1
  O2-  O199  1  0.54557540  0.08873081  0.60272411  1
  O2-  O200  1  0.54057163  0.08564382  0.93349080  1
  O2-  O201  1  0.54037478  0.58255414  0.26332892  1
  O2-  O202  1  0.53505636  0.58541493  0.60299271  1
  O2-  O203  1  0.54138255  0.58521953  0.93708521  1
  O2-  O204  1  0.16125129  0.20986279  0.26886269  1
  O2-  O205  1  0.16656484  0.21382363  0.59407931  1
  O2-  O206  1  0.17046751  0.20587638  0.93144062  1
  O2-  O207  1  0.16375143  0.70563367  0.27021061  1
  O2-  O208  1  0.16603328  0.70347415  0.60282231  1
  O2-  O209  1  0.16835931  0.71332758  0.93332898  1
  O2-  O210  1  0.67119705  0.19742388  0.27334153  1
  O2-  O211  1  0.66277156  0.21038069  0.60260324  1
  O2-  O212  1  0.66759654  0.19530710  0.93928183  1
  O2-  O213  1  0.66883882  0.70585429  0.26421154  1
  O2-  O214  1  0.66639656  0.69124312  0.60702918  1
  O2-  O215  1  0.66426498  0.69985161  0.93501451  1
  O2-  O216  1  0.08170188  0.44659177  0.05741627  1
  O2-  O217  1  0.08934105  0.45019346  0.39851432  1
  O2-  O218  1  0.07964032  0.44611143  0.72630159  1
  O2-  O219  1  0.08689962  0.96038805  0.06528959  1
  O2-  O220  1  0.08966686  0.96368292  0.39572682  1
  O2-  O221  1  0.08265516  0.96104434  0.73443778  1
  O2-  O222  1  0.58563210  0.46345691  0.06912078  1
  O2-  O223  1  0.57779141  0.45776330  0.40008500  1
  O2-  O224  1  0.58540156  0.46410561  0.73647804  1
  O2-  O225  1  0.58729892  0.96214449  0.06386434  1
  O2-  O226  1  0.58255383  0.96436664  0.39900308  1
  O2-  O227  1  0.58231064  0.96144158  0.73602840  1
  O2-  O228  1  0.20859852  0.33353792  0.06287996  1
  O2-  O229  1  0.21187150  0.33520341  0.39655480  1
  O2-  O230  1  0.20439667  0.33512026  0.72870369  1
  O2-  O231  1  0.20772271  0.84069169  0.06684455  1
  O2-  O232  1  0.19978766  0.83603800  0.39417989  1
  O2-  O233  1  0.20498393  0.83040292  0.73525204  1
  O2-  O234  1  0.70416381  0.32850717  0.06812160  1
  O2-  O235  1  0.70449544  0.32884504  0.40105352  1
  O2-  O236  1  0.70699621  0.33350915  0.73530921  1
  O2-  O237  1  0.70066317  0.83405112  0.06013622  1
  O2-  O238  1  0.70528565  0.83343655  0.39815414  1
  O2-  O239  1  0.69730862  0.82359957  0.73233002  1
  O2-  O240  1  0.45471833  0.41797540  0.26654873  1
  O2-  O241  1  0.46143029  0.41359942  0.60567596  1
  O2-  O242  1  0.46269870  0.42005898  0.93310620  1
  O2-  O243  1  0.45291524  0.92408226  0.26743522  1
  O2-  O244  1  0.45553095  0.92207533  0.60358080  1
  O2-  O245  1  0.45952891  0.91879447  0.93286969  1
  O2-  O246  1  0.96035068  0.41256139  0.27316996  1
  O2-  O247  1  0.94762712  0.41672512  0.60358645  1
  O2-  O248  1  0.94599157  0.42036242  0.93263268  1
  O2-  O249  1  0.96553284  0.91408352  0.26429542  1
  O2-  O250  1  0.96074982  0.91553593  0.59832011  1
  O2-  O251  1  0.95785167  0.91759916  0.93313973  1
  O2-  O252  1  0.33610348  0.28476492  0.26389593  1
  O2-  O253  1  0.33758055  0.29808827  0.60574051  1
  O2-  O254  1  0.33746179  0.29140809  0.93030358  1
  O2-  O255  1  0.32770446  0.79514052  0.26730348  1
  O2-  O256  1  0.33325930  0.78868235  0.60055510  1
  O2-  O257  1  0.33270419  0.79216508  0.93581010  1
  O2-  O258  1  0.83698620  0.29580976  0.27456032  1
  O2-  O259  1  0.83179259  0.29198586  0.60260102  1
  O2-  O260  1  0.82792932  0.28727715  0.93474048  1
  O2-  O261  1  0.83251150  0.79395052  0.26729193  1
  O2-  O262  1  0.83022190  0.78808656  0.60018588  1
  O2-  O263  1  0.82698529  0.79500021  0.93172410  1
  O2-  O264  1  0.41364547  0.04379179  0.06554170  1
  O2-  O265  1  0.41379145  0.05407580  0.39106177  1
  O2-  O266  1  0.42237676  0.05539596  0.73366731  1
  O2-  O267  1  0.41444897  0.53982679  0.07131163  1
  O2-  O268  1  0.41073959  0.54350484  0.39498578  1
  O2-  O269  1  0.41209214  0.53590919  0.73669305  1
  O2-  O270  1  0.91479662  0.04208195  0.06393350  1
  O2-  O271  1  0.92000829  0.04406180  0.39360148  1
  O2-  O272  1  0.92056469  0.04452550  0.73278044  1
  O2-  O273  1  0.92016964  0.55389304  0.05650807  1
  O2-  O274  1  0.92181968  0.54348777  0.40328685  1
  O2-  O275  1  0.91962600  0.54944887  0.73035601  1
  O2-  O276  1  0.29413740  0.16541130  0.06368438  1
  O2-  O277  1  0.28536407  0.16186438  0.39520262  1
  O2-  O278  1  0.28961003  0.17204372  0.73419234  1
  O2-  O279  1  0.28714407  0.66915436  0.07229646  1
  O2-  O280  1  0.28968647  0.66311048  0.39651698  1
  O2-  O281  1  0.28993966  0.66577619  0.73415022  1
  O2-  O282  1  0.79221290  0.15760175  0.06649404  1
  O2-  O283  1  0.80421971  0.16500567  0.39556700  1
  O2-  O284  1  0.78868019  0.16505093  0.73617945  1
  O2-  O285  1  0.79215834  0.66493760  0.06220528  1
  O2-  O286  1  0.79405394  0.66981159  0.40013736  1
  O2-  O287  1  0.79595889  0.66354994  0.73254085  1
