# generated using pymatgen
data_Ca2Al2SiO7
_symmetry_space_group_name_H-M   'P 1'
_cell_length_a   15.45509496
_cell_length_b   15.45520861
_cell_length_c   15.28169344
_cell_angle_alpha   90.00313947
_cell_angle_beta   90.00860900
_cell_angle_gamma   90.00350053
_symmetry_Int_Tables_number   1
_chemical_formula_structural   Ca2Al2SiO7
_chemical_formula_sum   'Ca48 Al48 Si24 O168'
_cell_volume   3650.21147596
_cell_formula_units_Z   24
loop_
 _symmetry_equiv_pos_site_id
 _symmetry_equiv_pos_as_xyz
  1  'x, y, z'
loop_
 _atom_type_symbol
 _atom_type_oxidation_number
  Ca2+  2.0
  Al0+  0.0
  Si0+  0.0
  O2-  -2.0
loop_
 _atom_site_type_symbol
 _atom_site_label
 _atom_site_symmetry_multiplicity
 _atom_site_fract_x
 _atom_site_fract_y
 _atom_site_fract_z
 _atom_site_occupancy
  Ca2+  Ca0  1  0.15703865  0.07965922  0.16632762  1
  Ca2+  Ca1  1  0.16965187  0.07895747  0.51008971  1
  Ca2+  Ca2  1  0.17045823  0.07266457  0.83839704  1
  Ca2+  Ca3  1  0.16364058  0.58293482  0.16922954  1
  Ca2+  Ca4  1  0.17167142  0.58443256  0.50305649  1
  Ca2+  Ca5  1  0.16384926  0.57262819  0.84072204  1
  Ca2+  Ca6  1  0.67722213  0.07880244  0.16936959  1
  Ca2+  Ca7  1  0.66360186  0.07269289  0.50740062  1
  Ca2+  Ca8  1  0.66648463  0.08233793  0.83619917  1
  Ca2+  Ca9  1  0.67970746  0.58142146  0.16936501  1
  Ca2+  Ca10  1  0.67350111  0.58473601  0.50781736  1
  Ca2+  Ca11  1  0.66583400  0.57492293  0.83818922  1
  Ca2+  Ca12  1  0.08015783  0.32371294  0.15471769  1
  Ca2+  Ca13  1  0.08928304  0.32768806  0.49684707  1
  Ca2+  Ca14  1  0.08028059  0.33609882  0.83199064  1
  Ca2+  Ca15  1  0.08135601  0.82151930  0.15953841  1
  Ca2+  Ca16  1  0.07675326  0.83240439  0.49067377  1
  Ca2+  Ca17  1  0.08853423  0.83118871  0.83244842  1
  Ca2+  Ca18  1  0.58373186  0.33674432  0.16054619  1
  Ca2+  Ca19  1  0.58184606  0.33331322  0.50479329  1
  Ca2+  Ca20  1  0.58161401  0.33203790  0.82045061  1
  Ca2+  Ca21  1  0.57777101  0.83513786  0.16177941  1
  Ca2+  Ca22  1  0.58199780  0.83608185  0.50029493  1
  Ca2+  Ca23  1  0.57406009  0.83169400  0.82188063  1
  Ca2+  Ca24  1  0.32566132  0.42426800  0.17134521  1
  Ca2+  Ca25  1  0.32965991  0.42126428  0.50747793  1
  Ca2+  Ca26  1  0.32351972  0.40988441  0.83529470  1
  Ca2+  Ca27  1  0.32686682  0.91095328  0.16458687  1
  Ca2+  Ca28  1  0.32676774  0.92270399  0.51335116  1
  Ca2+  Ca29  1  0.33104879  0.91481187  0.83484267  1
  Ca2+  Ca30  1  0.83859055  0.42448570  0.16239546  1
  Ca2+  Ca31  1  0.83169281  0.42570322  0.50552450  1
  Ca2+  Ca32  1  0.82157542  0.41724758  0.84487521  1
  Ca2+  Ca33  1  0.83336064  0.91832559  0.17241693  1
  Ca2+  Ca34  1  0.82355431  0.90957899  0.50215546  1
  Ca2+  Ca35  1  0.82606363  0.92317063  0.83733047  1
  Ca2+  Ca36  1  0.42129569  0.16823700  0.16234075  1
  Ca2+  Ca37  1  0.41653683  0.16778682  0.50607483  1
  Ca2+  Ca38  1  0.42144393  0.17141646  0.82109139  1
  Ca2+  Ca39  1  0.41531297  0.67050163  0.16000026  1
  Ca2+  Ca40  1  0.42124493  0.66718628  0.49990742  1
  Ca2+  Ca41  1  0.42120758  0.67784660  0.82581382  1
  Ca2+  Ca42  1  0.92531830  0.16897187  0.15539037  1
  Ca2+  Ca43  1  0.92482430  0.16989836  0.49297105  1
  Ca2+  Ca44  1  0.91735138  0.16754635  0.83656867  1
  Ca2+  Ca45  1  0.92012230  0.66433306  0.16415051  1
  Ca2+  Ca46  1  0.92248390  0.67165530  0.48894580  1
  Ca2+  Ca47  1  0.92206473  0.65755914  0.83544967  1
  Al0+  Al48  1  0.00062223  -0.00131870  0.00313420  1
  Al0+  Al49  1  -0.00110966  0.00087968  0.32720571  1
  Al0+  Al50  1  0.00000647  -0.00023191  0.66917221  1
  Al0+  Al51  1  -0.00068305  0.49840794  -0.00022042  1
  Al0+  Al52  1  -0.00064996  0.49813375  0.33595298  1
  Al0+  Al53  1  0.00147611  0.50044100  0.66719418  1
  Al0+  Al54  1  0.49797487  0.00066018  -0.00350393  1
  Al0+  Al55  1  0.49973311  0.00109896  0.33517984  1
  Al0+  Al56  1  0.50007248  0.00076970  0.66659352  1
  Al0+  Al57  1  0.49936473  0.50033962  0.00324345  1
  Al0+  Al58  1  0.49791572  0.50050245  0.33610816  1
  Al0+  Al59  1  0.50117669  0.50145888  0.66192232  1
  Al0+  Al60  1  0.25140841  0.24794373  0.00148929  1
  Al0+  Al61  1  0.25180509  0.24961514  0.32779474  1
  Al0+  Al62  1  0.25003589  0.25021204  0.67023209  1
  Al0+  Al63  1  0.24944538  0.75111042  -0.00543086  1
  Al0+  Al64  1  0.25060029  0.74997911  0.33546926  1
  Al0+  Al65  1  0.24997591  0.74918535  0.66532699  1
  Al0+  Al66  1  0.75021687  0.24802933  0.00636902  1
  Al0+  Al67  1  0.74880359  0.24884139  0.33340591  1
  Al0+  Al68  1  0.75162919  0.25232426  0.66283519  1
  Al0+  Al69  1  0.74919704  0.74890158  0.00257048  1
  Al0+  Al70  1  0.74849394  0.74921286  0.33665966  1
  Al0+  Al71  1  0.75240018  0.75188245  0.67012759  1
  Al0+  Al72  1  0.42644315  0.32186962  0.65133248  1
  Al0+  Al73  1  0.06898506  0.67906595  0.98499435  1
  Al0+  Al74  1  0.92618972  0.81971314  0.31768725  1
  Al0+  Al75  1  0.17975651  0.43019425  0.67999327  1
  Al0+  Al76  1  0.07275490  0.67845141  0.31882663  1
  Al0+  Al77  1  0.17692188  0.92687015  0.68106750  1
  Al0+  Al78  1  0.57382882  0.17926475  0.65088505  1
  Al0+  Al79  1  0.17943047  0.42713222  0.01446806  1
  Al0+  Al80  1  0.42996273  0.82058048  0.98594878  1
  Al0+  Al81  1  0.32050294  0.57260185  0.34782596  1
  Al0+  Al82  1  0.82124260  0.56899846  0.34884042  1
  Al0+  Al83  1  0.68010346  0.43055519  0.67831922  1
  Al0+  Al84  1  0.18044998  0.92815161  0.01554267  1
  Al0+  Al85  1  0.07206309  0.18050092  0.31981314  1
  Al0+  Al86  1  0.32094880  0.07094169  0.68207255  1
  Al0+  Al87  1  0.92893892  0.31964429  0.98403084  1
  Al0+  Al88  1  0.67987406  0.92963676  0.68116149  1
  Al0+  Al89  1  0.42781857  0.82143190  0.64883547  1
  Al0+  Al90  1  0.82059340  0.06912053  0.01374480  1
  Al0+  Al91  1  0.67641982  0.42765811  0.01558035  1
  Al0+  Al92  1  0.67876484  0.93035677  0.34682408  1
  Al0+  Al93  1  0.82139706  0.57175752  0.01506956  1
  Al0+  Al94  1  0.57348614  0.68002057  0.65126040  1
  Al0+  Al95  1  0.07299550  0.17635841  0.98103353  1
  Si0+  Si96  1  0.92968005  0.32316516  0.65056859  1
  Si0+  Si97  1  0.07003179  0.67714234  0.65148764  1
  Si0+  Si98  1  0.32160797  0.07224580  0.34785021  1
  Si0+  Si99  1  0.92545423  0.32174145  0.31697236  1
  Si0+  Si100  1  0.17967906  0.42638861  0.34859465  1
  Si0+  Si101  1  0.92546075  0.82252720  0.98240457  1
  Si0+  Si102  1  0.93062219  0.82284318  0.65311743  1
  Si0+  Si103  1  0.82326273  0.07417423  0.68143539  1
  Si0+  Si104  1  0.42962762  0.32255706  0.98692591  1
  Si0+  Si105  1  0.57015702  0.17772745  0.31727750  1
  Si0+  Si106  1  0.06943648  0.17901675  0.65347974  1
  Si0+  Si107  1  0.67602412  0.42663665  0.35201292  1
  Si0+  Si108  1  0.17895679  0.93049677  0.34635717  1
  Si0+  Si109  1  0.82318415  0.07235139  0.35080449  1
  Si0+  Si110  1  0.32333435  0.57235999  0.68383316  1
  Si0+  Si111  1  0.32343681  0.07120138  0.01887009  1
  Si0+  Si112  1  0.32007115  0.57245562  0.01452722  1
  Si0+  Si113  1  0.56996672  0.67771804  0.31770544  1
  Si0+  Si114  1  0.67555093  0.92843299  0.01530982  1
  Si0+  Si115  1  0.82326428  0.57299197  0.68391289  1
  Si0+  Si116  1  0.57313818  0.67711350  0.98479964  1
  Si0+  Si117  1  0.42997744  0.82267440  0.31868025  1
  Si0+  Si118  1  0.57057187  0.17994688  0.98697534  1
  Si0+  Si119  1  0.43047233  0.32201169  0.31667355  1
  O2-  O120  1  0.25281117  0.00498082  0.06393745  1
  O2-  O121  1  0.24790665  0.00344272  0.38842742  1
  O2-  O122  1  0.25195817  -0.00427859  0.73081561  1
  O2-  O123  1  0.25270754  0.50347929  0.06065406  1
  O2-  O124  1  0.24340317  0.49939207  0.39315282  1
  O2-  O125  1  0.25592240  0.50262088  0.72793382  1
  O2-  O126  1  0.74822857  -0.00825578  0.06069146  1
  O2-  O127  1  0.75579677  0.00271860  0.39471100  1
  O2-  O128  1  0.75096873  0.00891749  0.72522445  1
  O2-  O129  1  0.74838588  0.49993984  0.06464595  1
  O2-  O130  1  0.74678177  0.49353587  0.39521528  1
  O2-  O131  1  0.75210145  0.50646907  0.72632883  1
  O2-  O132  1  -0.00446588  0.25370980  0.27449452  1
  O2-  O133  1  0.00014428  0.25091811  0.60920055  1
  O2-  O134  1  0.00233343  0.25005227  0.93139667  1
  O2-  O135  1  -0.00092728  0.74838570  0.26811020  1
  O2-  O136  1  0.00227547  0.75202370  0.61113908  1
  O2-  O137  1  -0.00757746  0.75231060  0.93755619  1
  O2-  O138  1  0.50373462  0.25291573  0.27431676  1
  O2-  O139  1  0.50019341  0.25081874  0.60119064  1
  O2-  O140  1  0.50349387  0.25457126  0.94560621  1
  O2-  O141  1  0.49917535  0.74978148  0.27594419  1
  O2-  O142  1  0.50164063  0.75122530  0.59838677  1
  O2-  O143  1  0.50720262  0.74812234  0.94104723  1
  O2-  O144  1  0.07063448  0.17860993  0.09512376  1
  O2-  O145  1  0.07282675  0.18157624  0.43385213  1
  O2-  O146  1  0.06687806  0.17782868  0.75776344  1
  O2-  O147  1  0.07081086  0.68054710  0.09791864  1
  O2-  O148  1  0.07314615  0.68237745  0.43303237  1
  O2-  O149  1  0.06751568  0.67342398  0.75633529  1
  O2-  O150  1  0.56688017  0.17751187  0.09272610  1
  O2-  O151  1  0.56863248  0.17607015  0.42165995  1
  O2-  O152  1  0.57554769  0.18260081  0.76492329  1
  O2-  O153  1  0.57145260  0.67741046  0.09095388  1
  O2-  O154  1  0.56954397  0.67706592  0.42240054  1
  O2-  O155  1  0.57186955  0.68075669  0.76506834  1
  O2-  O156  1  0.18353792  0.42446982  0.24321505  1
  O2-  O157  1  0.17800820  0.43206902  0.56643723  1
  O2-  O158  1  0.18187212  0.42823696  0.90129680  1
  O2-  O159  1  0.18194287  0.92926347  0.24142328  1
  O2-  O160  1  0.17295385  0.93134117  0.56657322  1
  O2-  O161  1  0.18347658  0.92760870  0.90295151  1
  O2-  O162  1  0.67402644  0.42770048  0.24661176  1
  O2-  O163  1  0.68545610  0.43031118  0.56506693  1
  O2-  O164  1  0.67365864  0.42815053  0.90205988  1
  O2-  O165  1  0.67548061  0.93472959  0.23357519  1
  O2-  O166  1  0.68352327  0.92869014  0.56782418  1
  O2-  O167  1  0.67478874  0.93145553  0.90993749  1
  O2-  O168  1  0.43043099  0.32119599  0.09268638  1
  O2-  O169  1  0.42821385  0.32101639  0.42115391  1
  O2-  O170  1  0.42720127  0.32000168  0.76529126  1
  O2-  O171  1  0.43131866  0.81942171  0.10023103  1
  O2-  O172  1  0.43096244  0.82474483  0.42308534  1
  O2-  O173  1  0.42852902  0.81847734  0.76246373  1
  O2-  O174  1  0.93065094  0.31752667  0.09803591  1
  O2-  O175  1  0.92489938  0.32000183  0.42321291  1
  O2-  O176  1  0.92889392  0.32445870  0.75497182  1
  O2-  O177  1  0.92625005  0.82212165  0.08795087  1
  O2-  O178  1  0.92905027  0.81980052  0.43210210  1
  O2-  O179  1  0.93010561  0.82418949  0.75793617  1
  O2-  O180  1  0.32561752  0.07157297  0.24288937  1
  O2-  O181  1  0.31506200  0.07221411  0.56739264  1
  O2-  O182  1  0.32675762  0.07059004  0.91402654  1
  O2-  O183  1  0.32369743  0.57011752  0.23465978  1
  O2-  O184  1  0.31970472  0.57240930  0.57780010  1
  O2-  O185  1  0.32106259  0.57028386  0.90922463  1
  O2-  O186  1  0.82059946  0.07334653  0.24536381  1
  O2-  O187  1  0.82718415  0.07177671  0.57572854  1
  O2-  O188  1  0.81615557  0.06935040  0.90043899  1
  O2-  O189  1  0.81999665  0.56847360  0.23627937  1
  O2-  O190  1  0.82532209  0.57149739  0.57795410  1
  O2-  O191  1  0.81820125  0.57060645  0.90139464  1
  O2-  O192  1  0.04234245  0.08438517  0.26488482  1
  O2-  O193  1  0.04019452  0.08776030  0.60442640  1
  O2-  O194  1  0.04227108  0.07720517  0.93151374  1
  O2-  O195  1  0.04708857  0.57714659  0.27082994  1
  O2-  O196  1  0.03899693  0.58744558  0.60092149  1
  O2-  O197  1  0.03891415  0.58235419  0.93091016  1
  O2-  O198  1  0.53664754  0.08854630  0.26767596  1
  O2-  O199  1  0.54443247  0.08132902  0.59796579  1
  O2-  O200  1  0.53986524  0.09000492  0.93767205  1
  O2-  O201  1  0.54056945  0.58606822  0.27046799  1
  O2-  O202  1  0.54658197  0.58230285  0.59580900  1
  O2-  O203  1  0.54434274  0.58393683  0.93920601  1
  O2-  O204  1  0.16848303  0.20933290  0.26382223  1
  O2-  O205  1  0.16112867  0.20720081  0.60648485  1
  O2-  O206  1  0.17419876  0.20189836  0.93317279  1
  O2-  O207  1  0.17141572  0.70828255  0.26632241  1
  O2-  O208  1  0.16342182  0.70019462  0.60568421  1
  O2-  O209  1  0.16445863  0.71097953  0.92975346  1
  O2-  O210  1  0.66393444  0.20122234  0.27081723  1
  O2-  O211  1  0.67168910  0.20820951  0.59533697  1
  O2-  O212  1  0.66387899  0.20254496  0.94226566  1
  O2-  O213  1  0.66127344  0.70625797  0.27065453  1
  O2-  O214  1  0.67359995  0.70896012  0.60084987  1
  O2-  O215  1  0.66764954  0.69860371  0.93941929  1
  O2-  O216  1  0.08266789  0.45623427  0.06714178  1
  O2-  O217  1  0.08391005  0.44356080  0.39304607  1
  O2-  O218  1  0.08389232  0.46330298  0.73432443  1
  O2-  O219  1  0.08333013  0.95560526  0.06970679  1
  O2-  O220  1  0.08562655  0.95728776  0.39147498  1
  O2-  O221  1  0.08014302  0.95802976  0.73566621  1
  O2-  O222  1  0.57824532  0.45661829  0.07085278  1
  O2-  O223  1  0.58267923  0.45350283  0.39731253  1
  O2-  O224  1  0.58146513  0.45727217  0.72993234  1
  O2-  O225  1  0.58356066  0.95963809  0.06210074  1
  O2-  O226  1  0.58339114  0.96529319  0.40156981  1
  O2-  O227  1  0.58253133  0.95725275  0.73358516  1
  O2-  O228  1  0.21273063  0.33128182  0.06895591  1
  O2-  O229  1  0.21255315  0.33441546  0.39505039  1
  O2-  O230  1  0.20730385  0.33377061  0.73459667  1
  O2-  O231  1  0.21566549  0.83224553  0.06910235  1
  O2-  O232  1  0.20775536  0.83988792  0.39502461  1
  O2-  O233  1  0.20181812  0.82670834  0.73137271  1
  O2-  O234  1  0.70358472  0.32982562  0.07011844  1
  O2-  O235  1  0.69891929  0.33082326  0.39541002  1
  O2-  O236  1  0.71229137  0.33383269  0.73131153  1
  O2-  O237  1  0.69467590  0.83281751  0.05965141  1
  O2-  O238  1  0.70564178  0.83319988  0.40104378  1
  O2-  O239  1  0.71445275  0.83543333  0.73764258  1
  O2-  O240  1  0.45702919  0.41437779  0.26916551  1
  O2-  O241  1  0.45371544  0.42005668  0.59750361  1
  O2-  O242  1  0.45252597  0.41584130  0.94055831  1
  O2-  O243  1  0.45954817  0.91391761  0.27009235  1
  O2-  O244  1  0.45394245  0.92113746  0.59822844  1
  O2-  O245  1  0.45859065  0.91770695  0.93200116  1
  O2-  O246  1  0.95011641  0.41572850  0.27254683  1
  O2-  O247  1  0.96054630  0.41399375  0.60175960  1
  O2-  O248  1  0.95423795  0.41842121  0.93129703  1
  O2-  O249  1  0.95201073  0.91917848  0.26608863  1
  O2-  O250  1  0.95734983  0.91437167  0.60358219  1
  O2-  O251  1  0.95283384  0.91542382  0.93682054  1
  O2-  O252  1  0.34072084  0.29139912  0.26645394  1
  O2-  O253  1  0.32834628  0.29095686  0.59721902  1
  O2-  O254  1  0.33914979  0.29185359  0.93968770  1
  O2-  O255  1  0.33769646  0.79493254  0.27229168  1
  O2-  O256  1  0.32873104  0.79230809  0.59596854  1
  O2-  O257  1  0.33561020  0.78821758  0.93033454  1
  O2-  O258  1  0.83144549  0.29652413  0.27125384  1
  O2-  O259  1  0.83953182  0.29645579  0.59968320  1
  O2-  O260  1  0.82932300  0.28761438  0.93437790  1
  O2-  O261  1  0.82685830  0.79230258  0.26634988  1
  O2-  O262  1  0.83947311  0.79399594  0.60524669  1
  O2-  O263  1  0.82990060  0.79970107  0.93807643  1
  O2-  O264  1  0.41625924  0.04227702  0.06678169  1
  O2-  O265  1  0.41170309  0.04233006  0.39687243  1
  O2-  O266  1  0.42083629  0.04798838  0.73321867  1
  O2-  O267  1  0.41355432  0.54812103  0.06256310  1
  O2-  O268  1  0.41562983  0.53892646  0.40329373  1
  O2-  O269  1  0.41815074  0.54990747  0.72720294  1
  O2-  O270  1  0.91695845  0.04064533  0.06862469  1
  O2-  O271  1  0.91814510  0.04890577  0.39543398  1
  O2-  O272  1  0.91399699  0.04406294  0.73044915  1
  O2-  O273  1  0.91867658  0.54122922  0.06842124  1
  O2-  O274  1  0.91801489  0.53929214  0.40500683  1
  O2-  O275  1  0.91570320  0.54307577  0.72917599  1
  O2-  O276  1  0.30166467  0.16548144  0.06566483  1
  O2-  O277  1  0.29547504  0.16533021  0.39343694  1
  O2-  O278  1  0.29136993  0.16800416  0.73600730  1
  O2-  O279  1  0.29329866  0.66559177  0.06026227  1
  O2-  O280  1  0.29230227  0.66917956  0.40374871  1
  O2-  O281  1  0.29618713  0.66536492  0.72938693  1
  O2-  O282  1  0.78739767  0.16241643  0.07253462  1
  O2-  O283  1  0.79666643  0.16613971  0.39687807  1
  O2-  O284  1  0.80168547  0.16931988  0.72514949  1
  O2-  O285  1  0.79384550  0.67040068  0.06979752  1
  O2-  O286  1  0.78919715  0.66513547  0.40293108  1
  O2-  O287  1  0.80293827  0.66732130  0.72958700  1
