# generated using pymatgen
data_Ca2Al2SiO7
_symmetry_space_group_name_H-M   'P 1'
_cell_length_a   15.45542457
_cell_length_b   15.45581870
_cell_length_c   15.28164017
_cell_angle_alpha   90.00526918
_cell_angle_beta   90.00305175
_cell_angle_gamma   89.98754906
_symmetry_Int_Tables_number   1
_chemical_formula_structural   Ca2Al2SiO7
_chemical_formula_sum   'Ca48 Al48 Si24 O168'
_cell_volume   3650.42064189
_cell_formula_units_Z   24
loop_
 _symmetry_equiv_pos_site_id
 _symmetry_equiv_pos_as_xyz
  1  'x, y, z'
loop_
 _atom_type_symbol
 _atom_type_oxidation_number
  Ca2+  2.0
  Al0+  0.0
  Si0+  0.0
  O2-  -2.0
loop_
 _atom_site_type_symbol
 _atom_site_label
 _atom_site_symmetry_multiplicity
 _atom_site_fract_x
 _atom_site_fract_y
 _atom_site_fract_z
 _atom_site_occupancy
  Ca2+  Ca0  1  0.16362346  0.07986203  0.16965583  1
  Ca2+  Ca1  1  0.17179310  0.08183619  0.50977006  1
  Ca2+  Ca2  1  0.17799827  0.07230969  0.83279061  1
  Ca2+  Ca3  1  0.16971920  0.57607090  0.17381149  1
  Ca2+  Ca4  1  0.16808424  0.56937944  0.50529950  1
  Ca2+  Ca5  1  0.16695188  0.58014169  0.83599977  1
  Ca2+  Ca6  1  0.66916497  0.08545268  0.17330734  1
  Ca2+  Ca7  1  0.67906702  0.09049574  0.50330832  1
  Ca2+  Ca8  1  0.67128576  0.08618737  0.83819283  1
  Ca2+  Ca9  1  0.66604762  0.58559752  0.16609234  1
  Ca2+  Ca10  1  0.66027211  0.58197461  0.50555796  1
  Ca2+  Ca11  1  0.66179390  0.57639274  0.83972319  1
  Ca2+  Ca12  1  0.08057857  0.32826781  0.16406173  1
  Ca2+  Ca13  1  0.08822817  0.32714843  0.49157449  1
  Ca2+  Ca14  1  0.07541085  0.33771518  0.82849954  1
  Ca2+  Ca15  1  0.07211221  0.83836680  0.16015026  1
  Ca2+  Ca16  1  0.07432642  0.84440626  0.50023763  1
  Ca2+  Ca17  1  0.07728937  0.84219619  0.82965016  1
  Ca2+  Ca18  1  0.58928057  0.32260626  0.16260283  1
  Ca2+  Ca19  1  0.57310489  0.33105826  0.49592969  1
  Ca2+  Ca20  1  0.58590554  0.33236372  0.82806235  1
  Ca2+  Ca21  1  0.58052266  0.82203323  0.15730433  1
  Ca2+  Ca22  1  0.58213304  0.82396646  0.49816236  1
  Ca2+  Ca23  1  0.57683375  0.82120422  0.82663412  1
  Ca2+  Ca24  1  0.33052712  0.41387958  0.17460628  1
  Ca2+  Ca25  1  0.32737673  0.40646770  0.50631519  1
  Ca2+  Ca26  1  0.33085684  0.41234710  0.83119008  1
  Ca2+  Ca27  1  0.32935424  0.91190285  0.16710636  1
  Ca2+  Ca28  1  0.32950951  0.92485184  0.51461050  1
  Ca2+  Ca29  1  0.32858712  0.90680912  0.83871422  1
  Ca2+  Ca30  1  0.83091502  0.41935456  0.16346915  1
  Ca2+  Ca31  1  0.82198883  0.42025612  0.50963324  1
  Ca2+  Ca32  1  0.82176359  0.42243479  0.84468326  1
  Ca2+  Ca33  1  0.83430971  0.91823019  0.17375615  1
  Ca2+  Ca34  1  0.83910571  0.92529004  0.50457514  1
  Ca2+  Ca35  1  0.83873655  0.91934347  0.83448670  1
  Ca2+  Ca36  1  0.42690881  0.17232031  0.16479795  1
  Ca2+  Ca37  1  0.41465320  0.17488865  0.49522679  1
  Ca2+  Ca38  1  0.42200079  0.16888127  0.82779554  1
  Ca2+  Ca39  1  0.42803898  0.66840382  0.15972222  1
  Ca2+  Ca40  1  0.42596378  0.66806603  0.49998884  1
  Ca2+  Ca41  1  0.42399729  0.67316841  0.82824725  1
  Ca2+  Ca42  1  0.91895235  0.16950504  0.16500134  1
  Ca2+  Ca43  1  0.92188492  0.16148075  0.49352254  1
  Ca2+  Ca44  1  0.91461028  0.17170418  0.83085858  1
  Ca2+  Ca45  1  0.91336878  0.67648426  0.15890933  1
  Ca2+  Ca46  1  0.91595394  0.68079715  0.49688464  1
  Ca2+  Ca47  1  0.91034523  0.67690926  0.83103539  1
  Al0+  Al48  1  0.00256146  0.00075352  -0.00010324  1
  Al0+  Al49  1  -0.00102785  0.00163582  0.32846842  1
  Al0+  Al50  1  0.00116356  0.00232217  0.67198939  1
  Al0+  Al51  1  -0.00145962  0.49985002  0.00135043  1
  Al0+  Al52  1  -0.00041098  0.50136742  0.33987786  1
  Al0+  Al53  1  -0.00174252  0.50146355  0.66897383  1
  Al0+  Al54  1  0.50007071  0.00214470  -0.00587616  1
  Al0+  Al55  1  0.49939710  -0.00078870  0.33214391  1
  Al0+  Al56  1  0.50414057  0.00064223  0.66530919  1
  Al0+  Al57  1  0.49835184  0.49696118  0.00275646  1
  Al0+  Al58  1  0.49878662  0.50200106  0.32634420  1
  Al0+  Al59  1  0.49830791  0.49733008  0.66302579  1
  Al0+  Al60  1  0.25099590  0.24661405  0.00099944  1
  Al0+  Al61  1  0.24864046  0.24784763  0.32688496  1
  Al0+  Al62  1  0.24909867  0.24797919  0.67456725  1
  Al0+  Al63  1  0.24779117  0.74860571  0.00507050  1
  Al0+  Al64  1  0.24826939  0.74803126  0.33748050  1
  Al0+  Al65  1  0.24881383  0.74777189  0.66518390  1
  Al0+  Al66  1  0.75155956  0.25083725  -0.00307878  1
  Al0+  Al67  1  0.75073041  0.25123667  0.33622501  1
  Al0+  Al68  1  0.75113957  0.25209649  0.67402323  1
  Al0+  Al69  1  0.75055890  0.75072701  -0.00524374  1
  Al0+  Al70  1  0.74924709  0.75083191  0.32695598  1
  Al0+  Al71  1  0.75199788  0.75199299  0.65718552  1
  Al0+  Al72  1  0.81992634  0.07068433  0.34568796  1
  Al0+  Al73  1  0.67754104  0.43173749  0.67924257  1
  Al0+  Al74  1  0.93283552  0.82260690  0.65196846  1
  Al0+  Al75  1  0.32535219  0.07106002  0.68136070  1
  Al0+  Al76  1  0.42801876  0.32011449  0.31784993  1
  Al0+  Al77  1  0.82043211  0.57326853  0.01540727  1
  Al0+  Al78  1  0.67750435  0.42805039  0.01753293  1
  Al0+  Al79  1  0.18043711  0.92894413  0.01645359  1
  Al0+  Al80  1  0.57016919  0.67825186  0.65100247  1
  Al0+  Al81  1  0.57216556  0.18038420  0.98502309  1
  Al0+  Al82  1  0.57366689  0.17889084  0.32010903  1
  Al0+  Al83  1  0.93000406  0.82197806  0.98518272  1
  Al0+  Al84  1  0.57131067  0.67681931  0.98366796  1
  Al0+  Al85  1  0.56987055  0.68050468  0.31709233  1
  Al0+  Al86  1  0.93201537  0.82056141  0.31881379  1
  Al0+  Al87  1  0.42667927  0.82323448  0.65089784  1
  Al0+  Al88  1  0.18114782  0.92754870  0.68106289  1
  Al0+  Al89  1  0.17757588  0.42757718  0.68147605  1
  Al0+  Al90  1  0.42698685  0.82024685  0.98678210  1
  Al0+  Al91  1  0.93137311  0.32101343  0.98664025  1
  Al0+  Al92  1  0.06989398  0.17978560  0.32035779  1
  Al0+  Al93  1  0.42847997  0.31668083  0.65450227  1
  Al0+  Al94  1  0.18032264  0.42780584  0.34610946  1
  Al0+  Al95  1  0.82118665  0.07067302  0.68229237  1
  Si0+  Si96  1  0.57664157  0.17831304  0.65013637  1
  Si0+  Si97  1  0.06802971  0.18286943  0.65405821  1
  Si0+  Si98  1  0.92716162  0.32551726  0.31949946  1
  Si0+  Si99  1  0.07247516  0.67437252  0.64846698  1
  Si0+  Si100  1  0.92734045  0.32348460  0.65178304  1
  Si0+  Si101  1  0.32097824  0.56999472  0.68327667  1
  Si0+  Si102  1  0.67826826  0.93030814  0.01264781  1
  Si0+  Si103  1  0.17792708  0.42712242  0.01530799  1
  Si0+  Si104  1  0.32425641  0.07216888  0.02027031  1
  Si0+  Si105  1  0.67718932  0.92651561  0.34901595  1
  Si0+  Si106  1  0.82011419  0.57391003  0.34967076  1
  Si0+  Si107  1  0.67871473  0.43019161  0.34851964  1
  Si0+  Si108  1  0.07158928  0.67676605  0.98495148  1
  Si0+  Si109  1  0.32130609  0.06922596  0.34680144  1
  Si0+  Si110  1  0.07203927  0.67582530  0.31756413  1
  Si0+  Si111  1  0.17806982  0.92904890  0.34773670  1
  Si0+  Si112  1  0.32316627  0.57195948  0.35175228  1
  Si0+  Si113  1  0.67997381  0.92603799  0.68295766  1
  Si0+  Si114  1  0.42455258  0.82274977  0.31774984  1
  Si0+  Si115  1  0.82141426  0.07082538  0.01543832  1
  Si0+  Si116  1  0.82109509  0.57481150  0.68184928  1
  Si0+  Si117  1  0.42576596  0.32085560  0.98259808  1
  Si0+  Si118  1  0.31952912  0.56992839  0.01584125  1
  Si0+  Si119  1  0.07355171  0.17776379  0.98031572  1
  O2-  O120  1  0.25667013  0.00179966  0.06420421  1
  O2-  O121  1  0.25385030  -0.00526847  0.38917158  1
  O2-  O122  1  0.26271045  -0.01040290  0.73027627  1
  O2-  O123  1  0.25009446  0.49642362  0.05760586  1
  O2-  O124  1  0.25620953  0.50049271  0.39454037  1
  O2-  O125  1  0.24997937  0.50386799  0.72890507  1
  O2-  O126  1  0.75051590  -0.00038905  0.05712749  1
  O2-  O127  1  0.74275962  -0.00133015  0.39317265  1
  O2-  O128  1  0.74505179  -0.00236462  0.72877025  1
  O2-  O129  1  0.74688919  0.50332253  0.06733036  1
  O2-  O130  1  0.74919252  0.50219702  0.39117271  1
  O2-  O131  1  0.75052191  0.50830710  0.72511967  1
  O2-  O132  1  -0.00344670  0.25704577  0.27592051  1
  O2-  O133  1  -0.00037187  0.25490374  0.60858741  1
  O2-  O134  1  0.00743169  0.24909414  0.93700684  1
  O2-  O135  1  0.00597565  0.74550438  0.27170506  1
  O2-  O136  1  0.00789315  0.74780074  0.60518722  1
  O2-  O137  1  0.00335127  0.74517479  0.93998357  1
  O2-  O138  1  0.50361465  0.25182312  0.26836560  1
  O2-  O139  1  0.50191425  0.24092387  0.60698149  1
  O2-  O140  1  0.49806207  0.25606735  0.93939637  1
  O2-  O141  1  0.49406791  0.75550050  0.27313888  1
  O2-  O142  1  0.49951559  0.75210501  0.60074351  1
  O2-  O143  1  0.49925325  0.74963116  0.93601162  1
  O2-  O144  1  0.07251788  0.17830563  0.08637711  1
  O2-  O145  1  0.07022924  0.17883235  0.43383412  1
  O2-  O146  1  0.06558555  0.18467227  0.75889407  1
  O2-  O147  1  0.07162585  0.67659912  0.09082318  1
  O2-  O148  1  0.07038983  0.67420794  0.42293307  1
  O2-  O149  1  0.07002665  0.66951729  0.75379807  1
  O2-  O150  1  0.57205288  0.17963786  0.09824334  1
  O2-  O151  1  0.57445468  0.18152384  0.43348474  1
  O2-  O152  1  0.57906810  0.18239702  0.75569280  1
  O2-  O153  1  0.56954813  0.68011992  0.09754707  1
  O2-  O154  1  0.56973165  0.68026684  0.42997849  1
  O2-  O155  1  0.56902454  0.67753603  0.76408991  1
  O2-  O156  1  0.17993054  0.43073278  0.23260246  1
  O2-  O157  1  0.17868500  0.42631819  0.56824165  1
  O2-  O158  1  0.17794005  0.42868456  0.91022939  1
  O2-  O159  1  0.17831493  0.93011892  0.24256279  1
  O2-  O160  1  0.17684442  0.93521960  0.56692004  1
  O2-  O161  1  0.18024965  0.93048191  0.90382373  1
  O2-  O162  1  0.68196082  0.42841562  0.24383425  1
  O2-  O163  1  0.67986522  0.43083422  0.56533019  1
  O2-  O164  1  0.67929352  0.42804861  0.90392659  1
  O2-  O165  1  0.67937449  0.92573229  0.24308177  1
  O2-  O166  1  0.68281398  0.92560082  0.57708460  1
  O2-  O167  1  0.67926546  0.93236735  0.90774878  1
  O2-  O168  1  0.42189322  0.31808613  0.08807293  1
  O2-  O169  1  0.42632840  0.31707397  0.43155457  1
  O2-  O170  1  0.42923135  0.31681312  0.76748782  1
  O2-  O171  1  0.42848988  0.81767629  0.10101395  1
  O2-  O172  1  0.42425222  0.82249879  0.42300809  1
  O2-  O173  1  0.42708761  0.81790194  0.76418681  1
  O2-  O174  1  0.93349441  0.31888932  0.10020388  1
  O2-  O175  1  0.92716871  0.32538993  0.42536454  1
  O2-  O176  1  0.92849029  0.32259312  0.75674125  1
  O2-  O177  1  0.93172239  0.82299269  0.09848798  1
  O2-  O178  1  0.93430084  0.82192909  0.43189884  1
  O2-  O179  1  0.93346601  0.82164981  0.76485071  1
  O2-  O180  1  0.32105032  0.06828918  0.24174862  1
  O2-  O181  1  0.31769134  0.07501689  0.56712962  1
  O2-  O182  1  0.32229160  0.07594386  0.91517055  1
  O2-  O183  1  0.31991361  0.57442087  0.24596754  1
  O2-  O184  1  0.32015090  0.56792455  0.57755593  1
  O2-  O185  1  0.31756570  0.57082438  0.91092569  1
  O2-  O186  1  0.82091857  0.06910327  0.23245118  1
  O2-  O187  1  0.82281036  0.07081650  0.56888428  1
  O2-  O188  1  0.82124947  0.07025782  0.91025606  1
  O2-  O189  1  0.82164323  0.57413821  0.24494753  1
  O2-  O190  1  0.82297122  0.57182262  0.57563108  1
  O2-  O191  1  0.82207145  0.57113261  0.90193002  1
  O2-  O192  1  0.03621771  0.08643806  0.26215007  1
  O2-  O193  1  0.03815172  0.09187305  0.60655372  1
  O2-  O194  1  0.04424298  0.08592456  0.93431519  1
  O2-  O195  1  0.04509137  0.58235595  0.27156596  1
  O2-  O196  1  0.04110398  0.58282334  0.59952685  1
  O2-  O197  1  0.04811492  0.58286288  0.93869647  1
  O2-  O198  1  0.54597484  0.07943411  0.26810609  1
  O2-  O199  1  0.56208340  0.08188521  0.60656680  1
  O2-  O200  1  0.54223038  0.08500892  0.92874184  1
  O2-  O201  1  0.53987804  0.58497736  0.26113259  1
  O2-  O202  1  0.53813374  0.58115903  0.59687198  1
  O2-  O203  1  0.54081349  0.57710520  0.93549271  1
  O2-  O204  1  0.16404649  0.20851321  0.26121833  1
  O2-  O205  1  0.16069002  0.20926310  0.60797428  1
  O2-  O206  1  0.16854284  0.20078948  0.93659157  1
  O2-  O207  1  0.16725973  0.69862047  0.27312241  1
  O2-  O208  1  0.16742131  0.69333698  0.60298221  1
  O2-  O209  1  0.16514385  0.70186370  0.93945193  1
  O2-  O210  1  0.67238292  0.20806900  0.26706043  1
  O2-  O211  1  0.66843333  0.21190564  0.60418660  1
  O2-  O212  1  0.66862079  0.20981294  0.93078567  1
  O2-  O213  1  0.66546419  0.71163671  0.26184575  1
  O2-  O214  1  0.66854367  0.70590527  0.59638566  1
  O2-  O215  1  0.66904069  0.70503349  0.93094896  1
  O2-  O216  1  0.08709367  0.45536113  0.06379195  1
  O2-  O217  1  0.08389742  0.45815692  0.40223189  1
  O2-  O218  1  0.08008339  0.45863677  0.73442585  1
  O2-  O219  1  0.08465245  0.96494792  0.07056191  1
  O2-  O220  1  0.08796250  0.96334443  0.39369670  1
  O2-  O221  1  0.08755002  0.96712417  0.73636029  1
  O2-  O222  1  0.57684310  0.44952330  0.06953978  1
  O2-  O223  1  0.58520816  0.45895834  0.39199235  1
  O2-  O224  1  0.57998861  0.45854608  0.73261472  1
  O2-  O225  1  0.58657790  0.95886015  0.06039895  1
  O2-  O226  1  0.58158464  0.94683084  0.39358802  1
  O2-  O227  1  0.58502379  0.94662222  0.72781076  1
  O2-  O228  1  0.20485861  0.33380402  0.06088150  1
  O2-  O229  1  0.20967143  0.32924801  0.39739288  1
  O2-  O230  1  0.20863926  0.33353410  0.73907186  1
  O2-  O231  1  0.20638311  0.83135348  0.07228780  1
  O2-  O232  1  0.19766690  0.83460042  0.39418518  1
  O2-  O233  1  0.19656841  0.82465852  0.73013052  1
  O2-  O234  1  0.71416169  0.33073949  0.06920820  1
  O2-  O235  1  0.70701441  0.33957634  0.39817562  1
  O2-  O236  1  0.71165102  0.33773576  0.73572999  1
  O2-  O237  1  0.70570386  0.83803062  0.05933247  1
  O2-  O238  1  0.70749075  0.83423784  0.39528776  1
  O2-  O239  1  0.71062588  0.83342644  0.72814880  1
  O2-  O240  1  0.44950779  0.42035153  0.26669372  1
  O2-  O241  1  0.45741267  0.41240915  0.59828659  1
  O2-  O242  1  0.44534080  0.41641113  0.93932083  1
  O2-  O243  1  0.44698886  0.91686245  0.27152401  1
  O2-  O244  1  0.45465222  0.92287484  0.59898607  1
  O2-  O245  1  0.45079517  0.91976727  0.93556988  1
  O2-  O246  1  0.95306181  0.41933867  0.27422682  1
  O2-  O247  1  0.95145565  0.41670629  0.60529586  1
  O2-  O248  1  0.96098743  0.41772765  0.93218775  1
  O2-  O249  1  0.96354497  0.91567490  0.26315252  1
  O2-  O250  1  0.96587017  0.92018873  0.59998000  1
  O2-  O251  1  0.96380487  0.91835717  0.93245917  1
  O2-  O252  1  0.33230240  0.28772619  0.26194463  1
  O2-  O253  1  0.33017361  0.28529651  0.60297196  1
  O2-  O254  1  0.33296778  0.29166050  0.93579252  1
  O2-  O255  1  0.32998431  0.79563181  0.27338386  1
  O2-  O256  1  0.32728873  0.79526876  0.59846229  1
  O2-  O257  1  0.32804861  0.78866424  0.93706784  1
  O2-  O258  1  0.83474863  0.29845223  0.27293521  1
  O2-  O259  1  0.83592504  0.29344240  0.60511552  1
  O2-  O260  1  0.83684546  0.28816010  0.93095667  1
  O2-  O261  1  0.83535725  0.79096478  0.26523847  1
  O2-  O262  1  0.83777350  0.79311193  0.59434339  1
  O2-  O263  1  0.83361389  0.79482862  0.92992582  1
  O2-  O264  1  0.41904619  0.04819175  0.06465205  1
  O2-  O265  1  0.41413938  0.04640773  0.39524126  1
  O2-  O266  1  0.42870622  0.05624440  0.72844135  1
  O2-  O267  1  0.41074849  0.54281082  0.06489797  1
  O2-  O268  1  0.41812042  0.54875170  0.39552432  1
  O2-  O269  1  0.41266629  0.53997579  0.72969024  1
  O2-  O270  1  0.91411750  0.04395515  0.06144582  1
  O2-  O271  1  0.91649995  0.03676578  0.39920308  1
  O2-  O272  1  0.91609435  0.03924899  0.73847597  1
  O2-  O273  1  0.91876759  0.54245953  0.06971090  1
  O2-  O274  1  0.91160356  0.54788810  0.39921876  1
  O2-  O275  1  0.91372925  0.54870881  0.72907435  1
  O2-  O276  1  0.29461739  0.16461825  0.06823633  1
  O2-  O277  1  0.28829582  0.15997812  0.39261627  1
  O2-  O278  1  0.28561347  0.16280232  0.74000210  1
  O2-  O279  1  0.28928338  0.65907536  0.06741328  1
  O2-  O280  1  0.29477402  0.66417457  0.40050782  1
  O2-  O281  1  0.29666593  0.66378315  0.72932095  1
  O2-  O282  1  0.79358410  0.16268980  0.06182645  1
  O2-  O283  1  0.79417629  0.16856311  0.40146646  1
  O2-  O284  1  0.79209458  0.16729121  0.73728111  1
  O2-  O285  1  0.79406101  0.67352850  0.06692014  1
  O2-  O286  1  0.79022041  0.66577341  0.39601636  1
  O2-  O287  1  0.79837876  0.67034079  0.72414461  1
