# generated using pymatgen
data_Ca2Al2SiO7
_symmetry_space_group_name_H-M   'P 1'
_cell_length_a   15.47571477
_cell_length_b   15.47178400
_cell_length_c   15.29619814
_cell_angle_alpha   90.00448264
_cell_angle_beta   89.98878964
_cell_angle_gamma   90.00740630
_symmetry_Int_Tables_number   1
_chemical_formula_structural   Ca2Al2SiO7
_chemical_formula_sum   'Ca48 Al48 Si24 O168'
_cell_volume   3662.47440001
_cell_formula_units_Z   24
loop_
 _symmetry_equiv_pos_site_id
 _symmetry_equiv_pos_as_xyz
  1  'x, y, z'
loop_
 _atom_type_symbol
 _atom_type_oxidation_number
  Ca2+  2.0
  Al0+  0.0
  Si0+  0.0
  O2-  -2.0
loop_
 _atom_site_type_symbol
 _atom_site_label
 _atom_site_symmetry_multiplicity
 _atom_site_fract_x
 _atom_site_fract_y
 _atom_site_fract_z
 _atom_site_occupancy
  Ca2+  Ca0  1  0.16453441  0.07024895  0.17315085  1
  Ca2+  Ca1  1  0.16256826  0.07951247  0.50092511  1
  Ca2+  Ca2  1  0.15484813  0.07603067  0.83510839  1
  Ca2+  Ca3  1  0.17033791  0.57375399  0.17574398  1
  Ca2+  Ca4  1  0.16765334  0.57685284  0.50818473  1
  Ca2+  Ca5  1  0.16609047  0.57347820  0.83753390  1
  Ca2+  Ca6  1  0.67523331  0.08460425  0.16731546  1
  Ca2+  Ca7  1  0.67495305  0.07856876  0.50775221  1
  Ca2+  Ca8  1  0.68031283  0.08301706  0.83611568  1
  Ca2+  Ca9  1  0.67607018  0.58602546  0.16517741  1
  Ca2+  Ca10  1  0.67402949  0.58657326  0.50942642  1
  Ca2+  Ca11  1  0.67741704  0.58766354  0.83187066  1
  Ca2+  Ca12  1  0.08610179  0.33377380  0.16156850  1
  Ca2+  Ca13  1  0.08747764  0.33447213  0.50071769  1
  Ca2+  Ca14  1  0.07915829  0.33272662  0.82551560  1
  Ca2+  Ca15  1  0.08287845  0.83285408  0.16447795  1
  Ca2+  Ca16  1  0.07819863  0.82171934  0.49538152  1
  Ca2+  Ca17  1  0.07799876  0.82595957  0.82803918  1
  Ca2+  Ca18  1  0.57464245  0.33448771  0.16438813  1
  Ca2+  Ca19  1  0.56664436  0.33835619  0.49603863  1
  Ca2+  Ca20  1  0.57500194  0.33646007  0.82608970  1
  Ca2+  Ca21  1  0.57647684  0.83324740  0.16364383  1
  Ca2+  Ca22  1  0.58175529  0.82699204  0.50063059  1
  Ca2+  Ca23  1  0.57673550  0.82656849  0.82673280  1
  Ca2+  Ca24  1  0.32282580  0.42207801  0.17358661  1
  Ca2+  Ca25  1  0.32460436  0.42037532  0.50491856  1
  Ca2+  Ca26  1  0.32264545  0.42184119  0.83371026  1
  Ca2+  Ca27  1  0.31701198  0.91965933  0.17419600  1
  Ca2+  Ca28  1  0.32686184  0.91986170  0.49963847  1
  Ca2+  Ca29  1  0.32343347  0.91870086  0.84030898  1
  Ca2+  Ca30  1  0.84170568  0.42475498  0.16478550  1
  Ca2+  Ca31  1  0.83198856  0.42135694  0.51099444  1
  Ca2+  Ca32  1  0.84860275  0.42997779  0.83494086  1
  Ca2+  Ca33  1  0.84335832  0.91884550  0.16843033  1
  Ca2+  Ca34  1  0.84366684  0.91727163  0.50753649  1
  Ca2+  Ca35  1  0.84916903  0.92746308  0.83634833  1
  Ca2+  Ca36  1  0.40652197  0.17120231  0.16838549  1
  Ca2+  Ca37  1  0.40627010  0.17943902  0.49379552  1
  Ca2+  Ca38  1  0.41853030  0.17484993  0.82282032  1
  Ca2+  Ca39  1  0.41432677  0.65571706  0.16352583  1
  Ca2+  Ca40  1  0.42209947  0.65039766  0.49850237  1
  Ca2+  Ca41  1  0.42021212  0.65481089  0.82660434  1
  Ca2+  Ca42  1  0.91729706  0.17470611  0.15635410  1
  Ca2+  Ca43  1  0.92145694  0.16867660  0.50520123  1
  Ca2+  Ca44  1  0.91733694  0.17620973  0.82579435  1
  Ca2+  Ca45  1  0.92551709  0.67588090  0.16155075  1
  Ca2+  Ca46  1  0.92985956  0.66669835  0.49696349  1
  Ca2+  Ca47  1  0.91753567  0.67437690  0.82307827  1
  Al0+  Al48  1  -0.00013129  0.00070590  0.00697757  1
  Al0+  Al49  1  -0.00050710  0.00180728  0.33509228  1
  Al0+  Al50  1  -0.00000257  0.00220439  0.66436942  1
  Al0+  Al51  1  0.00054545  0.50088723  0.00673768  1
  Al0+  Al52  1  -0.00057194  0.50120161  0.33292114  1
  Al0+  Al53  1  -0.00099540  0.50006998  0.66758782  1
  Al0+  Al54  1  0.50213795  -0.00021592  -0.00217610  1
  Al0+  Al55  1  0.50428110  0.00009749  0.33616229  1
  Al0+  Al56  1  0.50041783  -0.00077055  0.66748854  1
  Al0+  Al57  1  0.50183817  0.49884181  0.00084935  1
  Al0+  Al58  1  0.50127392  0.49674028  0.32719499  1
  Al0+  Al59  1  0.50068398  0.49956948  0.66132312  1
  Al0+  Al60  1  0.25085984  0.25001376  -0.00058505  1
  Al0+  Al61  1  0.24907561  0.25101977  0.33247148  1
  Al0+  Al62  1  0.25012710  0.24945009  0.66334325  1
  Al0+  Al63  1  0.25137122  0.75153026  0.00642893  1
  Al0+  Al64  1  0.25287795  0.74965010  0.33793996  1
  Al0+  Al65  1  0.25119761  0.75202971  0.66770783  1
  Al0+  Al66  1  0.74909871  0.24988369  -0.00040536  1
  Al0+  Al67  1  0.74890512  0.24915541  0.33342237  1
  Al0+  Al68  1  0.74866123  0.24776250  0.66712586  1
  Al0+  Al69  1  0.74811568  0.75112267  0.00028801  1
  Al0+  Al70  1  0.74894882  0.75107941  0.32867828  1
  Al0+  Al71  1  0.74500907  0.75149237  0.66361644  1
  Al0+  Al72  1  0.17629587  0.92782216  0.35239182  1
  Al0+  Al73  1  0.17902195  0.93075914  0.01287795  1
  Al0+  Al74  1  0.92927420  0.82104428  0.98577656  1
  Al0+  Al75  1  0.42863035  0.31893794  0.31582561  1
  Al0+  Al76  1  0.92881698  0.82128258  0.65419777  1
  Al0+  Al77  1  0.17792762  0.42756006  0.68270089  1
  Al0+  Al78  1  0.17796934  0.42755021  0.01594595  1
  Al0+  Al79  1  0.82042226  0.57183069  0.67775193  1
  Al0+  Al80  1  0.32130260  0.07022889  0.34765054  1
  Al0+  Al81  1  0.81971424  0.07068067  0.01446904  1
  Al0+  Al82  1  0.17639435  0.42991882  0.35044959  1
  Al0+  Al83  1  0.92917146  0.32272290  0.98730877  1
  Al0+  Al84  1  0.42994831  0.31990201  0.65259171  1
  Al0+  Al85  1  0.92954599  0.82128061  0.31737165  1
  Al0+  Al86  1  0.07109442  0.17956186  0.65132108  1
  Al0+  Al87  1  0.32276447  0.56953655  0.01445079  1
  Al0+  Al88  1  0.32221149  0.57158289  0.68130059  1
  Al0+  Al89  1  0.56779503  0.68016042  0.65317241  1
  Al0+  Al90  1  0.07454030  0.67775378  0.31711422  1
  Al0+  Al91  1  0.82129847  0.06935281  0.68104998  1
  Al0+  Al92  1  0.92735286  0.32234305  0.65203247  1
  Al0+  Al93  1  0.07309796  0.67752209  0.65447669  1
  Al0+  Al94  1  0.82081018  0.57343040  0.01368767  1
  Al0+  Al95  1  0.32414566  0.57026630  0.34919084  1
  Si0+  Si96  1  0.07200701  0.17850399  0.98573017  1
  Si0+  Si97  1  0.81808341  0.57177350  0.34746446  1
  Si0+  Si98  1  0.17908381  0.93046949  0.68214572  1
  Si0+  Si99  1  0.42811254  0.82214709  0.98623687  1
  Si0+  Si100  1  0.56969492  0.67882246  0.98464989  1
  Si0+  Si101  1  0.67744944  0.42799147  0.01649747  1
  Si0+  Si102  1  0.57020793  0.67847586  0.31546093  1
  Si0+  Si103  1  0.57408354  0.17708969  0.31499364  1
  Si0+  Si104  1  0.42982624  0.31984129  0.98351931  1
  Si0+  Si105  1  0.68055603  0.42765695  0.34677704  1
  Si0+  Si106  1  0.42684978  0.82538172  0.64946971  1
  Si0+  Si107  1  0.68004482  0.92744665  0.34919236  1
  Si0+  Si108  1  0.32605752  0.07184386  0.01378196  1
  Si0+  Si109  1  0.07393892  0.67920264  0.98516650  1
  Si0+  Si110  1  0.67574623  0.92847623  0.01779628  1
  Si0+  Si111  1  0.92522965  0.32048267  0.31840179  1
  Si0+  Si112  1  0.57196568  0.17773719  0.98320767  1
  Si0+  Si113  1  0.43137718  0.82425742  0.31889294  1
  Si0+  Si114  1  0.82009858  0.07210851  0.34928095  1
  Si0+  Si115  1  0.57153504  0.17562388  0.64920579  1
  Si0+  Si116  1  0.67787911  0.42768138  0.68129330  1
  Si0+  Si117  1  0.67552969  0.92804340  0.68540640  1
  Si0+  Si118  1  0.32241670  0.07088891  0.68126818  1
  Si0+  Si119  1  0.06952848  0.18044317  0.31723481  1
  O2-  O120  1  0.25540811  0.00551361  0.05692234  1
  O2-  O121  1  0.24983818  -0.00004816  0.40069769  1
  O2-  O122  1  0.25113930  0.00126714  0.72454050  1
  O2-  O123  1  0.24887836  0.50096935  0.06507282  1
  O2-  O124  1  0.24667107  0.50460365  0.39848052  1
  O2-  O125  1  0.24663188  0.50392385  0.73131195  1
  O2-  O126  1  0.74737274  -0.00620950  0.06229147  1
  O2-  O127  1  0.75440376  -0.00464334  0.38999182  1
  O2-  O128  1  0.74853153  -0.00759713  0.72829339  1
  O2-  O129  1  0.74945196  0.49392478  0.05970145  1
  O2-  O130  1  0.75036003  0.49810251  0.39027222  1
  O2-  O131  1  0.75066391  0.49173358  0.72527687  1
  O2-  O132  1  -0.00100595  0.25248521  0.27596070  1
  O2-  O133  1  0.00207800  0.25432503  0.60054122  1
  O2-  O134  1  0.00653414  0.25013476  0.94234484  1
  O2-  O135  1  0.00476919  0.75292796  0.26735923  1
  O2-  O136  1  -0.00251406  0.74658793  0.60491838  1
  O2-  O137  1  0.00190320  0.74429415  0.94024084  1
  O2-  O138  1  0.50159979  0.24091789  0.26967480  1
  O2-  O139  1  0.50340875  0.24368687  0.60472381  1
  O2-  O140  1  0.49915715  0.24677157  0.94138682  1
  O2-  O141  1  0.49531564  0.74650020  0.27525630  1
  O2-  O142  1  0.49018575  0.75143423  0.60585067  1
  O2-  O143  1  0.49495450  0.74702292  0.94422616  1
  O2-  O144  1  0.07075967  0.17769788  0.09161376  1
  O2-  O145  1  0.06753776  0.17859348  0.42185621  1
  O2-  O146  1  0.06827850  0.17600939  0.76512589  1
  O2-  O147  1  0.07379492  0.68196303  0.09062909  1
  O2-  O148  1  0.06947388  0.67526666  0.43034009  1
  O2-  O149  1  0.07372942  0.68042593  0.76853972  1
  O2-  O150  1  0.57283758  0.17709486  0.08817666  1
  O2-  O151  1  0.57924759  0.17979626  0.41994852  1
  O2-  O152  1  0.56937743  0.17496533  0.75519624  1
  O2-  O153  1  0.57051396  0.67998848  0.09007851  1
  O2-  O154  1  0.57364603  0.67913498  0.42018810  1
  O2-  O155  1  0.56817528  0.68174554  0.76657918  1
  O2-  O156  1  0.17791603  0.42775836  0.23675104  1
  O2-  O157  1  0.18113625  0.42604509  0.56964352  1
  O2-  O158  1  0.17959391  0.42462856  0.90280808  1
  O2-  O159  1  0.17675202  0.93146184  0.23841659  1
  O2-  O160  1  0.18017874  0.93136792  0.57761978  1
  O2-  O161  1  0.18033927  0.93143411  0.89945350  1
  O2-  O162  1  0.68206557  0.42734609  0.24157396  1
  O2-  O163  1  0.67691898  0.43014450  0.57531342  1
  O2-  O164  1  0.67031765  0.43012581  0.91155248  1
  O2-  O165  1  0.67684240  0.92812918  0.24416946  1
  O2-  O166  1  0.67068437  0.93096065  0.57979785  1
  O2-  O167  1  0.66875060  0.93112236  0.91302196  1
  O2-  O168  1  0.43159027  0.31819489  0.08844944  1
  O2-  O169  1  0.43241791  0.31884442  0.42842739  1
  O2-  O170  1  0.43321408  0.31732583  0.76631597  1
  O2-  O171  1  0.43224960  0.82674907  0.09107537  1
  O2-  O172  1  0.43837029  0.83024759  0.42329195  1
  O2-  O173  1  0.43053791  0.83165265  0.75514507  1
  O2-  O174  1  0.92753975  0.31879834  0.10110317  1
  O2-  O175  1  0.91884819  0.31730124  0.42268992  1
  O2-  O176  1  0.92683765  0.31992279  0.76562435  1
  O2-  O177  1  0.93077286  0.82067449  0.09863971  1
  O2-  O178  1  0.92567695  0.81748866  0.43038927  1
  O2-  O179  1  0.93292648  0.82213741  0.76802760  1
  O2-  O180  1  0.31947394  0.06704762  0.23345621  1
  O2-  O181  1  0.32537347  0.06799427  0.57674748  1
  O2-  O182  1  0.32973561  0.06971050  0.90810293  1
  O2-  O183  1  0.32648876  0.56434539  0.23568234  1
  O2-  O184  1  0.32460097  0.56696982  0.56839174  1
  O2-  O185  1  0.32564051  0.56625471  0.90143170  1
  O2-  O186  1  0.81683396  0.07558521  0.24416594  1
  O2-  O187  1  0.81820471  0.06850856  0.56755819  1
  O2-  O188  1  0.81798599  0.07078490  0.90185679  1
  O2-  O189  1  0.81502159  0.57134488  0.24212492  1
  O2-  O190  1  0.81612667  0.57177000  0.56433804  1
  O2-  O191  1  0.81739926  0.57533343  0.90097273  1
  O2-  O192  1  0.03970143  0.08928074  0.26940901  1
  O2-  O193  1  0.03730805  0.08420284  0.59539448  1
  O2-  O194  1  0.04190887  0.08597790  0.94073302  1
  O2-  O195  1  0.03993061  0.58066192  0.26317517  1
  O2-  O196  1  0.04541931  0.57970514  0.60156555  1
  O2-  O197  1  0.05070310  0.58362924  0.94371932  1
  O2-  O198  1  0.55410956  0.08139385  0.27056224  1
  O2-  O199  1  0.54651554  0.08171034  0.60362569  1
  O2-  O200  1  0.54614363  0.08561348  0.93497078  1
  O2-  O201  1  0.54692781  0.58608030  0.26677368  1
  O2-  O202  1  0.54256245  0.58372855  0.59616812  1
  O2-  O203  1  0.54518980  0.58590648  0.93795311  1
  O2-  O204  1  0.16105005  0.20632648  0.26890980  1
  O2-  O205  1  0.17076096  0.20103294  0.59852918  1
  O2-  O206  1  0.16770733  0.19728660  0.94023506  1
  O2-  O207  1  0.17594816  0.70243499  0.26833245  1
  O2-  O208  1  0.17078237  0.70902191  0.60190162  1
  O2-  O209  1  0.16725076  0.70843632  0.94044685  1
  O2-  O210  1  0.66519963  0.20890977  0.26558799  1
  O2-  O211  1  0.66521199  0.19920188  0.60359557  1
  O2-  O212  1  0.66210617  0.20755954  0.93428573  1
  O2-  O213  1  0.65925094  0.71171440  0.26536719  1
  O2-  O214  1  0.66116043  0.71450600  0.59448080  1
  O2-  O215  1  0.65941926  0.71043936  0.93621297  1
  O2-  O216  1  0.08013867  0.45293008  0.07090660  1
  O2-  O217  1  0.07556862  0.45380642  0.40095055  1
  O2-  O218  1  0.07810448  0.45217851  0.73416853  1
  O2-  O219  1  0.08590545  0.96369558  0.07134849  1
  O2-  O220  1  0.07863551  0.96041728  0.40420145  1
  O2-  O221  1  0.08872959  0.96223483  0.72947671  1
  O2-  O222  1  0.58708483  0.45851017  0.06714674  1
  O2-  O223  1  0.58857835  0.45609446  0.39203787  1
  O2-  O224  1  0.58689143  0.45928295  0.72869648  1
  O2-  O225  1  0.58408367  0.95888488  0.06703711  1
  O2-  O226  1  0.59135615  0.95839498  0.40040183  1
  O2-  O227  1  0.58398319  0.95842399  0.73454148  1
  O2-  O228  1  0.20859528  0.32823326  0.06764603  1
  O2-  O229  1  0.20679214  0.33108546  0.39994173  1
  O2-  O230  1  0.21069083  0.32895139  0.73421050  1
  O2-  O231  1  0.21176540  0.83671558  0.07002540  1
  O2-  O232  1  0.20643328  0.83014121  0.40415648  1
  O2-  O233  1  0.20676851  0.83976002  0.73149467  1
  O2-  O234  1  0.69866755  0.33328845  0.06180136  1
  O2-  O235  1  0.70671226  0.33595970  0.39504923  1
  O2-  O236  1  0.69461031  0.33155640  0.72536675  1
  O2-  O237  1  0.69671269  0.83393716  0.06313348  1
  O2-  O238  1  0.70393015  0.83409568  0.39543297  1
  O2-  O239  1  0.69401687  0.83270840  0.72936388  1
  O2-  O240  1  0.46693287  0.41208471  0.25907129  1
  O2-  O241  1  0.46485336  0.41336149  0.59648767  1
  O2-  O242  1  0.46320578  0.41024089  0.93725966  1
  O2-  O243  1  0.46833591  0.91221535  0.26848884  1
  O2-  O244  1  0.46009163  0.91583076  0.60063900  1
  O2-  O245  1  0.46019985  0.91188720  0.93598598  1
  O2-  O246  1  0.94929189  0.41409997  0.27347572  1
  O2-  O247  1  0.94920318  0.42208135  0.60039105  1
  O2-  O248  1  0.95704479  0.42163049  0.93709581  1
  O2-  O249  1  0.95381302  0.92306539  0.26842352  1
  O2-  O250  1  0.96031796  0.91791424  0.60078414  1
  O2-  O251  1  0.96267404  0.91924134  0.93657718  1
  O2-  O252  1  0.33224987  0.28780273  0.26143471  1
  O2-  O253  1  0.33507527  0.28807200  0.59787819  1
  O2-  O254  1  0.33795827  0.29349310  0.93588191  1
  O2-  O255  1  0.33684216  0.80465416  0.27482039  1
  O2-  O256  1  0.33161891  0.80779413  0.60583836  1
  O2-  O257  1  0.33499273  0.79983265  0.93956146  1
  O2-  O258  1  0.83518835  0.28867372  0.26866977  1
  O2-  O259  1  0.82849138  0.29089285  0.59989159  1
  O2-  O260  1  0.83186991  0.29140352  0.93526956  1
  O2-  O261  1  0.83049521  0.79238734  0.26373933  1
  O2-  O262  1  0.82674451  0.80232984  0.60547733  1
  O2-  O263  1  0.82936680  0.79572743  0.93546362  1
  O2-  O264  1  0.41899391  0.04566360  0.06080277  1
  O2-  O265  1  0.42192495  0.04460057  0.39808566  1
  O2-  O266  1  0.41403897  0.04248387  0.73013617  1
  O2-  O267  1  0.42146453  0.53930708  0.06698723  1
  O2-  O268  1  0.42336868  0.53553134  0.39795734  1
  O2-  O269  1  0.42079848  0.53758110  0.73210293  1
  O2-  O270  1  0.91521165  0.04291016  0.07135265  1
  O2-  O271  1  0.91284688  0.04977276  0.39559385  1
  O2-  O272  1  0.91814589  0.04010082  0.73512489  1
  O2-  O273  1  0.91602161  0.54480499  0.07080832  1
  O2-  O274  1  0.91041793  0.54613148  0.39268449  1
  O2-  O275  1  0.91658437  0.54599731  0.73396785  1
  O2-  O276  1  0.30251964  0.16620499  0.05807540  1
  O2-  O277  1  0.29206024  0.16870335  0.39792349  1
  O2-  O278  1  0.29721925  0.16298751  0.72818115  1
  O2-  O279  1  0.30319631  0.67092278  0.06491782  1
  O2-  O280  1  0.31194871  0.67338424  0.39684330  1
  O2-  O281  1  0.30494078  0.67470587  0.73025491  1
  O2-  O282  1  0.78416305  0.16602681  0.06918981  1
  O2-  O283  1  0.78568518  0.16136248  0.39760528  1
  O2-  O284  1  0.78697684  0.16508955  0.73553259  1
  O2-  O285  1  0.78262966  0.66710184  0.06938574  1
  O2-  O286  1  0.78436718  0.66230872  0.39269709  1
  O2-  O287  1  0.78209901  0.66688236  0.73073218  1
