# generated using pymatgen
data_Ca2Al2SiO7
_symmetry_space_group_name_H-M   'P 1'
_cell_length_a   15.45963552
_cell_length_b   15.45947074
_cell_length_c   15.28479038
_cell_angle_alpha   90.00853300
_cell_angle_beta   90.00328072
_cell_angle_gamma   90.00806499
_symmetry_Int_Tables_number   1
_chemical_formula_structural   Ca2Al2SiO7
_chemical_formula_sum   'Ca48 Al48 Si24 O168'
_cell_volume   3653.03093089
_cell_formula_units_Z   24
loop_
 _symmetry_equiv_pos_site_id
 _symmetry_equiv_pos_as_xyz
  1  'x, y, z'
loop_
 _atom_type_symbol
 _atom_type_oxidation_number
  Ca2+  2.0
  Al0+  0.0
  Si0+  0.0
  O2-  -2.0
loop_
 _atom_site_type_symbol
 _atom_site_label
 _atom_site_symmetry_multiplicity
 _atom_site_fract_x
 _atom_site_fract_y
 _atom_site_fract_z
 _atom_site_occupancy
  Ca2+  Ca0  1  0.16994506  0.07410646  0.17193593  1
  Ca2+  Ca1  1  0.16791587  0.06869613  0.50740502  1
  Ca2+  Ca2  1  0.17670354  0.07729444  0.83524620  1
  Ca2+  Ca3  1  0.15936276  0.58372011  0.16820879  1
  Ca2+  Ca4  1  0.16254069  0.58122285  0.50525966  1
  Ca2+  Ca5  1  0.15339255  0.57797861  0.83474231  1
  Ca2+  Ca6  1  0.67404621  0.07872051  0.17262646  1
  Ca2+  Ca7  1  0.67323453  0.07801640  0.50289466  1
  Ca2+  Ca8  1  0.66624880  0.07470568  0.83373032  1
  Ca2+  Ca9  1  0.67392975  0.57584979  0.17734316  1
  Ca2+  Ca10  1  0.67493500  0.58289931  0.50758798  1
  Ca2+  Ca11  1  0.66945650  0.57929293  0.83329924  1
  Ca2+  Ca12  1  0.06843062  0.33830967  0.15992373  1
  Ca2+  Ca13  1  0.07791662  0.33341776  0.49436253  1
  Ca2+  Ca14  1  0.08073022  0.34093706  0.83035682  1
  Ca2+  Ca15  1  0.08109103  0.82371343  0.16014107  1
  Ca2+  Ca16  1  0.08705897  0.82559945  0.49580338  1
  Ca2+  Ca17  1  0.07524701  0.82497114  0.82294123  1
  Ca2+  Ca18  1  0.58145010  0.33959173  0.16493996  1
  Ca2+  Ca19  1  0.57969649  0.34082417  0.49189507  1
  Ca2+  Ca20  1  0.58633973  0.33594394  0.82877627  1
  Ca2+  Ca21  1  0.58202352  0.82498833  0.16131773  1
  Ca2+  Ca22  1  0.59179566  0.82165457  0.50104260  1
  Ca2+  Ca23  1  0.57896898  0.83165524  0.82351310  1
  Ca2+  Ca24  1  0.32638165  0.41559141  0.16922442  1
  Ca2+  Ca25  1  0.32871152  0.41622833  0.50606390  1
  Ca2+  Ca26  1  0.31884989  0.42027258  0.83695883  1
  Ca2+  Ca27  1  0.33091582  0.91575598  0.16962301  1
  Ca2+  Ca28  1  0.32132237  0.91845087  0.50719677  1
  Ca2+  Ca29  1  0.33415938  0.92293518  0.83923586  1
  Ca2+  Ca30  1  0.82710939  0.41746933  0.17553188  1
  Ca2+  Ca31  1  0.82789825  0.42832482  0.50276778  1
  Ca2+  Ca32  1  0.82756201  0.42404735  0.83822839  1
  Ca2+  Ca33  1  0.84308036  0.92345266  0.17123003  1
  Ca2+  Ca34  1  0.83424358  0.91992853  0.50732190  1
  Ca2+  Ca35  1  0.83129607  0.90369464  0.83244001  1
  Ca2+  Ca36  1  0.41531724  0.17064098  0.16338598  1
  Ca2+  Ca37  1  0.41451121  0.17245865  0.49680199  1
  Ca2+  Ca38  1  0.41163842  0.16414028  0.82859679  1
  Ca2+  Ca39  1  0.42401572  0.67126077  0.16384138  1
  Ca2+  Ca40  1  0.43291109  0.66043453  0.49531431  1
  Ca2+  Ca41  1  0.42210635  0.67119525  0.82967524  1
  Ca2+  Ca42  1  0.90969804  0.17748381  0.16475928  1
  Ca2+  Ca43  1  0.91274938  0.17384000  0.49154771  1
  Ca2+  Ca44  1  0.91554085  0.17670902  0.83203267  1
  Ca2+  Ca45  1  0.92572355  0.66421431  0.16261060  1
  Ca2+  Ca46  1  0.92170591  0.66460171  0.49885696  1
  Ca2+  Ca47  1  0.92300418  0.67145002  0.82663494  1
  Al0+  Al48  1  0.00037322  0.00107655  -0.00344059  1
  Al0+  Al49  1  0.00199195  0.00007367  0.34272968  1
  Al0+  Al50  1  0.00145811  0.00286601  0.66934159  1
  Al0+  Al51  1  -0.00209221  0.49880371  -0.00334487  1
  Al0+  Al52  1  -0.00144420  0.49935732  0.32922156  1
  Al0+  Al53  1  -0.00222555  0.50100543  0.66929264  1
  Al0+  Al54  1  0.50101371  0.00074563  0.00279667  1
  Al0+  Al55  1  0.49916041  0.00145364  0.33400252  1
  Al0+  Al56  1  0.50230215  0.00258398  0.66957824  1
  Al0+  Al57  1  0.49820257  0.49808124  0.00253894  1
  Al0+  Al58  1  0.49777449  0.49984186  0.32482141  1
  Al0+  Al59  1  0.49845618  0.49945271  0.66717495  1
  Al0+  Al60  1  0.25014708  0.25023310  0.00900779  1
  Al0+  Al61  1  0.25027882  0.24916318  0.32808162  1
  Al0+  Al62  1  0.24922074  0.25126471  0.67270151  1
  Al0+  Al63  1  0.25263007  0.74907777  -0.00864272  1
  Al0+  Al64  1  0.25025343  0.74819224  0.33344336  1
  Al0+  Al65  1  0.25005360  0.75023950  0.66681176  1
  Al0+  Al66  1  0.74855966  0.24904680  -0.00183608  1
  Al0+  Al67  1  0.74805832  0.24807872  0.33718543  1
  Al0+  Al68  1  0.74832946  0.24965562  0.66791115  1
  Al0+  Al69  1  0.75038419  0.74752207  -0.00013750  1
  Al0+  Al70  1  0.75158301  0.74999354  0.32987096  1
  Al0+  Al71  1  0.75078402  0.75131900  0.66744758  1
  Al0+  Al72  1  0.43229356  0.82209756  0.98647975  1
  Al0+  Al73  1  0.17895064  0.43119173  0.67776600  1
  Al0+  Al74  1  0.07126492  0.67927965  0.31885276  1
  Al0+  Al75  1  0.92922422  0.82308949  0.64921611  1
  Al0+  Al76  1  0.57383733  0.67964768  0.31863519  1
  Al0+  Al77  1  0.18128391  0.92721709  0.34605136  1
  Al0+  Al78  1  0.56922596  0.67892926  0.65438187  1
  Al0+  Al79  1  0.07113987  0.67853963  0.98373410  1
  Al0+  Al80  1  0.82069073  0.06996754  0.34649357  1
  Al0+  Al81  1  0.42772573  0.32093408  0.31815130  1
  Al0+  Al82  1  0.67655415  0.42993393  0.34798044  1
  Al0+  Al83  1  0.17775441  0.92601504  0.68463084  1
  Al0+  Al84  1  0.07136065  0.67805337  0.64888919  1
  Al0+  Al85  1  0.82297625  0.57215844  0.34841931  1
  Al0+  Al86  1  0.92840225  0.82388223  0.98555505  1
  Al0+  Al87  1  0.32035446  0.07034958  0.68034683  1
  Al0+  Al88  1  0.92867828  0.31877067  0.32120199  1
  Al0+  Al89  1  0.32235778  0.06980297  0.01740768  1
  Al0+  Al90  1  0.17753253  0.43160681  0.01583467  1
  Al0+  Al91  1  0.67862897  0.42777890  0.01533288  1
  Al0+  Al92  1  0.68235895  0.93019256  0.67936595  1
  Al0+  Al93  1  0.67676107  0.42867292  0.68153466  1
  Al0+  Al94  1  0.92750372  0.31903728  0.98489299  1
  Al0+  Al95  1  0.82063750  0.57221367  0.68360900  1
  Si0+  Si96  1  0.07268559  0.18227753  0.65279327  1
  Si0+  Si97  1  0.07220449  0.17600934  0.31708918  1
  Si0+  Si98  1  0.82120610  0.07100578  0.01325321  1
  Si0+  Si99  1  0.17873701  0.92705195  0.01560830  1
  Si0+  Si100  1  0.82354393  0.07463780  0.68532245  1
  Si0+  Si101  1  0.42909372  0.82554438  0.64952798  1
  Si0+  Si102  1  0.67972683  0.92796258  0.01458924  1
  Si0+  Si103  1  0.82058106  0.57135936  0.01827752  1
  Si0+  Si104  1  0.42713239  0.32043243  0.98339454  1
  Si0+  Si105  1  0.32245325  0.07363424  0.35031644  1
  Si0+  Si106  1  0.92938137  0.82496326  0.31830838  1
  Si0+  Si107  1  0.42838904  0.82169491  0.31945274  1
  Si0+  Si108  1  0.67579252  0.92707902  0.34829294  1
  Si0+  Si109  1  0.07413351  0.17857925  0.98353967  1
  Si0+  Si110  1  0.92694731  0.32022145  0.65109093  1
  Si0+  Si111  1  0.17862246  0.42830850  0.34611260  1
  Si0+  Si112  1  0.42847564  0.31906292  0.65408257  1
  Si0+  Si113  1  0.57152597  0.67567755  0.98317062  1
  Si0+  Si114  1  0.32405081  0.57247302  0.68195118  1
  Si0+  Si115  1  0.57228642  0.17815417  0.65059486  1
  Si0+  Si116  1  0.32285173  0.57333328  0.01761005  1
  Si0+  Si117  1  0.57100883  0.17658109  0.31596133  1
  Si0+  Si118  1  0.56984697  0.17969438  0.98415066  1
  Si0+  Si119  1  0.32032124  0.57019293  0.34692306  1
  O2-  O120  1  0.24778858  -0.00563703  0.06265854  1
  O2-  O121  1  0.25550720  0.00312931  0.39261354  1
  O2-  O122  1  0.25410323  -0.00516553  0.73272369  1
  O2-  O123  1  0.25001098  0.50886707  0.06218104  1
  O2-  O124  1  0.24995644  0.49822902  0.38901282  1
  O2-  O125  1  0.24843881  0.51068045  0.72486086  1
  O2-  O126  1  0.75656307  -0.00645690  0.05547503  1
  O2-  O127  1  0.74746014  -0.00675799  0.39140997  1
  O2-  O128  1  0.75951603  0.00128585  0.72880575  1
  O2-  O129  1  0.75115101  0.50332094  0.06234232  1
  O2-  O130  1  0.74659555  0.50360638  0.39747312  1
  O2-  O131  1  0.74809288  0.49970141  0.73271071  1
  O2-  O132  1  0.00279209  0.24362633  0.27262181  1
  O2-  O133  1  -0.00163265  0.24918525  0.60904191  1
  O2-  O134  1  0.00603826  0.24769115  0.93844534  1
  O2-  O135  1  -0.00475269  0.75367485  0.27409637  1
  O2-  O136  1  0.00296569  0.75339945  0.59822135  1
  O2-  O137  1  0.00188352  0.75398040  0.93585307  1
  O2-  O138  1  0.50363917  0.24661773  0.27177383  1
  O2-  O139  1  0.50223602  0.25134592  0.61066999  1
  O2-  O140  1  0.49855312  0.25013235  0.94086519  1
  O2-  O141  1  0.50185674  0.75864438  0.27427252  1
  O2-  O142  1  0.49425382  0.75330893  0.60550698  1
  O2-  O143  1  0.50619649  0.74733211  0.93887345  1
  O2-  O144  1  0.07127395  0.17693184  0.08928822  1
  O2-  O145  1  0.07379642  0.17893431  0.42291377  1
  O2-  O146  1  0.07357025  0.18553922  0.75780106  1
  O2-  O147  1  0.06935786  0.67972084  0.09793294  1
  O2-  O148  1  0.07447528  0.67876698  0.43112389  1
  O2-  O149  1  0.06811319  0.67653888  0.76195432  1
  O2-  O150  1  0.57040391  0.17914118  0.08928935  1
  O2-  O151  1  0.56888779  0.17347331  0.42148204  1
  O2-  O152  1  0.57295713  0.17685357  0.75579241  1
  O2-  O153  1  0.57036122  0.67753071  0.08899805  1
  O2-  O154  1  0.57174798  0.67904576  0.43176638  1
  O2-  O155  1  0.56560174  0.67963613  0.76761466  1
  O2-  O156  1  0.17954788  0.42943350  0.24115613  1
  O2-  O157  1  0.18280127  0.42656575  0.56425961  1
  O2-  O158  1  0.18062837  0.43019932  0.90265932  1
  O2-  O159  1  0.18290384  0.92841562  0.23256554  1
  O2-  O160  1  0.17942313  0.92869498  0.57056377  1
  O2-  O161  1  0.18013042  0.93078015  0.91065833  1
  O2-  O162  1  0.67916348  0.43009532  0.23414707  1
  O2-  O163  1  0.67607498  0.42831951  0.56838814  1
  O2-  O164  1  0.67930640  0.42818432  0.90251486  1
  O2-  O165  1  0.67320833  0.93007018  0.24223898  1
  O2-  O166  1  0.68090724  0.93413883  0.56619481  1
  O2-  O167  1  0.67654733  0.93100886  0.90984500  1
  O2-  O168  1  0.42791850  0.31930418  0.08849594  1
  O2-  O169  1  0.42405663  0.31854233  0.43171255  1
  O2-  O170  1  0.42739605  0.31722494  0.75914622  1
  O2-  O171  1  0.43530722  0.82140415  0.10007234  1
  O2-  O172  1  0.42741029  0.81980287  0.42473481  1
  O2-  O173  1  0.43342401  0.82671000  0.75532599  1
  O2-  O174  1  0.92581300  0.31608387  0.09813467  1
  O2-  O175  1  0.93230873  0.31806572  0.43448155  1
  O2-  O176  1  0.92668437  0.31753276  0.75632538  1
  O2-  O177  1  0.93075286  0.82679319  0.09954427  1
  O2-  O178  1  0.93057503  0.82743905  0.42332580  1
  O2-  O179  1  0.92987685  0.82004906  0.76271363  1
  O2-  O180  1  0.32252698  0.07301651  0.24466356  1
  O2-  O181  1  0.31725566  0.07253494  0.56662719  1
  O2-  O182  1  0.32251920  0.06951320  0.90463367  1
  O2-  O183  1  0.31964421  0.57137882  0.24185269  1
  O2-  O184  1  0.32922234  0.56638510  0.57621005  1
  O2-  O185  1  0.32853846  0.56900753  0.91230537  1
  O2-  O186  1  0.81935241  0.06932452  0.23266400  1
  O2-  O187  1  0.81975205  0.07829656  0.57969929  1
  O2-  O188  1  0.81699054  0.07542769  0.90874829  1
  O2-  O189  1  0.82364344  0.56933360  0.23461836  1
  O2-  O190  1  0.82141262  0.56951822  0.56997131  1
  O2-  O191  1  0.81838685  0.57191749  0.91295458  1
  O2-  O192  1  0.04688005  0.08151211  0.27318608  1
  O2-  O193  1  0.04905143  0.08909996  0.60640937  1
  O2-  O194  1  0.04844624  0.08603342  0.93565438  1
  O2-  O195  1  0.04074629  0.58289356  0.26414566  1
  O2-  O196  1  0.04035009  0.57860355  0.59757148  1
  O2-  O197  1  0.03911792  0.58115318  0.93171137  1
  O2-  O198  1  0.54424127  0.08361729  0.26718666  1
  O2-  O199  1  0.54303530  0.08794810  0.60079650  1
  O2-  O200  1  0.54206615  0.08772740  0.93714727  1
  O2-  O201  1  0.53711604  0.58655404  0.26198437  1
  O2-  O202  1  0.53652350  0.58261208  0.59964664  1
  O2-  O203  1  0.54130870  0.58292801  0.93818924  1
  O2-  O204  1  0.16518903  0.20038255  0.26929011  1
  O2-  O205  1  0.16266180  0.21467435  0.60413932  1
  O2-  O206  1  0.16868576  0.20523809  0.94052467  1
  O2-  O207  1  0.16838870  0.70969517  0.26456140  1
  O2-  O208  1  0.17379391  0.70029946  0.59945152  1
  O2-  O209  1  0.17191527  0.69826713  0.93220256  1
  O2-  O210  1  0.66524670  0.19982244  0.27046965  1
  O2-  O211  1  0.66448227  0.20385491  0.60251478  1
  O2-  O212  1  0.66051804  0.20702223  0.93461106  1
  O2-  O213  1  0.66978703  0.70848386  0.26150280  1
  O2-  O214  1  0.66492927  0.71195562  0.60114961  1
  O2-  O215  1  0.66635654  0.69805316  0.93964412  1
  O2-  O216  1  0.07913489  0.45945722  0.06788472  1
  O2-  O217  1  0.08712908  0.45592499  0.39302338  1
  O2-  O218  1  0.08180637  0.45638517  0.73228397  1
  O2-  O219  1  0.08493842  0.95488631  0.06102795  1
  O2-  O220  1  0.08728818  0.95855636  0.40404786  1
  O2-  O221  1  0.08136451  0.96090686  0.73742491  1
  O2-  O222  1  0.57983629  0.45515455  0.06710716  1
  O2-  O223  1  0.57469492  0.45535009  0.39488410  1
  O2-  O224  1  0.57747531  0.45508854  0.73430181  1
  O2-  O225  1  0.59194631  0.96274183  0.06534207  1
  O2-  O226  1  0.58344397  0.95533205  0.39570864  1
  O2-  O227  1  0.58766829  0.96556253  0.73518048  1
  O2-  O228  1  0.21040113  0.33641892  0.07142842  1
  O2-  O229  1  0.20605254  0.33518505  0.39134767  1
  O2-  O230  1  0.21468485  0.33852528  0.73621453  1
  O2-  O231  1  0.20540684  0.83214236  0.05832084  1
  O2-  O232  1  0.21477327  0.83204567  0.40102400  1
  O2-  O233  1  0.20202126  0.82604369  0.73531215  1
  O2-  O234  1  0.70866810  0.32963895  0.06703561  1
  O2-  O235  1  0.70172619  0.33019893  0.39907350  1
  O2-  O236  1  0.70401533  0.32903174  0.73319458  1
  O2-  O237  1  0.70077573  0.83378286  0.06056214  1
  O2-  O238  1  0.69903233  0.83249529  0.39168804  1
  O2-  O239  1  0.70772416  0.83411057  0.73581979  1
  O2-  O240  1  0.45452622  0.41627503  0.25989793  1
  O2-  O241  1  0.45253281  0.41142080  0.60604968  1
  O2-  O242  1  0.45359285  0.41291809  0.93690669  1
  O2-  O243  1  0.44798985  0.91794666  0.27517523  1
  O2-  O244  1  0.45816156  0.91836096  0.60366982  1
  O2-  O245  1  0.46528383  0.91858895  0.93340577  1
  O2-  O246  1  0.96089354  0.41313771  0.26448869  1
  O2-  O247  1  0.95545722  0.41196046  0.60551880  1
  O2-  O248  1  0.95631579  0.41521888  0.93084467  1
  O2-  O249  1  0.95934934  0.91829615  0.27298020  1
  O2-  O250  1  0.95244916  0.92624833  0.60233670  1
  O2-  O251  1  0.94964140  0.92426649  0.93268838  1
  O2-  O252  1  0.33239339  0.28840539  0.26094917  1
  O2-  O253  1  0.33775503  0.28784908  0.60570973  1
  O2-  O254  1  0.33475844  0.29089060  0.93834520  1
  O2-  O255  1  0.33816086  0.78976826  0.27020500  1
  O2-  O256  1  0.33368381  0.80364142  0.60674363  1
  O2-  O257  1  0.33676670  0.79421738  0.92973049  1
  O2-  O258  1  0.83169856  0.28555266  0.26877684  1
  O2-  O259  1  0.83552861  0.29020267  0.60406475  1
  O2-  O260  1  0.83297950  0.28292262  0.92983292  1
  O2-  O261  1  0.83429225  0.80609872  0.27228145  1
  O2-  O262  1  0.82975507  0.79642603  0.59796658  1
  O2-  O263  1  0.82870903  0.79421710  0.93515156  1
  O2-  O264  1  0.41947771  0.03986866  0.07174212  1
  O2-  O265  1  0.41720342  0.05180180  0.39580061  1
  O2-  O266  1  0.42080214  0.04880533  0.73223599  1
  O2-  O267  1  0.41373225  0.54232245  0.06696148  1
  O2-  O268  1  0.41183320  0.54043989  0.39334148  1
  O2-  O269  1  0.41257268  0.53921151  0.73339165  1
  O2-  O270  1  0.91517798  0.05018839  0.06005336  1
  O2-  O271  1  0.91705278  0.04474496  0.40333648  1
  O2-  O272  1  0.91913062  0.05806950  0.72950342  1
  O2-  O273  1  0.91382862  0.54311787  0.06236380  1
  O2-  O274  1  0.91997770  0.53798683  0.40113313  1
  O2-  O275  1  0.91699081  0.54046804  0.73793406  1
  O2-  O276  1  0.29216429  0.16590511  0.07247934  1
  O2-  O277  1  0.29491736  0.16727636  0.39517276  1
  O2-  O278  1  0.28777271  0.16647770  0.73629211  1
  O2-  O279  1  0.30271892  0.66951369  0.06069879  1
  O2-  O280  1  0.29381409  0.66076873  0.39637913  1
  O2-  O281  1  0.30787946  0.66883199  0.72456861  1
  O2-  O282  1  0.78518915  0.15911439  0.06307989  1
  O2-  O283  1  0.78669468  0.16366637  0.40394623  1
  O2-  O284  1  0.79060660  0.16514010  0.73354387  1
  O2-  O285  1  0.79647072  0.66533544  0.06547356  1
  O2-  O286  1  0.79885552  0.67324083  0.39751672  1
  O2-  O287  1  0.79178322  0.66999695  0.73587468  1
