# generated using pymatgen
data_Ca2Al2SiO7
_symmetry_space_group_name_H-M   'P 1'
_cell_length_a   15.45395837
_cell_length_b   15.45531000
_cell_length_c   15.28096951
_cell_angle_alpha   90.00519250
_cell_angle_beta   90.00132214
_cell_angle_gamma   90.00731077
_symmetry_Int_Tables_number   1
_chemical_formula_structural   Ca2Al2SiO7
_chemical_formula_sum   'Ca48 Al48 Si24 O168'
_cell_volume   3649.79407596
_cell_formula_units_Z   24
loop_
 _symmetry_equiv_pos_site_id
 _symmetry_equiv_pos_as_xyz
  1  'x, y, z'
loop_
 _atom_type_symbol
 _atom_type_oxidation_number
  Ca2+  2.0
  Al0+  0.0
  Si0+  0.0
  O2-  -2.0
loop_
 _atom_site_type_symbol
 _atom_site_label
 _atom_site_symmetry_multiplicity
 _atom_site_fract_x
 _atom_site_fract_y
 _atom_site_fract_z
 _atom_site_occupancy
  Ca2+  Ca0  1  0.17538287  0.08527912  0.17537255  1
  Ca2+  Ca1  1  0.16467845  0.07755774  0.49904458  1
  Ca2+  Ca2  1  0.16756211  0.08499736  0.83593917  1
  Ca2+  Ca3  1  0.16285620  0.56885077  0.17131034  1
  Ca2+  Ca4  1  0.17284646  0.57773074  0.50561264  1
  Ca2+  Ca5  1  0.17117030  0.57680580  0.83725718  1
  Ca2+  Ca6  1  0.67162673  0.08185434  0.16986474  1
  Ca2+  Ca7  1  0.68109382  0.07873389  0.50754147  1
  Ca2+  Ca8  1  0.66917210  0.07601908  0.83933584  1
  Ca2+  Ca9  1  0.66588367  0.57602372  0.17194045  1
  Ca2+  Ca10  1  0.66839061  0.58039269  0.50690605  1
  Ca2+  Ca11  1  0.67023075  0.58833459  0.83084281  1
  Ca2+  Ca12  1  0.09382513  0.32278718  0.16345388  1
  Ca2+  Ca13  1  0.08010172  0.32229414  0.49446801  1
  Ca2+  Ca14  1  0.08483850  0.32279614  0.82739242  1
  Ca2+  Ca15  1  0.07129264  0.84532273  0.16642704  1
  Ca2+  Ca16  1  0.08216837  0.83848813  0.49138970  1
  Ca2+  Ca17  1  0.07654995  0.84009070  0.82873647  1
  Ca2+  Ca18  1  0.57880884  0.32750318  0.16540325  1
  Ca2+  Ca19  1  0.57707065  0.33611554  0.49104897  1
  Ca2+  Ca20  1  0.58486710  0.32379535  0.83068989  1
  Ca2+  Ca21  1  0.57071223  0.84436137  0.16136804  1
  Ca2+  Ca22  1  0.58405781  0.82866705  0.49731467  1
  Ca2+  Ca23  1  0.57891400  0.83786771  0.82848123  1
  Ca2+  Ca24  1  0.32372457  0.41120007  0.17341566  1
  Ca2+  Ca25  1  0.32944132  0.41626329  0.50071970  1
  Ca2+  Ca26  1  0.33007199  0.42342818  0.83749248  1
  Ca2+  Ca27  1  0.33389739  0.92631921  0.17409421  1
  Ca2+  Ca28  1  0.32417129  0.91537112  0.50084777  1
  Ca2+  Ca29  1  0.32665129  0.91964110  0.84047411  1
  Ca2+  Ca30  1  0.82581136  0.41650616  0.17427388  1
  Ca2+  Ca31  1  0.82956489  0.41881063  0.50708258  1
  Ca2+  Ca32  1  0.84446773  0.42236353  0.83154253  1
  Ca2+  Ca33  1  0.83116765  0.91710261  0.17180668  1
  Ca2+  Ca34  1  0.83655679  0.92694673  0.50486757  1
  Ca2+  Ca35  1  0.82221458  0.91703400  0.83615183  1
  Ca2+  Ca36  1  0.41449680  0.16619786  0.16113161  1
  Ca2+  Ca37  1  0.41706115  0.17025831  0.49097467  1
  Ca2+  Ca38  1  0.42077334  0.16001839  0.83670928  1
  Ca2+  Ca39  1  0.41411761  0.68192706  0.16391945  1
  Ca2+  Ca40  1  0.41919687  0.66938723  0.49603450  1
  Ca2+  Ca41  1  0.42098750  0.67100496  0.82531786  1
  Ca2+  Ca42  1  0.93043830  0.15888278  0.16459896  1
  Ca2+  Ca43  1  0.92494587  0.15811721  0.49691878  1
  Ca2+  Ca44  1  0.92769947  0.16941669  0.82264243  1
  Ca2+  Ca45  1  0.91663357  0.67957934  0.16336273  1
  Ca2+  Ca46  1  0.91452578  0.67336946  0.49605424  1
  Ca2+  Ca47  1  0.91393436  0.67130971  0.82926786  1
  Al0+  Al48  1  -0.00124676  0.00069644  -0.01163258  1
  Al0+  Al49  1  -0.00002755  0.00006869  0.33083239  1
  Al0+  Al50  1  0.00061265  0.00056781  0.67091282  1
  Al0+  Al51  1  0.00005538  0.50134161  0.00659719  1
  Al0+  Al52  1  -0.00068275  0.49962590  0.33763384  1
  Al0+  Al53  1  -0.00083486  0.49956995  0.66673955  1
  Al0+  Al54  1  0.49969632  0.00033570  -0.00150418  1
  Al0+  Al55  1  0.50149576  -0.00048966  0.33536823  1
  Al0+  Al56  1  0.49791242  0.00051214  0.66596562  1
  Al0+  Al57  1  0.50021182  0.50170158  0.00134895  1
  Al0+  Al58  1  0.50028104  0.49831076  0.33065457  1
  Al0+  Al59  1  0.50021941  0.50164686  0.66800971  1
  Al0+  Al60  1  0.25070555  0.25100922  0.00048661  1
  Al0+  Al61  1  0.25094408  0.25075304  0.33539543  1
  Al0+  Al62  1  0.24994135  0.24853903  0.66258969  1
  Al0+  Al63  1  0.24862753  0.74988656  -0.00312353  1
  Al0+  Al64  1  0.25059146  0.74823960  0.32962222  1
  Al0+  Al65  1  0.24928354  0.75021448  0.67570311  1
  Al0+  Al66  1  0.75051131  0.25086319  -0.00406866  1
  Al0+  Al67  1  0.75048018  0.25057731  0.34240402  1
  Al0+  Al68  1  0.75004819  0.25049759  0.66736700  1
  Al0+  Al69  1  0.74926497  0.75055948  0.00210753  1
  Al0+  Al70  1  0.75034442  0.74852025  0.32746651  1
  Al0+  Al71  1  0.74807876  0.74818779  0.66848770  1
  Al0+  Al72  1  0.07153483  0.17725177  0.64760277  1
  Al0+  Al73  1  0.82170305  0.07276131  0.68458685  1
  Al0+  Al74  1  0.67863563  0.42961825  0.34683830  1
  Al0+  Al75  1  0.17957102  0.92935799  0.68134343  1
  Al0+  Al76  1  0.07246376  0.18091859  0.98577849  1
  Al0+  Al77  1  0.82124174  0.06906138  0.34503774  1
  Al0+  Al78  1  0.18091697  0.43059377  0.01311155  1
  Al0+  Al79  1  0.17809433  0.42793710  0.34953209  1
  Al0+  Al80  1  0.42882134  0.82139255  0.32059435  1
  Al0+  Al81  1  0.67961855  0.92972195  0.01521820  1
  Al0+  Al82  1  0.57173324  0.17992608  0.98714813  1
  Al0+  Al83  1  0.92830889  0.82037506  0.98340258  1
  Al0+  Al84  1  0.31908635  0.06868020  0.01281750  1
  Al0+  Al85  1  0.32362798  0.07160464  0.34917214  1
  Al0+  Al86  1  0.06925437  0.18056257  0.31841946  1
  Al0+  Al87  1  0.17945052  0.92855686  0.34485978  1
  Al0+  Al88  1  0.92846428  0.32270829  0.65040215  1
  Al0+  Al89  1  0.32196510  0.57069956  0.68012722  1
  Al0+  Al90  1  0.42964949  0.31983123  0.31933233  1
  Al0+  Al91  1  0.57012749  0.68038822  0.65247377  1
  Al0+  Al92  1  0.93015251  0.82061823  0.32103294  1
  Al0+  Al93  1  0.82106113  0.56990483  0.67999137  1
  Al0+  Al94  1  0.67818187  0.92897278  0.68048660  1
  Al0+  Al95  1  0.42831492  0.82166482  0.98488581  1
  Si0+  Si96  1  0.82025241  0.57131456  0.01690124  1
  Si0+  Si97  1  0.57468079  0.17796151  0.31914701  1
  Si0+  Si98  1  0.92950701  0.81848512  0.65258273  1
  Si0+  Si99  1  0.82086794  0.57323372  0.34970537  1
  Si0+  Si100  1  0.67759920  0.92558370  0.34932728  1
  Si0+  Si101  1  0.57102707  0.17739683  0.65092087  1
  Si0+  Si102  1  0.92720426  0.32428371  0.98546553  1
  Si0+  Si103  1  0.07286293  0.67848791  0.65320790  1
  Si0+  Si104  1  0.67826819  0.42728993  0.01437592  1
  Si0+  Si105  1  0.57196616  0.67762971  0.31502904  1
  Si0+  Si106  1  0.17911897  0.42750138  0.68250563  1
  Si0+  Si107  1  0.67642078  0.42825650  0.68505927  1
  Si0+  Si108  1  0.32376956  0.57416525  0.01839752  1
  Si0+  Si109  1  0.42538794  0.82247879  0.64987785  1
  Si0+  Si110  1  0.92647841  0.32377149  0.31717716  1
  Si0+  Si111  1  0.43088974  0.32156505  0.65297436  1
  Si0+  Si112  1  0.82262952  0.07306268  0.01545091  1
  Si0+  Si113  1  0.42837933  0.32337491  0.98282096  1
  Si0+  Si114  1  0.17479555  0.92700792  0.01595132  1
  Si0+  Si115  1  0.32175832  0.57166115  0.34840867  1
  Si0+  Si116  1  0.57114254  0.67638070  0.98301606  1
  Si0+  Si117  1  0.06967702  0.67515592  0.98274846  1
  Si0+  Si118  1  0.32216698  0.07432245  0.68381029  1
  Si0+  Si119  1  0.07301945  0.67499326  0.31718264  1
  O2-  O120  1  0.24416628  -0.00560833  0.05999335  1
  O2-  O121  1  0.25277861  -0.00237406  0.39742348  1
  O2-  O122  1  0.25398157  0.00482186  0.72675717  1
  O2-  O123  1  0.25514600  0.50540099  0.06175193  1
  O2-  O124  1  0.25225262  0.50450913  0.39386498  1
  O2-  O125  1  0.24764129  0.49598156  0.72731832  1
  O2-  O126  1  0.75552035  0.00369450  0.06130568  1
  O2-  O127  1  0.74661275  -0.00603065  0.39221164  1
  O2-  O128  1  0.74716246  0.00249544  0.73301039  1
  O2-  O129  1  0.74932610  0.49871346  0.05652525  1
  O2-  O130  1  0.75323594  0.50391945  0.39359359  1
  O2-  O131  1  0.74953490  0.49272861  0.72893765  1
  O2-  O132  1  -0.00450894  0.25707328  0.27100455  1
  O2-  O133  1  -0.00320102  0.24810534  0.59952891  1
  O2-  O134  1  -0.00417506  0.25565811  0.94224091  1
  O2-  O135  1  0.00600517  0.74620641  0.27417141  1
  O2-  O136  1  0.00297602  0.74990612  0.60989418  1
  O2-  O137  1  0.00558217  0.74737349  0.93726617  1
  O2-  O138  1  0.50230533  0.24241079  0.27381571  1
  O2-  O139  1  0.50108089  0.25007157  0.60980085  1
  O2-  O140  1  0.49837586  0.25611636  0.93885060  1
  O2-  O141  1  0.50591278  0.74910533  0.27205479  1
  O2-  O142  1  0.49604223  0.75551126  0.60569861  1
  O2-  O143  1  0.50166200  0.74440918  0.93969020  1
  O2-  O144  1  0.07253100  0.18063358  0.09896576  1
  O2-  O145  1  0.06729118  0.17902306  0.43085940  1
  O2-  O146  1  0.07446699  0.18149352  0.76154063  1
  O2-  O147  1  0.06577879  0.67086398  0.08817710  1
  O2-  O148  1  0.07252068  0.67352166  0.42303394  1
  O2-  O149  1  0.07114746  0.67777057  0.75838217  1
  O2-  O150  1  0.57362683  0.18336996  0.10009056  1
  O2-  O151  1  0.57452567  0.18108657  0.42496587  1
  O2-  O152  1  0.56917762  0.17769724  0.75626750  1
  O2-  O153  1  0.56998247  0.67217093  0.08858991  1
  O2-  O154  1  0.57286265  0.67706470  0.42063159  1
  O2-  O155  1  0.56853487  0.67976640  0.76557779  1
  O2-  O156  1  0.17939542  0.42935189  0.23608584  1
  O2-  O157  1  0.18087056  0.42904326  0.57700645  1
  O2-  O158  1  0.18271002  0.43297846  0.89977926  1
  O2-  O159  1  0.17827833  0.93155157  0.23129633  1
  O2-  O160  1  0.18081708  0.92529842  0.56852239  1
  O2-  O161  1  0.17675807  0.92777127  0.91018171  1
  O2-  O162  1  0.68005968  0.43087799  0.23290211  1
  O2-  O163  1  0.67304667  0.43166933  0.57956199  1
  O2-  O164  1  0.67683866  0.42735087  0.90964540  1
  O2-  O165  1  0.67753982  0.92690407  0.24353361  1
  O2-  O166  1  0.68025750  0.92929070  0.56664305  1
  O2-  O167  1  0.68003137  0.92970210  0.90237740  1
  O2-  O168  1  0.42932823  0.32388564  0.08827135  1
  O2-  O169  1  0.43255591  0.32225945  0.43299095  1
  O2-  O170  1  0.43206346  0.32193462  0.75825244  1
  O2-  O171  1  0.42978414  0.82111069  0.09821477  1
  O2-  O172  1  0.42853675  0.81708710  0.43362821  1
  O2-  O173  1  0.42615169  0.82132566  0.75557706  1
  O2-  O174  1  0.92358639  0.32481957  0.09097036  1
  O2-  O175  1  0.92740090  0.32474045  0.42226695  1
  O2-  O176  1  0.93468907  0.32515036  0.76460335  1
  O2-  O177  1  0.92843695  0.81899347  0.09675484  1
  O2-  O178  1  0.92936129  0.81814987  0.43439143  1
  O2-  O179  1  0.92959002  0.81484102  0.75779481  1
  O2-  O180  1  0.32333855  0.07138767  0.23536039  1
  O2-  O181  1  0.32461015  0.07548975  0.57862574  1
  O2-  O182  1  0.31817516  0.06796675  0.89945254  1
  O2-  O183  1  0.32079814  0.57127039  0.24274062  1
  O2-  O184  1  0.32046470  0.56960730  0.56698121  1
  O2-  O185  1  0.32497649  0.57194264  0.91264948  1
  O2-  O186  1  0.82018440  0.06857049  0.23156140  1
  O2-  O187  1  0.82180711  0.06862983  0.57063982  1
  O2-  O188  1  0.81991645  0.07318162  0.91028280  1
  O2-  O189  1  0.81945401  0.57312532  0.24365779  1
  O2-  O190  1  0.81811127  0.57180070  0.56711048  1
  O2-  O191  1  0.82147742  0.57111286  0.91185495  1
  O2-  O192  1  0.03696798  0.08512415  0.26316802  1
  O2-  O193  1  0.04239478  0.07725179  0.59797056  1
  O2-  O194  1  0.04334330  0.08568056  0.92872700  1
  O2-  O195  1  0.04242755  0.58264197  0.26985248  1
  O2-  O196  1  0.04517454  0.58710089  0.60512085  1
  O2-  O197  1  0.03915286  0.58325476  0.93508043  1
  O2-  O198  1  0.55515763  0.08231201  0.27529608  1
  O2-  O199  1  0.54233541  0.08663671  0.60206797  1
  O2-  O200  1  0.53792339  0.08571347  0.93121453  1
  O2-  O201  1  0.54368371  0.58519536  0.26780531  1
  O2-  O202  1  0.53881056  0.58330991  0.59871708  1
  O2-  O203  1  0.54703292  0.58246069  0.93526811  1
  O2-  O204  1  0.16667132  0.21276627  0.26728233  1
  O2-  O205  1  0.17028719  0.20675920  0.59529701  1
  O2-  O206  1  0.16779606  0.21527152  0.93094222  1
  O2-  O207  1  0.16696067  0.69490738  0.26986498  1
  O2-  O208  1  0.16565311  0.70539476  0.60757901  1
  O2-  O209  1  0.16566225  0.69476943  0.93909771  1
  O2-  O210  1  0.66688348  0.20918315  0.27304075  1
  O2-  O211  1  0.66368112  0.20347069  0.60499314  1
  O2-  O212  1  0.66703806  0.21178000  0.92989869  1
  O2-  O213  1  0.66614404  0.69872134  0.26765331  1
  O2-  O214  1  0.66683751  0.70966055  0.59719109  1
  O2-  O215  1  0.66547784  0.70209109  0.93942882  1
  O2-  O216  1  0.08472983  0.46087943  0.06939444  1
  O2-  O217  1  0.08112004  0.45761527  0.40322858  1
  O2-  O218  1  0.08617501  0.45450153  0.72821005  1
  O2-  O219  1  0.07947083  0.95408203  0.05708488  1
  O2-  O220  1  0.08178563  0.95814132  0.39814807  1
  O2-  O221  1  0.08370825  0.95906126  0.73667841  1
  O2-  O222  1  0.58654904  0.45581484  0.06265086  1
  O2-  O223  1  0.58221051  0.46149690  0.40064989  1
  O2-  O224  1  0.58546069  0.45859040  0.73374078  1
  O2-  O225  1  0.58389510  0.96386111  0.06809647  1
  O2-  O226  1  0.58472902  0.94886065  0.39690662  1
  O2-  O227  1  0.57770801  0.95561762  0.73094024  1
  O2-  O228  1  0.21412529  0.33558291  0.06789192  1
  O2-  O229  1  0.21269178  0.33421924  0.40472939  1
  O2-  O230  1  0.20713327  0.33403038  0.72735281  1
  O2-  O231  1  0.19576707  0.83083342  0.05886242  1
  O2-  O232  1  0.20404988  0.82745773  0.39536955  1
  O2-  O233  1  0.20806308  0.83395457  0.73973447  1
  O2-  O234  1  0.70692023  0.33615004  0.06266145  1
  O2-  O235  1  0.70675316  0.33490300  0.40492534  1
  O2-  O236  1  0.69712476  0.33298480  0.72908356  1
  O2-  O237  1  0.70822965  0.83227265  0.06940898  1
  O2-  O238  1  0.70286685  0.83020330  0.39177726  1
  O2-  O239  1  0.70761628  0.83131509  0.73393704  1
  O2-  O240  1  0.46215945  0.41521063  0.26297643  1
  O2-  O241  1  0.45974742  0.41275963  0.60519060  1
  O2-  O242  1  0.45368761  0.41822497  0.93803628  1
  O2-  O243  1  0.46008385  0.91849753  0.26671198  1
  O2-  O244  1  0.44727474  0.91727709  0.60476505  1
  O2-  O245  1  0.46158891  0.91630120  0.92970545  1
  O2-  O246  1  0.94866370  0.41928240  0.27223839  1
  O2-  O247  1  0.95654464  0.42171011  0.59720752  1
  O2-  O248  1  0.95401533  0.41898279  0.94166233  1
  O2-  O249  1  0.96044634  0.91529685  0.26353076  1
  O2-  O250  1  0.95633492  0.91152463  0.60857720  1
  O2-  O251  1  0.95571435  0.91580811  0.92606679  1
  O2-  O252  1  0.33297390  0.29136840  0.26540701  1
  O2-  O253  1  0.33886177  0.29540431  0.60538412  1
  O2-  O254  1  0.33634971  0.29639366  0.93522477  1
  O2-  O255  1  0.33384278  0.78891799  0.26334275  1
  O2-  O256  1  0.33208694  0.79193628  0.60630638  1
  O2-  O257  1  0.33036347  0.79294695  0.93144967  1
  O2-  O258  1  0.83151318  0.29769691  0.27357880  1
  O2-  O259  1  0.82604106  0.30184292  0.60200613  1
  O2-  O260  1  0.83407538  0.30210045  0.93655668  1
  O2-  O261  1  0.83461875  0.78846558  0.26377336  1
  O2-  O262  1  0.83886880  0.78732853  0.60556502  1
  O2-  O263  1  0.83202814  0.78471568  0.93154321  1
  O2-  O264  1  0.41589682  0.03904985  0.06614246  1
  O2-  O265  1  0.42312747  0.04583196  0.40193743  1
  O2-  O266  1  0.41590450  0.04896304  0.72997643  1
  O2-  O267  1  0.41778177  0.54985618  0.06447595  1
  O2-  O268  1  0.41529960  0.54441340  0.39327815  1
  O2-  O269  1  0.41714272  0.53850998  0.73638099  1
  O2-  O270  1  0.91756680  0.04587580  0.05769303  1
  O2-  O271  1  0.91574370  0.03487388  0.39999692  1
  O2-  O272  1  0.91917411  0.04321464  0.73700875  1
  O2-  O273  1  0.91104364  0.54495013  0.06690711  1
  O2-  O274  1  0.91481675  0.55102766  0.39586309  1
  O2-  O275  1  0.91833868  0.54205346  0.73603449  1
  O2-  O276  1  0.29164400  0.16700138  0.06493920  1
  O2-  O277  1  0.29480195  0.16936265  0.40167610  1
  O2-  O278  1  0.29656245  0.16803187  0.73043485  1
  O2-  O279  1  0.29695354  0.66823400  0.06286947  1
  O2-  O280  1  0.29736043  0.66499021  0.39519984  1
  O2-  O281  1  0.29122183  0.66497073  0.73799371  1
  O2-  O282  1  0.79689961  0.16748453  0.06035787  1
  O2-  O283  1  0.79251194  0.16450296  0.40212471  1
  O2-  O284  1  0.79542727  0.17278258  0.73538529  1
  O2-  O285  1  0.79026644  0.66150599  0.06592593  1
  O2-  O286  1  0.79349146  0.66655864  0.39556200  1
  O2-  O287  1  0.78647642  0.66390707  0.73660065  1
