# generated using pymatgen
data_Ca2Al2SiO7
_symmetry_space_group_name_H-M   'P 1'
_cell_length_a   15.47572181
_cell_length_b   15.47693414
_cell_length_c   15.29693110
_cell_angle_alpha   90.00205124
_cell_angle_beta   89.96518470
_cell_angle_gamma   89.95852013
_symmetry_Int_Tables_number   1
_chemical_formula_structural   Ca2Al2SiO7
_chemical_formula_sum   'Ca48 Al48 Si24 O168'
_cell_volume   3663.86923301
_cell_formula_units_Z   24
loop_
 _symmetry_equiv_pos_site_id
 _symmetry_equiv_pos_as_xyz
  1  'x, y, z'
loop_
 _atom_type_symbol
 _atom_type_oxidation_number
  Ca2+  2.0
  Al0+  0.0
  Si0+  0.0
  O2-  -2.0
loop_
 _atom_site_type_symbol
 _atom_site_label
 _atom_site_symmetry_multiplicity
 _atom_site_fract_x
 _atom_site_fract_y
 _atom_site_fract_z
 _atom_site_occupancy
  Ca2+  Ca0  1  0.16896737  0.09247225  0.17007661  1
  Ca2+  Ca1  1  0.16264671  0.08631485  0.50353031  1
  Ca2+  Ca2  1  0.17092435  0.08856533  0.84110355  1
  Ca2+  Ca3  1  0.16821120  0.59519940  0.16923379  1
  Ca2+  Ca4  1  0.16147219  0.58772092  0.50468260  1
  Ca2+  Ca5  1  0.16873340  0.59319905  0.84094602  1
  Ca2+  Ca6  1  0.67699118  0.07173390  0.17212573  1
  Ca2+  Ca7  1  0.67566504  0.07908620  0.49415207  1
  Ca2+  Ca8  1  0.67133001  0.07606533  0.84178660  1
  Ca2+  Ca9  1  0.67520812  0.57707792  0.17070510  1
  Ca2+  Ca10  1  0.68318487  0.58445546  0.50190435  1
  Ca2+  Ca11  1  0.67512461  0.57664991  0.83812456  1
  Ca2+  Ca12  1  0.06990780  0.32356301  0.16504206  1
  Ca2+  Ca13  1  0.07413408  0.32473889  0.49749866  1
  Ca2+  Ca14  1  0.07505449  0.32591317  0.83232582  1
  Ca2+  Ca15  1  0.06887937  0.82656879  0.16381055  1
  Ca2+  Ca16  1  0.07111209  0.82208214  0.49744561  1
  Ca2+  Ca17  1  0.07295665  0.82491580  0.83233126  1
  Ca2+  Ca18  1  0.57987232  0.33854466  0.16121277  1
  Ca2+  Ca19  1  0.57506954  0.33541880  0.49311249  1
  Ca2+  Ca20  1  0.58449708  0.33673763  0.83404233  1
  Ca2+  Ca21  1  0.57739514  0.84552327  0.16272932  1
  Ca2+  Ca22  1  0.57333941  0.84195837  0.49374678  1
  Ca2+  Ca23  1  0.57167215  0.84368800  0.83289883  1
  Ca2+  Ca24  1  0.33089926  0.42384947  0.17212473  1
  Ca2+  Ca25  1  0.32980953  0.41610901  0.50401868  1
  Ca2+  Ca26  1  0.32558509  0.42778698  0.84549652  1
  Ca2+  Ca27  1  0.33342613  0.91727797  0.16888914  1
  Ca2+  Ca28  1  0.33140895  0.91158417  0.50322699  1
  Ca2+  Ca29  1  0.33119324  0.91775235  0.84340035  1
  Ca2+  Ca30  1  0.83665396  0.41629242  0.17230401  1
  Ca2+  Ca31  1  0.85126858  0.42709230  0.50178047  1
  Ca2+  Ca32  1  0.83820748  0.41840466  0.83707849  1
  Ca2+  Ca33  1  0.82999100  0.91434938  0.17807292  1
  Ca2+  Ca34  1  0.84152809  0.91775145  0.50128569  1
  Ca2+  Ca35  1  0.83070380  0.91060646  0.84104600  1
  Ca2+  Ca36  1  0.41580819  0.17067411  0.16380719  1
  Ca2+  Ca37  1  0.42045058  0.17334204  0.49200625  1
  Ca2+  Ca38  1  0.41758277  0.16317408  0.83301859  1
  Ca2+  Ca39  1  0.41777999  0.67811613  0.15991408  1
  Ca2+  Ca40  1  0.42053880  0.67856398  0.49417822  1
  Ca2+  Ca41  1  0.41429970  0.67705487  0.83313736  1
  Ca2+  Ca42  1  0.91900241  0.16916351  0.15913148  1
  Ca2+  Ca43  1  0.92329535  0.17317562  0.48827244  1
  Ca2+  Ca44  1  0.92478031  0.17512174  0.82707199  1
  Ca2+  Ca45  1  0.92152162  0.66945289  0.16272563  1
  Ca2+  Ca46  1  0.91976512  0.66789854  0.49128980  1
  Ca2+  Ca47  1  0.92016044  0.67359429  0.82626310  1
  Al0+  Al48  1  0.00150711  -0.00104647  -0.00786274  1
  Al0+  Al49  1  0.00406798  -0.00282863  0.33226334  1
  Al0+  Al50  1  0.00276723  -0.00236945  0.66466876  1
  Al0+  Al51  1  0.00219463  0.49788005  -0.00552883  1
  Al0+  Al52  1  0.00431710  0.49578085  0.32977975  1
  Al0+  Al53  1  0.00265561  0.49720818  0.66943067  1
  Al0+  Al54  1  0.49940783  0.00274709  0.00405020  1
  Al0+  Al55  1  0.49926818  0.00324508  0.33415103  1
  Al0+  Al56  1  0.49950537  0.00270925  0.66196820  1
  Al0+  Al57  1  0.49899246  0.50208104  0.00700912  1
  Al0+  Al58  1  0.49831385  0.50263719  0.33159969  1
  Al0+  Al59  1  0.49927756  0.50206824  0.66760639  1
  Al0+  Al60  1  0.25106263  0.25270617  0.00219722  1
  Al0+  Al61  1  0.25156514  0.25277215  0.32851404  1
  Al0+  Al62  1  0.25163094  0.25151255  0.66685144  1
  Al0+  Al63  1  0.25145127  0.75321087  -0.00091552  1
  Al0+  Al64  1  0.25324696  0.75188643  0.32903595  1
  Al0+  Al65  1  0.25064010  0.75248807  0.66107422  1
  Al0+  Al66  1  0.74731282  0.24912412  0.00005781  1
  Al0+  Al67  1  0.74738837  0.24790631  0.33586493  1
  Al0+  Al68  1  0.74789365  0.24948679  0.66288170  1
  Al0+  Al69  1  0.74592204  0.74641261  0.00165191  1
  Al0+  Al70  1  0.74619923  0.74643781  0.33999997  1
  Al0+  Al71  1  0.74697920  0.74935469  0.67061222  1
  Al0+  Al72  1  0.92562124  0.81896696  0.32035306  1
  Al0+  Al73  1  0.82278040  0.56609968  0.34520802  1
  Al0+  Al74  1  0.07142119  0.67736609  0.31892397  1
  Al0+  Al75  1  0.82506594  0.06915759  0.34764712  1
  Al0+  Al76  1  0.31822530  0.57369230  0.01517740  1
  Al0+  Al77  1  0.68007700  0.42780113  0.01318388  1
  Al0+  Al78  1  0.92694528  0.31943043  0.65070737  1
  Al0+  Al79  1  0.43275212  0.82266346  0.98675087  1
  Al0+  Al80  1  0.07136805  0.17674931  0.31877102  1
  Al0+  Al81  1  0.82247375  0.56965215  0.68116044  1
  Al0+  Al82  1  0.07323771  0.17843720  0.98445338  1
  Al0+  Al83  1  0.67808008  0.92764051  0.34962148  1
  Al0+  Al84  1  0.92710974  0.31923836  0.31859325  1
  Al0+  Al85  1  0.07058409  0.67851310  0.65323933  1
  Al0+  Al86  1  0.07339371  0.17874465  0.65210865  1
  Al0+  Al87  1  0.43217360  0.82263315  0.31775285  1
  Al0+  Al88  1  0.67949668  0.92770755  0.01148039  1
  Al0+  Al89  1  0.31963600  0.07243955  0.01466767  1
  Al0+  Al90  1  0.43108924  0.82203837  0.65278550  1
  Al0+  Al91  1  0.92509852  0.31915739  0.98408538  1
  Al0+  Al92  1  0.43058359  0.32287318  0.31889205  1
  Al0+  Al93  1  0.92338592  0.81970397  0.98639410  1
  Al0+  Al94  1  0.07122161  0.67994070  0.98595879  1
  Al0+  Al95  1  0.92444286  0.81962782  0.65199060  1
  Si0+  Si96  1  0.18084769  0.92809921  0.68238042  1
  Si0+  Si97  1  0.56822306  0.18039683  0.98498701  1
  Si0+  Si98  1  0.32061413  0.57277113  0.68116209  1
  Si0+  Si99  1  0.57029183  0.67425706  0.98233578  1
  Si0+  Si100  1  0.17775155  0.92899026  0.01744735  1
  Si0+  Si101  1  0.57177922  0.67724260  0.31563251  1
  Si0+  Si102  1  0.82412623  0.56956838  0.01589813  1
  Si0+  Si103  1  0.18307544  0.42858272  0.35033986  1
  Si0+  Si104  1  0.43062050  0.32261734  0.65498201  1
  Si0+  Si105  1  0.57105186  0.17893972  0.31439043  1
  Si0+  Si106  1  0.57062758  0.17833921  0.65035110  1
  Si0+  Si107  1  0.18179045  0.92672653  0.34993008  1
  Si0+  Si108  1  0.42961335  0.32418322  0.98478531  1
  Si0+  Si109  1  0.32104603  0.57329950  0.35097256  1
  Si0+  Si110  1  0.82267205  0.06956231  0.01188721  1
  Si0+  Si111  1  0.57059055  0.67593236  0.64977941  1
  Si0+  Si112  1  0.18194136  0.42750099  0.68367917  1
  Si0+  Si113  1  0.17754597  0.42835598  0.01959519  1
  Si0+  Si114  1  0.67476393  0.42753595  0.35007054  1
  Si0+  Si115  1  0.32117681  0.07215399  0.68059380  1
  Si0+  Si116  1  0.31897486  0.07323861  0.34971035  1
  Si0+  Si117  1  0.67441387  0.42752352  0.68202743  1
  Si0+  Si118  1  0.67605091  0.93152101  0.68172950  1
  Si0+  Si119  1  0.82199150  0.07051099  0.68066448  1
  O2-  O120  1  0.24130625  0.00273872  0.06213623  1
  O2-  O121  1  0.24891937  0.00256235  0.39291558  1
  O2-  O122  1  0.24924110  0.00326186  0.72318215  1
  O2-  O123  1  0.24073130  0.50273777  0.06326551  1
  O2-  O124  1  0.24986480  0.50354914  0.39447683  1
  O2-  O125  1  0.24780508  0.50449908  0.72441078  1
  O2-  O126  1  0.76334541  -0.00729820  0.05600537  1
  O2-  O127  1  0.75666689  -0.00684885  0.39940419  1
  O2-  O128  1  0.75321217  -0.00351804  0.72326188  1
  O2-  O129  1  0.75850606  0.49739703  0.05965039  1
  O2-  O130  1  0.74965243  0.48887235  0.39396919  1
  O2-  O131  1  0.74762202  0.49179899  0.72461771  1
  O2-  O132  1  -0.00949874  0.23900445  0.26987330  1
  O2-  O133  1  -0.00454245  0.24342590  0.60223621  1
  O2-  O134  1  -0.00230313  0.24684123  0.93540679  1
  O2-  O135  1  -0.00521317  0.74459207  0.27045269  1
  O2-  O136  1  -0.00866961  0.74205095  0.60352807  1
  O2-  O137  1  -0.00581148  0.74636234  0.93650296  1
  O2-  O138  1  0.50816167  0.25298697  0.27051672  1
  O2-  O139  1  0.50312694  0.25440302  0.61154304  1
  O2-  O140  1  0.49918712  0.25288761  0.94082373  1
  O2-  O141  1  0.50996091  0.75195297  0.27137942  1
  O2-  O142  1  0.50639419  0.74883804  0.60560465  1
  O2-  O143  1  0.50708739  0.74853873  0.93828295  1
  O2-  O144  1  0.07325828  0.18122503  0.09751429  1
  O2-  O145  1  0.07493007  0.18211488  0.43227028  1
  O2-  O146  1  0.07683303  0.18311447  0.76517787  1
  O2-  O147  1  0.07075037  0.68317222  0.09914337  1
  O2-  O148  1  0.07199594  0.67905274  0.43252640  1
  O2-  O149  1  0.07433268  0.68391917  0.76620718  1
  O2-  O150  1  0.56631281  0.18123535  0.08948479  1
  O2-  O151  1  0.56653767  0.17851964  0.42063449  1
  O2-  O152  1  0.56895633  0.17455634  0.75549743  1
  O2-  O153  1  0.56751099  0.67093232  0.08748883  1
  O2-  O154  1  0.56626645  0.67280943  0.42129290  1
  O2-  O155  1  0.56633138  0.67168152  0.75505269  1
  O2-  O156  1  0.18743385  0.42669679  0.24583696  1
  O2-  O157  1  0.18741024  0.42337964  0.57867770  1
  O2-  O158  1  0.18352856  0.42555858  0.91366784  1
  O2-  O159  1  0.18566031  0.92429385  0.24530520  1
  O2-  O160  1  0.18457255  0.92666918  0.57730798  1
  O2-  O161  1  0.18245059  0.92759857  0.91151810  1
  O2-  O162  1  0.67063928  0.43214771  0.24475500  1
  O2-  O163  1  0.66470929  0.43048392  0.57736784  1
  O2-  O164  1  0.67701547  0.43067254  0.89987329  1
  O2-  O165  1  0.67568869  0.93357558  0.23622808  1
  O2-  O166  1  0.67007616  0.93679825  0.57750592  1
  O2-  O167  1  0.67545337  0.93453724  0.89778659  1
  O2-  O168  1  0.43132860  0.32374514  0.08954831  1
  O2-  O169  1  0.43044774  0.32041429  0.43305937  1
  O2-  O170  1  0.43078618  0.32236732  0.75994302  1
  O2-  O171  1  0.43414936  0.82308574  0.09938639  1
  O2-  O172  1  0.43083079  0.82031080  0.43129363  1
  O2-  O173  1  0.43128379  0.82389141  0.76572373  1
  O2-  O174  1  0.92318703  0.31606633  0.09736864  1
  O2-  O175  1  0.93345382  0.32150311  0.43179480  1
  O2-  O176  1  0.92700707  0.31724979  0.76411968  1
  O2-  O177  1  0.92296262  0.81905863  0.09965253  1
  O2-  O178  1  0.92956535  0.81788596  0.43375418  1
  O2-  O179  1  0.92593648  0.82014980  0.76546223  1
  O2-  O180  1  0.31929607  0.07385633  0.24490489  1
  O2-  O181  1  0.32314294  0.07399060  0.57560816  1
  O2-  O182  1  0.32252783  0.07052224  0.90081333  1
  O2-  O183  1  0.32141070  0.57247836  0.24619699  1
  O2-  O184  1  0.32313424  0.56945353  0.57606420  1
  O2-  O185  1  0.31949958  0.57123916  0.90121040  1
  O2-  O186  1  0.82149037  0.07052820  0.23393210  1
  O2-  O187  1  0.81953215  0.07152982  0.57602895  1
  O2-  O188  1  0.81672259  0.07270794  0.90591260  1
  O2-  O189  1  0.82042925  0.56505884  0.23228516  1
  O2-  O190  1  0.82141665  0.56843965  0.56805996  1
  O2-  O191  1  0.82096100  0.56995180  0.91019490  1
  O2-  O192  1  0.05834681  0.07447629  0.26992863  1
  O2-  O193  1  0.05418238  0.07712421  0.60386812  1
  O2-  O194  1  0.05260917  0.07884009  0.93083553  1
  O2-  O195  1  0.05174875  0.57720156  0.26741839  1
  O2-  O196  1  0.05412522  0.57569641  0.60637894  1
  O2-  O197  1  0.05415541  0.57831966  0.93548802  1
  O2-  O198  1  0.53711948  0.08908209  0.26736954  1
  O2-  O199  1  0.53586726  0.09155459  0.59857741  1
  O2-  O200  1  0.53632670  0.09097565  0.93538580  1
  O2-  O201  1  0.53904853  0.58719453  0.26695003  1
  O2-  O202  1  0.53988385  0.58493733  0.60081070  1
  O2-  O203  1  0.53739503  0.58356611  0.93438855  1
  O2-  O204  1  0.16657646  0.21520230  0.26592298  1
  O2-  O205  1  0.17132403  0.21222334  0.59963108  1
  O2-  O206  1  0.17196438  0.21175410  0.93318527  1
  O2-  O207  1  0.16891220  0.71093085  0.26789342  1
  O2-  O208  1  0.16682901  0.71218074  0.59812528  1
  O2-  O209  1  0.16838887  0.71370679  0.93320002  1
  O2-  O210  1  0.66631751  0.19699152  0.27057027  1
  O2-  O211  1  0.66191519  0.20226265  0.60118309  1
  O2-  O212  1  0.65921005  0.20635327  0.93527771  1
  O2-  O213  1  0.66748435  0.69410738  0.27241523  1
  O2-  O214  1  0.66532648  0.69845606  0.60652159  1
  O2-  O215  1  0.66538148  0.69335334  0.93767027  1
  O2-  O216  1  0.08127441  0.44650385  0.06192538  1
  O2-  O217  1  0.09056126  0.45220387  0.39749464  1
  O2-  O218  1  0.08926417  0.44796852  0.73116016  1
  O2-  O219  1  0.08128847  0.94847738  0.05967570  1
  O2-  O220  1  0.08937489  0.94911237  0.39812729  1
  O2-  O221  1  0.08801552  0.95104167  0.72999710  1
  O2-  O222  1  0.58484116  0.46148191  0.06869473  1
  O2-  O223  1  0.58283042  0.46019942  0.39764665  1
  O2-  O224  1  0.58264605  0.45745952  0.73219483  1
  O2-  O225  1  0.58787020  0.97001762  0.06693205  1
  O2-  O226  1  0.58184246  0.96766908  0.40311447  1
  O2-  O227  1  0.58643271  0.96831532  0.72996900  1
  O2-  O228  1  0.21155895  0.33860166  0.06752344  1
  O2-  O229  1  0.21854529  0.33950659  0.39936758  1
  O2-  O230  1  0.21830410  0.33944989  0.73381754  1
  O2-  O231  1  0.21121253  0.83918586  0.06530523  1
  O2-  O232  1  0.21804427  0.83806026  0.39905498  1
  O2-  O233  1  0.21554824  0.83882014  0.73050066  1
  O2-  O234  1  0.70209399  0.32893224  0.06718128  1
  O2-  O235  1  0.68809498  0.33036994  0.39262659  1
  O2-  O236  1  0.69360708  0.33076543  0.72496507  1
  O2-  O237  1  0.69400593  0.82676651  0.06264225  1
  O2-  O238  1  0.69111092  0.82577656  0.40068141  1
  O2-  O239  1  0.69308549  0.83675059  0.72746475  1
  O2-  O240  1  0.45662565  0.42070787  0.26589050  1
  O2-  O241  1  0.45549581  0.41474660  0.60642196  1
  O2-  O242  1  0.45905180  0.41556210  0.93770919  1
  O2-  O243  1  0.45785940  0.92183154  0.26741979  1
  O2-  O244  1  0.46045550  0.91886223  0.59801889  1
  O2-  O245  1  0.46414812  0.91983110  0.93330122  1
  O2-  O246  1  0.96510899  0.41269123  0.26296148  1
  O2-  O247  1  0.96343685  0.41597670  0.60063066  1
  O2-  O248  1  0.95529769  0.41691697  0.93122014  1
  O2-  O249  1  0.95753588  0.91621902  0.26786661  1
  O2-  O250  1  0.95931121  0.91631072  0.60009769  1
  O2-  O251  1  0.95148491  0.91772707  0.93188478  1
  O2-  O252  1  0.33720950  0.28874443  0.26308103  1
  O2-  O253  1  0.34097637  0.29221089  0.60569402  1
  O2-  O254  1  0.33822524  0.29687679  0.93738672  1
  O2-  O255  1  0.33804259  0.78834084  0.26315925  1
  O2-  O256  1  0.33663639  0.78968605  0.59686483  1
  O2-  O257  1  0.33678441  0.79156904  0.93265784  1
  O2-  O258  1  0.82323144  0.30255238  0.27330677  1
  O2-  O259  1  0.82561065  0.29965577  0.59998576  1
  O2-  O260  1  0.82597086  0.29183101  0.93132973  1
  O2-  O261  1  0.82384686  0.79514156  0.27366339  1
  O2-  O262  1  0.82190204  0.80091870  0.60430099  1
  O2-  O263  1  0.82370934  0.79280942  0.93426383  1
  O2-  O264  1  0.41460829  0.04019491  0.07019741  1
  O2-  O265  1  0.41102394  0.04653272  0.39752686  1
  O2-  O266  1  0.41335921  0.04346360  0.72756114  1
  O2-  O267  1  0.41256653  0.53892270  0.07045951  1
  O2-  O268  1  0.41249064  0.54354676  0.39866888  1
  O2-  O269  1  0.41136709  0.54272784  0.72977140  1
  O2-  O270  1  0.91998293  0.05445091  0.05253510  1
  O2-  O271  1  0.92530762  0.04529943  0.39984861  1
  O2-  O272  1  0.91559021  0.04641784  0.72628043  1
  O2-  O273  1  0.91942409  0.54686579  0.05878283  1
  O2-  O274  1  0.92076891  0.53552917  0.39777144  1
  O2-  O275  1  0.91908142  0.53940772  0.73556367  1
  O2-  O276  1  0.29514108  0.17127128  0.06802063  1
  O2-  O277  1  0.29230383  0.16608951  0.39656704  1
  O2-  O278  1  0.29670262  0.16484066  0.72906642  1
  O2-  O279  1  0.29171152  0.67152808  0.06856899  1
  O2-  O280  1  0.29467273  0.66593233  0.39761698  1
  O2-  O281  1  0.29452233  0.66608969  0.72622379  1
  O2-  O282  1  0.78683647  0.15896625  0.05985126  1
  O2-  O283  1  0.78953395  0.16608129  0.40286265  1
  O2-  O284  1  0.78903903  0.16155631  0.72754177  1
  O2-  O285  1  0.79353791  0.66095086  0.06327281  1
  O2-  O286  1  0.78917528  0.66054822  0.40261000  1
  O2-  O287  1  0.78807241  0.66535649  0.73646135  1
