# generated using pymatgen
data_Ca2Al2SiO7
_symmetry_space_group_name_H-M   'P 1'
_cell_length_a   15.46147962
_cell_length_b   15.46149161
_cell_length_c   15.28641118
_cell_angle_alpha   89.98875031
_cell_angle_beta   89.99755904
_cell_angle_gamma   90.00508979
_symmetry_Int_Tables_number   1
_chemical_formula_structural   Ca2Al2SiO7
_chemical_formula_sum   'Ca48 Al48 Si24 O168'
_cell_volume   3654.33172353
_cell_formula_units_Z   24
loop_
 _symmetry_equiv_pos_site_id
 _symmetry_equiv_pos_as_xyz
  1  'x, y, z'
loop_
 _atom_type_symbol
 _atom_type_oxidation_number
  Ca2+  2.0
  Al0+  0.0
  Si0+  0.0
  O2-  -2.0
loop_
 _atom_site_type_symbol
 _atom_site_label
 _atom_site_symmetry_multiplicity
 _atom_site_fract_x
 _atom_site_fract_y
 _atom_site_fract_z
 _atom_site_occupancy
  Ca2+  Ca0  1  0.16679424  0.08075443  0.17983973  1
  Ca2+  Ca1  1  0.17269596  0.07450720  0.50765209  1
  Ca2+  Ca2  1  0.16784311  0.08047363  0.83409191  1
  Ca2+  Ca3  1  0.17420167  0.58837047  0.16852941  1
  Ca2+  Ca4  1  0.17522758  0.58217667  0.51037161  1
  Ca2+  Ca5  1  0.17066668  0.58661725  0.83251199  1
  Ca2+  Ca6  1  0.66432387  0.07917331  0.16995751  1
  Ca2+  Ca7  1  0.66066024  0.08629615  0.50647993  1
  Ca2+  Ca8  1  0.66381774  0.07773542  0.83611958  1
  Ca2+  Ca9  1  0.68158290  0.58140945  0.17325048  1
  Ca2+  Ca10  1  0.67639739  0.58096498  0.51111160  1
  Ca2+  Ca11  1  0.67657086  0.58577464  0.83557630  1
  Ca2+  Ca12  1  0.08366791  0.32093310  0.15824181  1
  Ca2+  Ca13  1  0.08154712  0.33617287  0.49879703  1
  Ca2+  Ca14  1  0.07374713  0.33966776  0.82756331  1
  Ca2+  Ca15  1  0.08362837  0.82967243  0.16251229  1
  Ca2+  Ca16  1  0.09329707  0.83057783  0.50030519  1
  Ca2+  Ca17  1  0.08632562  0.82202671  0.82617057  1
  Ca2+  Ca18  1  0.58245002  0.32830820  0.16679760  1
  Ca2+  Ca19  1  0.58820457  0.32445734  0.49945659  1
  Ca2+  Ca20  1  0.58686507  0.32767352  0.82253723  1
  Ca2+  Ca21  1  0.57544491  0.83472478  0.16406223  1
  Ca2+  Ca22  1  0.56833437  0.82587397  0.49998052  1
  Ca2+  Ca23  1  0.57854272  0.82689125  0.82251391  1
  Ca2+  Ca24  1  0.33305896  0.42978198  0.17147675  1
  Ca2+  Ca25  1  0.32791750  0.42652343  0.50941914  1
  Ca2+  Ca26  1  0.33121730  0.42909327  0.83476753  1
  Ca2+  Ca27  1  0.32471520  0.92152382  0.17928528  1
  Ca2+  Ca28  1  0.33006981  0.92047483  0.50398998  1
  Ca2+  Ca29  1  0.33248210  0.91664983  0.82728515  1
  Ca2+  Ca30  1  0.84360189  0.42464783  0.16583115  1
  Ca2+  Ca31  1  0.83122636  0.42373658  0.51025944  1
  Ca2+  Ca32  1  0.83498061  0.41991958  0.83102111  1
  Ca2+  Ca33  1  0.82313374  0.91299609  0.16912109  1
  Ca2+  Ca34  1  0.83126789  0.92188697  0.50445573  1
  Ca2+  Ca35  1  0.82397814  0.91591107  0.83906852  1
  Ca2+  Ca36  1  0.41754717  0.16310838  0.16898746  1
  Ca2+  Ca37  1  0.42244282  0.15776086  0.49635276  1
  Ca2+  Ca38  1  0.42215704  0.16609607  0.82306698  1
  Ca2+  Ca39  1  0.40755726  0.67199200  0.16411614  1
  Ca2+  Ca40  1  0.40658363  0.67403023  0.49775007  1
  Ca2+  Ca41  1  0.41796199  0.66988785  0.82046084  1
  Ca2+  Ca42  1  0.93046150  0.17178993  0.15785887  1
  Ca2+  Ca43  1  0.92336844  0.17656680  0.49530226  1
  Ca2+  Ca44  1  0.92119734  0.17879118  0.82874106  1
  Ca2+  Ca45  1  0.92157141  0.66193795  0.15925773  1
  Ca2+  Ca46  1  0.92129940  0.65880503  0.50080746  1
  Ca2+  Ca47  1  0.92551846  0.65542412  0.82816026  1
  Al0+  Al48  1  -0.00112120  -0.00045713  -0.00438021  1
  Al0+  Al49  1  -0.00312535  -0.00159108  0.33249021  1
  Al0+  Al50  1  -0.00002413  0.00014186  0.67195591  1
  Al0+  Al51  1  0.00141507  0.49847459  -0.00243393  1
  Al0+  Al52  1  -0.00031124  0.50137581  0.33510896  1
  Al0+  Al53  1  -0.00008400  0.50050461  0.66274937  1
  Al0+  Al54  1  0.49823100  -0.00119758  0.00428483  1
  Al0+  Al55  1  0.49926321  -0.00237043  0.32685539  1
  Al0+  Al56  1  0.49977453  -0.00121705  0.66312092  1
  Al0+  Al57  1  0.50085958  0.50082756  0.00655902  1
  Al0+  Al58  1  0.50261897  0.49975116  0.33640022  1
  Al0+  Al59  1  0.50252173  0.49742618  0.66917499  1
  Al0+  Al60  1  0.25320739  0.24991401  -0.00385426  1
  Al0+  Al61  1  0.25189427  0.25065768  0.33175557  1
  Al0+  Al62  1  0.25018542  0.24966283  0.67523996  1
  Al0+  Al63  1  0.24951960  0.75293784  -0.00066077  1
  Al0+  Al64  1  0.24907390  0.75056137  0.33410786  1
  Al0+  Al65  1  0.24849523  0.75228214  0.66571289  1
  Al0+  Al66  1  0.75001965  0.24866337  -0.00185015  1
  Al0+  Al67  1  0.74982820  0.24993280  0.32477346  1
  Al0+  Al68  1  0.75207793  0.25123353  0.66136093  1
  Al0+  Al69  1  0.74798241  0.74952427  0.01048384  1
  Al0+  Al70  1  0.74979746  0.74985132  0.33810556  1
  Al0+  Al71  1  0.75066769  0.75158330  0.66587873  1
  Al0+  Al72  1  0.57372263  0.67530075  0.65297900  1
  Al0+  Al73  1  0.56951031  0.18023651  0.65450929  1
  Al0+  Al74  1  0.07124040  0.17877051  0.32276297  1
  Al0+  Al75  1  0.07091594  0.68140232  0.98690542  1
  Al0+  Al76  1  0.42869154  0.81715070  0.31711641  1
  Al0+  Al77  1  0.57029314  0.17894306  0.31714683  1
  Al0+  Al78  1  0.17739706  0.92931203  0.68479298  1
  Al0+  Al79  1  0.32081240  0.57282376  0.01422000  1
  Al0+  Al80  1  0.92962079  0.32069706  0.98324159  1
  Al0+  Al81  1  0.82182155  0.56808781  0.01427282  1
  Al0+  Al82  1  0.17768029  0.42889251  0.68182048  1
  Al0+  Al83  1  0.17531878  0.92970809  0.34788787  1
  Al0+  Al84  1  0.82011355  0.57267748  0.68249455  1
  Al0+  Al85  1  0.67978694  0.42655244  0.68074031  1
  Al0+  Al86  1  0.32198494  0.07211449  0.34757896  1
  Al0+  Al87  1  0.42866788  0.81879466  0.65114939  1
  Al0+  Al88  1  0.93167832  0.32040395  0.65039381  1
  Al0+  Al89  1  0.06866841  0.68088673  0.65173351  1
  Al0+  Al90  1  0.07475251  0.17614214  0.98243556  1
  Al0+  Al91  1  0.32199162  0.57226370  0.68081644  1
  Al0+  Al92  1  0.32109038  0.57113241  0.34682902  1
  Al0+  Al93  1  0.67778128  0.92941615  0.01457068  1
  Al0+  Al94  1  0.82162593  0.57069043  0.34905344  1
  Al0+  Al95  1  0.32322746  0.07011771  0.68255128  1
  Si0+  Si96  1  0.17969567  0.42727377  0.01680530  1
  Si0+  Si97  1  0.56838474  0.17797303  0.98552203  1
  Si0+  Si98  1  0.07362813  0.17610323  0.65040293  1
  Si0+  Si99  1  0.67710263  0.42500300  0.01877626  1
  Si0+  Si100  1  0.67795787  0.92981016  0.35030627  1
  Si0+  Si101  1  0.81920807  0.07139097  0.34652235  1
  Si0+  Si102  1  0.42954568  0.82070761  0.98474098  1
  Si0+  Si103  1  0.42536026  0.32243711  0.65139256  1
  Si0+  Si104  1  0.17851771  0.42753582  0.34735293  1
  Si0+  Si105  1  0.82151949  0.07211538  0.01689297  1
  Si0+  Si106  1  0.92920227  0.32291566  0.31494504  1
  Si0+  Si107  1  0.32120781  0.07187348  0.01609522  1
  Si0+  Si108  1  0.57162417  0.67904765  0.98849969  1
  Si0+  Si109  1  0.92516648  0.82147657  0.31769091  1
  Si0+  Si110  1  0.06913306  0.68000973  0.31810672  1
  Si0+  Si111  1  0.92396346  0.82066946  0.98489236  1
  Si0+  Si112  1  0.92656058  0.82585032  0.65019352  1
  Si0+  Si113  1  0.57445944  0.67724832  0.31550616  1
  Si0+  Si114  1  0.17851541  0.93076352  0.01468103  1
  Si0+  Si115  1  0.67934705  0.42566551  0.34951065  1
  Si0+  Si116  1  0.82169870  0.07290139  0.68078747  1
  Si0+  Si117  1  0.43116562  0.32406619  0.98523909  1
  Si0+  Si118  1  0.67984289  0.93109258  0.67940286  1
  Si0+  Si119  1  0.42781788  0.32542135  0.31593541  1
  O2-  O120  1  0.24305884  0.00782766  0.05655312  1
  O2-  O121  1  0.24552247  0.00440795  0.39581385  1
  O2-  O122  1  0.24901941  0.00182145  0.73480026  1
  O2-  O123  1  0.24635021  0.49778148  0.06174877  1
  O2-  O124  1  0.24875317  0.49410006  0.39147843  1
  O2-  O125  1  0.25073877  0.50009702  0.73187661  1
  O2-  O126  1  0.75402734  0.00259145  0.06223850  1
  O2-  O127  1  0.74607509  0.00405892  0.39179045  1
  O2-  O128  1  0.75150236  0.00080317  0.72274595  1
  O2-  O129  1  0.74857698  0.49163983  0.06182554  1
  O2-  O130  1  0.74672961  0.49551506  0.39276543  1
  O2-  O131  1  0.74551728  0.50330165  0.73226513  1
  O2-  O132  1  -0.00072714  0.25481835  0.27268806  1
  O2-  O133  1  0.00901697  0.24769246  0.60477066  1
  O2-  O134  1  0.00358881  0.24978394  0.93409474  1
  O2-  O135  1  -0.00336706  0.75038187  0.27634505  1
  O2-  O136  1  -0.00542804  0.75718897  0.60545401  1
  O2-  O137  1  -0.00788077  0.75257173  0.94045950  1
  O2-  O138  1  0.49473431  0.25375915  0.27160345  1
  O2-  O139  1  0.49365794  0.25301695  0.60698835  1
  O2-  O140  1  0.50192018  0.25231929  0.94315240  1
  O2-  O141  1  0.50157072  0.74037406  0.26906915  1
  O2-  O142  1  0.49505319  0.74008086  0.60266138  1
  O2-  O143  1  0.49875724  0.74717779  0.94478994  1
  O2-  O144  1  0.07355730  0.17620109  0.09686826  1
  O2-  O145  1  0.06706450  0.17994571  0.43534754  1
  O2-  O146  1  0.06837487  0.17438864  0.75574628  1
  O2-  O147  1  0.07120919  0.68486763  0.10077421  1
  O2-  O148  1  0.06833779  0.67930944  0.42269098  1
  O2-  O149  1  0.06752553  0.68166572  0.76507418  1
  O2-  O150  1  0.56644594  0.17732423  0.09067232  1
  O2-  O151  1  0.57273108  0.18003223  0.42975285  1
  O2-  O152  1  0.57001051  0.17841155  0.76821297  1
  O2-  O153  1  0.57168303  0.68142219  0.09372019  1
  O2-  O154  1  0.57765060  0.68146920  0.42038823  1
  O2-  O155  1  0.57696371  0.68286109  0.76730911  1
  O2-  O156  1  0.17785801  0.42903148  0.24145659  1
  O2-  O157  1  0.17946271  0.42989309  0.56753836  1
  O2-  O158  1  0.18170994  0.42760537  0.91184304  1
  O2-  O159  1  0.17570043  0.92946015  0.23323016  1
  O2-  O160  1  0.17535976  0.93214837  0.57156133  1
  O2-  O161  1  0.18197312  0.92808031  0.91028538  1
  O2-  O162  1  0.67966162  0.42587826  0.24353511  1
  O2-  O163  1  0.68559447  0.42197860  0.56715789  1
  O2-  O164  1  0.67350392  0.42491129  0.91393288  1
  O2-  O165  1  0.68036691  0.92929831  0.24484515  1
  O2-  O166  1  0.68122692  0.93330436  0.57417364  1
  O2-  O167  1  0.67723326  0.93156919  0.90135330  1
  O2-  O168  1  0.43188272  0.32326655  0.09052995  1
  O2-  O169  1  0.42873274  0.32882847  0.42074738  1
  O2-  O170  1  0.42781147  0.32066131  0.75748743  1
  O2-  O171  1  0.42930373  0.82132114  0.08999909  1
  O2-  O172  1  0.43010050  0.81773378  0.42929067  1
  O2-  O173  1  0.43400525  0.82145841  0.76556173  1
  O2-  O174  1  0.93199760  0.31853239  0.09757416  1
  O2-  O175  1  0.92728671  0.32180765  0.42025628  1
  O2-  O176  1  0.92966993  0.31757520  0.76309743  1
  O2-  O177  1  0.92487615  0.82113412  0.09087276  1
  O2-  O178  1  0.92149462  0.82385043  0.42214093  1
  O2-  O179  1  0.92440503  0.82811969  0.75567854  1
  O2-  O180  1  0.32012416  0.06911772  0.23303766  1
  O2-  O181  1  0.32464935  0.06790274  0.56931639  1
  O2-  O182  1  0.32772401  0.06874880  0.91171708  1
  O2-  O183  1  0.31709502  0.57152780  0.23310533  1
  O2-  O184  1  0.31842477  0.57069711  0.56706355  1
  O2-  O185  1  0.32355882  0.57238227  0.90213077  1
  O2-  O186  1  0.81843971  0.06759824  0.24142854  1
  O2-  O187  1  0.82173277  0.07122996  0.57523600  1
  O2-  O188  1  0.81844659  0.07178738  0.91130961  1
  O2-  O189  1  0.82311099  0.56953556  0.23541192  1
  O2-  O190  1  0.81957963  0.57052709  0.56873479  1
  O2-  O191  1  0.81886136  0.57165140  0.90229168  1
  O2-  O192  1  0.03628906  0.08303435  0.26768452  1
  O2-  O193  1  0.04272335  0.08350386  0.60507887  1
  O2-  O194  1  0.04431110  0.07797438  0.92975633  1
  O2-  O195  1  0.04165184  0.58786309  0.27014444  1
  O2-  O196  1  0.03767056  0.58591477  0.59527524  1
  O2-  O197  1  0.04512995  0.58314354  0.93559248  1
  O2-  O198  1  0.54070545  0.08256775  0.26154449  1
  O2-  O199  1  0.54098173  0.08380265  0.59923920  1
  O2-  O200  1  0.53666194  0.08659626  0.93940217  1
  O2-  O201  1  0.55618875  0.58052256  0.27285546  1
  O2-  O202  1  0.55693478  0.57305746  0.60421355  1
  O2-  O203  1  0.54832045  0.58505356  0.94421584  1
  O2-  O204  1  0.16876092  0.20620832  0.26746154  1
  O2-  O205  1  0.16999973  0.19724796  0.60952501  1
  O2-  O206  1  0.17530692  0.20040866  0.93260019  1
  O2-  O207  1  0.15980648  0.70964274  0.26962793  1
  O2-  O208  1  0.16475216  0.71225252  0.59761873  1
  O2-  O209  1  0.16565658  0.71707464  0.93244563  1
  O2-  O210  1  0.66625203  0.20927140  0.25924173  1
  O2-  O211  1  0.66561778  0.21014216  0.59872081  1
  O2-  O212  1  0.66239343  0.19961689  0.94020464  1
  O2-  O213  1  0.66659937  0.70978883  0.26860719  1
  O2-  O214  1  0.66913113  0.71235166  0.59818103  1
  O2-  O215  1  0.66285343  0.71056148  0.94255137  1
  O2-  O216  1  0.08547227  0.44993057  0.06230509  1
  O2-  O217  1  0.08550559  0.45479525  0.39337041  1
  O2-  O218  1  0.08023945  0.46074146  0.73311246  1
  O2-  O219  1  0.08271003  0.95034901  0.05868327  1
  O2-  O220  1  0.07490126  0.95252357  0.39918473  1
  O2-  O221  1  0.07840273  0.95547828  0.73913596  1
  O2-  O222  1  0.58573320  0.45334189  0.06875676  1
  O2-  O223  1  0.58530294  0.44712053  0.39552620  1
  O2-  O224  1  0.57913939  0.44348960  0.73306692  1
  O2-  O225  1  0.58276441  0.96332731  0.07102433  1
  O2-  O226  1  0.58555770  0.95665742  0.39455716  1
  O2-  O227  1  0.58969667  0.96051449  0.72799793  1
  O2-  O228  1  0.20920589  0.33370416  0.06257365  1
  O2-  O229  1  0.20119145  0.33364714  0.39318084  1
  O2-  O230  1  0.20064421  0.33027045  0.73655643  1
  O2-  O231  1  0.21209417  0.84191762  0.06458091  1
  O2-  O232  1  0.20691065  0.83236764  0.39916238  1
  O2-  O233  1  0.20801650  0.83187781  0.73743283  1
  O2-  O234  1  0.70044959  0.32968095  0.06352608  1
  O2-  O235  1  0.70657266  0.33113443  0.39268320  1
  O2-  O236  1  0.71457277  0.32955582  0.73472297  1
  O2-  O237  1  0.70711940  0.83501416  0.07415777  1
  O2-  O238  1  0.70928026  0.83986762  0.39812063  1
  O2-  O239  1  0.70765884  0.84032047  0.72835980  1
  O2-  O240  1  0.45825161  0.41748141  0.26694164  1
  O2-  O241  1  0.45044205  0.41562423  0.60483346  1
  O2-  O242  1  0.45947032  0.41632100  0.93943302  1
  O2-  O243  1  0.46238352  0.91199268  0.26044382  1
  O2-  O244  1  0.46567372  0.91368475  0.59684179  1
  O2-  O245  1  0.46092767  0.91207741  0.93869465  1
  O2-  O246  1  0.95578711  0.41717371  0.27023559  1
  O2-  O247  1  0.96093258  0.41613174  0.59472382  1
  O2-  O248  1  0.95666637  0.41893240  0.93049123  1
  O2-  O249  1  0.95111808  0.91257420  0.26727688  1
  O2-  O250  1  0.95164538  0.92017417  0.60406679  1
  O2-  O251  1  0.94607229  0.91503895  0.93884198  1
  O2-  O252  1  0.33444059  0.30229522  0.26749283  1
  O2-  O253  1  0.33072310  0.29824907  0.60711373  1
  O2-  O254  1  0.33998486  0.29738387  0.93716607  1
  O2-  O255  1  0.33116733  0.78751377  0.26241618  1
  O2-  O256  1  0.32893557  0.79775363  0.59906592  1
  O2-  O257  1  0.33765242  0.79540816  0.93770359  1
  O2-  O258  1  0.83680077  0.29684482  0.26662422  1
  O2-  O259  1  0.83796407  0.28469824  0.59374958  1
  O2-  O260  1  0.83015060  0.29099973  0.93219927  1
  O2-  O261  1  0.83354874  0.79231283  0.26935316  1
  O2-  O262  1  0.83312115  0.80227826  0.60262941  1
  O2-  O263  1  0.82863186  0.79607348  0.94206936  1
  O2-  O264  1  0.40964694  0.03736677  0.06663011  1
  O2-  O265  1  0.42042353  0.03855929  0.39656492  1
  O2-  O266  1  0.42108656  0.03700212  0.73605085  1
  O2-  O267  1  0.41709223  0.54239931  0.07066215  1
  O2-  O268  1  0.42031311  0.54614644  0.39756010  1
  O2-  O269  1  0.42154424  0.54603550  0.73250524  1
  O2-  O270  1  0.91626673  0.04709685  0.06139595  1
  O2-  O271  1  0.90850158  0.04030892  0.39603137  1
  O2-  O272  1  0.91192848  0.04639076  0.73111108  1
  O2-  O273  1  0.91948021  0.53798988  0.06814492  1
  O2-  O274  1  0.91852064  0.54077659  0.40232494  1
  O2-  O275  1  0.91774521  0.53949963  0.73208389  1
  O2-  O276  1  0.30231091  0.16705758  0.06104926  1
  O2-  O277  1  0.30352302  0.17408679  0.39630225  1
  O2-  O278  1  0.30019906  0.16890959  0.73696687  1
  O2-  O279  1  0.28712648  0.66968939  0.06738500  1
  O2-  O280  1  0.28609726  0.66584306  0.39958042  1
  O2-  O281  1  0.29314943  0.67084172  0.73190990  1
  O2-  O282  1  0.79400312  0.16463746  0.06439411  1
  O2-  O283  1  0.79431000  0.16545838  0.39029668  1
  O2-  O284  1  0.79074459  0.16286138  0.72805388  1
  O2-  O285  1  0.78986191  0.66349299  0.07145209  1
  O2-  O286  1  0.79212556  0.66778500  0.40199232  1
  O2-  O287  1  0.79644028  0.67344281  0.73369262  1
