# generated using pymatgen
data_Ca2Al2SiO7
_symmetry_space_group_name_H-M   'P 1'
_cell_length_a   15.46154835
_cell_length_b   15.45984267
_cell_length_c   15.28578875
_cell_angle_alpha   90.00477458
_cell_angle_beta   89.98865199
_cell_angle_gamma   89.99012090
_symmetry_Int_Tables_number   1
_chemical_formula_structural   Ca2Al2SiO7
_chemical_formula_sum   'Ca48 Al48 Si24 O168'
_cell_volume   3653.80940679
_cell_formula_units_Z   24
loop_
 _symmetry_equiv_pos_site_id
 _symmetry_equiv_pos_as_xyz
  1  'x, y, z'
loop_
 _atom_type_symbol
 _atom_type_oxidation_number
  Ca2+  2.0
  Al0+  0.0
  Si0+  0.0
  O2-  -2.0
loop_
 _atom_site_type_symbol
 _atom_site_label
 _atom_site_symmetry_multiplicity
 _atom_site_fract_x
 _atom_site_fract_y
 _atom_site_fract_z
 _atom_site_occupancy
  Ca2+  Ca0  1  0.17555156  0.08272272  0.16784998  1
  Ca2+  Ca1  1  0.16995226  0.07733014  0.51355165  1
  Ca2+  Ca2  1  0.17321083  0.08430804  0.83175072  1
  Ca2+  Ca3  1  0.16839427  0.58435176  0.16873419  1
  Ca2+  Ca4  1  0.17332712  0.58757946  0.51037581  1
  Ca2+  Ca5  1  0.17165645  0.59209216  0.83172332  1
  Ca2+  Ca6  1  0.66647575  0.07525736  0.16693120  1
  Ca2+  Ca7  1  0.67949338  0.08051735  0.50416323  1
  Ca2+  Ca8  1  0.67064233  0.07938793  0.83814186  1
  Ca2+  Ca9  1  0.66224262  0.57945626  0.16714248  1
  Ca2+  Ca10  1  0.66209840  0.57389682  0.50396736  1
  Ca2+  Ca11  1  0.66970143  0.57260085  0.84233589  1
  Ca2+  Ca12  1  0.07418728  0.33293425  0.16391449  1
  Ca2+  Ca13  1  0.07042425  0.32755615  0.49841975  1
  Ca2+  Ca14  1  0.07480862  0.32605355  0.82110454  1
  Ca2+  Ca15  1  0.06950958  0.83590595  0.16372879  1
  Ca2+  Ca16  1  0.07754614  0.83664627  0.50370438  1
  Ca2+  Ca17  1  0.07349938  0.83289189  0.82384586  1
  Ca2+  Ca18  1  0.59290895  0.32808112  0.16213364  1
  Ca2+  Ca19  1  0.58314428  0.33821106  0.50028949  1
  Ca2+  Ca20  1  0.58641889  0.33056941  0.82830742  1
  Ca2+  Ca21  1  0.58065747  0.82696206  0.15416579  1
  Ca2+  Ca22  1  0.57513148  0.82417181  0.48978596  1
  Ca2+  Ca23  1  0.58409824  0.83173705  0.83661712  1
  Ca2+  Ca24  1  0.33111065  0.41809361  0.17023991  1
  Ca2+  Ca25  1  0.33516690  0.42428426  0.51271528  1
  Ca2+  Ca26  1  0.33649546  0.41944170  0.83084901  1
  Ca2+  Ca27  1  0.34343933  0.91766585  0.16727075  1
  Ca2+  Ca28  1  0.32681888  0.91835918  0.51216999  1
  Ca2+  Ca29  1  0.32977380  0.92438731  0.83917293  1
  Ca2+  Ca30  1  0.82341205  0.42257694  0.17230223  1
  Ca2+  Ca31  1  0.82405172  0.40861036  0.50515838  1
  Ca2+  Ca32  1  0.82634937  0.41916850  0.83927327  1
  Ca2+  Ca33  1  0.82948265  0.91452890  0.17057735  1
  Ca2+  Ca34  1  0.84367507  0.92377859  0.50443641  1
  Ca2+  Ca35  1  0.83547362  0.91899874  0.83836183  1
  Ca2+  Ca36  1  0.42525271  0.16661885  0.15406803  1
  Ca2+  Ca37  1  0.41239998  0.17198351  0.50230097  1
  Ca2+  Ca38  1  0.42009261  0.16642804  0.82919618  1
  Ca2+  Ca39  1  0.42955249  0.67750979  0.16280308  1
  Ca2+  Ca40  1  0.41930906  0.66979198  0.49306253  1
  Ca2+  Ca41  1  0.42141472  0.66726345  0.83040214  1
  Ca2+  Ca42  1  0.90528531  0.17204201  0.16883558  1
  Ca2+  Ca43  1  0.91188844  0.17004063  0.50008582  1
  Ca2+  Ca44  1  0.91874710  0.17083490  0.81924809  1
  Ca2+  Ca45  1  0.90921657  0.67561706  0.15924729  1
  Ca2+  Ca46  1  0.92043922  0.67773018  0.49845495  1
  Ca2+  Ca47  1  0.91474207  0.67603503  0.82795740  1
  Al0+  Al48  1  0.00308466  0.00153211  -0.00178828  1
  Al0+  Al49  1  0.00340114  0.00019709  0.33181811  1
  Al0+  Al50  1  0.00086138  0.00092481  0.66854536  1
  Al0+  Al51  1  0.00028391  0.50017391  0.00366985  1
  Al0+  Al52  1  -0.00093653  0.49843399  0.32980160  1
  Al0+  Al53  1  -0.00090391  0.50128331  0.65782429  1
  Al0+  Al54  1  0.50145938  0.00214058  -0.00079395  1
  Al0+  Al55  1  0.50058114  0.00264875  0.33472020  1
  Al0+  Al56  1  0.50136835  -0.00012224  0.66769846  1
  Al0+  Al57  1  0.49770239  0.49984550  0.00272328  1
  Al0+  Al58  1  0.49838103  0.49960488  0.33268197  1
  Al0+  Al59  1  0.49996766  0.49820266  0.67229946  1
  Al0+  Al60  1  0.24985980  0.24951487  0.00523936  1
  Al0+  Al61  1  0.24817285  0.25011547  0.33381536  1
  Al0+  Al62  1  0.25116594  0.25159676  0.66213291  1
  Al0+  Al63  1  0.24848104  0.75136071  0.00084037  1
  Al0+  Al64  1  0.25023326  0.75085392  0.32920993  1
  Al0+  Al65  1  0.25012381  0.75044226  0.67339866  1
  Al0+  Al66  1  0.74972873  0.25044937  -0.00216373  1
  Al0+  Al67  1  0.74975223  0.25023603  0.33740662  1
  Al0+  Al68  1  0.74790411  0.24695429  0.67107399  1
  Al0+  Al69  1  0.74973808  0.75027345  -0.00254559  1
  Al0+  Al70  1  0.75046646  0.74715863  0.32838848  1
  Al0+  Al71  1  0.74845593  0.74845159  0.65993442  1
  Al0+  Al72  1  0.32311661  0.07371742  0.68167452  1
  Al0+  Al73  1  0.68056405  0.42968445  0.68129893  1
  Al0+  Al74  1  0.68132643  0.93047802  0.01180488  1
  Al0+  Al75  1  0.42868343  0.82319069  0.31972926  1
  Al0+  Al76  1  0.92916982  0.82153499  0.98601809  1
  Al0+  Al77  1  0.17904435  0.92903475  0.68365858  1
  Al0+  Al78  1  0.32074482  0.57109587  0.68085480  1
  Al0+  Al79  1  0.92480119  0.32117093  0.65230757  1
  Al0+  Al80  1  0.57211426  0.18080993  0.98603242  1
  Al0+  Al81  1  0.67940536  0.43093000  0.34902288  1
  Al0+  Al82  1  0.82174422  0.57102799  0.01447791  1
  Al0+  Al83  1  0.07180952  0.17916446  0.65178479  1
  Al0+  Al84  1  0.32043894  0.06981491  0.01469094  1
  Al0+  Al85  1  0.57084540  0.67712498  0.98201090  1
  Al0+  Al86  1  0.92743160  0.31945575  0.31756041  1
  Al0+  Al87  1  0.42861122  0.82225833  0.98244914  1
  Al0+  Al88  1  0.81989806  0.06792329  0.68031048  1
  Al0+  Al89  1  0.92705982  0.82171853  0.65143712  1
  Al0+  Al90  1  0.67762346  0.42789782  0.01621210  1
  Al0+  Al91  1  0.82056289  0.06809100  0.34591382  1
  Al0+  Al92  1  0.07341857  0.67950717  0.65238507  1
  Al0+  Al93  1  0.43169639  0.32076948  0.65440386  1
  Al0+  Al94  1  0.93097791  0.82192274  0.31862883  1
  Al0+  Al95  1  0.57064770  0.67669393  0.31839828  1
  Si0+  Si96  1  0.42478342  0.32155204  0.98478796  1
  Si0+  Si97  1  0.67684335  0.92419076  0.68150027  1
  Si0+  Si98  1  0.82299328  0.57392227  0.68031755  1
  Si0+  Si99  1  0.07172217  0.67593851  0.98424257  1
  Si0+  Si100  1  0.17721613  0.92762134  0.01997181  1
  Si0+  Si101  1  0.56911518  0.67685542  0.65198063  1
  Si0+  Si102  1  0.07363712  0.18096238  0.98564957  1
  Si0+  Si103  1  0.82449262  0.57352352  0.35196273  1
  Si0+  Si104  1  0.31725679  0.56886361  0.34696768  1
  Si0+  Si105  1  0.17949777  0.42857084  0.01556886  1
  Si0+  Si106  1  0.17602694  0.42901932  0.68089730  1
  Si0+  Si107  1  0.42995644  0.82141494  0.65404036  1
  Si0+  Si108  1  0.82572956  0.07251552  0.01570501  1
  Si0+  Si109  1  0.57060322  0.18107589  0.31990048  1
  Si0+  Si110  1  0.07331598  0.17850620  0.31377687  1
  Si0+  Si111  1  0.32041215  0.57345495  0.01783535  1
  Si0+  Si112  1  0.32297456  0.07332567  0.34913427  1
  Si0+  Si113  1  0.07259600  0.67720650  0.31571628  1
  Si0+  Si114  1  0.93007396  0.32052569  0.98586004  1
  Si0+  Si115  1  0.67722250  0.92510810  0.34917557  1
  Si0+  Si116  1  0.42662712  0.32037413  0.31880248  1
  Si0+  Si117  1  0.57187211  0.17538768  0.64772044  1
  Si0+  Si118  1  0.17644738  0.42722723  0.34964535  1
  Si0+  Si119  1  0.18151676  0.92984829  0.34770405  1
  O2-  O120  1  0.24985855  -0.00761565  0.06442815  1
  O2-  O121  1  0.25581659  -0.00181869  0.38916915  1
  O2-  O122  1  0.25131252  0.00203794  0.73182643  1
  O2-  O123  1  0.24914308  0.50106694  0.05855015  1
  O2-  O124  1  0.24567070  0.49972599  0.39136341  1
  O2-  O125  1  0.24209349  0.49941962  0.72697168  1
  O2-  O126  1  0.75926806  0.00178941  0.05951506  1
  O2-  O127  1  0.75023708  -0.01099814  0.39341968  1
  O2-  O128  1  0.74843829  -0.01006919  0.72519042  1
  O2-  O129  1  0.74784067  0.50153850  0.06627691  1
  O2-  O130  1  0.75387381  0.50628061  0.39556281  1
  O2-  O131  1  0.75907358  0.50132470  0.72515787  1
  O2-  O132  1  0.00254838  0.24509238  0.26924540  1
  O2-  O133  1  -0.00244498  0.24926252  0.60236877  1
  O2-  O134  1  -0.00170207  0.24705822  0.94412114  1
  O2-  O135  1  0.00102973  0.74239106  0.27164597  1
  O2-  O136  1  0.00067071  0.75024308  0.60226305  1
  O2-  O137  1  0.00296440  0.74458797  0.94169237  1
  O2-  O138  1  0.49599340  0.24851516  0.27694148  1
  O2-  O139  1  0.50260047  0.24429486  0.60430458  1
  O2-  O140  1  0.49832882  0.25803782  0.94217279  1
  O2-  O141  1  0.50640014  0.75711438  0.27039544  1
  O2-  O142  1  0.50010739  0.75042177  0.61047718  1
  O2-  O143  1  0.49799949  0.74836951  0.93137566  1
  O2-  O144  1  0.07644079  0.18402861  0.09094307  1
  O2-  O145  1  0.07754931  0.18063619  0.41862418  1
  O2-  O146  1  0.07146088  0.18318354  0.76604469  1
  O2-  O147  1  0.07269059  0.67543684  0.09015392  1
  O2-  O148  1  0.07679131  0.67830429  0.42068646  1
  O2-  O149  1  0.07216782  0.68002166  0.76601813  1
  O2-  O150  1  0.57099408  0.18106688  0.10012532  1
  O2-  O151  1  0.56911308  0.18075995  0.42479982  1
  O2-  O152  1  0.57202458  0.17515042  0.75320528  1
  O2-  O153  1  0.56773506  0.67764762  0.09559144  1
  O2-  O154  1  0.56421785  0.67485463  0.43271579  1
  O2-  O155  1  0.56891479  0.67653932  0.75656684  1
  O2-  O156  1  0.17920103  0.42612119  0.24400276  1
  O2-  O157  1  0.18010913  0.42985389  0.57509025  1
  O2-  O158  1  0.17914558  0.42631778  0.91104297  1
  O2-  O159  1  0.18040880  0.93188416  0.24261191  1
  O2-  O160  1  0.18288032  0.92826151  0.56898791  1
  O2-  O161  1  0.17526787  0.92956059  0.91514530  1
  O2-  O162  1  0.67990650  0.42917715  0.23639699  1
  O2-  O163  1  0.67804202  0.43263731  0.56788991  1
  O2-  O164  1  0.68134032  0.42657694  0.90281482  1
  O2-  O165  1  0.67467921  0.92879458  0.24376023  1
  O2-  O166  1  0.67303034  0.92580751  0.57573897  1
  O2-  O167  1  0.68236624  0.93318371  0.89876366  1
  O2-  O168  1  0.41998396  0.31814487  0.09098868  1
  O2-  O169  1  0.42494376  0.32099338  0.42364638  1
  O2-  O170  1  0.43406609  0.32259967  0.76724533  1
  O2-  O171  1  0.43121582  0.82028081  0.09631063  1
  O2-  O172  1  0.42562893  0.81961254  0.43393937  1
  O2-  O173  1  0.43164463  0.82151059  0.75859319  1
  O2-  O174  1  0.93132087  0.31970428  0.09129741  1
  O2-  O175  1  0.92836613  0.31748085  0.42995985  1
  O2-  O176  1  0.92749029  0.32057599  0.76656972  1
  O2-  O177  1  0.93211027  0.82252049  0.09955231  1
  O2-  O178  1  0.93584277  0.82377904  0.43109313  1
  O2-  O179  1  0.92581893  0.81928470  0.76489384  1
  O2-  O180  1  0.32189806  0.07682138  0.24406032  1
  O2-  O181  1  0.32319693  0.06940192  0.56721469  1
  O2-  O182  1  0.31599653  0.07411908  0.90256904  1
  O2-  O183  1  0.31494281  0.56582698  0.24176038  1
  O2-  O184  1  0.32232744  0.57015516  0.56710992  1
  O2-  O185  1  0.31984360  0.57330329  0.91296218  1
  O2-  O186  1  0.81570817  0.06915791  0.23263180  1
  O2-  O187  1  0.81740134  0.06859807  0.56681528  1
  O2-  O188  1  0.82644093  0.07311359  0.91040759  1
  O2-  O189  1  0.82677821  0.57137668  0.24654315  1
  O2-  O190  1  0.81866738  0.57699956  0.57481777  1
  O2-  O191  1  0.82591673  0.56567555  0.90086696  1
  O2-  O192  1  0.05113872  0.08452906  0.26786469  1
  O2-  O193  1  0.04577338  0.08045658  0.59978043  1
  O2-  O194  1  0.05229889  0.08751544  0.93989717  1
  O2-  O195  1  0.05205107  0.58175128  0.27054679  1
  O2-  O196  1  0.04991478  0.58132264  0.59607356  1
  O2-  O197  1  0.04933738  0.58111121  0.93905735  1
  O2-  O198  1  0.54612247  0.08823955  0.27235892  1
  O2-  O199  1  0.54704239  0.08194840  0.60014665  1
  O2-  O200  1  0.53962780  0.08626116  0.93109637  1
  O2-  O201  1  0.53271266  0.58174114  0.26392990  1
  O2-  O202  1  0.53651911  0.58656941  0.60523439  1
  O2-  O203  1  0.53995359  0.57746044  0.93201750  1
  O2-  O204  1  0.16588018  0.20881190  0.26573663  1
  O2-  O205  1  0.16922518  0.20805180  0.59674734  1
  O2-  O206  1  0.16319472  0.21470870  0.93810051  1
  O2-  O207  1  0.16449720  0.70602035  0.26681853  1
  O2-  O208  1  0.17293742  0.70881588  0.60049201  1
  O2-  O209  1  0.16573733  0.70148096  0.93964478  1
  O2-  O210  1  0.66031152  0.21284182  0.27212167  1
  O2-  O211  1  0.66443972  0.20367735  0.60199533  1
  O2-  O212  1  0.66860872  0.20935058  0.93016984  1
  O2-  O213  1  0.67202269  0.69353966  0.26842661  1
  O2-  O214  1  0.66026108  0.70127726  0.60163142  1
  O2-  O215  1  0.66891674  0.70541661  0.92967219  1
  O2-  O216  1  0.08858497  0.45589018  0.06587099  1
  O2-  O217  1  0.08338178  0.45220411  0.39477837  1
  O2-  O218  1  0.08056876  0.45104317  0.72466114  1
  O2-  O219  1  0.08597228  0.96053603  0.06814569  1
  O2-  O220  1  0.09159099  0.96058273  0.39637459  1
  O2-  O221  1  0.08128820  0.95737944  0.73653912  1
  O2-  O222  1  0.57647897  0.45065659  0.06735190  1
  O2-  O223  1  0.58029986  0.46006884  0.40077745  1
  O2-  O224  1  0.58618617  0.46310303  0.73690131  1
  O2-  O225  1  0.58651203  0.96499423  0.06752316  1
  O2-  O226  1  0.58530360  0.95610534  0.39739044  1
  O2-  O227  1  0.58527869  0.95308248  0.72970115  1
  O2-  O228  1  0.20935707  0.33916401  0.06741599  1
  O2-  O229  1  0.20556698  0.33575693  0.39669599  1
  O2-  O230  1  0.20515107  0.33681053  0.72737977  1
  O2-  O231  1  0.19712600  0.83220764  0.06546752  1
  O2-  O232  1  0.20689579  0.83647879  0.39348634  1
  O2-  O233  1  0.20732693  0.83215804  0.73864761  1
  O2-  O234  1  0.71025044  0.32965276  0.06837261  1
  O2-  O235  1  0.71056940  0.33465512  0.40348028  1
  O2-  O236  1  0.70608719  0.33161453  0.73392091  1
  O2-  O237  1  0.70845591  0.83332867  0.06582201  1
  O2-  O238  1  0.69665454  0.82861584  0.39151688  1
  O2-  O239  1  0.69877830  0.82878430  0.72512645  1
  O2-  O240  1  0.45314822  0.41187358  0.27086578  1
  O2-  O241  1  0.46479435  0.41687570  0.59921097  1
  O2-  O242  1  0.44298834  0.41784192  0.94291990  1
  O2-  O243  1  0.45079766  0.92517366  0.27113101  1
  O2-  O244  1  0.45705688  0.91291779  0.60505399  1
  O2-  O245  1  0.45803017  0.92070315  0.93201836  1
  O2-  O246  1  0.95960551  0.41567356  0.26266657  1
  O2-  O247  1  0.95007178  0.41925937  0.59740835  1
  O2-  O248  1  0.96195703  0.41164048  0.94020642  1
  O2-  O249  1  0.96668261  0.91676145  0.26348136  1
  O2-  O250  1  0.95831185  0.91969591  0.60034552  1
  O2-  O251  1  0.96203167  0.91875122  0.93380174  1
  O2-  O252  1  0.33390614  0.29424838  0.27107701  1
  O2-  O253  1  0.33490667  0.29558715  0.59741877  1
  O2-  O254  1  0.33277730  0.29127779  0.93809970  1
  O2-  O255  1  0.33240348  0.79099871  0.26407356  1
  O2-  O256  1  0.33780483  0.79297483  0.60852318  1
  O2-  O257  1  0.32734724  0.79603912  0.93464962  1
  O2-  O258  1  0.83127697  0.28577661  0.26435867  1
  O2-  O259  1  0.82725611  0.28774497  0.60061777  1
  O2-  O260  1  0.83827457  0.29541523  0.93869030  1
  O2-  O261  1  0.83234713  0.79578078  0.26661443  1
  O2-  O262  1  0.82930257  0.79373724  0.59539088  1
  O2-  O263  1  0.83310443  0.79360167  0.93146803  1
  O2-  O264  1  0.41783482  0.04242271  0.06857657  1
  O2-  O265  1  0.41638959  0.05266309  0.39638436  1
  O2-  O266  1  0.42215792  0.04542198  0.73296255  1
  O2-  O267  1  0.41053448  0.54446659  0.06731792  1
  O2-  O268  1  0.40802118  0.53934723  0.39460009  1
  O2-  O269  1  0.41360799  0.53465134  0.73774635  1
  O2-  O270  1  0.92081560  0.05175544  0.06151612  1
  O2-  O271  1  0.92031833  0.04235716  0.39651679  1
  O2-  O272  1  0.91741717  0.04361500  0.73439218  1
  O2-  O273  1  0.91989748  0.54200652  0.07004234  1
  O2-  O274  1  0.91885797  0.54648416  0.39614922  1
  O2-  O275  1  0.91926583  0.55380078  0.72272104  1
  O2-  O276  1  0.28602790  0.16510337  0.07182705  1
  O2-  O277  1  0.29066283  0.16430053  0.39644756  1
  O2-  O278  1  0.29619052  0.17370554  0.73174109  1
  O2-  O279  1  0.29011477  0.66405318  0.06675401  1
  O2-  O280  1  0.29082406  0.66213724  0.39252577  1
  O2-  O281  1  0.29288397  0.66628689  0.73811814  1
  O2-  O282  1  0.79582711  0.16536464  0.06090575  1
  O2-  O283  1  0.78528998  0.16259903  0.40099810  1
  O2-  O284  1  0.78637026  0.16233995  0.73693276  1
  O2-  O285  1  0.79469079  0.67022228  0.06540057  1
  O2-  O286  1  0.80141913  0.66852282  0.39662539  1
  O2-  O287  1  0.79238352  0.66604447  0.72705851  1
