# generated using pymatgen
data_Ca2Al2SiO7
_symmetry_space_group_name_H-M   'P 1'
_cell_length_a   15.46369932
_cell_length_b   15.46210964
_cell_length_c   15.28696552
_cell_angle_alpha   89.99722219
_cell_angle_beta   90.00454445
_cell_angle_gamma   89.99530077
_symmetry_Int_Tables_number   1
_chemical_formula_structural   Ca2Al2SiO7
_chemical_formula_sum   'Ca48 Al48 Si24 O168'
_cell_volume   3655.13504989
_cell_formula_units_Z   24
loop_
 _symmetry_equiv_pos_site_id
 _symmetry_equiv_pos_as_xyz
  1  'x, y, z'
loop_
 _atom_type_symbol
 _atom_type_oxidation_number
  Ca2+  2.0
  Al0+  0.0
  Si0+  0.0
  O2-  -2.0
loop_
 _atom_site_type_symbol
 _atom_site_label
 _atom_site_symmetry_multiplicity
 _atom_site_fract_x
 _atom_site_fract_y
 _atom_site_fract_z
 _atom_site_occupancy
  Ca2+  Ca0  1  0.15910351  0.07775749  0.16906790  1
  Ca2+  Ca1  1  0.17126685  0.08521326  0.50539185  1
  Ca2+  Ca2  1  0.17247889  0.07804543  0.83888431  1
  Ca2+  Ca3  1  0.16835416  0.58170775  0.16784353  1
  Ca2+  Ca4  1  0.15933989  0.58734571  0.50359985  1
  Ca2+  Ca5  1  0.17138631  0.58291390  0.84468828  1
  Ca2+  Ca6  1  0.67637927  0.08872568  0.17058348  1
  Ca2+  Ca7  1  0.67826635  0.07879600  0.50683315  1
  Ca2+  Ca8  1  0.67512991  0.07215773  0.84131597  1
  Ca2+  Ca9  1  0.66267319  0.57026749  0.17235208  1
  Ca2+  Ca10  1  0.66734713  0.58325678  0.50447644  1
  Ca2+  Ca11  1  0.67249314  0.58326081  0.83702484  1
  Ca2+  Ca12  1  0.07839409  0.32702692  0.15833263  1
  Ca2+  Ca13  1  0.07717328  0.32491906  0.49314132  1
  Ca2+  Ca14  1  0.07728392  0.34011376  0.83441375  1
  Ca2+  Ca15  1  0.07111404  0.83566294  0.16105566  1
  Ca2+  Ca16  1  0.07082345  0.82525838  0.49317093  1
  Ca2+  Ca17  1  0.07303545  0.83412853  0.82918412  1
  Ca2+  Ca18  1  0.58819395  0.32642255  0.15657677  1
  Ca2+  Ca19  1  0.58422346  0.32708678  0.49094871  1
  Ca2+  Ca20  1  0.58692817  0.32868464  0.83962098  1
  Ca2+  Ca21  1  0.59009842  0.82612901  0.16184369  1
  Ca2+  Ca22  1  0.59489028  0.82339503  0.50066734  1
  Ca2+  Ca23  1  0.59039945  0.83148961  0.82632868  1
  Ca2+  Ca24  1  0.33474901  0.41691033  0.16239168  1
  Ca2+  Ca25  1  0.32916415  0.41806988  0.50322330  1
  Ca2+  Ca26  1  0.32821117  0.42247022  0.84667110  1
  Ca2+  Ca27  1  0.32468693  0.91436557  0.16666965  1
  Ca2+  Ca28  1  0.33130976  0.92400875  0.50686204  1
  Ca2+  Ca29  1  0.32758193  0.92044345  0.83893693  1
  Ca2+  Ca30  1  0.82289490  0.40810139  0.16838288  1
  Ca2+  Ca31  1  0.82559215  0.42327770  0.50366899  1
  Ca2+  Ca32  1  0.83287094  0.42505289  0.84164057  1
  Ca2+  Ca33  1  0.83550500  0.92354052  0.16668697  1
  Ca2+  Ca34  1  0.83609862  0.92179027  0.50591117  1
  Ca2+  Ca35  1  0.82890855  0.91822945  0.83940977  1
  Ca2+  Ca36  1  0.43363240  0.17200998  0.15671626  1
  Ca2+  Ca37  1  0.42341857  0.16505755  0.49332306  1
  Ca2+  Ca38  1  0.41929725  0.16849144  0.83192002  1
  Ca2+  Ca39  1  0.42051514  0.66271691  0.16371551  1
  Ca2+  Ca40  1  0.42923655  0.66898696  0.49637006  1
  Ca2+  Ca41  1  0.42238958  0.66435075  0.83056169  1
  Ca2+  Ca42  1  0.91501536  0.16603692  0.16058215  1
  Ca2+  Ca43  1  0.91798891  0.15962110  0.49296249  1
  Ca2+  Ca44  1  0.90696947  0.16905635  0.83630602  1
  Ca2+  Ca45  1  0.91536059  0.68052331  0.16227991  1
  Ca2+  Ca46  1  0.91579797  0.67748355  0.49755601  1
  Ca2+  Ca47  1  0.91697285  0.67814401  0.82270422  1
  Al0+  Al48  1  0.00031417  -0.00051852  0.00075518  1
  Al0+  Al49  1  0.00028923  -0.00064101  0.33152246  1
  Al0+  Al50  1  0.00147169  0.00266844  0.66663833  1
  Al0+  Al51  1  0.00252434  0.49989746  0.00195333  1
  Al0+  Al52  1  -0.00054887  0.50028357  0.33176511  1
  Al0+  Al53  1  -0.00227018  0.49790835  0.66569274  1
  Al0+  Al54  1  0.50110822  -0.00333247  -0.00034045  1
  Al0+  Al55  1  0.49941919  -0.00018960  0.32929742  1
  Al0+  Al56  1  0.49961515  0.00166635  0.67331018  1
  Al0+  Al57  1  0.50065899  0.49958023  0.00273917  1
  Al0+  Al58  1  0.49737123  0.50043283  0.33646194  1
  Al0+  Al59  1  0.49651121  0.49842393  0.66221047  1
  Al0+  Al60  1  0.25201000  0.25056102  0.00051522  1
  Al0+  Al61  1  0.24854842  0.25079380  0.33020042  1
  Al0+  Al62  1  0.24992674  0.25171889  0.67019755  1
  Al0+  Al63  1  0.25242432  0.75073139  0.00874630  1
  Al0+  Al64  1  0.24984186  0.74903865  0.33378684  1
  Al0+  Al65  1  0.25145750  0.74962509  0.66308823  1
  Al0+  Al66  1  0.75211212  0.25043337  -0.00398736  1
  Al0+  Al67  1  0.74913099  0.24937193  0.34115712  1
  Al0+  Al68  1  0.74779473  0.24986100  0.66831150  1
  Al0+  Al69  1  0.75151114  0.75112599  -0.00120456  1
  Al0+  Al70  1  0.74884324  0.74923211  0.32330374  1
  Al0+  Al71  1  0.75043361  0.74796204  0.66445054  1
  Al0+  Al72  1  0.93046196  0.32193433  0.98665668  1
  Al0+  Al73  1  0.07248397  0.67683281  0.31579228  1
  Al0+  Al74  1  0.57000266  0.67829621  0.65428959  1
  Al0+  Al75  1  0.92969246  0.82111446  0.98283237  1
  Al0+  Al76  1  0.92865595  0.82126800  0.31575928  1
  Al0+  Al77  1  0.32185347  0.57109284  0.01629097  1
  Al0+  Al78  1  0.67786669  0.42932211  0.34811757  1
  Al0+  Al79  1  0.68112581  0.92813904  0.67964462  1
  Al0+  Al80  1  0.57154081  0.17943889  0.32147180  1
  Al0+  Al81  1  0.17734270  0.42739110  0.01686444  1
  Al0+  Al82  1  0.81927412  0.07042583  0.01579741  1
  Al0+  Al83  1  0.07228653  0.67700270  0.65392111  1
  Al0+  Al84  1  0.56939076  0.67868048  0.31822790  1
  Al0+  Al85  1  0.18005144  0.93123771  0.01353519  1
  Al0+  Al86  1  0.32101015  0.07279461  0.68006309  1
  Al0+  Al87  1  0.81989104  0.56869222  0.67879895  1
  Al0+  Al88  1  0.57345503  0.17641804  0.98228292  1
  Al0+  Al89  1  0.92901510  0.82325935  0.65153751  1
  Al0+  Al90  1  0.68228957  0.43157018  0.01149691  1
  Al0+  Al91  1  0.82065343  0.06865260  0.34769948  1
  Al0+  Al92  1  0.43022551  0.32139304  0.98405701  1
  Al0+  Al93  1  0.82444373  0.07317660  0.68342983  1
  Al0+  Al94  1  0.07134860  0.17949796  0.32040023  1
  Al0+  Al95  1  0.67742847  0.92611930  0.01697448  1
  Si0+  Si96  1  0.07265995  0.18228112  0.65359725  1
  Si0+  Si97  1  0.17789130  0.42806332  0.34997629  1
  Si0+  Si98  1  0.42678374  0.32204901  0.31733779  1
  Si0+  Si99  1  0.92657441  0.32089599  0.65087282  1
  Si0+  Si100  1  0.32100216  0.07155972  0.34625283  1
  Si0+  Si101  1  0.17869533  0.42985714  0.68001895  1
  Si0+  Si102  1  0.07282268  0.17736499  0.98231255  1
  Si0+  Si103  1  0.17950839  0.92899353  0.34975607  1
  Si0+  Si104  1  0.82131623  0.57339723  0.34862033  1
  Si0+  Si105  1  0.07394397  0.67981230  0.98539704  1
  Si0+  Si106  1  0.42803430  0.82446646  0.65106781  1
  Si0+  Si107  1  0.56966715  0.17878559  0.65103284  1
  Si0+  Si108  1  0.92719201  0.32115127  0.31917880  1
  Si0+  Si109  1  0.67392083  0.42780171  0.68367689  1
  Si0+  Si110  1  0.57031573  0.67918113  0.98511144  1
  Si0+  Si111  1  0.42691969  0.82008456  0.98513790  1
  Si0+  Si112  1  0.42675522  0.82256931  0.31637244  1
  Si0+  Si113  1  0.17973174  0.92737981  0.68139036  1
  Si0+  Si114  1  0.32098212  0.57083666  0.67942611  1
  Si0+  Si115  1  0.42667814  0.31962694  0.65001427  1
  Si0+  Si116  1  0.31960523  0.57131766  0.35261307  1
  Si0+  Si117  1  0.67562650  0.92610618  0.34892253  1
  Si0+  Si118  1  0.82427827  0.57365926  0.01682832  1
  Si0+  Si119  1  0.32397521  0.07292770  0.01834887  1
  O2-  O120  1  0.25250147  0.00750850  0.06290825  1
  O2-  O121  1  0.25068677  0.00090459  0.39109561  1
  O2-  O122  1  0.24882384  -0.00432538  0.72579250  1
  O2-  O123  1  0.24969223  0.49915411  0.06658869  1
  O2-  O124  1  0.24582541  0.50181427  0.39376136  1
  O2-  O125  1  0.24325845  0.50732186  0.72035467  1
  O2-  O126  1  0.74526994  0.00135321  0.06715084  1
  O2-  O127  1  0.74526265  -0.00629295  0.39306681  1
  O2-  O128  1  0.75539322  -0.00287495  0.73033792  1
  O2-  O129  1  0.75793972  0.50314756  0.06146503  1
  O2-  O130  1  0.75155561  0.50558075  0.39365250  1
  O2-  O131  1  0.74321262  0.49621764  0.72634565  1
  O2-  O132  1  -0.00401815  0.25306838  0.27488014  1
  O2-  O133  1  -0.00487271  0.24613460  0.61049019  1
  O2-  O134  1  0.00727841  0.24928686  0.93831646  1
  O2-  O135  1  0.00037732  0.74795719  0.26631331  1
  O2-  O136  1  0.00169022  0.75000116  0.60357561  1
  O2-  O137  1  0.00366322  0.74429733  0.93850219  1
  O2-  O138  1  0.49799196  0.25562192  0.27538829  1
  O2-  O139  1  0.49907725  0.25050345  0.60777262  1
  O2-  O140  1  0.49846727  0.24675661  0.93241068  1
  O2-  O141  1  0.49717035  0.75590664  0.27196064  1
  O2-  O142  1  0.49876241  0.75740231  0.60770363  1
  O2-  O143  1  0.50171027  0.75296443  0.94308227  1
  O2-  O144  1  0.07092553  0.17735555  0.08811262  1
  O2-  O145  1  0.07457371  0.18218819  0.43423142  1
  O2-  O146  1  0.07903764  0.18687981  0.75787753  1
  O2-  O147  1  0.07289917  0.68248491  0.09080322  1
  O2-  O148  1  0.07200381  0.67968996  0.42958088  1
  O2-  O149  1  0.07445183  0.67728757  0.76733101  1
  O2-  O150  1  0.57319092  0.18023337  0.09626564  1
  O2-  O151  1  0.56770209  0.17975159  0.43524019  1
  O2-  O152  1  0.56853614  0.18038761  0.75546860  1
  O2-  O153  1  0.56817354  0.67843950  0.09025170  1
  O2-  O154  1  0.56761588  0.67883897  0.43162614  1
  O2-  O155  1  0.56573874  0.67462393  0.76722612  1
  O2-  O156  1  0.18025823  0.42525284  0.24579453  1
  O2-  O157  1  0.18189013  0.42566523  0.57456844  1
  O2-  O158  1  0.17739346  0.43152543  0.90237588  1
  O2-  O159  1  0.18111976  0.92976081  0.24477543  1
  O2-  O160  1  0.18183462  0.92931190  0.57547416  1
  O2-  O161  1  0.18331819  0.93159616  0.90007813  1
  O2-  O162  1  0.67911023  0.42847086  0.23518203  1
  O2-  O163  1  0.67438911  0.42717112  0.57773283  1
  O2-  O164  1  0.68231570  0.43565364  0.89818647  1
  O2-  O165  1  0.67404233  0.92784914  0.24385359  1
  O2-  O166  1  0.67892392  0.93138246  0.56563175  1
  O2-  O167  1  0.67977834  0.92341505  0.90349711  1
  O2-  O168  1  0.43304052  0.32069401  0.09786131  1
  O2-  O169  1  0.42388882  0.31956074  0.42375686  1
  O2-  O170  1  0.42385485  0.32079758  0.75422643  1
  O2-  O171  1  0.42435182  0.81798947  0.09016084  1
  O2-  O172  1  0.42430899  0.82211993  0.42218216  1
  O2-  O173  1  0.42385783  0.82177075  0.75642990  1
  O2-  O174  1  0.92993991  0.31971836  0.09980911  1
  O2-  O175  1  0.93019069  0.32129010  0.42544797  1
  O2-  O176  1  0.92916213  0.32456406  0.75555575  1
  O2-  O177  1  0.93067835  0.82120814  0.09562407  1
  O2-  O178  1  0.92986974  0.82179357  0.42952642  1
  O2-  O179  1  0.93137629  0.82222386  0.76506599  1
  O2-  O180  1  0.32039684  0.07040097  0.24179560  1
  O2-  O181  1  0.31881841  0.07326975  0.56614029  1
  O2-  O182  1  0.32211845  0.07072443  0.91235081  1
  O2-  O183  1  0.32212149  0.57025401  0.24816515  1
  O2-  O184  1  0.32396301  0.56695396  0.57426866  1
  O2-  O185  1  0.32079831  0.57218846  0.90187015  1
  O2-  O186  1  0.82055719  0.07195054  0.23544954  1
  O2-  O187  1  0.82195661  0.07481280  0.56948839  1
  O2-  O188  1  0.81943004  0.06829791  0.90239986  1
  O2-  O189  1  0.82088821  0.57166645  0.24323879  1
  O2-  O190  1  0.81920138  0.56595481  0.56547080  1
  O2-  O191  1  0.82181585  0.57325384  0.91085480  1
  O2-  O192  1  0.04368651  0.08279411  0.26739642  1
  O2-  O193  1  0.05308683  0.08850045  0.60631894  1
  O2-  O194  1  0.04504015  0.08534036  0.93499046  1
  O2-  O195  1  0.04878991  0.57617520  0.26565908  1
  O2-  O196  1  0.04420603  0.57770413  0.60118220  1
  O2-  O197  1  0.05411423  0.58387617  0.94241841  1
  O2-  O198  1  0.54020381  0.08387234  0.26636033  1
  O2-  O199  1  0.53958837  0.08725879  0.60450161  1
  O2-  O200  1  0.54538500  0.07633262  0.93246954  1
  O2-  O201  1  0.53347023  0.58245528  0.26659520  1
  O2-  O202  1  0.53386022  0.58361216  0.59797312  1
  O2-  O203  1  0.53945342  0.58895165  0.93731648  1
  O2-  O204  1  0.16660376  0.21074932  0.26437482  1
  O2-  O205  1  0.16175336  0.21704253  0.60319262  1
  O2-  O206  1  0.16867758  0.19875958  0.93910103  1
  O2-  O207  1  0.17264040  0.70392376  0.26651463  1
  O2-  O208  1  0.17208024  0.70207895  0.59988434  1
  O2-  O209  1  0.16843866  0.70780051  0.94223940  1
  O2-  O210  1  0.66837079  0.21174322  0.27042620  1
  O2-  O211  1  0.66154004  0.20721884  0.60340557  1
  O2-  O212  1  0.66911862  0.21021081  0.92798013  1
  O2-  O213  1  0.66509763  0.70358074  0.26117562  1
  O2-  O214  1  0.66624258  0.70512947  0.59809372  1
  O2-  O215  1  0.66300834  0.70470851  0.93864261  1
  O2-  O216  1  0.07956802  0.45458955  0.07160882  1
  O2-  O217  1  0.08462451  0.45223145  0.39727534  1
  O2-  O218  1  0.08467648  0.44997261  0.72535617  1
  O2-  O219  1  0.08495843  0.96268965  0.06905294  1
  O2-  O220  1  0.08877448  0.95804633  0.39739090  1
  O2-  O221  1  0.08739263  0.95518059  0.72747037  1
  O2-  O222  1  0.58700890  0.46262899  0.06691644  1
  O2-  O223  1  0.58000533  0.45802108  0.40199793  1
  O2-  O224  1  0.57927308  0.45333338  0.72687817  1
  O2-  O225  1  0.57532942  0.94466827  0.06656022  1
  O2-  O226  1  0.58082618  0.95056324  0.39413362  1
  O2-  O227  1  0.58256904  0.95611110  0.73321935  1
  O2-  O228  1  0.20524126  0.32809661  0.06842423  1
  O2-  O229  1  0.20961697  0.33721144  0.39921281  1
  O2-  O230  1  0.21296590  0.34212139  0.73038424  1
  O2-  O231  1  0.21397650  0.83763418  0.07085441  1
  O2-  O232  1  0.20894649  0.83760260  0.39726948  1
  O2-  O233  1  0.20602917  0.83374806  0.72686331  1
  O2-  O234  1  0.71272509  0.33454022  0.06378116  1
  O2-  O235  1  0.71046935  0.33531594  0.40652343  1
  O2-  O236  1  0.69917249  0.33416250  0.72850191  1
  O2-  O237  1  0.70946350  0.82830265  0.06942991  1
  O2-  O238  1  0.70113057  0.83040676  0.39101069  1
  O2-  O239  1  0.70371220  0.82767150  0.73019796  1
  O2-  O240  1  0.44887136  0.41708965  0.27476039  1
  O2-  O241  1  0.45251371  0.41104654  0.59998022  1
  O2-  O242  1  0.46064812  0.41987910  0.93151536  1
  O2-  O243  1  0.44753897  0.91665670  0.26959920  1
  O2-  O244  1  0.45064062  0.91971165  0.60668638  1
  O2-  O245  1  0.44852319  0.91307558  0.93759050  1
  O2-  O246  1  0.95067187  0.41478236  0.27351554  1
  O2-  O247  1  0.95824373  0.40969764  0.59968329  1
  O2-  O248  1  0.96124247  0.41945620  0.93189926  1
  O2-  O249  1  0.96212706  0.91796800  0.26329747  1
  O2-  O250  1  0.95867269  0.92247375  0.59937415  1
  O2-  O251  1  0.96477912  0.91685884  0.93037838  1
  O2-  O252  1  0.33441948  0.29541848  0.27026932  1
  O2-  O253  1  0.33538098  0.29012483  0.60108026  1
  O2-  O254  1  0.32974248  0.29676862  0.93204436  1
  O2-  O255  1  0.33437897  0.79344136  0.27007065  1
  O2-  O256  1  0.33639234  0.79705971  0.60107298  1
  O2-  O257  1  0.33668516  0.78832314  0.93636595  1
  O2-  O258  1  0.83345947  0.29415046  0.27595737  1
  O2-  O259  1  0.83289506  0.29722232  0.60486841  1
  O2-  O260  1  0.83608486  0.29199400  0.92866156  1
  O2-  O261  1  0.83092796  0.79464288  0.26133077  1
  O2-  O262  1  0.83178580  0.79247811  0.59798098  1
  O2-  O263  1  0.83307636  0.78900063  0.92960336  1
  O2-  O264  1  0.41622148  0.04301394  0.06375801  1
  O2-  O265  1  0.41263822  0.04324169  0.39497562  1
  O2-  O266  1  0.41612762  0.04507285  0.73679417  1
  O2-  O267  1  0.41893650  0.54055517  0.07056120  1
  O2-  O268  1  0.40932647  0.54005790  0.40284763  1
  O2-  O269  1  0.40959984  0.53595273  0.72858599  1
  O2-  O270  1  0.91838854  0.04171832  0.06666279  1
  O2-  O271  1  0.91864820  0.03858349  0.40093190  1
  O2-  O272  1  0.92652316  0.05468936  0.73257752  1
  O2-  O273  1  0.91883072  0.55184791  0.06105617  1
  O2-  O274  1  0.91500749  0.54701905  0.39501675  1
  O2-  O275  1  0.91535485  0.53534159  0.73407501  1
  O2-  O276  1  0.30329593  0.16781411  0.06255950  1
  O2-  O277  1  0.29267591  0.16386047  0.39366769  1
  O2-  O278  1  0.28677903  0.16755830  0.73537357  1
  O2-  O279  1  0.29550401  0.66808998  0.07274865  1
  O2-  O280  1  0.29479917  0.66415069  0.40007076  1
  O2-  O281  1  0.30224610  0.66562700  0.72461914  1
  O2-  O282  1  0.79377550  0.17063444  0.06601457  1
  O2-  O283  1  0.79092054  0.16459765  0.40448688  1
  O2-  O284  1  0.79159908  0.17128453  0.73461775  1
  O2-  O285  1  0.79514738  0.66570902  0.06250765  1
  O2-  O286  1  0.79376180  0.66748486  0.39263907  1
  O2-  O287  1  0.79063585  0.66496218  0.73294332  1
