# generated using pymatgen
data_Ca2Al2SiO7
_symmetry_space_group_name_H-M   'P 1'
_cell_length_a   15.46859106
_cell_length_b   15.47042624
_cell_length_c   15.29273572
_cell_angle_alpha   90.00669874
_cell_angle_beta   90.01101251
_cell_angle_gamma   89.97206637
_symmetry_Int_Tables_number   1
_chemical_formula_structural   Ca2Al2SiO7
_chemical_formula_sum   'Ca48 Al48 Si24 O168'
_cell_volume   3659.63825290
_cell_formula_units_Z   24
loop_
 _symmetry_equiv_pos_site_id
 _symmetry_equiv_pos_as_xyz
  1  'x, y, z'
loop_
 _atom_type_symbol
 _atom_type_oxidation_number
  Ca2+  2.0
  Al0+  0.0
  Si0+  0.0
  O2-  -2.0
loop_
 _atom_site_type_symbol
 _atom_site_label
 _atom_site_symmetry_multiplicity
 _atom_site_fract_x
 _atom_site_fract_y
 _atom_site_fract_z
 _atom_site_occupancy
  Ca2+  Ca0  1  0.16171388  0.07914960  0.16375549  1
  Ca2+  Ca1  1  0.16398364  0.08337566  0.50596085  1
  Ca2+  Ca2  1  0.16234853  0.08249450  0.84466004  1
  Ca2+  Ca3  1  0.17866748  0.57934257  0.16921631  1
  Ca2+  Ca4  1  0.17073971  0.57626405  0.50066760  1
  Ca2+  Ca5  1  0.16883999  0.57877315  0.84548768  1
  Ca2+  Ca6  1  0.65249518  0.07945088  0.16682590  1
  Ca2+  Ca7  1  0.67177661  0.09008547  0.50649086  1
  Ca2+  Ca8  1  0.67324446  0.08266571  0.84406451  1
  Ca2+  Ca9  1  0.65840082  0.57987708  0.16660567  1
  Ca2+  Ca10  1  0.66772726  0.57735489  0.50550685  1
  Ca2+  Ca11  1  0.66662964  0.57402176  0.84238306  1
  Ca2+  Ca12  1  0.08308648  0.33754980  0.15973530  1
  Ca2+  Ca13  1  0.07165537  0.33487120  0.49380249  1
  Ca2+  Ca14  1  0.08425069  0.32416550  0.82686126  1
  Ca2+  Ca15  1  0.08028403  0.82781958  0.15159560  1
  Ca2+  Ca16  1  0.08346927  0.82582768  0.50014594  1
  Ca2+  Ca17  1  0.08826322  0.82315489  0.83650493  1
  Ca2+  Ca18  1  0.57266235  0.32943787  0.15696393  1
  Ca2+  Ca19  1  0.57455972  0.33465495  0.49394079  1
  Ca2+  Ca20  1  0.57366455  0.34553189  0.83304222  1
  Ca2+  Ca21  1  0.57935287  0.82146323  0.15413350  1
  Ca2+  Ca22  1  0.58271492  0.82566708  0.49190607  1
  Ca2+  Ca23  1  0.58410612  0.83184066  0.84010631  1
  Ca2+  Ca24  1  0.32782613  0.41843601  0.16841945  1
  Ca2+  Ca25  1  0.33864518  0.41851031  0.49992275  1
  Ca2+  Ca26  1  0.33129595  0.42045994  0.84547851  1
  Ca2+  Ca27  1  0.33162031  0.91250754  0.16369852  1
  Ca2+  Ca28  1  0.33329852  0.92210921  0.50422884  1
  Ca2+  Ca29  1  0.32908841  0.91992231  0.84571957  1
  Ca2+  Ca30  1  0.82803648  0.41289939  0.16791190  1
  Ca2+  Ca31  1  0.82706105  0.40622014  0.50723570  1
  Ca2+  Ca32  1  0.82231629  0.40782057  0.83610618  1
  Ca2+  Ca33  1  0.82968937  0.91492689  0.16473752  1
  Ca2+  Ca34  1  0.82911732  0.92701891  0.50954966  1
  Ca2+  Ca35  1  0.83434180  0.92341661  0.84316993  1
  Ca2+  Ca36  1  0.42238954  0.17808754  0.16086867  1
  Ca2+  Ca37  1  0.42207066  0.18085389  0.49257177  1
  Ca2+  Ca38  1  0.42053634  0.18124521  0.83365162  1
  Ca2+  Ca39  1  0.42020810  0.66323901  0.15814611  1
  Ca2+  Ca40  1  0.42304482  0.66423836  0.49190218  1
  Ca2+  Ca41  1  0.41656802  0.66670331  0.83905970  1
  Ca2+  Ca42  1  0.92361659  0.17416774  0.16281617  1
  Ca2+  Ca43  1  0.91590469  0.17422962  0.50232495  1
  Ca2+  Ca44  1  0.92589611  0.16853983  0.82858038  1
  Ca2+  Ca45  1  0.92472350  0.67351270  0.15464412  1
  Ca2+  Ca46  1  0.92584402  0.66025077  0.49825115  1
  Ca2+  Ca47  1  0.92814120  0.66892321  0.83383610  1
  Al0+  Al48  1  -0.00021795  0.00214711  -0.00021607  1
  Al0+  Al49  1  -0.00277657  0.00001131  0.33741380  1
  Al0+  Al50  1  -0.00091711  -0.00252817  0.66733507  1
  Al0+  Al51  1  -0.00268167  0.50042638  -0.00152560  1
  Al0+  Al52  1  -0.00028838  0.50037195  0.33134544  1
  Al0+  Al53  1  0.00061917  0.50078857  0.65911632  1
  Al0+  Al54  1  0.50132329  0.00066041  -0.00236543  1
  Al0+  Al55  1  0.49786302  -0.00238051  0.33481021  1
  Al0+  Al56  1  0.49795332  -0.00046760  0.66756273  1
  Al0+  Al57  1  0.50128640  0.50093769  0.00072852  1
  Al0+  Al58  1  0.49971700  0.49999669  0.33055655  1
  Al0+  Al59  1  0.49997555  0.50205802  0.66615486  1
  Al0+  Al60  1  0.25102134  0.24983402  -0.00266615  1
  Al0+  Al61  1  0.24780568  0.24656682  0.33482032  1
  Al0+  Al62  1  0.25205315  0.24990577  0.65822513  1
  Al0+  Al63  1  0.25044439  0.75102520  0.00088157  1
  Al0+  Al64  1  0.24947306  0.74899354  0.33977726  1
  Al0+  Al65  1  0.25104693  0.75059188  0.66051930  1
  Al0+  Al66  1  0.75180979  0.24931354  0.00446013  1
  Al0+  Al67  1  0.75276935  0.24739494  0.32659814  1
  Al0+  Al68  1  0.74995473  0.24778448  0.67540451  1
  Al0+  Al69  1  0.75061694  0.75298716  -0.00424969  1
  Al0+  Al70  1  0.75003900  0.75007981  0.33280484  1
  Al0+  Al71  1  0.74998453  0.74918127  0.66695513  1
  Al0+  Al72  1  0.82047460  0.06945392  0.68278855  1
  Al0+  Al73  1  0.32057554  0.57153869  0.01341769  1
  Al0+  Al74  1  0.67949487  0.43076729  0.67928102  1
  Al0+  Al75  1  0.92920430  0.82326208  0.98521553  1
  Al0+  Al76  1  0.57311274  0.17891441  0.98403573  1
  Al0+  Al77  1  0.57194126  0.17774029  0.31999202  1
  Al0+  Al78  1  0.07086239  0.18228775  0.98908656  1
  Al0+  Al79  1  0.43018424  0.32212008  0.98481216  1
  Al0+  Al80  1  0.07174893  0.17630170  0.65112399  1
  Al0+  Al81  1  0.92787577  0.31955472  0.65337625  1
  Al0+  Al82  1  0.17708029  0.42667563  0.34972099  1
  Al0+  Al83  1  0.07266043  0.67914666  0.65053213  1
  Al0+  Al84  1  0.17899939  0.93080332  0.01253132  1
  Al0+  Al85  1  0.32219248  0.56989425  0.35073202  1
  Al0+  Al86  1  0.17674857  0.42619650  0.01144055  1
  Al0+  Al87  1  0.93034678  0.32183520  0.31783936  1
  Al0+  Al88  1  0.57155164  0.67997063  0.32047818  1
  Al0+  Al89  1  0.57197658  0.67821370  0.98330283  1
  Al0+  Al90  1  0.68037901  0.42929642  0.01582281  1
  Al0+  Al91  1  0.42824959  0.82145925  0.98572443  1
  Al0+  Al92  1  0.42687126  0.32155167  0.31649060  1
  Al0+  Al93  1  0.07214164  0.67756056  0.98710895  1
  Al0+  Al94  1  0.67909299  0.93037980  0.01493866  1
  Al0+  Al95  1  0.43055593  0.32363468  0.65144144  1
  Si0+  Si96  1  0.42585480  0.82137606  0.31799960  1
  Si0+  Si97  1  0.82470172  0.57372855  0.68332141  1
  Si0+  Si98  1  0.67880434  0.92815174  0.34860196  1
  Si0+  Si99  1  0.82116988  0.07014362  0.35045220  1
  Si0+  Si100  1  0.18067744  0.92851385  0.68113878  1
  Si0+  Si101  1  0.92978346  0.82161439  0.32023028  1
  Si0+  Si102  1  0.68163973  0.42781877  0.34642235  1
  Si0+  Si103  1  0.07124544  0.68036576  0.31786702  1
  Si0+  Si104  1  0.32041778  0.57177761  0.68136706  1
  Si0+  Si105  1  0.42945149  0.82216654  0.65002729  1
  Si0+  Si106  1  0.82305785  0.07184027  0.02126324  1
  Si0+  Si107  1  0.32063652  0.07222829  0.68168755  1
  Si0+  Si108  1  0.17638969  0.92917533  0.35021300  1
  Si0+  Si109  1  0.92723739  0.32369608  0.98338191  1
  Si0+  Si110  1  0.32301565  0.07247914  0.01704654  1
  Si0+  Si111  1  0.17878410  0.42906957  0.67909468  1
  Si0+  Si112  1  0.57107948  0.68032306  0.65128451  1
  Si0+  Si113  1  0.32135222  0.06903817  0.34987990  1
  Si0+  Si114  1  0.57020177  0.17645793  0.65263365  1
  Si0+  Si115  1  0.07056127  0.17477842  0.31725132  1
  Si0+  Si116  1  0.92672514  0.82024739  0.64866698  1
  Si0+  Si117  1  0.67611890  0.92580373  0.68365387  1
  Si0+  Si118  1  0.82146876  0.57403480  0.01609866  1
  Si0+  Si119  1  0.82051575  0.57294698  0.34760192  1
  O2-  O120  1  0.25432944  0.00338710  0.06181089  1
  O2-  O121  1  0.24805809  -0.00061765  0.39252971  1
  O2-  O122  1  0.24515883  0.00534885  0.72291600  1
  O2-  O123  1  0.24778902  0.49917053  0.06140530  1
  O2-  O124  1  0.25268947  0.49510819  0.40129173  1
  O2-  O125  1  0.24945854  0.50027433  0.72173340  1
  O2-  O126  1  0.75092570  0.00625411  0.06520751  1
  O2-  O127  1  0.74526070  0.00289383  0.39186375  1
  O2-  O128  1  0.74496925  -0.00584379  0.72669448  1
  O2-  O129  1  0.75363519  0.50576857  0.06251456  1
  O2-  O130  1  0.75159435  0.49981426  0.39017372  1
  O2-  O131  1  0.75805399  0.50255717  0.72548853  1
  O2-  O132  1  0.00981524  0.25062172  0.27411718  1
  O2-  O133  1  0.00170958  0.25015643  0.60109858  1
  O2-  O134  1  0.00116082  0.26023440  0.94094632  1
  O2-  O135  1  0.00130946  0.75265725  0.27702541  1
  O2-  O136  1  -0.00599725  0.75073294  0.60307576  1
  O2-  O137  1  0.00083751  0.75042394  0.93674076  1
  O2-  O138  1  0.50217123  0.25105625  0.26982839  1
  O2-  O139  1  0.50552946  0.24774725  0.60692831  1
  O2-  O140  1  0.50545363  0.25395723  0.93330042  1
  O2-  O141  1  0.49329697  0.75147557  0.27607947  1
  O2-  O142  1  0.50334015  0.75421243  0.60829231  1
  O2-  O143  1  0.49910249  0.74969855  0.93337440  1
  O2-  O144  1  0.06732569  0.17957971  0.10231116  1
  O2-  O145  1  0.06515324  0.16913824  0.42256126  1
  O2-  O146  1  0.07189857  0.17678905  0.76434032  1
  O2-  O147  1  0.07002232  0.68018418  0.10111189  1
  O2-  O148  1  0.06972684  0.68219679  0.42347973  1
  O2-  O149  1  0.07541920  0.68145159  0.76265639  1
  O2-  O150  1  0.56778984  0.17963598  0.09762951  1
  O2-  O151  1  0.57214227  0.17914954  0.43438038  1
  O2-  O152  1  0.56570704  0.17201614  0.75715737  1
  O2-  O153  1  0.57161137  0.68008867  0.09692832  1
  O2-  O154  1  0.57384363  0.68381508  0.43459937  1
  O2-  O155  1  0.57056085  0.67978881  0.75538717  1
  O2-  O156  1  0.17513502  0.43191730  0.23677771  1
  O2-  O157  1  0.17910581  0.43143168  0.57412839  1
  O2-  O158  1  0.17819507  0.42632702  0.89702648  1
  O2-  O159  1  0.17384690  0.92896892  0.24575067  1
  O2-  O160  1  0.18405074  0.92755672  0.57522317  1
  O2-  O161  1  0.18007846  0.93276677  0.89911621  1
  O2-  O162  1  0.68385301  0.42920432  0.24182251  1
  O2-  O163  1  0.67888673  0.43304807  0.56527322  1
  O2-  O164  1  0.68202851  0.43063436  0.90245768  1
  O2-  O165  1  0.68093314  0.92633682  0.24430982  1
  O2-  O166  1  0.67676050  0.92501072  0.57720788  1
  O2-  O167  1  0.68178346  0.93195186  0.90168167  1
  O2-  O168  1  0.42827599  0.31965466  0.09795526  1
  O2-  O169  1  0.43152409  0.32031151  0.43080743  1
  O2-  O170  1  0.42942329  0.32512921  0.76366637  1
  O2-  O171  1  0.42980913  0.82089017  0.09955548  1
  O2-  O172  1  0.42848327  0.82395838  0.42443839  1
  O2-  O173  1  0.42625631  0.82296254  0.75406867  1
  O2-  O174  1  0.92668957  0.32156593  0.08927211  1
  O2-  O175  1  0.92595519  0.31825355  0.43084897  1
  O2-  O176  1  0.92962506  0.31865878  0.76637704  1
  O2-  O177  1  0.93081216  0.82158049  0.09987479  1
  O2-  O178  1  0.93060604  0.82101189  0.42555203  1
  O2-  O179  1  0.92679966  0.82007675  0.75331503  1
  O2-  O180  1  0.32295612  0.06646165  0.24547248  1
  O2-  O181  1  0.32331503  0.06720697  0.57626279  1
  O2-  O182  1  0.32085042  0.07180374  0.91106365  1
  O2-  O183  1  0.31900107  0.57691877  0.23856378  1
  O2-  O184  1  0.32178104  0.57214203  0.57624262  1
  O2-  O185  1  0.31852052  0.57116640  0.89884478  1
  O2-  O186  1  0.82868145  0.06588592  0.24653067  1
  O2-  O187  1  0.81753170  0.06844576  0.56864846  1
  O2-  O188  1  0.82431440  0.06967845  0.91567387  1
  O2-  O189  1  0.81998816  0.57680620  0.24318283  1
  O2-  O190  1  0.82092389  0.57776475  0.57722187  1
  O2-  O191  1  0.82189091  0.57260622  0.91047096  1
  O2-  O192  1  0.03631210  0.08348375  0.27047511  1
  O2-  O193  1  0.04231023  0.07694010  0.59918806  1
  O2-  O194  1  0.03667686  0.08738546  0.93441354  1
  O2-  O195  1  0.04219186  0.58974318  0.27153445  1
  O2-  O196  1  0.04274229  0.58403995  0.59290893  1
  O2-  O197  1  0.04113534  0.58084079  0.93179740  1
  O2-  O198  1  0.54071394  0.07815762  0.27085123  1
  O2-  O199  1  0.54283913  0.08342083  0.60406610  1
  O2-  O200  1  0.54454729  0.08145700  0.93092833  1
  O2-  O201  1  0.54588174  0.58261034  0.26818330  1
  O2-  O202  1  0.53912797  0.59101216  0.60168789  1
  O2-  O203  1  0.54413866  0.58052487  0.93010866  1
  O2-  O204  1  0.16738122  0.18856904  0.27548010  1
  O2-  O205  1  0.17103579  0.19974734  0.59774037  1
  O2-  O206  1  0.16816570  0.20480829  0.93334485  1
  O2-  O207  1  0.16369312  0.70961619  0.27425021  1
  O2-  O208  1  0.16650046  0.71575688  0.59330373  1
  O2-  O209  1  0.16869406  0.70833616  0.93349839  1
  O2-  O210  1  0.67159098  0.19760357  0.26761389  1
  O2-  O211  1  0.66594343  0.19950907  0.61113825  1
  O2-  O212  1  0.67509142  0.20166554  0.93731777  1
  O2-  O213  1  0.66705353  0.71377529  0.26671268  1
  O2-  O214  1  0.66435038  0.70454352  0.60362654  1
  O2-  O215  1  0.66911619  0.70882698  0.92983790  1
  O2-  O216  1  0.07625513  0.45139485  0.06185023  1
  O2-  O217  1  0.07907855  0.46151294  0.40253251  1
  O2-  O218  1  0.08595004  0.45661193  0.72404117  1
  O2-  O219  1  0.08364558  0.96385919  0.06845086  1
  O2-  O220  1  0.08524373  0.95793342  0.39990293  1
  O2-  O221  1  0.08597850  0.94712781  0.72484771  1
  O2-  O222  1  0.58418033  0.45999041  0.06947276  1
  O2-  O223  1  0.58920696  0.45493968  0.39274928  1
  O2-  O224  1  0.58472657  0.46800777  0.73285810  1
  O2-  O225  1  0.58160475  0.95905560  0.06896749  1
  O2-  O226  1  0.58487566  0.94968797  0.39588106  1
  O2-  O227  1  0.58147159  0.95024775  0.72740182  1
  O2-  O228  1  0.20558785  0.32833763  0.06547375  1
  O2-  O229  1  0.19602454  0.32413894  0.39910233  1
  O2-  O230  1  0.20624446  0.33526073  0.72211457  1
  O2-  O231  1  0.20823014  0.83494478  0.06818656  1
  O2-  O232  1  0.20369722  0.83797572  0.39979642  1
  O2-  O233  1  0.21569318  0.83834715  0.72666183  1
  O2-  O234  1  0.71298065  0.33351262  0.07067042  1
  O2-  O235  1  0.71166249  0.33548556  0.39214244  1
  O2-  O236  1  0.70543251  0.33402858  0.73450083  1
  O2-  O237  1  0.71172063  0.83361156  0.06833085  1
  O2-  O238  1  0.71187565  0.83851171  0.39871077  1
  O2-  O239  1  0.70071763  0.83149808  0.72822496  1
  O2-  O240  1  0.45258964  0.42058444  0.26616879  1
  O2-  O241  1  0.46352132  0.41978649  0.59701870  1
  O2-  O242  1  0.45826335  0.42030887  0.93235812  1
  O2-  O243  1  0.45095761  0.91441429  0.27235553  1
  O2-  O244  1  0.45565390  0.91444865  0.60106360  1
  O2-  O245  1  0.45669383  0.91921609  0.93176950  1
  O2-  O246  1  0.95508738  0.42025579  0.26468972  1
  O2-  O247  1  0.95107456  0.41894520  0.59899489  1
  O2-  O248  1  0.94274280  0.41903950  0.93837509  1
  O2-  O249  1  0.95613830  0.91401263  0.27432309  1
  O2-  O250  1  0.95471938  0.91266444  0.60103273  1
  O2-  O251  1  0.95925195  0.92046244  0.93272340  1
  O2-  O252  1  0.32796100  0.28918374  0.26794402  1
  O2-  O253  1  0.33587313  0.29201971  0.59467106  1
  O2-  O254  1  0.33356385  0.29015814  0.93045928  1
  O2-  O255  1  0.33013460  0.79876839  0.27598723  1
  O2-  O256  1  0.33989134  0.79262647  0.59877341  1
  O2-  O257  1  0.33004300  0.79525895  0.93158668  1
  O2-  O258  1  0.83697888  0.28635156  0.26130494  1
  O2-  O259  1  0.82888100  0.28663538  0.60222407  1
  O2-  O260  1  0.83605145  0.29107834  0.93771172  1
  O2-  O261  1  0.83834180  0.79332778  0.27337215  1
  O2-  O262  1  0.83191968  0.79718874  0.60221201  1
  O2-  O263  1  0.83200747  0.79746241  0.93051401  1
  O2-  O264  1  0.41585137  0.04579446  0.06290714  1
  O2-  O265  1  0.41099461  0.03741172  0.40135265  1
  O2-  O266  1  0.41034035  0.03940979  0.73004910  1
  O2-  O267  1  0.41911905  0.54475244  0.06536351  1
  O2-  O268  1  0.42265598  0.54364068  0.40331247  1
  O2-  O269  1  0.41245726  0.54527112  0.72793133  1
  O2-  O270  1  0.91444836  0.04116944  0.06892987  1
  O2-  O271  1  0.90966517  0.03703655  0.40261091  1
  O2-  O272  1  0.91727299  0.03649022  0.73543715  1
  O2-  O273  1  0.91469887  0.54870943  0.06371346  1
  O2-  O274  1  0.91309259  0.54707990  0.39438963  1
  O2-  O275  1  0.92042233  0.55141251  0.72550443  1
  O2-  O276  1  0.29508986  0.16466482  0.06367360  1
  O2-  O277  1  0.29525562  0.16036584  0.39900172  1
  O2-  O278  1  0.29809298  0.16640019  0.72589009  1
  O2-  O279  1  0.29342932  0.66967511  0.06726652  1
  O2-  O280  1  0.29191601  0.66849924  0.40646838  1
  O2-  O281  1  0.29240486  0.66511195  0.72510150  1
  O2-  O282  1  0.80221338  0.16624242  0.06708349  1
  O2-  O283  1  0.79515542  0.16315414  0.39658604  1
  O2-  O284  1  0.79197265  0.16405718  0.74030794  1
  O2-  O285  1  0.79775065  0.66858041  0.06071395  1
  O2-  O286  1  0.79137848  0.66367725  0.39832523  1
  O2-  O287  1  0.79713404  0.66668576  0.72984034  1
