# generated using pymatgen
data_Ca2Al2SiO7
_symmetry_space_group_name_H-M   'P 1'
_cell_length_a   15.45769113
_cell_length_b   15.45848116
_cell_length_c   15.28390418
_cell_angle_alpha   89.99799330
_cell_angle_beta   90.01036267
_cell_angle_gamma   89.99945570
_symmetry_Int_Tables_number   1
_chemical_formula_structural   Ca2Al2SiO7
_chemical_formula_sum   'Ca48 Al48 Si24 O168'
_cell_volume   3652.12593641
_cell_formula_units_Z   24
loop_
 _symmetry_equiv_pos_site_id
 _symmetry_equiv_pos_as_xyz
  1  'x, y, z'
loop_
 _atom_type_symbol
 _atom_type_oxidation_number
  Ca2+  2.0
  Al0+  0.0
  Si0+  0.0
  O2-  -2.0
loop_
 _atom_site_type_symbol
 _atom_site_label
 _atom_site_symmetry_multiplicity
 _atom_site_fract_x
 _atom_site_fract_y
 _atom_site_fract_z
 _atom_site_occupancy
  Ca2+  Ca0  1  0.16826168  0.08486855  0.16665550  1
  Ca2+  Ca1  1  0.16423748  0.07236579  0.51147293  1
  Ca2+  Ca2  1  0.17351804  0.09054326  0.83600555  1
  Ca2+  Ca3  1  0.15485846  0.57503285  0.17043007  1
  Ca2+  Ca4  1  0.16565603  0.57284978  0.50619283  1
  Ca2+  Ca5  1  0.17109303  0.57214300  0.83749782  1
  Ca2+  Ca6  1  0.66980043  0.08176221  0.17031458  1
  Ca2+  Ca7  1  0.67377913  0.08603345  0.51056819  1
  Ca2+  Ca8  1  0.67404898  0.09584488  0.83266781  1
  Ca2+  Ca9  1  0.67189106  0.57924835  0.16829532  1
  Ca2+  Ca10  1  0.67477235  0.58035275  0.50800635  1
  Ca2+  Ca11  1  0.65993529  0.57395455  0.83720382  1
  Ca2+  Ca12  1  0.07499169  0.33852987  0.15755341  1
  Ca2+  Ca13  1  0.08771471  0.32978881  0.49576242  1
  Ca2+  Ca14  1  0.08818539  0.32587606  0.83041089  1
  Ca2+  Ca15  1  0.08539275  0.82387774  0.16680164  1
  Ca2+  Ca16  1  0.08362251  0.83065054  0.49100973  1
  Ca2+  Ca17  1  0.09079698  0.82804846  0.82949159  1
  Ca2+  Ca18  1  0.57512429  0.33655227  0.15740418  1
  Ca2+  Ca19  1  0.57919170  0.33500998  0.50618834  1
  Ca2+  Ca20  1  0.57217285  0.33796629  0.82372817  1
  Ca2+  Ca21  1  0.58231859  0.82471238  0.15844454  1
  Ca2+  Ca22  1  0.58223167  0.82722861  0.49961301  1
  Ca2+  Ca23  1  0.58279456  0.81970761  0.82782525  1
  Ca2+  Ca24  1  0.31976495  0.41264835  0.16599479  1
  Ca2+  Ca25  1  0.32291200  0.41912385  0.50913685  1
  Ca2+  Ca26  1  0.32640351  0.40833384  0.83580960  1
  Ca2+  Ca27  1  0.32767757  0.92489334  0.17123278  1
  Ca2+  Ca28  1  0.31969468  0.92000168  0.50883703  1
  Ca2+  Ca29  1  0.33166016  0.92988184  0.83362556  1
  Ca2+  Ca30  1  0.83450440  0.41790667  0.17126502  1
  Ca2+  Ca31  1  0.83359853  0.42054496  0.50319249  1
  Ca2+  Ca32  1  0.81885370  0.40716689  0.83875588  1
  Ca2+  Ca33  1  0.83679735  0.91545507  0.17129864  1
  Ca2+  Ca34  1  0.83776068  0.92235936  0.50741069  1
  Ca2+  Ca35  1  0.83468338  0.92476711  0.83233563  1
  Ca2+  Ca36  1  0.41488479  0.17215753  0.15695901  1
  Ca2+  Ca37  1  0.41414390  0.16813275  0.50600105  1
  Ca2+  Ca38  1  0.41471744  0.17510452  0.82504986  1
  Ca2+  Ca39  1  0.42232810  0.66784799  0.15853012  1
  Ca2+  Ca40  1  0.41948830  0.65670083  0.50436997  1
  Ca2+  Ca41  1  0.42501500  0.65829183  0.82520154  1
  Ca2+  Ca42  1  0.92542665  0.18026738  0.15958721  1
  Ca2+  Ca43  1  0.92020187  0.17213850  0.49921279  1
  Ca2+  Ca44  1  0.92683900  0.16992946  0.82856992  1
  Ca2+  Ca45  1  0.92662258  0.66352750  0.16802343  1
  Ca2+  Ca46  1  0.92274069  0.67193508  0.48775052  1
  Ca2+  Ca47  1  0.92406463  0.66601666  0.83369369  1
  Al0+  Al48  1  -0.00013644  -0.00001812  -0.00064267  1
  Al0+  Al49  1  0.00023623  0.00106824  0.33217863  1
  Al0+  Al50  1  -0.00195969  -0.00012624  0.67217103  1
  Al0+  Al51  1  -0.00317264  0.50238736  -0.00692675  1
  Al0+  Al52  1  -0.00195227  0.49937456  0.33644112  1
  Al0+  Al53  1  -0.00055119  0.50141392  0.67103555  1
  Al0+  Al54  1  0.50040177  -0.00060236  0.00510676  1
  Al0+  Al55  1  0.50181128  -0.00035630  0.33321441  1
  Al0+  Al56  1  0.49972073  -0.00283523  0.66531266  1
  Al0+  Al57  1  0.49986938  0.49966985  -0.00131821  1
  Al0+  Al58  1  0.49982280  0.49780783  0.33144743  1
  Al0+  Al59  1  0.50180092  0.50006993  0.66050646  1
  Al0+  Al60  1  0.25029777  0.25023976  0.00371975  1
  Al0+  Al61  1  0.25297225  0.25036057  0.33689597  1
  Al0+  Al62  1  0.24869345  0.24810286  0.66151112  1
  Al0+  Al63  1  0.25031826  0.75205354  -0.00428149  1
  Al0+  Al64  1  0.25319057  0.75083763  0.33203423  1
  Al0+  Al65  1  0.25091514  0.74835883  0.67315583  1
  Al0+  Al66  1  0.74984665  0.24982538  0.00632383  1
  Al0+  Al67  1  0.74872208  0.24868526  0.32923195  1
  Al0+  Al68  1  0.75015576  0.25067061  0.67040424  1
  Al0+  Al69  1  0.74989697  0.75028395  -0.00409579  1
  Al0+  Al70  1  0.74967792  0.74965142  0.33342767  1
  Al0+  Al71  1  0.75087227  0.75071478  0.66303418  1
  Al0+  Al72  1  0.17981961  0.92999724  0.34537942  1
  Al0+  Al73  1  0.57253930  0.17758376  0.65285205  1
  Al0+  Al74  1  0.92808047  0.82357680  0.31908218  1
  Al0+  Al75  1  0.32159798  0.07026896  0.68089780  1
  Al0+  Al76  1  0.32142648  0.56907107  0.68107967  1
  Al0+  Al77  1  0.92882523  0.32022115  0.32105059  1
  Al0+  Al78  1  0.17655147  0.92784655  0.68338503  1
  Al0+  Al79  1  0.81946460  0.07152189  0.68061169  1
  Al0+  Al80  1  0.07294114  0.67886064  0.32071109  1
  Al0+  Al81  1  0.32039527  0.07084056  0.01479858  1
  Al0+  Al82  1  0.57168838  0.67852596  0.65026900  1
  Al0+  Al83  1  0.07198924  0.67941603  0.98416184  1
  Al0+  Al84  1  0.17722530  0.42694916  0.68252289  1
  Al0+  Al85  1  0.42985051  0.31924717  0.98778162  1
  Al0+  Al86  1  0.68202115  0.43117178  0.67867300  1
  Al0+  Al87  1  0.07076755  0.18008726  0.98578895  1
  Al0+  Al88  1  0.17826055  0.43117071  0.01370047  1
  Al0+  Al89  1  0.56980921  0.67982366  0.98643048  1
  Al0+  Al90  1  0.92598145  0.32304801  0.98365234  1
  Al0+  Al91  1  0.81929254  0.57014650  0.34660197  1
  Al0+  Al92  1  0.67776513  0.42903831  0.01507367  1
  Al0+  Al93  1  0.17828452  0.43037076  0.34610353  1
  Al0+  Al94  1  0.06997049  0.17883087  0.65210752  1
  Al0+  Al95  1  0.42750004  0.32093140  0.64916394  1
  Si0+  Si96  1  0.32185850  0.57393133  0.01629192  1
  Si0+  Si97  1  0.43078508  0.82306579  0.31731222  1
  Si0+  Si98  1  0.42919369  0.32040276  0.31625517  1
  Si0+  Si99  1  0.68090847  0.92789584  0.01517721  1
  Si0+  Si100  1  0.42697360  0.82064301  0.64877797  1
  Si0+  Si101  1  0.67807915  0.92588368  0.68296830  1
  Si0+  Si102  1  0.67820576  0.92839946  0.34860765  1
  Si0+  Si103  1  0.82222957  0.07062909  0.01818163  1
  Si0+  Si104  1  0.92767480  0.82265854  0.98152558  1
  Si0+  Si105  1  0.57085436  0.67865559  0.31778139  1
  Si0+  Si106  1  0.82243070  0.57577432  0.68491155  1
  Si0+  Si107  1  0.82041858  0.57451668  0.01670953  1
  Si0+  Si108  1  0.92750981  0.32286399  0.65080188  1
  Si0+  Si109  1  0.07403310  0.17857734  0.31767492  1
  Si0+  Si110  1  0.57212256  0.17536424  0.98612547  1
  Si0+  Si111  1  0.32536725  0.57252771  0.34774091  1
  Si0+  Si112  1  0.67600422  0.42644017  0.35055121  1
  Si0+  Si113  1  0.93012600  0.82039350  0.65241916  1
  Si0+  Si114  1  0.32469706  0.07185782  0.35140720  1
  Si0+  Si115  1  0.07208159  0.67890675  0.65187807  1
  Si0+  Si116  1  0.42851359  0.82438351  0.98274061  1
  Si0+  Si117  1  0.57079605  0.17762663  0.31698546  1
  Si0+  Si118  1  0.81932441  0.07104902  0.34718663  1
  Si0+  Si119  1  0.17666226  0.92647332  0.01881914  1
  O2-  O120  1  0.24500812  -0.00360609  0.06189019  1
  O2-  O121  1  0.25236377  0.00619830  0.39306838  1
  O2-  O122  1  0.24665889  0.00212491  0.73220237  1
  O2-  O123  1  0.24980816  0.50965098  0.06171383  1
  O2-  O124  1  0.25193449  0.50806266  0.38963169  1
  O2-  O125  1  0.25235511  0.49585026  0.73242955  1
  O2-  O126  1  0.75052400  -0.00083725  0.05958269  1
  O2-  O127  1  0.75218822  -0.00377460  0.38993599  1
  O2-  O128  1  0.74050785  0.00006259  0.72737069  1
  O2-  O129  1  0.75477633  0.50219585  0.06053708  1
  O2-  O130  1  0.74523263  0.49481892  0.39360865  1
  O2-  O131  1  0.75542267  0.50562114  0.72817448  1
  O2-  O132  1  0.00861850  0.25070455  0.27435678  1
  O2-  O133  1  -0.00041451  0.25819370  0.60551467  1
  O2-  O134  1  0.00015276  0.25301609  0.93486143  1
  O2-  O135  1  0.00102062  0.75198494  0.27042723  1
  O2-  O136  1  0.00153238  0.75049514  0.60984308  1
  O2-  O137  1  -0.00083765  0.75706114  0.93785778  1
  O2-  O138  1  0.49949901  0.24784505  0.27490344  1
  O2-  O139  1  0.49927024  0.24656525  0.60015233  1
  O2-  O140  1  0.50555635  0.24502693  0.94254659  1
  O2-  O141  1  0.49929281  0.74910981  0.27527693  1
  O2-  O142  1  0.49569984  0.75207294  0.60309393  1
  O2-  O143  1  0.49248937  0.75138515  0.93908438  1
  O2-  O144  1  0.06810320  0.17945657  0.10009231  1
  O2-  O145  1  0.07093551  0.17639879  0.42315139  1
  O2-  O146  1  0.06810402  0.17771316  0.76478013  1
  O2-  O147  1  0.07006995  0.67987009  0.09738447  1
  O2-  O148  1  0.07123648  0.68064457  0.43450767  1
  O2-  O149  1  0.06972394  0.67987500  0.75698167  1
  O2-  O150  1  0.57021817  0.17388725  0.09260083  1
  O2-  O151  1  0.57312555  0.17537993  0.42134615  1
  O2-  O152  1  0.57368331  0.18115380  0.76625234  1
  O2-  O153  1  0.56991337  0.68314284  0.10047333  1
  O2-  O154  1  0.57065683  0.68008693  0.42255169  1
  O2-  O155  1  0.57269570  0.68138487  0.76321077  1
  O2-  O156  1  0.17924592  0.42967586  0.23283351  1
  O2-  O157  1  0.17530109  0.43088740  0.56839742  1
  O2-  O158  1  0.18161316  0.42929748  0.90147092  1
  O2-  O159  1  0.18348946  0.93032740  0.23227981  1
  O2-  O160  1  0.17675591  0.92691509  0.56914515  1
  O2-  O161  1  0.17757045  0.92526358  0.91376501  1
  O2-  O162  1  0.67330585  0.42858445  0.24490478  1
  O2-  O163  1  0.68522103  0.43229680  0.56503863  1
  O2-  O164  1  0.67652624  0.43030789  0.90228902  1
  O2-  O165  1  0.67516815  0.93040195  0.24324198  1
  O2-  O166  1  0.68276949  0.92312634  0.57695921  1
  O2-  O167  1  0.68189432  0.92668261  0.91059673  1
  O2-  O168  1  0.43081130  0.31771929  0.10187181  1
  O2-  O169  1  0.42968835  0.32203362  0.42062242  1
  O2-  O170  1  0.42944158  0.32136071  0.76266419  1
  O2-  O171  1  0.43183609  0.82461911  0.08913409  1
  O2-  O172  1  0.43335788  0.82695991  0.42181994  1
  O2-  O173  1  0.43003870  0.82144478  0.75420595  1
  O2-  O174  1  0.92683129  0.32076328  0.09797601  1
  O2-  O175  1  0.92446520  0.31593195  0.43389323  1
  O2-  O176  1  0.92529023  0.31952143  0.75596778  1
  O2-  O177  1  0.92532397  0.82223707  0.08697248  1
  O2-  O178  1  0.92740415  0.82357857  0.43272886  1
  O2-  O179  1  0.92705367  0.81815596  0.75751146  1
  O2-  O180  1  0.32744245  0.07067971  0.24556173  1
  O2-  O181  1  0.32075755  0.06536132  0.56689187  1
  O2-  O182  1  0.32378579  0.06909731  0.90267234  1
  O2-  O183  1  0.33210912  0.57043545  0.24234985  1
  O2-  O184  1  0.31679741  0.56992757  0.56671696  1
  O2-  O185  1  0.32290465  0.57236626  0.91127292  1
  O2-  O186  1  0.81507483  0.07088638  0.24198661  1
  O2-  O187  1  0.81984832  0.06868923  0.56683552  1
  O2-  O188  1  0.82102270  0.06999206  0.91330233  1
  O2-  O189  1  0.81636735  0.57089457  0.23354243  1
  O2-  O190  1  0.82188943  0.57727557  0.57899578  1
  O2-  O191  1  0.81706644  0.57958127  0.91142685  1
  O2-  O192  1  0.04497991  0.08692718  0.26968993  1
  O2-  O193  1  0.03299757  0.08215414  0.60032109  1
  O2-  O194  1  0.04209886  0.08084989  0.93462294  1
  O2-  O195  1  0.03889216  0.58191823  0.26841192  1
  O2-  O196  1  0.04263149  0.58700374  0.60528683  1
  O2-  O197  1  0.03764860  0.58623348  0.92684426  1
  O2-  O198  1  0.54447017  0.08499837  0.26869713  1
  O2-  O199  1  0.54980512  0.07636510  0.60085640  1
  O2-  O200  1  0.54880819  0.08098078  0.94144270  1
  O2-  O201  1  0.54387171  0.58604219  0.27113391  1
  O2-  O202  1  0.54312107  0.58391451  0.59211833  1
  O2-  O203  1  0.54050976  0.58348436  0.93311381  1
  O2-  O204  1  0.17041426  0.19989513  0.27526030  1
  O2-  O205  1  0.16624479  0.20298943  0.59497245  1
  O2-  O206  1  0.16975147  0.20769023  0.93571839  1
  O2-  O207  1  0.17244001  0.70471351  0.26731183  1
  O2-  O208  1  0.16482019  0.70557266  0.60672260  1
  O2-  O209  1  0.16919869  0.70859370  0.93022525  1
  O2-  O210  1  0.66153583  0.20484540  0.26664316  1
  O2-  O211  1  0.67075587  0.20906376  0.59934978  1
  O2-  O212  1  0.66762997  0.19865735  0.94505822  1
  O2-  O213  1  0.66129210  0.70864224  0.26938090  1
  O2-  O214  1  0.66748043  0.71359556  0.59556588  1
  O2-  O215  1  0.66445647  0.71446171  0.93162365  1
  O2-  O216  1  0.07873622  0.46215157  0.06292210  1
  O2-  O217  1  0.08202843  0.45735392  0.40167133  1
  O2-  O218  1  0.07958255  0.45763427  0.73587348  1
  O2-  O219  1  0.08195912  0.95090071  0.06366235  1
  O2-  O220  1  0.08175600  0.95820063  0.39847569  1
  O2-  O221  1  0.07754172  0.95113944  0.73591015  1
  O2-  O222  1  0.58223103  0.46341295  0.07043773  1
  O2-  O223  1  0.58270012  0.45353208  0.39642492  1
  O2-  O224  1  0.58503456  0.46281050  0.72964573  1
  O2-  O225  1  0.58950911  0.95390722  0.06539627  1
  O2-  O226  1  0.58797206  0.95909821  0.39766628  1
  O2-  O227  1  0.58201168  0.94188720  0.72570825  1
  O2-  O228  1  0.21166335  0.33633681  0.06991963  1
  O2-  O229  1  0.21209538  0.33411739  0.39999157  1
  O2-  O230  1  0.20325490  0.32669614  0.73034351  1
  O2-  O231  1  0.20506009  0.83312215  0.06484099  1
  O2-  O232  1  0.21296677  0.83349305  0.39904598  1
  O2-  O233  1  0.20865757  0.83125891  0.73690301  1
  O2-  O234  1  0.70483249  0.33173239  0.07122114  1
  O2-  O235  1  0.70096933  0.33128124  0.39298535  1
  O2-  O236  1  0.71061418  0.33551323  0.73471952  1
  O2-  O237  1  0.71033764  0.83673502  0.06412977  1
  O2-  O238  1  0.70119527  0.83545200  0.39530712  1
  O2-  O239  1  0.71184226  0.83539162  0.73104174  1
  O2-  O240  1  0.45861386  0.41143389  0.26740889  1
  O2-  O241  1  0.46059152  0.41698370  0.59351191  1
  O2-  O242  1  0.45907085  0.41579994  0.93460492  1
  O2-  O243  1  0.46280054  0.91323452  0.26753910  1
  O2-  O244  1  0.45291332  0.91294678  0.59995168  1
  O2-  O245  1  0.46156252  0.91564222  0.93694622  1
  O2-  O246  1  0.95495609  0.41801859  0.26822307  1
  O2-  O247  1  0.94827274  0.41960613  0.60823234  1
  O2-  O248  1  0.94423216  0.42309545  0.93209433  1
  O2-  O249  1  0.95438579  0.92228429  0.26484132  1
  O2-  O250  1  0.95553648  0.91301448  0.60605767  1
  O2-  O251  1  0.94998147  0.91740686  0.93665665  1
  O2-  O252  1  0.33725851  0.29206919  0.26877459  1
  O2-  O253  1  0.33015781  0.29248621  0.59388089  1
  O2-  O254  1  0.33423749  0.28687548  0.93542523  1
  O2-  O255  1  0.33958576  0.79757735  0.26794530  1
  O2-  O256  1  0.33338390  0.79257454  0.60353132  1
  O2-  O257  1  0.33341079  0.80646940  0.93844074  1
  O2-  O258  1  0.83321623  0.28639105  0.26500320  1
  O2-  O259  1  0.83585697  0.29256536  0.60359737  1
  O2-  O260  1  0.82748505  0.28833964  0.93454450  1
  O2-  O261  1  0.82820023  0.79640301  0.26690623  1
  O2-  O262  1  0.83890696  0.79369757  0.60261978  1
  O2-  O263  1  0.83539188  0.79497694  0.93361335  1
  O2-  O264  1  0.41693885  0.03846111  0.07137889  1
  O2-  O265  1  0.41783908  0.04243182  0.39648153  1
  O2-  O266  1  0.42024491  0.03996352  0.73324914  1
  O2-  O267  1  0.41451000  0.54576272  0.06344214  1
  O2-  O268  1  0.41688183  0.54111715  0.39634131  1
  O2-  O269  1  0.42303303  0.54571239  0.72801632  1
  O2-  O270  1  0.91323413  0.04093861  0.06625259  1
  O2-  O271  1  0.91256826  0.04782271  0.39322223  1
  O2-  O272  1  0.91160128  0.03518041  0.73849726  1
  O2-  O273  1  0.91508062  0.55121971  0.06090143  1
  O2-  O274  1  0.91445409  0.54093969  0.40350994  1
  O2-  O275  1  0.91628141  0.55297408  0.73076184  1
  O2-  O276  1  0.28917594  0.16549002  0.07252231  1
  O2-  O277  1  0.30413047  0.16676850  0.39573918  1
  O2-  O278  1  0.29559129  0.16991207  0.73004505  1
  O2-  O279  1  0.30178897  0.67076683  0.05950747  1
  O2-  O280  1  0.30775091  0.66856858  0.39152140  1
  O2-  O281  1  0.29558175  0.66666713  0.73630781  1
  O2-  O282  1  0.79327626  0.16059753  0.06872325  1
  O2-  O283  1  0.78603423  0.16092291  0.39498633  1
  O2-  O284  1  0.79061687  0.16680789  0.73715216  1
  O2-  O285  1  0.79039311  0.66698398  0.06394566  1
  O2-  O286  1  0.78743769  0.66696415  0.40110923  1
  O2-  O287  1  0.79502291  0.66909578  0.73019134  1
