# generated using pymatgen
data_Ca2Al2SiO7
_symmetry_space_group_name_H-M   'P 1'
_cell_length_a   15.45442877
_cell_length_b   15.45436702
_cell_length_c   15.28074497
_cell_angle_alpha   90.00006025
_cell_angle_beta   90.00212505
_cell_angle_gamma   90.00472266
_symmetry_Int_Tables_number   1
_chemical_formula_structural   Ca2Al2SiO7
_chemical_formula_sum   'Ca48 Al48 Si24 O168'
_cell_volume   3649.62888434
_cell_formula_units_Z   24
loop_
 _symmetry_equiv_pos_site_id
 _symmetry_equiv_pos_as_xyz
  1  'x, y, z'
loop_
 _atom_type_symbol
 _atom_type_oxidation_number
  Ca2+  2.0
  Al0+  0.0
  Si0+  0.0
  O2-  -2.0
loop_
 _atom_site_type_symbol
 _atom_site_label
 _atom_site_symmetry_multiplicity
 _atom_site_fract_x
 _atom_site_fract_y
 _atom_site_fract_z
 _atom_site_occupancy
  Ca2+  Ca0  1  0.17222153  0.07550872  0.17538767  1
  Ca2+  Ca1  1  0.16759130  0.07437678  0.50434828  1
  Ca2+  Ca2  1  0.15549015  0.07150711  0.83481091  1
  Ca2+  Ca3  1  0.17603951  0.57591382  0.16939986  1
  Ca2+  Ca4  1  0.16475505  0.57620996  0.51074040  1
  Ca2+  Ca5  1  0.17711650  0.58487406  0.83157953  1
  Ca2+  Ca6  1  0.66483702  0.07874017  0.17246798  1
  Ca2+  Ca7  1  0.66363074  0.07791440  0.50477808  1
  Ca2+  Ca8  1  0.66022181  0.08694806  0.83495321  1
  Ca2+  Ca9  1  0.67250359  0.58345582  0.17557121  1
  Ca2+  Ca10  1  0.67524343  0.58536097  0.49908132  1
  Ca2+  Ca11  1  0.67909549  0.58685401  0.84054506  1
  Ca2+  Ca12  1  0.07968732  0.33662212  0.16226677  1
  Ca2+  Ca13  1  0.08341662  0.33982816  0.49889190  1
  Ca2+  Ca14  1  0.07479594  0.33552926  0.82257050  1
  Ca2+  Ca15  1  0.08045617  0.83969382  0.16609869  1
  Ca2+  Ca16  1  0.08394423  0.82870822  0.49571064  1
  Ca2+  Ca17  1  0.08886186  0.82816627  0.82444747  1
  Ca2+  Ca18  1  0.57938251  0.32993947  0.15719072  1
  Ca2+  Ca19  1  0.58577514  0.33091494  0.49637258  1
  Ca2+  Ca20  1  0.57910898  0.32546364  0.83148862  1
  Ca2+  Ca21  1  0.58912671  0.82164930  0.16542347  1
  Ca2+  Ca22  1  0.57761873  0.82852420  0.49256416  1
  Ca2+  Ca23  1  0.57408590  0.82500919  0.82769328  1
  Ca2+  Ca24  1  0.33521452  0.41789818  0.17068389  1
  Ca2+  Ca25  1  0.32160538  0.42440592  0.50704307  1
  Ca2+  Ca26  1  0.33222788  0.42246512  0.83654057  1
  Ca2+  Ca27  1  0.32344485  0.92336786  0.17311098  1
  Ca2+  Ca28  1  0.32717920  0.91744260  0.50597611  1
  Ca2+  Ca29  1  0.32298713  0.91045739  0.83412556  1
  Ca2+  Ca30  1  0.82829675  0.42585081  0.17213122  1
  Ca2+  Ca31  1  0.83194892  0.42617426  0.50586539  1
  Ca2+  Ca32  1  0.84225980  0.42477329  0.83623920  1
  Ca2+  Ca33  1  0.82825187  0.91632663  0.17682954  1
  Ca2+  Ca34  1  0.82751033  0.90809773  0.49899172  1
  Ca2+  Ca35  1  0.83231795  0.92202502  0.83753583  1
  Ca2+  Ca36  1  0.41906417  0.17152827  0.16029916  1
  Ca2+  Ca37  1  0.41675426  0.16439698  0.49726991  1
  Ca2+  Ca38  1  0.42436978  0.16945260  0.83068648  1
  Ca2+  Ca39  1  0.43077527  0.65926501  0.16015153  1
  Ca2+  Ca40  1  0.41434551  0.67165827  0.49758457  1
  Ca2+  Ca41  1  0.41471656  0.66605120  0.82808421  1
  Ca2+  Ca42  1  0.91797081  0.17656555  0.15907713  1
  Ca2+  Ca43  1  0.92452142  0.17220976  0.50188692  1
  Ca2+  Ca44  1  0.92066460  0.18167333  0.82472558  1
  Ca2+  Ca45  1  0.91155418  0.66825471  0.16646797  1
  Ca2+  Ca46  1  0.91952951  0.66410982  0.49584772  1
  Ca2+  Ca47  1  0.92322559  0.66163174  0.82630082  1
  Al0+  Al48  1  -0.00308474  -0.00012316  0.00558962  1
  Al0+  Al49  1  0.00064870  0.00064961  0.33140723  1
  Al0+  Al50  1  -0.00313712  0.00210181  0.66725702  1
  Al0+  Al51  1  0.00070236  0.50299272  0.00193980  1
  Al0+  Al52  1  0.00065756  0.50106316  0.33626022  1
  Al0+  Al53  1  -0.00111303  0.50152231  0.66600466  1
  Al0+  Al54  1  0.49800056  -0.00236901  -0.00213650  1
  Al0+  Al55  1  0.50012775  -0.00000475  0.33869170  1
  Al0+  Al56  1  0.49834802  -0.00190958  0.66040908  1
  Al0+  Al57  1  0.50194483  0.49925247  -0.00668029  1
  Al0+  Al58  1  0.50099672  0.49910699  0.33399443  1
  Al0+  Al59  1  0.50263124  0.49870693  0.66895733  1
  Al0+  Al60  1  0.24909322  0.24763606  -0.00558934  1
  Al0+  Al61  1  0.25069930  0.25001892  0.33939472  1
  Al0+  Al62  1  0.25102899  0.24815458  0.66793910  1
  Al0+  Al63  1  0.24944622  0.74813193  0.01263212  1
  Al0+  Al64  1  0.24973000  0.75056137  0.33162305  1
  Al0+  Al65  1  0.24932144  0.75054289  0.66385174  1
  Al0+  Al66  1  0.75182589  0.25044411  -0.00760938  1
  Al0+  Al67  1  0.75054330  0.25047817  0.33436835  1
  Al0+  Al68  1  0.74983602  0.24951200  0.65784448  1
  Al0+  Al69  1  0.75106259  0.75118110  -0.00194414  1
  Al0+  Al70  1  0.75089168  0.75154939  0.33359553  1
  Al0+  Al71  1  0.74816133  0.75001220  0.67342519  1
  Al0+  Al72  1  0.81882951  0.57072908  0.68215551  1
  Al0+  Al73  1  0.32124845  0.07115663  0.34899248  1
  Al0+  Al74  1  0.42879590  0.81747774  0.65279649  1
  Al0+  Al75  1  0.81976154  0.57160590  0.34858811  1
  Al0+  Al76  1  0.93193759  0.32331126  0.98755015  1
  Al0+  Al77  1  0.57087847  0.17638604  0.98651142  1
  Al0+  Al78  1  0.17752825  0.92874869  0.01553573  1
  Al0+  Al79  1  0.57322859  0.67934822  0.98524803  1
  Al0+  Al80  1  0.42636261  0.32210514  0.98420570  1
  Al0+  Al81  1  0.67703831  0.42701795  0.34738392  1
  Al0+  Al82  1  0.17865664  0.42750894  0.68307299  1
  Al0+  Al83  1  0.93088591  0.32300982  0.64831355  1
  Al0+  Al84  1  0.93117821  0.82016422  0.32011229  1
  Al0+  Al85  1  0.82203329  0.57197175  0.01529285  1
  Al0+  Al86  1  0.17999127  0.43045844  0.34552698  1
  Al0+  Al87  1  0.68078461  0.93008922  0.34651341  1
  Al0+  Al88  1  0.17729960  0.92822641  0.35041777  1
  Al0+  Al89  1  0.17808803  0.93121891  0.67968580  1
  Al0+  Al90  1  0.07291872  0.17704958  0.65118230  1
  Al0+  Al91  1  0.56909731  0.68007389  0.32082171  1
  Al0+  Al92  1  0.32217404  0.57183965  0.68020960  1
  Al0+  Al93  1  0.06956543  0.68165999  0.65457376  1
  Al0+  Al94  1  0.56890717  0.17967628  0.64978076  1
  Al0+  Al95  1  0.32362535  0.56857728  0.01484426  1
  Si0+  Si96  1  0.67899950  0.42431463  0.68530060  1
  Si0+  Si97  1  0.82299168  0.07433743  0.35004999  1
  Si0+  Si98  1  0.42785417  0.32398394  0.64766419  1
  Si0+  Si99  1  0.17851365  0.42652642  0.01455732  1
  Si0+  Si100  1  0.81853237  0.07164447  0.68171704  1
  Si0+  Si101  1  0.07344886  0.67545272  0.31390754  1
  Si0+  Si102  1  0.32445939  0.07073057  0.68560753  1
  Si0+  Si103  1  0.81913124  0.07231926  0.01461589  1
  Si0+  Si104  1  0.42676340  0.82398563  0.31450067  1
  Si0+  Si105  1  0.57198604  0.17784514  0.31871202  1
  Si0+  Si106  1  0.92898630  0.82268589  0.98480885  1
  Si0+  Si107  1  0.07043935  0.17563232  0.98496484  1
  Si0+  Si108  1  0.67807546  0.92957793  0.01337114  1
  Si0+  Si109  1  0.57475624  0.67683260  0.65018645  1
  Si0+  Si110  1  0.07174436  0.68170279  0.98697685  1
  Si0+  Si111  1  0.92917433  0.32231287  0.31723187  1
  Si0+  Si112  1  0.68011858  0.42674469  0.01383157  1
  Si0+  Si113  1  0.67678144  0.92960248  0.68340067  1
  Si0+  Si114  1  0.32247968  0.07216561  0.01503876  1
  Si0+  Si115  1  0.32407539  0.57183473  0.34833372  1
  Si0+  Si116  1  0.92496507  0.82366405  0.65275123  1
  Si0+  Si117  1  0.42881036  0.31943641  0.32026481  1
  Si0+  Si118  1  0.07196792  0.18051307  0.31757763  1
  Si0+  Si119  1  0.42597138  0.81921714  0.98572886  1
  O2-  O120  1  0.25113665  0.00612668  0.05908745  1
  O2-  O121  1  0.25208846  -0.00297430  0.39962758  1
  O2-  O122  1  0.25000436  0.00770481  0.72936747  1
  O2-  O123  1  0.25328323  0.48822393  0.05970596  1
  O2-  O124  1  0.25023430  0.50906786  0.39172482  1
  O2-  O125  1  0.25351526  0.49723174  0.73189321  1
  O2-  O126  1  0.74522176  0.00419291  0.05603158  1
  O2-  O127  1  0.75425666  0.00567734  0.39434410  1
  O2-  O128  1  0.74762754  0.00082035  0.72566564  1
  O2-  O129  1  0.74555469  0.49791066  0.05940969  1
  O2-  O130  1  0.74939290  0.49786775  0.39788144  1
  O2-  O131  1  0.74519073  0.49520938  0.72984561  1
  O2-  O132  1  0.00058205  0.25128642  0.27457498  1
  O2-  O133  1  0.00777341  0.25475454  0.59940234  1
  O2-  O134  1  0.00854912  0.25024414  0.94146417  1
  O2-  O135  1  0.00669113  0.74720433  0.27066767  1
  O2-  O136  1  -0.00612057  0.75602727  0.60889364  1
  O2-  O137  1  0.00156602  0.75369830  0.94360601  1
  O2-  O138  1  0.50183812  0.24989883  0.27737235  1
  O2-  O139  1  0.49525254  0.25441342  0.60206378  1
  O2-  O140  1  0.49849014  0.24805459  0.93702593  1
  O2-  O141  1  0.49310072  0.75269178  0.27078711  1
  O2-  O142  1  0.50163765  0.74060630  0.60646343  1
  O2-  O143  1  0.49430744  0.75068703  0.94036368  1
  O2-  O144  1  0.06770507  0.17445319  0.09104533  1
  O2-  O145  1  0.07068967  0.18014294  0.42203381  1
  O2-  O146  1  0.06435358  0.17294865  0.76495504  1
  O2-  O147  1  0.07035601  0.68138477  0.09203011  1
  O2-  O148  1  0.07286685  0.67415611  0.41930283  1
  O2-  O149  1  0.07029364  0.68381104  0.76842705  1
  O2-  O150  1  0.57102459  0.17593064  0.10052395  1
  O2-  O151  1  0.57192614  0.17788271  0.42348662  1
  O2-  O152  1  0.56764332  0.17955548  0.76295973  1
  O2-  O153  1  0.57516169  0.68196272  0.09861117  1
  O2-  O154  1  0.56770640  0.68252772  0.43381549  1
  O2-  O155  1  0.57760375  0.68213074  0.75590881  1
  O2-  O156  1  0.18198467  0.42876721  0.23175592  1
  O2-  O157  1  0.17998856  0.43147290  0.56925995  1
  O2-  O158  1  0.17568317  0.43024354  0.90974254  1
  O2-  O159  1  0.17739147  0.93345313  0.23632597  1
  O2-  O160  1  0.17926177  0.93077423  0.56732639  1
  O2-  O161  1  0.17678401  0.92795828  0.90233172  1
  O2-  O162  1  0.67805598  0.42468211  0.23337860  1
  O2-  O163  1  0.68008205  0.42464486  0.57967112  1
  O2-  O164  1  0.68320784  0.42549788  0.90843817  1
  O2-  O165  1  0.68201069  0.93215917  0.23269079  1
  O2-  O166  1  0.67876554  0.92853558  0.57839677  1
  O2-  O167  1  0.68048376  0.92940986  0.90812249  1
  O2-  O168  1  0.42759249  0.31985548  0.09875460  1
  O2-  O169  1  0.42876061  0.31848015  0.42498296  1
  O2-  O170  1  0.43020993  0.32332720  0.75318313  1
  O2-  O171  1  0.42914628  0.82110990  0.09116476  1
  O2-  O172  1  0.42791970  0.82323184  0.42012959  1
  O2-  O173  1  0.43069544  0.81832174  0.76648351  1
  O2-  O174  1  0.93168635  0.32025008  0.10132877  1
  O2-  O175  1  0.92921329  0.32098378  0.42164735  1
  O2-  O176  1  0.92979615  0.32061594  0.76237947  1
  O2-  O177  1  0.92746868  0.82405700  0.08975299  1
  O2-  O178  1  0.93043373  0.81862815  0.43304763  1
  O2-  O179  1  0.92486497  0.82424119  0.75894655  1
  O2-  O180  1  0.31957081  0.07297224  0.23464294  1
  O2-  O181  1  0.32722019  0.06648276  0.58023393  1
  O2-  O182  1  0.32494417  0.07037121  0.90990974  1
  O2-  O183  1  0.32635378  0.56683793  0.24244185  1
  O2-  O184  1  0.32014492  0.57153451  0.56636817  1
  O2-  O185  1  0.31888873  0.57340620  0.90245601  1
  O2-  O186  1  0.82027527  0.07586668  0.24373381  1
  O2-  O187  1  0.81794660  0.06984379  0.57673664  1
  O2-  O188  1  0.82248184  0.06941901  0.90964565  1
  O2-  O189  1  0.81834229  0.56995719  0.23454093  1
  O2-  O190  1  0.81640986  0.57364087  0.56948250  1
  O2-  O191  1  0.82327325  0.57210356  0.90228665  1
  O2-  O192  1  0.04376892  0.08941663  0.26837739  1
  O2-  O193  1  0.03443945  0.08196968  0.59622548  1
  O2-  O194  1  0.03590278  0.08432072  0.93914706  1
  O2-  O195  1  0.04497297  0.58287757  0.26636655  1
  O2-  O196  1  0.03792827  0.58642971  0.59972952  1
  O2-  O197  1  0.04303966  0.59069718  0.93924336  1
  O2-  O198  1  0.54363780  0.08569506  0.27187589  1
  O2-  O199  1  0.53886055  0.08263836  0.59627043  1
  O2-  O200  1  0.54318993  0.07751652  0.93250674  1
  O2-  O201  1  0.54064188  0.58214210  0.26637726  1
  O2-  O202  1  0.55712158  0.58018999  0.60830416  1
  O2-  O203  1  0.54907305  0.58213739  0.93097021  1
  O2-  O204  1  0.16400799  0.20982657  0.27086655  1
  O2-  O205  1  0.17550823  0.19408672  0.60302228  1
  O2-  O206  1  0.16617325  0.18994832  0.94017583  1
  O2-  O207  1  0.16854966  0.69821375  0.26829164  1
  O2-  O208  1  0.16401011  0.71241750  0.59762217  1
  O2-  O209  1  0.16436686  0.71053184  0.94216054  1
  O2-  O210  1  0.66498341  0.20310514  0.27136954  1
  O2-  O211  1  0.66550369  0.20699621  0.59444012  1
  O2-  O212  1  0.66893562  0.20354041  0.93177033  1
  O2-  O213  1  0.66472630  0.71482291  0.26686553  1
  O2-  O214  1  0.66591642  0.71052044  0.60381841  1
  O2-  O215  1  0.66747107  0.71649688  0.92974631  1
  O2-  O216  1  0.08851638  0.46002461  0.06413606  1
  O2-  O217  1  0.08328017  0.45802421  0.39956656  1
  O2-  O218  1  0.08058174  0.45912990  0.73372140  1
  O2-  O219  1  0.08025345  0.95958388  0.06941951  1
  O2-  O220  1  0.07892464  0.95894092  0.40099526  1
  O2-  O221  1  0.07950873  0.95934332  0.73346082  1
  O2-  O222  1  0.58468326  0.44838054  0.05706974  1
  O2-  O223  1  0.57934177  0.45463394  0.40193944  1
  O2-  O224  1  0.58425750  0.44612587  0.73050335  1
  O2-  O225  1  0.58477338  0.95223980  0.06025947  1
  O2-  O226  1  0.58483657  0.95860799  0.40193038  1
  O2-  O227  1  0.58506469  0.95920212  0.72956021  1
  O2-  O228  1  0.19549524  0.32891389  0.05681745  1
  O2-  O229  1  0.21185800  0.33601803  0.40133281  1
  O2-  O230  1  0.20239159  0.32665241  0.73386810  1
  O2-  O231  1  0.20853621  0.83473869  0.07369652  1
  O2-  O232  1  0.20139118  0.82676546  0.39828969  1
  O2-  O233  1  0.21254546  0.83558518  0.73322118  1
  O2-  O234  1  0.70828660  0.33325740  0.06006357  1
  O2-  O235  1  0.70466313  0.32828978  0.40031012  1
  O2-  O236  1  0.70654385  0.33006998  0.72886478  1
  O2-  O237  1  0.71169424  0.84017124  0.06161616  1
  O2-  O238  1  0.71375676  0.83591627  0.40247008  1
  O2-  O239  1  0.70426496  0.83909166  0.73372181  1
  O2-  O240  1  0.45524633  0.41140637  0.27215786  1
  O2-  O241  1  0.45514917  0.41744533  0.60157316  1
  O2-  O242  1  0.45605962  0.41827609  0.92849723  1
  O2-  O243  1  0.45575270  0.91766107  0.27011951  1
  O2-  O244  1  0.46248953  0.91178382  0.59663736  1
  O2-  O245  1  0.45058398  0.91228933  0.93779006  1
  O2-  O246  1  0.95790322  0.41417819  0.27031249  1
  O2-  O247  1  0.95564263  0.42201421  0.59621225  1
  O2-  O248  1  0.96214657  0.42035277  0.93442779  1
  O2-  O249  1  0.95835854  0.91846102  0.26423071  1
  O2-  O250  1  0.94641139  0.91775853  0.60708109  1
  O2-  O251  1  0.95405239  0.91617616  0.93849272  1
  O2-  O252  1  0.33774938  0.28954149  0.27174845  1
  O2-  O253  1  0.33344713  0.29908614  0.60349996  1
  O2-  O254  1  0.32790669  0.29516444  0.92982075  1
  O2-  O255  1  0.33171766  0.80244620  0.26911013  1
  O2-  O256  1  0.33360920  0.78864556  0.59601702  1
  O2-  O257  1  0.33146637  0.79149892  0.94297432  1
  O2-  O258  1  0.83747014  0.29271797  0.26940469  1
  O2-  O259  1  0.83467533  0.28886932  0.59445710  1
  O2-  O260  1  0.83783717  0.29030475  0.93079195  1
  O2-  O261  1  0.83478531  0.79003449  0.26423327  1
  O2-  O262  1  0.83047707  0.79681065  0.60894077  1
  O2-  O263  1  0.83800596  0.79593772  0.93554531  1
  O2-  O264  1  0.41500359  0.04367786  0.06320877  1
  O2-  O265  1  0.41998201  0.04607914  0.40231780  1
  O2-  O266  1  0.41601482  0.03730982  0.73195111  1
  O2-  O267  1  0.42275967  0.54044796  0.06576464  1
  O2-  O268  1  0.41479781  0.54248242  0.39674028  1
  O2-  O269  1  0.42301095  0.54785438  0.73156339  1
  O2-  O270  1  0.90827625  0.04222303  0.06645905  1
  O2-  O271  1  0.91675377  0.04883537  0.39389742  1
  O2-  O272  1  0.90858400  0.04349498  0.73243987  1
  O2-  O273  1  0.91842820  0.54185810  0.07023067  1
  O2-  O274  1  0.91880095  0.54460495  0.39961865  1
  O2-  O275  1  0.91573291  0.54059666  0.73536300  1
  O2-  O276  1  0.29923496  0.16704506  0.06048455  1
  O2-  O277  1  0.29187289  0.16769185  0.40424542  1
  O2-  O278  1  0.30753390  0.16703578  0.72864810  1
  O2-  O279  1  0.28925810  0.66133825  0.07442335  1
  O2-  O280  1  0.30433516  0.66850628  0.38907776  1
  O2-  O281  1  0.28934258  0.66887251  0.73341740  1
  O2-  O282  1  0.79388050  0.16520965  0.06131459  1
  O2-  O283  1  0.79786645  0.16703660  0.39705330  1
  O2-  O284  1  0.78923235  0.16370362  0.72766324  1
  O2-  O285  1  0.79158275  0.67044746  0.06629115  1
  O2-  O286  1  0.79030384  0.66910186  0.40101481  1
  O2-  O287  1  0.78849906  0.66731077  0.73878901  1
