# generated using pymatgen
data_Ca2Al2SiO7
_symmetry_space_group_name_H-M   'P 1'
_cell_length_a   15.45824146
_cell_length_b   15.45827352
_cell_length_c   15.28395384
_cell_angle_alpha   89.99545196
_cell_angle_beta   90.01570311
_cell_angle_gamma   89.99901647
_symmetry_Int_Tables_number   1
_chemical_formula_structural   Ca2Al2SiO7
_chemical_formula_sum   'Ca48 Al48 Si24 O168'
_cell_volume   3652.21868452
_cell_formula_units_Z   24
loop_
 _symmetry_equiv_pos_site_id
 _symmetry_equiv_pos_as_xyz
  1  'x, y, z'
loop_
 _atom_type_symbol
 _atom_type_oxidation_number
  Ca2+  2.0
  Al0+  0.0
  Si0+  0.0
  O2-  -2.0
loop_
 _atom_site_type_symbol
 _atom_site_label
 _atom_site_symmetry_multiplicity
 _atom_site_fract_x
 _atom_site_fract_y
 _atom_site_fract_z
 _atom_site_occupancy
  Ca2+  Ca0  1  0.16653900  0.08470570  0.17905442  1
  Ca2+  Ca1  1  0.16143277  0.08386296  0.49855784  1
  Ca2+  Ca2  1  0.16123019  0.08714675  0.83492204  1
  Ca2+  Ca3  1  0.16308209  0.57304826  0.16934370  1
  Ca2+  Ca4  1  0.16891509  0.57051296  0.51246463  1
  Ca2+  Ca5  1  0.16620980  0.57678098  0.84196325  1
  Ca2+  Ca6  1  0.66554421  0.07113574  0.17651142  1
  Ca2+  Ca7  1  0.66983985  0.07942245  0.50529245  1
  Ca2+  Ca8  1  0.67670646  0.07926950  0.83997060  1
  Ca2+  Ca9  1  0.66558146  0.58793342  0.17135093  1
  Ca2+  Ca10  1  0.67051112  0.58817929  0.50644872  1
  Ca2+  Ca11  1  0.67204748  0.59093001  0.83445817  1
  Ca2+  Ca12  1  0.08855732  0.32681693  0.16126936  1
  Ca2+  Ca13  1  0.08599911  0.32886023  0.49730218  1
  Ca2+  Ca14  1  0.08006997  0.33111592  0.82810256  1
  Ca2+  Ca15  1  0.07871376  0.83518189  0.16355183  1
  Ca2+  Ca16  1  0.07852983  0.82881515  0.49318665  1
  Ca2+  Ca17  1  0.08908056  0.81802922  0.82865368  1
  Ca2+  Ca18  1  0.57517000  0.32860603  0.16824893  1
  Ca2+  Ca19  1  0.57395514  0.32747741  0.48859885  1
  Ca2+  Ca20  1  0.57979001  0.33482857  0.82898788  1
  Ca2+  Ca21  1  0.58840589  0.82682297  0.16258077  1
  Ca2+  Ca22  1  0.58691233  0.82405581  0.49404056  1
  Ca2+  Ca23  1  0.58455374  0.82575704  0.83231498  1
  Ca2+  Ca24  1  0.32415435  0.41846088  0.17112420  1
  Ca2+  Ca25  1  0.32432850  0.41577579  0.50360490  1
  Ca2+  Ca26  1  0.31980025  0.42708438  0.83651713  1
  Ca2+  Ca27  1  0.32360145  0.92408059  0.17688934  1
  Ca2+  Ca28  1  0.33070343  0.92303285  0.49661514  1
  Ca2+  Ca29  1  0.33272651  0.91950713  0.83649025  1
  Ca2+  Ca30  1  0.83710066  0.41729386  0.16656111  1
  Ca2+  Ca31  1  0.83151709  0.42041051  0.50992568  1
  Ca2+  Ca32  1  0.84256479  0.41838955  0.83321143  1
  Ca2+  Ca33  1  0.82496003  0.91086984  0.17408733  1
  Ca2+  Ca34  1  0.83295336  0.91967868  0.50123448  1
  Ca2+  Ca35  1  0.83099921  0.92292254  0.83588636  1
  Ca2+  Ca36  1  0.41233058  0.16844498  0.17148945  1
  Ca2+  Ca37  1  0.41811736  0.17222559  0.48676506  1
  Ca2+  Ca38  1  0.41802456  0.16965518  0.82953227  1
  Ca2+  Ca39  1  0.42617529  0.66221459  0.16020416  1
  Ca2+  Ca40  1  0.42703869  0.65851920  0.49733464  1
  Ca2+  Ca41  1  0.42365036  0.65440755  0.82932451  1
  Ca2+  Ca42  1  0.93014798  0.17242795  0.15928597  1
  Ca2+  Ca43  1  0.92304177  0.16781603  0.49919920  1
  Ca2+  Ca44  1  0.92452678  0.17618311  0.82506363  1
  Ca2+  Ca45  1  0.92316960  0.67404271  0.16449676  1
  Ca2+  Ca46  1  0.92023721  0.66750937  0.49886744  1
  Ca2+  Ca47  1  0.92882328  0.66101169  0.82821623  1
  Al0+  Al48  1  -0.00089300  0.00209575  -0.00368928  1
  Al0+  Al49  1  -0.00240099  -0.00061316  0.32820493  1
  Al0+  Al50  1  -0.00067047  0.00009100  0.66969086  1
  Al0+  Al51  1  -0.00091747  0.50080728  0.00023846  1
  Al0+  Al52  1  -0.00022439  0.50085333  0.33827765  1
  Al0+  Al53  1  -0.00226667  0.49897552  0.66606071  1
  Al0+  Al54  1  0.50074780  -0.00126702  0.00353316  1
  Al0+  Al55  1  0.49998363  -0.00290876  0.33946049  1
  Al0+  Al56  1  0.49829359  -0.00261820  0.66843636  1
  Al0+  Al57  1  0.50149748  0.49965517  -0.00125074  1
  Al0+  Al58  1  0.50124367  0.49846002  0.32476096  1
  Al0+  Al59  1  0.49939683  0.49872881  0.66424257  1
  Al0+  Al60  1  0.25168081  0.25110822  -0.00207678  1
  Al0+  Al61  1  0.24983834  0.25215263  0.33353277  1
  Al0+  Al62  1  0.25009268  0.24931560  0.66831347  1
  Al0+  Al63  1  0.25276164  0.75244125  0.00142943  1
  Al0+  Al64  1  0.25198898  0.74831375  0.33788884  1
  Al0+  Al65  1  0.25288991  0.75157245  0.66390366  1
  Al0+  Al66  1  0.75058717  0.25091598  -0.00136855  1
  Al0+  Al67  1  0.74929354  0.25057663  0.32919913  1
  Al0+  Al68  1  0.75065485  0.24822130  0.66852431  1
  Al0+  Al69  1  0.74918731  0.75043538  -0.00081009  1
  Al0+  Al70  1  0.75176770  0.75073422  0.33054395  1
  Al0+  Al71  1  0.74848474  0.74908598  0.66835371  1
  Al0+  Al72  1  0.42793734  0.32027932  0.31672809  1
  Al0+  Al73  1  0.17786936  0.43025946  0.01660567  1
  Al0+  Al74  1  0.07163810  0.68220580  0.98927160  1
  Al0+  Al75  1  0.17867320  0.43064213  0.34878413  1
  Al0+  Al76  1  0.56924420  0.68016240  0.65267360  1
  Al0+  Al77  1  0.82146417  0.07100499  0.68101219  1
  Al0+  Al78  1  0.57256772  0.17512977  0.31920518  1
  Al0+  Al79  1  0.92790074  0.32170758  0.98437775  1
  Al0+  Al80  1  0.07187770  0.17814146  0.64897388  1
  Al0+  Al81  1  0.57041423  0.68106947  0.31882313  1
  Al0+  Al82  1  0.32295574  0.57274807  0.01653624  1
  Al0+  Al83  1  0.31888597  0.07110936  0.34863846  1
  Al0+  Al84  1  0.07387792  0.17908326  0.98370085  1
  Al0+  Al85  1  0.32245585  0.57248064  0.68029939  1
  Al0+  Al86  1  0.68144844  0.92999909  0.01466109  1
  Al0+  Al87  1  0.81943701  0.57124742  0.68054642  1
  Al0+  Al88  1  0.17807048  0.42847234  0.68321573  1
  Al0+  Al89  1  0.92759380  0.32108728  0.64921329  1
  Al0+  Al90  1  0.06832565  0.18153549  0.32062619  1
  Al0+  Al91  1  0.07286478  0.67795801  0.65315226  1
  Al0+  Al92  1  0.57044418  0.67886395  0.98425908  1
  Al0+  Al93  1  0.93129403  0.81981606  0.32075730  1
  Al0+  Al94  1  0.17460527  0.92705010  0.34837744  1
  Al0+  Al95  1  0.67982205  0.92753276  0.34880721  1
  Si0+  Si96  1  0.42586258  0.82185969  0.31645737  1
  Si0+  Si97  1  0.42744008  0.82613502  0.64661187  1
  Si0+  Si98  1  0.07414829  0.67632356  0.31903556  1
  Si0+  Si99  1  0.57104955  0.17627689  0.65455510  1
  Si0+  Si100  1  0.92667691  0.82237968  0.98205721  1
  Si0+  Si101  1  0.81926843  0.57073235  0.34757218  1
  Si0+  Si102  1  0.17853168  0.92910628  0.68195393  1
  Si0+  Si103  1  0.43038832  0.32075038  0.98256535  1
  Si0+  Si104  1  0.67685012  0.92803483  0.68480816  1
  Si0+  Si105  1  0.82087857  0.07386189  0.34843847  1
  Si0+  Si106  1  0.67774977  0.42728509  0.01599139  1
  Si0+  Si107  1  0.92640443  0.32596110  0.31693400  1
  Si0+  Si108  1  0.82004956  0.57104754  0.01598978  1
  Si0+  Si109  1  0.17815996  0.92964468  0.01274709  1
  Si0+  Si110  1  0.67729840  0.42703790  0.68195709  1
  Si0+  Si111  1  0.32162512  0.07140916  0.01397802  1
  Si0+  Si112  1  0.57013579  0.17712781  0.98530637  1
  Si0+  Si113  1  0.32201852  0.07063732  0.68265256  1
  Si0+  Si114  1  0.42904955  0.82398230  0.98352830  1
  Si0+  Si115  1  0.67837962  0.42830728  0.34632025  1
  Si0+  Si116  1  0.82224935  0.07362263  0.01861192  1
  Si0+  Si117  1  0.32577039  0.57075368  0.34943728  1
  Si0+  Si118  1  0.43058435  0.31861568  0.65270206  1
  Si0+  Si119  1  0.92847882  0.82123766  0.65217075  1
  O2-  O120  1  0.24469945  0.00563101  0.05368881  1
  O2-  O121  1  0.24545049  0.00031247  0.39904991  1
  O2-  O122  1  0.24949395  0.00103149  0.72431536  1
  O2-  O123  1  0.24866394  0.50382287  0.06713200  1
  O2-  O124  1  0.25231620  0.50765103  0.39348345  1
  O2-  O125  1  0.24431279  0.50769796  0.73095556  1
  O2-  O126  1  0.75617430  0.00320994  0.06366152  1
  O2-  O127  1  0.74935901  0.00796210  0.39359843  1
  O2-  O128  1  0.74507351  -0.00254459  0.72802081  1
  O2-  O129  1  0.74905813  0.49896627  0.05727622  1
  O2-  O130  1  0.75037777  0.49729636  0.38904188  1
  O2-  O131  1  0.74605398  0.49474870  0.72747135  1
  O2-  O132  1  -0.00518964  0.25717163  0.27353991  1
  O2-  O133  1  0.00147785  0.25155558  0.59902014  1
  O2-  O134  1  0.00127402  0.25093293  0.93531377  1
  O2-  O135  1  0.01150931  0.75056573  0.27458871  1
  O2-  O136  1  -0.00306498  0.75251938  0.60775476  1
  O2-  O137  1  -0.00090956  0.75767106  0.93890016  1
  O2-  O138  1  0.49864073  0.24493244  0.26838631  1
  O2-  O139  1  0.50144366  0.24712601  0.61104861  1
  O2-  O140  1  0.50129543  0.24874940  0.94039718  1
  O2-  O141  1  0.49399953  0.75328465  0.27126366  1
  O2-  O142  1  0.49372400  0.75352012  0.60550515  1
  O2-  O143  1  0.49312224  0.75134617  0.93857441  1
  O2-  O144  1  0.07393741  0.17757488  0.09739603  1
  O2-  O145  1  0.06615480  0.18095876  0.43318525  1
  O2-  O146  1  0.07117072  0.17787692  0.76233721  1
  O2-  O147  1  0.06803277  0.68425337  0.10251570  1
  O2-  O148  1  0.06949898  0.67467405  0.42448729  1
  O2-  O149  1  0.07233392  0.68065101  0.76670575  1
  O2-  O150  1  0.56813918  0.17688876  0.08987156  1
  O2-  O151  1  0.57389989  0.18020715  0.43344317  1
  O2-  O152  1  0.56786361  0.17668392  0.76030110  1
  O2-  O153  1  0.57221760  0.68091812  0.09726820  1
  O2-  O154  1  0.57138074  0.68039955  0.43197033  1
  O2-  O155  1  0.57001167  0.68242187  0.76571516  1
  O2-  O156  1  0.17687252  0.43175156  0.23580192  1
  O2-  O157  1  0.18306825  0.42586107  0.56952909  1
  O2-  O158  1  0.17879326  0.43018183  0.90332705  1
  O2-  O159  1  0.17630974  0.92879004  0.23408621  1
  O2-  O160  1  0.17792603  0.92932570  0.57732006  1
  O2-  O161  1  0.18139380  0.92746644  0.90742459  1
  O2-  O162  1  0.67890346  0.42911022  0.24106000  1
  O2-  O163  1  0.67644733  0.42750930  0.57613570  1
  O2-  O164  1  0.67502918  0.42634649  0.91101599  1
  O2-  O165  1  0.68354872  0.92556614  0.23558131  1
  O2-  O166  1  0.67617843  0.92842302  0.57937122  1
  O2-  O167  1  0.68178898  0.93284765  0.90130565  1
  O2-  O168  1  0.43082291  0.31919619  0.08724738  1
  O2-  O169  1  0.43190320  0.32126301  0.43087346  1
  O2-  O170  1  0.43312249  0.31686975  0.75823183  1
  O2-  O171  1  0.43118697  0.82810709  0.08861235  1
  O2-  O172  1  0.42655009  0.82062145  0.42203846  1
  O2-  O173  1  0.42983023  0.83494371  0.75189174  1
  O2-  O174  1  0.92555325  0.31891031  0.09826049  1
  O2-  O175  1  0.92403780  0.32714034  0.42198572  1
  O2-  O176  1  0.92613345  0.31846453  0.76240486  1
  O2-  O177  1  0.92598176  0.82039337  0.08782267  1
  O2-  O178  1  0.92880343  0.81603704  0.43390033  1
  O2-  O179  1  0.92984620  0.82127945  0.75801172  1
  O2-  O180  1  0.31721104  0.06928872  0.23438051  1
  O2-  O181  1  0.32741088  0.06987038  0.57848545  1
  O2-  O182  1  0.32590545  0.06882303  0.90844424  1
  O2-  O183  1  0.32679648  0.56940671  0.24396889  1
  O2-  O184  1  0.32541910  0.56632063  0.56675096  1
  O2-  O185  1  0.32318304  0.56888023  0.90315803  1
  O2-  O186  1  0.82016602  0.07273560  0.24281921  1
  O2-  O187  1  0.81879636  0.06889651  0.56781753  1
  O2-  O188  1  0.81918659  0.07247261  0.91286305  1
  O2-  O189  1  0.81953925  0.57037608  0.24209018  1
  O2-  O190  1  0.81535578  0.57365777  0.56710173  1
  O2-  O191  1  0.81923343  0.57255712  0.91106975  1
  O2-  O192  1  0.03844192  0.08514936  0.26534344  1
  O2-  O193  1  0.04091615  0.07853192  0.59953354  1
  O2-  O194  1  0.04567435  0.07991743  0.93069016  1
  O2-  O195  1  0.03941726  0.58599185  0.27138649  1
  O2-  O196  1  0.04020418  0.58257286  0.59957176  1
  O2-  O197  1  0.03760141  0.58684412  0.93601530  1
  O2-  O198  1  0.54596365  0.07486688  0.26980306  1
  O2-  O199  1  0.54309979  0.08402605  0.60873099  1
  O2-  O200  1  0.54014425  0.08611415  0.93709195  1
  O2-  O201  1  0.54374385  0.58403636  0.26369009  1
  O2-  O202  1  0.54137981  0.58206249  0.59898489  1
  O2-  O203  1  0.54435309  0.58052678  0.93106339  1
  O2-  O204  1  0.16533123  0.21132143  0.26797072  1
  O2-  O205  1  0.17316133  0.20282735  0.59994119  1
  O2-  O206  1  0.17361364  0.20425491  0.93139872  1
  O2-  O207  1  0.17084557  0.69358863  0.27699914  1
  O2-  O208  1  0.16952733  0.70884083  0.59967052  1
  O2-  O209  1  0.16880382  0.71277833  0.93565531  1
  O2-  O210  1  0.66920335  0.20607056  0.26333044  1
  O2-  O211  1  0.66317300  0.20128309  0.60832133  1
  O2-  O212  1  0.66236905  0.20455670  0.93855496  1
  O2-  O213  1  0.66630285  0.71356999  0.26474077  1
  O2-  O214  1  0.66586558  0.71253242  0.59894743  1
  O2-  O215  1  0.66647627  0.71326925  0.93073456  1
  O2-  O216  1  0.07877519  0.45818471  0.06925346  1
  O2-  O217  1  0.08180381  0.46022171  0.40371442  1
  O2-  O218  1  0.07744920  0.45177486  0.73189391  1
  O2-  O219  1  0.08345401  0.95203952  0.05718742  1
  O2-  O220  1  0.07498531  0.95419518  0.39912638  1
  O2-  O221  1  0.08752058  0.95494621  0.73163278  1
  O2-  O222  1  0.58701373  0.45574018  0.06452877  1
  O2-  O223  1  0.58670326  0.45728681  0.39316785  1
  O2-  O224  1  0.58412229  0.45324840  0.72853985  1
  O2-  O225  1  0.58468541  0.96087466  0.06854041  1
  O2-  O226  1  0.58221426  0.95040544  0.40376176  1
  O2-  O227  1  0.58320111  0.95379982  0.73147911  1
  O2-  O228  1  0.21168493  0.33140288  0.06658766  1
  O2-  O229  1  0.21226115  0.33548124  0.40239511  1
  O2-  O230  1  0.21363566  0.33178164  0.73636040  1
  O2-  O231  1  0.20904232  0.84089826  0.06367863  1
  O2-  O232  1  0.20348264  0.82829557  0.40148607  1
  O2-  O233  1  0.20959945  0.83836016  0.73017740  1
  O2-  O234  1  0.70512309  0.33533554  0.06406092  1
  O2-  O235  1  0.70304316  0.33555326  0.39389455  1
  O2-  O236  1  0.69948449  0.33279927  0.72870391  1
  O2-  O237  1  0.71206258  0.83275305  0.06783158  1
  O2-  O238  1  0.71816027  0.83307344  0.40268557  1
  O2-  O239  1  0.70408636  0.83535658  0.73127087  1
  O2-  O240  1  0.46223696  0.41474630  0.25955138  1
  O2-  O241  1  0.45904723  0.40880966  0.60348557  1
  O2-  O242  1  0.46211400  0.41069523  0.93463196  1
  O2-  O243  1  0.45086937  0.91597485  0.27203742  1
  O2-  O244  1  0.45759659  0.91771454  0.59770273  1
  O2-  O245  1  0.45983330  0.91582463  0.93450461  1
  O2-  O246  1  0.95224587  0.42018584  0.27164268  1
  O2-  O247  1  0.94965437  0.42127331  0.59803034  1
  O2-  O248  1  0.95301094  0.42162391  0.93406771  1
  O2-  O249  1  0.95463863  0.91606395  0.26241130  1
  O2-  O250  1  0.95478978  0.91429742  0.60619590  1
  O2-  O251  1  0.94751074  0.91782700  0.93812835  1
  O2-  O252  1  0.33066906  0.29223233  0.26254116  1
  O2-  O253  1  0.33960448  0.28915312  0.60613742  1
  O2-  O254  1  0.34014609  0.29182174  0.93327753  1
  O2-  O255  1  0.33126449  0.79837453  0.27029185  1
  O2-  O256  1  0.33306663  0.80572869  0.60094821  1
  O2-  O257  1  0.33417555  0.80453426  0.93747387  1
  O2-  O258  1  0.83253004  0.30251277  0.27002045  1
  O2-  O259  1  0.82783145  0.29087533  0.59786551  1
  O2-  O260  1  0.82840077  0.29484569  0.93108726  1
  O2-  O261  1  0.83861660  0.78190675  0.26317461  1
  O2-  O262  1  0.83418590  0.79612495  0.60750320  1
  O2-  O263  1  0.83491206  0.79322171  0.93508170  1
  O2-  O264  1  0.41096147  0.03916668  0.06326628  1
  O2-  O265  1  0.41680558  0.04176500  0.40312071  1
  O2-  O266  1  0.41266453  0.04045445  0.73346389  1
  O2-  O267  1  0.42167215  0.54018151  0.06721554  1
  O2-  O268  1  0.41865577  0.53893762  0.39418335  1
  O2-  O269  1  0.41883805  0.53597307  0.73380572  1
  O2-  O270  1  0.91763708  0.04987788  0.06191488  1
  O2-  O271  1  0.91249702  0.04296806  0.39442404  1
  O2-  O272  1  0.91615523  0.03805487  0.73782162  1
  O2-  O273  1  0.91066721  0.54399827  0.06582798  1
  O2-  O274  1  0.91099648  0.54609433  0.39654388  1
  O2-  O275  1  0.91577728  0.54206747  0.73515007  1
  O2-  O276  1  0.30021844  0.16520392  0.05915428  1
  O2-  O277  1  0.29379969  0.17024636  0.40030842  1
  O2-  O278  1  0.29680023  0.16212946  0.73181192  1
  O2-  O279  1  0.30205797  0.67443511  0.06637708  1
  O2-  O280  1  0.30893558  0.66646679  0.39437533  1
  O2-  O281  1  0.30691543  0.67597282  0.72802438  1
  O2-  O282  1  0.79468912  0.16696722  0.06351226  1
  O2-  O283  1  0.79845763  0.16901057  0.39346905  1
  O2-  O284  1  0.78880022  0.16604034  0.73743262  1
  O2-  O285  1  0.79026857  0.66242537  0.06345292  1
  O2-  O286  1  0.78782235  0.66070316  0.39514937  1
  O2-  O287  1  0.78671274  0.66667947  0.73676720  1
