# generated using pymatgen
data_Ca2Al2SiO7
_symmetry_space_group_name_H-M   'P 1'
_cell_length_a   15.45974335
_cell_length_b   15.46061084
_cell_length_c   15.28455834
_cell_angle_alpha   90.00451311
_cell_angle_beta   90.00338360
_cell_angle_gamma   90.00674931
_symmetry_Int_Tables_number   1
_chemical_formula_structural   Ca2Al2SiO7
_chemical_formula_sum   'Ca48 Al48 Si24 O168'
_cell_volume   3653.27039363
_cell_formula_units_Z   24
loop_
 _symmetry_equiv_pos_site_id
 _symmetry_equiv_pos_as_xyz
  1  'x, y, z'
loop_
 _atom_type_symbol
 _atom_type_oxidation_number
  Ca2+  2.0
  Al0+  0.0
  Si0+  0.0
  O2-  -2.0
loop_
 _atom_site_type_symbol
 _atom_site_label
 _atom_site_symmetry_multiplicity
 _atom_site_fract_x
 _atom_site_fract_y
 _atom_site_fract_z
 _atom_site_occupancy
  Ca2+  Ca0  1  0.15614253  0.07420340  0.17335291  1
  Ca2+  Ca1  1  0.15539663  0.08218893  0.50067208  1
  Ca2+  Ca2  1  0.16406747  0.07957321  0.83572535  1
  Ca2+  Ca3  1  0.17627495  0.57238008  0.17173104  1
  Ca2+  Ca4  1  0.16886669  0.56946458  0.50162751  1
  Ca2+  Ca5  1  0.17142056  0.56817924  0.84124612  1
  Ca2+  Ca6  1  0.67676760  0.09396762  0.17218050  1
  Ca2+  Ca7  1  0.67251008  0.08359696  0.50328578  1
  Ca2+  Ca8  1  0.66739001  0.07963919  0.84096233  1
  Ca2+  Ca9  1  0.67037832  0.58298759  0.17048484  1
  Ca2+  Ca10  1  0.67074752  0.58995007  0.50593505  1
  Ca2+  Ca11  1  0.67580395  0.58545258  0.83337329  1
  Ca2+  Ca12  1  0.07628748  0.34029761  0.16478452  1
  Ca2+  Ca13  1  0.07809114  0.32906502  0.49537709  1
  Ca2+  Ca14  1  0.07871464  0.33521452  0.82462132  1
  Ca2+  Ca15  1  0.08095928  0.84049596  0.16534354  1
  Ca2+  Ca16  1  0.07742209  0.83266514  0.48901635  1
  Ca2+  Ca17  1  0.08441865  0.83081174  0.83135926  1
  Ca2+  Ca18  1  0.58500653  0.32224711  0.16370474  1
  Ca2+  Ca19  1  0.57569249  0.33405552  0.49398722  1
  Ca2+  Ca20  1  0.57720390  0.32832202  0.83067857  1
  Ca2+  Ca21  1  0.58257823  0.82552704  0.16553587  1
  Ca2+  Ca22  1  0.58466090  0.82590521  0.49994733  1
  Ca2+  Ca23  1  0.57764286  0.82866492  0.82002264  1
  Ca2+  Ca24  1  0.32299635  0.42148759  0.17478582  1
  Ca2+  Ca25  1  0.32414424  0.41194491  0.50520203  1
  Ca2+  Ca26  1  0.32414468  0.41399887  0.83827730  1
  Ca2+  Ca27  1  0.31974584  0.91680693  0.17138852  1
  Ca2+  Ca28  1  0.33171720  0.91688833  0.50170439  1
  Ca2+  Ca29  1  0.32982947  0.91485250  0.83828479  1
  Ca2+  Ca30  1  0.84004795  0.41793588  0.16884689  1
  Ca2+  Ca31  1  0.83729722  0.41909357  0.50587521  1
  Ca2+  Ca32  1  0.84252300  0.42462058  0.83722259  1
  Ca2+  Ca33  1  0.83801096  0.93260393  0.17478476  1
  Ca2+  Ca34  1  0.83158755  0.92256088  0.50192524  1
  Ca2+  Ca35  1  0.82463248  0.92527576  0.83768759  1
  Ca2+  Ca36  1  0.43046824  0.15968317  0.16423685  1
  Ca2+  Ca37  1  0.42270667  0.17174495  0.49784091  1
  Ca2+  Ca38  1  0.42031480  0.17069119  0.82781858  1
  Ca2+  Ca39  1  0.41600354  0.65717272  0.16505033  1
  Ca2+  Ca40  1  0.42619538  0.66569928  0.49370554  1
  Ca2+  Ca41  1  0.41972764  0.66967252  0.82417903  1
  Ca2+  Ca42  1  0.91601054  0.17591880  0.16423805  1
  Ca2+  Ca43  1  0.92419506  0.17472014  0.49113364  1
  Ca2+  Ca44  1  0.92114881  0.17831793  0.82942655  1
  Ca2+  Ca45  1  0.91575840  0.67384666  0.16271495  1
  Ca2+  Ca46  1  0.91461133  0.67235418  0.49526535  1
  Ca2+  Ca47  1  0.91379557  0.66280925  0.82841990  1
  Al0+  Al48  1  -0.00317526  0.00075441  0.00349605  1
  Al0+  Al49  1  -0.00249228  0.00130027  0.33622097  1
  Al0+  Al50  1  -0.00062049  -0.00025583  0.66735378  1
  Al0+  Al51  1  0.00025837  0.50294489  0.00457790  1
  Al0+  Al52  1  0.00126437  0.50236922  0.33404960  1
  Al0+  Al53  1  0.00102362  0.50088100  0.67061240  1
  Al0+  Al54  1  0.49977084  -0.00357103  -0.00376757  1
  Al0+  Al55  1  0.49935128  -0.00304727  0.32891865  1
  Al0+  Al56  1  0.49874869  -0.00163827  0.66679481  1
  Al0+  Al57  1  0.50218617  0.49927721  -0.00006210  1
  Al0+  Al58  1  0.50194267  0.50095899  0.33062814  1
  Al0+  Al59  1  0.50165944  0.49964517  0.65972994  1
  Al0+  Al60  1  0.25046705  0.24713698  0.00588666  1
  Al0+  Al61  1  0.24992268  0.24781375  0.33257150  1
  Al0+  Al62  1  0.25062660  0.24682852  0.66420762  1
  Al0+  Al63  1  0.24914175  0.74985942  0.00657246  1
  Al0+  Al64  1  0.25050082  0.75005896  0.34209674  1
  Al0+  Al65  1  0.24971237  0.74995824  0.66231273  1
  Al0+  Al66  1  0.75067708  0.25025391  -0.00794627  1
  Al0+  Al67  1  0.75065245  0.25183795  0.33316325  1
  Al0+  Al68  1  0.75129615  0.25181413  0.66624017  1
  Al0+  Al69  1  0.74937061  0.75046695  0.00232006  1
  Al0+  Al70  1  0.74895853  0.75155997  0.32327697  1
  Al0+  Al71  1  0.74983491  0.75167468  0.67255389  1
  Al0+  Al72  1  0.67930698  0.93164042  0.67936246  1
  Al0+  Al73  1  0.81712747  0.07184079  0.01326879  1
  Al0+  Al74  1  0.42943325  0.31999065  0.65427502  1
  Al0+  Al75  1  0.57031185  0.17848623  0.32201982  1
  Al0+  Al76  1  0.42640909  0.82224644  0.65022929  1
  Al0+  Al77  1  0.18162676  0.42752393  0.68071048  1
  Al0+  Al78  1  0.17839527  0.42573587  0.01552667  1
  Al0+  Al79  1  0.32291100  0.57030839  0.01245599  1
  Al0+  Al80  1  0.07027021  0.17749377  0.65255655  1
  Al0+  Al81  1  0.81977163  0.56994412  0.67848516  1
  Al0+  Al82  1  0.32385432  0.56984359  0.35166497  1
  Al0+  Al83  1  0.92927362  0.32426588  0.65176335  1
  Al0+  Al84  1  0.57008815  0.67891071  0.31662586  1
  Al0+  Al85  1  0.82031210  0.57204293  0.01572599  1
  Al0+  Al86  1  0.17898189  0.93064302  0.01229596  1
  Al0+  Al87  1  0.93231513  0.32314655  0.98449387  1
  Al0+  Al88  1  0.81872559  0.07316254  0.34885361  1
  Al0+  Al89  1  0.92984247  0.32369477  0.31749643  1
  Al0+  Al90  1  0.92929741  0.82082899  0.31964719  1
  Al0+  Al91  1  0.57228569  0.68020239  0.65234209  1
  Al0+  Al92  1  0.17846942  0.93183985  0.34909745  1
  Al0+  Al93  1  0.57096217  0.17806981  0.98494898  1
  Al0+  Al94  1  0.17801460  0.42684346  0.35137710  1
  Al0+  Al95  1  0.07150835  0.17878129  0.31674389  1
  Si0+  Si96  1  0.57291461  0.67784730  0.98292259  1
  Si0+  Si97  1  0.32603787  0.07082510  0.35053635  1
  Si0+  Si98  1  0.07335868  0.67951544  0.31646055  1
  Si0+  Si99  1  0.92771245  0.82282925  0.98308728  1
  Si0+  Si100  1  0.81991842  0.57392688  0.34664799  1
  Si0+  Si101  1  0.42567844  0.82069090  0.31401273  1
  Si0+  Si102  1  0.32477528  0.07062134  0.01644691  1
  Si0+  Si103  1  0.42732467  0.32144466  0.98531694  1
  Si0+  Si104  1  0.17702685  0.92690101  0.68152077  1
  Si0+  Si105  1  0.07226289  0.17542023  0.98412814  1
  Si0+  Si106  1  0.68065449  0.42980434  0.34747443  1
  Si0+  Si107  1  0.82301960  0.07367863  0.68457890  1
  Si0+  Si108  1  0.57267186  0.17679452  0.65154952  1
  Si0+  Si109  1  0.92957596  0.82039621  0.65448137  1
  Si0+  Si110  1  0.42802729  0.32204787  0.31592241  1
  Si0+  Si111  1  0.67520271  0.42590365  0.68317339  1
  Si0+  Si112  1  0.67732619  0.92663226  0.34840612  1
  Si0+  Si113  1  0.07039739  0.68219971  0.98572834  1
  Si0+  Si114  1  0.32092406  0.06899196  0.68143528  1
  Si0+  Si115  1  0.67864976  0.42789199  0.01586139  1
  Si0+  Si116  1  0.67579768  0.92779158  0.01842769  1
  Si0+  Si117  1  0.07156436  0.67884679  0.65268567  1
  Si0+  Si118  1  0.32344020  0.57205433  0.68141241  1
  Si0+  Si119  1  0.42782548  0.81747107  0.98561017  1
  O2-  O120  1  0.25064160  0.00773433  0.05962561  1
  O2-  O121  1  0.25260016  0.00740176  0.39552345  1
  O2-  O122  1  0.24943286  -0.00300138  0.72267353  1
  O2-  O123  1  0.25552611  0.49431231  0.06224821  1
  O2-  O124  1  0.25373780  0.49589783  0.40102143  1
  O2-  O125  1  0.25796815  0.50152123  0.72709217  1
  O2-  O126  1  0.74143018  -0.00134068  0.06233335  1
  O2-  O127  1  0.74196770  -0.00137483  0.39310547  1
  O2-  O128  1  0.74910762  0.00997437  0.72822465  1
  O2-  O129  1  0.74696107  0.49616633  0.06185810  1
  O2-  O130  1  0.75164417  0.50112274  0.38934265  1
  O2-  O131  1  0.74684337  0.49294266  0.72541290  1
  O2-  O132  1  0.00382686  0.25433834  0.26638173  1
  O2-  O133  1  -0.00161209  0.24943040  0.60301474  1
  O2-  O134  1  0.01116316  0.25069612  0.93987080  1
  O2-  O135  1  0.00607295  0.74912469  0.27104332  1
  O2-  O136  1  0.00154718  0.75133462  0.61118969  1
  O2-  O137  1  -0.00240022  0.75084045  0.94060210  1
  O2-  O138  1  0.49357836  0.24978713  0.27257565  1
  O2-  O139  1  0.50900571  0.24988868  0.60763489  1
  O2-  O140  1  0.49320355  0.25032992  0.93988769  1
  O2-  O141  1  0.49186286  0.74977588  0.26923350  1
  O2-  O142  1  0.49728353  0.74873540  0.60165973  1
  O2-  O143  1  0.49909878  0.74699727  0.94284150  1
  O2-  O144  1  0.06763009  0.17072949  0.08889109  1
  O2-  O145  1  0.06707948  0.17809913  0.43017805  1
  O2-  O146  1  0.06938266  0.17446856  0.76667840  1
  O2-  O147  1  0.06937207  0.68541235  0.09054804  1
  O2-  O148  1  0.06913100  0.68023160  0.42253626  1
  O2-  O149  1  0.07275675  0.68092696  0.75822669  1
  O2-  O150  1  0.57047370  0.17955332  0.09811710  1
  O2-  O151  1  0.56888727  0.18090750  0.43522870  1
  O2-  O152  1  0.56879832  0.17564706  0.75731763  1
  O2-  O153  1  0.57443059  0.67937110  0.08796885  1
  O2-  O154  1  0.57465210  0.68258907  0.42916153  1
  O2-  O155  1  0.57193912  0.68263328  0.76648246  1
  O2-  O156  1  0.17799262  0.43093033  0.23783332  1
  O2-  O157  1  0.18119729  0.42912387  0.56828281  1
  O2-  O158  1  0.17917173  0.42757413  0.90137708  1
  O2-  O159  1  0.17999720  0.93190280  0.23566944  1
  O2-  O160  1  0.17408995  0.92714493  0.57701386  1
  O2-  O161  1  0.18138275  0.92902793  0.89860703  1
  O2-  O162  1  0.68014763  0.42995531  0.24219282  1
  O2-  O163  1  0.67374628  0.42525316  0.57759381  1
  O2-  O164  1  0.67581322  0.43079103  0.91033436  1
  O2-  O165  1  0.67874623  0.92595720  0.24273790  1
  O2-  O166  1  0.68301392  0.93124249  0.56633322  1
  O2-  O167  1  0.67655359  0.92705529  0.91258344  1
  O2-  O168  1  0.43019345  0.32180088  0.09057262  1
  O2-  O169  1  0.43144771  0.32247699  0.42177801  1
  O2-  O170  1  0.42913530  0.31653790  0.76777038  1
  O2-  O171  1  0.42888603  0.81857241  0.09044516  1
  O2-  O172  1  0.42825508  0.82296763  0.41925987  1
  O2-  O173  1  0.42520721  0.82043806  0.76472227  1
  O2-  O174  1  0.93034918  0.32227969  0.09709773  1
  O2-  O175  1  0.92779680  0.32370862  0.43075061  1
  O2-  O176  1  0.93245550  0.32455422  0.76565698  1
  O2-  O177  1  0.92874197  0.82312463  0.08799874  1
  O2-  O178  1  0.92784544  0.81737353  0.43347526  1
  O2-  O179  1  0.93188968  0.82081987  0.75993169  1
  O2-  O180  1  0.33099226  0.06558832  0.24504926  1
  O2-  O181  1  0.32376480  0.06847499  0.57676777  1
  O2-  O182  1  0.32718987  0.06838303  0.91059639  1
  O2-  O183  1  0.32238181  0.56693208  0.23770962  1
  O2-  O184  1  0.32041004  0.57212622  0.57636244  1
  O2-  O185  1  0.32063231  0.57226646  0.89852493  1
  O2-  O186  1  0.81726082  0.07334938  0.23556218  1
  O2-  O187  1  0.82362654  0.07081675  0.57916287  1
  O2-  O188  1  0.81610179  0.06745732  0.89997546  1
  O2-  O189  1  0.81758029  0.57445340  0.24149766  1
  O2-  O190  1  0.81862452  0.57357655  0.56523809  1
  O2-  O191  1  0.81833430  0.57402659  0.90260951  1
  O2-  O192  1  0.03735565  0.08126047  0.26583364  1
  O2-  O193  1  0.04123373  0.07829803  0.60026183  1
  O2-  O194  1  0.04010285  0.08397477  0.93566982  1
  O2-  O195  1  0.04589142  0.58741419  0.26948153  1
  O2-  O196  1  0.04092483  0.58887411  0.60508885  1
  O2-  O197  1  0.04345897  0.59031063  0.93852387  1
  O2-  O198  1  0.54262407  0.08114159  0.26663739  1
  O2-  O199  1  0.54204046  0.08545151  0.60478619  1
  O2-  O200  1  0.54134471  0.07983076  0.93213610  1
  O2-  O201  1  0.54404006  0.58129049  0.26140780  1
  O2-  O202  1  0.55100710  0.58085821  0.59883513  1
  O2-  O203  1  0.54952965  0.58460065  0.93641209  1
  O2-  O204  1  0.17433000  0.19503275  0.26711002  1
  O2-  O205  1  0.16950048  0.20091839  0.60050082  1
  O2-  O206  1  0.17078879  0.19119140  0.94356307  1
  O2-  O207  1  0.16832295  0.70467190  0.27404673  1
  O2-  O208  1  0.16216413  0.70534984  0.60299209  1
  O2-  O209  1  0.16141674  0.71347654  0.93815634  1
  O2-  O210  1  0.66449485  0.21450740  0.26733157  1
  O2-  O211  1  0.66862024  0.19656496  0.60894847  1
  O2-  O212  1  0.66453554  0.21072256  0.92707256  1
  O2-  O213  1  0.66361720  0.71345464  0.25840301  1
  O2-  O214  1  0.66983361  0.71503929  0.60073369  1
  O2-  O215  1  0.66394613  0.70963415  0.93591556  1
  O2-  O216  1  0.08373445  0.46285780  0.06902289  1
  O2-  O217  1  0.08084733  0.46230349  0.40389654  1
  O2-  O218  1  0.08703005  0.46346281  0.73547658  1
  O2-  O219  1  0.08149501  0.95810114  0.06561829  1
  O2-  O220  1  0.08173456  0.96074080  0.40354087  1
  O2-  O221  1  0.08587159  0.95497535  0.73119754  1
  O2-  O222  1  0.58570913  0.45288552  0.06394803  1
  O2-  O223  1  0.58893696  0.45797461  0.39455889  1
  O2-  O224  1  0.58239782  0.45403972  0.73043804  1
  O2-  O225  1  0.58029563  0.94863224  0.06237790  1
  O2-  O226  1  0.58162988  0.94720234  0.39194177  1
  O2-  O227  1  0.58099656  0.95746795  0.73391002  1
  O2-  O228  1  0.20036397  0.32572071  0.06817973  1
  O2-  O229  1  0.20398954  0.32599929  0.40059927  1
  O2-  O230  1  0.21215616  0.32987556  0.73308963  1
  O2-  O231  1  0.21137607  0.83649661  0.06928573  1
  O2-  O232  1  0.20752241  0.83533760  0.40408346  1
  O2-  O233  1  0.20415594  0.83435937  0.72882091  1
  O2-  O234  1  0.70471375  0.33370717  0.05912072  1
  O2-  O235  1  0.70710415  0.33934368  0.39732194  1
  O2-  O236  1  0.69696086  0.33122255  0.72979351  1
  O2-  O237  1  0.70347982  0.83490827  0.06414736  1
  O2-  O238  1  0.70900071  0.83425102  0.39344204  1
  O2-  O239  1  0.71365245  0.83820807  0.73787208  1
  O2-  O240  1  0.45888807  0.41338861  0.26895819  1
  O2-  O241  1  0.45609204  0.41615581  0.59795932  1
  O2-  O242  1  0.45595220  0.41384058  0.93748812  1
  O2-  O243  1  0.45319791  0.91259540  0.26498956  1
  O2-  O244  1  0.45599805  0.92019302  0.59746203  1
  O2-  O245  1  0.45446403  0.90893281  0.93608855  1
  O2-  O246  1  0.95576698  0.42422918  0.26628881  1
  O2-  O247  1  0.95888794  0.42288099  0.60040841  1
  O2-  O248  1  0.96035955  0.42270589  0.93391639  1
  O2-  O249  1  0.95997067  0.91737630  0.26678487  1
  O2-  O250  1  0.95589817  0.91207474  0.60667405  1
  O2-  O251  1  0.95675022  0.91392688  0.93495815  1
  O2-  O252  1  0.33350539  0.29997013  0.27152213  1
  O2-  O253  1  0.33669867  0.28289031  0.59800446  1
  O2-  O254  1  0.33246145  0.29657501  0.94063354  1
  O2-  O255  1  0.33026791  0.79669452  0.27118199  1
  O2-  O256  1  0.32697013  0.79843934  0.59725929  1
  O2-  O257  1  0.33534867  0.79023106  0.93878667  1
  O2-  O258  1  0.83120492  0.29420531  0.26535352  1
  O2-  O259  1  0.82786103  0.30190327  0.60181070  1
  O2-  O260  1  0.83645805  0.29123415  0.92921881  1
  O2-  O261  1  0.83557894  0.78963921  0.26085340  1
  O2-  O262  1  0.83867568  0.79087650  0.60796942  1
  O2-  O263  1  0.83482758  0.79469668  0.93732013  1
  O2-  O264  1  0.41594344  0.03720270  0.06358788  1
  O2-  O265  1  0.41740958  0.03902463  0.39895913  1
  O2-  O266  1  0.41165450  0.04111073  0.73167736  1
  O2-  O267  1  0.42377107  0.54773150  0.06330170  1
  O2-  O268  1  0.42499148  0.54448242  0.40049422  1
  O2-  O269  1  0.41947954  0.55022561  0.72399400  1
  O2-  O270  1  0.91211060  0.03837313  0.06787129  1
  O2-  O271  1  0.91249125  0.03771775  0.40416053  1
  O2-  O272  1  0.91380051  0.04044756  0.73242144  1
  O2-  O273  1  0.91730251  0.54632597  0.06992313  1
  O2-  O274  1  0.91309636  0.55141503  0.39304867  1
  O2-  O275  1  0.91643079  0.54274897  0.73518297  1
  O2-  O276  1  0.30855874  0.16551298  0.06256766  1
  O2-  O277  1  0.30757974  0.16700469  0.39312712  1
  O2-  O278  1  0.29249046  0.15922616  0.73144623  1
  O2-  O279  1  0.29084204  0.66608130  0.06865375  1
  O2-  O280  1  0.29669200  0.66835597  0.40429287  1
  O2-  O281  1  0.29535274  0.66621200  0.72636812  1
  O2-  O282  1  0.78634622  0.16935248  0.06454665  1
  O2-  O283  1  0.78669318  0.16898795  0.40348130  1
  O2-  O284  1  0.80302495  0.16956283  0.72825285  1
  O2-  O285  1  0.78834795  0.66873834  0.06959843  1
  O2-  O286  1  0.78810397  0.66562752  0.39209159  1
  O2-  O287  1  0.78842608  0.66521278  0.73614978  1
