# generated using pymatgen
data_Ca2Al2SiO7
_symmetry_space_group_name_H-M   'P 1'
_cell_length_a   15.45439791
_cell_length_b   15.45427314
_cell_length_c   15.28167628
_cell_angle_alpha   90.00047783
_cell_angle_beta   89.99436638
_cell_angle_gamma   89.99478298
_symmetry_Int_Tables_number   1
_chemical_formula_structural   Ca2Al2SiO7
_chemical_formula_sum   'Ca48 Al48 Si24 O168'
_cell_volume   3649.82183830
_cell_formula_units_Z   24
loop_
 _symmetry_equiv_pos_site_id
 _symmetry_equiv_pos_as_xyz
  1  'x, y, z'
loop_
 _atom_type_symbol
 _atom_type_oxidation_number
  Ca2+  2.0
  Al0+  0.0
  Si0+  0.0
  O2-  -2.0
loop_
 _atom_site_type_symbol
 _atom_site_label
 _atom_site_symmetry_multiplicity
 _atom_site_fract_x
 _atom_site_fract_y
 _atom_site_fract_z
 _atom_site_occupancy
  Ca2+  Ca0  1  0.16802323  0.07426905  0.17141522  1
  Ca2+  Ca1  1  0.16883952  0.08086108  0.50276021  1
  Ca2+  Ca2  1  0.18290535  0.07715375  0.84419765  1
  Ca2+  Ca3  1  0.16765383  0.58325688  0.17186654  1
  Ca2+  Ca4  1  0.15798280  0.57803382  0.50650140  1
  Ca2+  Ca5  1  0.16289921  0.57977833  0.83142267  1
  Ca2+  Ca6  1  0.67388520  0.08417026  0.17008701  1
  Ca2+  Ca7  1  0.66944415  0.08351140  0.50001208  1
  Ca2+  Ca8  1  0.66758510  0.08938416  0.83991504  1
  Ca2+  Ca9  1  0.67096145  0.58398703  0.17500926  1
  Ca2+  Ca10  1  0.68106651  0.57553268  0.50760081  1
  Ca2+  Ca11  1  0.66575488  0.58055406  0.83525005  1
  Ca2+  Ca12  1  0.07084089  0.32458507  0.16746826  1
  Ca2+  Ca13  1  0.08160634  0.32829764  0.49061824  1
  Ca2+  Ca14  1  0.07850481  0.33667277  0.83025665  1
  Ca2+  Ca15  1  0.08495447  0.83651226  0.16824371  1
  Ca2+  Ca16  1  0.07917209  0.82177978  0.48840339  1
  Ca2+  Ca17  1  0.08641580  0.82980774  0.82879816  1
  Ca2+  Ca18  1  0.57306932  0.32927378  0.15767886  1
  Ca2+  Ca19  1  0.58290698  0.33094666  0.49844254  1
  Ca2+  Ca20  1  0.58076501  0.32229541  0.83017992  1
  Ca2+  Ca21  1  0.58357082  0.83028990  0.16007828  1
  Ca2+  Ca22  1  0.57858896  0.83915168  0.49682821  1
  Ca2+  Ca23  1  0.57145793  0.83606175  0.83112697  1
  Ca2+  Ca24  1  0.33947237  0.41450124  0.17191400  1
  Ca2+  Ca25  1  0.32718133  0.41557623  0.50514944  1
  Ca2+  Ca26  1  0.32732922  0.41212951  0.83807239  1
  Ca2+  Ca27  1  0.32735901  0.91766536  0.16762368  1
  Ca2+  Ca28  1  0.32804407  0.92074592  0.50621709  1
  Ca2+  Ca29  1  0.33557067  0.92119116  0.84040040  1
  Ca2+  Ca30  1  0.83735538  0.41880726  0.17260394  1
  Ca2+  Ca31  1  0.83848594  0.42576090  0.50572503  1
  Ca2+  Ca32  1  0.82872147  0.41932518  0.83468839  1
  Ca2+  Ca33  1  0.82955751  0.92726848  0.17921014  1
  Ca2+  Ca34  1  0.83222435  0.91686222  0.49523009  1
  Ca2+  Ca35  1  0.83102574  0.92578457  0.84238515  1
  Ca2+  Ca36  1  0.42019413  0.17353420  0.15826902  1
  Ca2+  Ca37  1  0.41963448  0.16912103  0.49786762  1
  Ca2+  Ca38  1  0.42509685  0.15718761  0.82913955  1
  Ca2+  Ca39  1  0.42685732  0.67361907  0.15539858  1
  Ca2+  Ca40  1  0.41494555  0.67435106  0.49780509  1
  Ca2+  Ca41  1  0.41831692  0.67936381  0.83252129  1
  Ca2+  Ca42  1  0.91205964  0.16929338  0.16288498  1
  Ca2+  Ca43  1  0.92258885  0.17400324  0.48616939  1
  Ca2+  Ca44  1  0.91193439  0.17206823  0.83419767  1
  Ca2+  Ca45  1  0.91645258  0.67246711  0.17038015  1
  Ca2+  Ca46  1  0.92255069  0.66365172  0.49194833  1
  Ca2+  Ca47  1  0.92143470  0.66734588  0.82536688  1
  Al0+  Al48  1  -0.00002484  0.00013763  0.00596015  1
  Al0+  Al49  1  0.00111405  -0.00188927  0.33671693  1
  Al0+  Al50  1  -0.00070679  0.00010405  0.66754422  1
  Al0+  Al51  1  -0.00070477  0.49964631  -0.00272479  1
  Al0+  Al52  1  0.00199746  0.49903089  0.32838601  1
  Al0+  Al53  1  0.00011170  0.50106784  0.67222210  1
  Al0+  Al54  1  0.50008136  -0.00044932  -0.00083972  1
  Al0+  Al55  1  0.49941412  0.00100107  0.33549138  1
  Al0+  Al56  1  0.50070593  0.00104135  0.65939388  1
  Al0+  Al57  1  0.49993219  0.49879955  -0.00803537  1
  Al0+  Al58  1  0.49955848  0.50139007  0.33286893  1
  Al0+  Al59  1  0.49974403  0.50071043  0.67080352  1
  Al0+  Al60  1  0.24685366  0.24975193  0.00330436  1
  Al0+  Al61  1  0.25014098  0.25057143  0.32504181  1
  Al0+  Al62  1  0.25028170  0.24931190  0.67655107  1
  Al0+  Al63  1  0.25003078  0.74692219  -0.00001394  1
  Al0+  Al64  1  0.25122678  0.75041445  0.33358327  1
  Al0+  Al65  1  0.24870965  0.74876695  0.65716916  1
  Al0+  Al66  1  0.74957703  0.25336090  -0.00286829  1
  Al0+  Al67  1  0.74788502  0.25024682  0.33396059  1
  Al0+  Al68  1  0.74923603  0.25105644  0.66396793  1
  Al0+  Al69  1  0.75342152  0.74877881  -0.00503535  1
  Al0+  Al70  1  0.75050596  0.74881907  0.33982780  1
  Al0+  Al71  1  0.74928250  0.75180829  0.67195709  1
  Al0+  Al72  1  0.81869468  0.07299975  0.01291450  1
  Al0+  Al73  1  0.92743458  0.81956647  0.31882934  1
  Al0+  Al74  1  0.17983419  0.92795925  0.34986416  1
  Al0+  Al75  1  0.67767184  0.92852173  0.34871784  1
  Al0+  Al76  1  0.57538730  0.67809266  0.98431319  1
  Al0+  Al77  1  0.57152009  0.18047871  0.64960688  1
  Al0+  Al78  1  0.06749539  0.68003352  0.65296918  1
  Al0+  Al79  1  0.82120068  0.57198057  0.68423856  1
  Al0+  Al80  1  0.92994745  0.32124892  0.98382595  1
  Al0+  Al81  1  0.17986363  0.92595086  0.01524440  1
  Al0+  Al82  1  0.32094866  0.06882116  0.67935159  1
  Al0+  Al83  1  0.42852280  0.82016751  0.98676475  1
  Al0+  Al84  1  0.82209519  0.56795099  0.34554387  1
  Al0+  Al85  1  0.67785982  0.42742082  0.68327692  1
  Al0+  Al86  1  0.07283960  0.67814416  0.31604502  1
  Al0+  Al87  1  0.82157040  0.07358043  0.34982557  1
  Al0+  Al88  1  0.43059107  0.82033521  0.65025305  1
  Al0+  Al89  1  0.92705886  0.32057204  0.31989370  1
  Al0+  Al90  1  0.43033961  0.32178020  0.32182766  1
  Al0+  Al91  1  0.18029927  0.42934704  0.68008222  1
  Al0+  Al92  1  0.42484777  0.32076076  0.98263543  1
  Al0+  Al93  1  0.56992986  0.17967326  0.98618566  1
  Al0+  Al94  1  0.32420931  0.07176126  0.01738306  1
  Al0+  Al95  1  0.07182591  0.17598558  0.31858815  1
  Si0+  Si96  1  0.06988579  0.17563934  0.98209345  1
  Si0+  Si97  1  0.82193939  0.07156775  0.68132630  1
  Si0+  Si98  1  0.07039396  0.67856622  0.98433541  1
  Si0+  Si99  1  0.32342258  0.57153401  0.34771018  1
  Si0+  Si100  1  0.93035426  0.82277223  0.98526750  1
  Si0+  Si101  1  0.67938099  0.92574971  0.01400474  1
  Si0+  Si102  1  0.42919124  0.82257078  0.31823833  1
  Si0+  Si103  1  0.32067385  0.07402118  0.35045345  1
  Si0+  Si104  1  0.57112441  0.17681059  0.31604808  1
  Si0+  Si105  1  0.17775451  0.92648086  0.68125505  1
  Si0+  Si106  1  0.93100077  0.31949341  0.65267860  1
  Si0+  Si107  1  0.17587707  0.42928304  0.01766981  1
  Si0+  Si108  1  0.67829712  0.93090375  0.68277795  1
  Si0+  Si109  1  0.92522386  0.82556169  0.65062302  1
  Si0+  Si110  1  0.67450760  0.42892187  0.34841561  1
  Si0+  Si111  1  0.18160786  0.42982504  0.34523981  1
  Si0+  Si112  1  0.42547732  0.32265291  0.65163070  1
  Si0+  Si113  1  0.82259223  0.57146841  0.01616461  1
  Si0+  Si114  1  0.57354425  0.67677797  0.64850454  1
  Si0+  Si115  1  0.07293094  0.17857420  0.65519273  1
  Si0+  Si116  1  0.57010728  0.68009618  0.32189647  1
  Si0+  Si117  1  0.67893021  0.43156013  0.01532506  1
  Si0+  Si118  1  0.32086719  0.56797484  0.01426069  1
  Si0+  Si119  1  0.32211682  0.57484066  0.68332768  1
  O2-  O120  1  0.25165769  -0.00134039  0.06499793  1
  O2-  O121  1  0.25257099  0.00526134  0.39576258  1
  O2-  O122  1  0.24617753  -0.00594268  0.72632185  1
  O2-  O123  1  0.25318660  0.49446898  0.05869470  1
  O2-  O124  1  0.25093403  0.50177728  0.38903867  1
  O2-  O125  1  0.25688771  0.50253870  0.72726579  1
  O2-  O126  1  0.74464257  -0.00284060  0.05826686  1
  O2-  O127  1  0.74925861  0.00113434  0.39953950  1
  O2-  O128  1  0.75223921  -0.00059951  0.72410503  1
  O2-  O129  1  0.74731055  0.50509871  0.05809847  1
  O2-  O130  1  0.75057684  0.48971841  0.39174960  1
  O2-  O131  1  0.74671614  0.50244086  0.73428444  1
  O2-  O132  1  -0.00790536  0.24151604  0.27051362  1
  O2-  O133  1  0.00169663  0.24825174  0.61102298  1
  O2-  O134  1  0.00314395  0.24553195  0.93596337  1
  O2-  O135  1  0.00216499  0.75138514  0.26608450  1
  O2-  O136  1  -0.00748413  0.75481809  0.60821395  1
  O2-  O137  1  0.00255191  0.75285228  0.94300717  1
  O2-  O138  1  0.50452742  0.24811061  0.27385479  1
  O2-  O139  1  0.49687311  0.25766299  0.60617565  1
  O2-  O140  1  0.49236343  0.24451918  0.93346671  1
  O2-  O141  1  0.50279304  0.75354700  0.27792465  1
  O2-  O142  1  0.50458711  0.74441644  0.60277481  1
  O2-  O143  1  0.50417560  0.75185345  0.93610338  1
  O2-  O144  1  0.06757387  0.17665769  0.08738720  1
  O2-  O145  1  0.07595063  0.18314682  0.43319078  1
  O2-  O146  1  0.07032446  0.17851845  0.76008319  1
  O2-  O147  1  0.06952731  0.67549242  0.08889223  1
  O2-  O148  1  0.07123247  0.67573675  0.42959155  1
  O2-  O149  1  0.06804006  0.68196944  0.76680750  1
  O2-  O150  1  0.57261924  0.18453226  0.09971123  1
  O2-  O151  1  0.56947665  0.17681030  0.42185957  1
  O2-  O152  1  0.57197773  0.17845327  0.76223486  1
  O2-  O153  1  0.57469011  0.67835850  0.09890026  1
  O2-  O154  1  0.56572745  0.67746045  0.42669293  1
  O2-  O155  1  0.57229298  0.67954025  0.75385807  1
  O2-  O156  1  0.18337913  0.43146203  0.24015212  1
  O2-  O157  1  0.18012148  0.42852986  0.56654944  1
  O2-  O158  1  0.17346548  0.43349609  0.91240867  1
  O2-  O159  1  0.18591852  0.92537257  0.23714110  1
  O2-  O160  1  0.17794801  0.92882473  0.57591342  1
  O2-  O161  1  0.17971342  0.92592649  0.90093249  1
  O2-  O162  1  0.66925228  0.43462961  0.24288210  1
  O2-  O163  1  0.68127867  0.42762879  0.56923501  1
  O2-  O164  1  0.68143636  0.43117357  0.91056065  1
  O2-  O165  1  0.67626171  0.92816894  0.23497680  1
  O2-  O166  1  0.67851573  0.93084177  0.57791393  1
  O2-  O167  1  0.68302361  0.92476788  0.90800516  1
  O2-  O168  1  0.43135928  0.32457767  0.09639225  1
  O2-  O169  1  0.42944532  0.32275826  0.43512994  1
  O2-  O170  1  0.42401586  0.31953703  0.75658525  1
  O2-  O171  1  0.42866511  0.81570101  0.10069548  1
  O2-  O172  1  0.42866438  0.82066046  0.42349346  1
  O2-  O173  1  0.43105799  0.82004839  0.76311185  1
  O2-  O174  1  0.93111880  0.32360351  0.09647305  1
  O2-  O175  1  0.93349066  0.32398436  0.43398577  1
  O2-  O176  1  0.93106340  0.31806077  0.75796257  1
  O2-  O177  1  0.92648287  0.82050477  0.08962967  1
  O2-  O178  1  0.92783540  0.81505879  0.43264986  1
  O2-  O179  1  0.92772655  0.82889551  0.75673436  1
  O2-  O180  1  0.32203460  0.07269917  0.24532133  1
  O2-  O181  1  0.31767708  0.07045748  0.56602428  1
  O2-  O182  1  0.32317605  0.06890553  0.90334040  1
  O2-  O183  1  0.32658212  0.57037843  0.24253303  1
  O2-  O184  1  0.32149020  0.57428266  0.57730041  1
  O2-  O185  1  0.31667808  0.57033619  0.90934634  1
  O2-  O186  1  0.81693899  0.07395195  0.23610343  1
  O2-  O187  1  0.82371299  0.07136468  0.57685121  1
  O2-  O188  1  0.81878735  0.07039317  0.89892792  1
  O2-  O189  1  0.81802968  0.56911797  0.23195527  1
  O2-  O190  1  0.82369814  0.56823648  0.57058326  1
  O2-  O191  1  0.82496116  0.57000327  0.91141097  1
  O2-  O192  1  0.05253307  0.07479326  0.26991283  1
  O2-  O193  1  0.04669327  0.08594026  0.60797409  1
  O2-  O194  1  0.04339260  0.08218948  0.93604658  1
  O2-  O195  1  0.04501830  0.58052106  0.26185189  1
  O2-  O196  1  0.03665444  0.58209863  0.60096169  1
  O2-  O197  1  0.03791912  0.58902625  0.93499882  1
  O2-  O198  1  0.54331789  0.08401991  0.26972848  1
  O2-  O199  1  0.53934467  0.08583721  0.59333327  1
  O2-  O200  1  0.55017701  0.07855484  0.93464901  1
  O2-  O201  1  0.53930734  0.59043473  0.27146578  1
  O2-  O202  1  0.54933697  0.58179100  0.60419903  1
  O2-  O203  1  0.54391392  0.58196135  0.92991795  1
  O2-  O204  1  0.16563605  0.21192750  0.26126256  1
  O2-  O205  1  0.16473028  0.20781849  0.60911217  1
  O2-  O206  1  0.16424477  0.20154173  0.93819009  1
  O2-  O207  1  0.17299452  0.70541361  0.26519584  1
  O2-  O208  1  0.16377731  0.70564968  0.59602733  1
  O2-  O209  1  0.16297167  0.70224451  0.93671231  1
  O2-  O210  1  0.66551858  0.19979005  0.27156771  1
  O2-  O211  1  0.66798519  0.21175175  0.59451495  1
  O2-  O212  1  0.66554821  0.21503282  0.93110506  1
  O2-  O213  1  0.66272482  0.70474234  0.27567939  1
  O2-  O214  1  0.66814447  0.70385926  0.60516352  1
  O2-  O215  1  0.67427476  0.70272361  0.93010341  1
  O2-  O216  1  0.08678030  0.46555048  0.06501753  1
  O2-  O217  1  0.08993443  0.45664687  0.39305851  1
  O2-  O218  1  0.08627006  0.46356323  0.73732476  1
  O2-  O219  1  0.08164184  0.95439633  0.06866262  1
  O2-  O220  1  0.08239352  0.95249986  0.40443619  1
  O2-  O221  1  0.08333393  0.95067801  0.72740016  1
  O2-  O222  1  0.58526305  0.45749297  0.06056121  1
  O2-  O223  1  0.58491472  0.46256680  0.39885712  1
  O2-  O224  1  0.57775868  0.45163530  0.73540420  1
  O2-  O225  1  0.58419674  0.94539935  0.05801422  1
  O2-  O226  1  0.57899908  0.95783776  0.40275916  1
  O2-  O227  1  0.58734587  0.96243631  0.72862150  1
  O2-  O228  1  0.19468941  0.33522791  0.06348085  1
  O2-  O229  1  0.21090121  0.33816861  0.39241471  1
  O2-  O230  1  0.20758699  0.33431024  0.73908017  1
  O2-  O231  1  0.20711091  0.82641166  0.06739431  1
  O2-  O232  1  0.21436319  0.83160199  0.40392084  1
  O2-  O233  1  0.20300033  0.83134870  0.72384730  1
  O2-  O234  1  0.70985814  0.34152772  0.06363980  1
  O2-  O235  1  0.69075590  0.33239015  0.39082764  1
  O2-  O236  1  0.71126398  0.33004572  0.73578630  1
  O2-  O237  1  0.70856045  0.83238383  0.05940152  1
  O2-  O238  1  0.70517710  0.83091676  0.40465623  1
  O2-  O239  1  0.70151244  0.83859613  0.73167889  1
  O2-  O240  1  0.46028061  0.41899944  0.26687909  1
  O2-  O241  1  0.44581081  0.41932219  0.60868717  1
  O2-  O242  1  0.45473547  0.41779325  0.92809412  1
  O2-  O243  1  0.45440762  0.91538806  0.27237156  1
  O2-  O244  1  0.46360112  0.91477165  0.59389881  1
  O2-  O245  1  0.45415641  0.91860883  0.93347652  1
  O2-  O246  1  0.96293714  0.41470707  0.26327011  1
  O2-  O247  1  0.96078791  0.41184886  0.60866392  1
  O2-  O248  1  0.96424624  0.41674764  0.92864517  1
  O2-  O249  1  0.95221767  0.91964508  0.26921398  1
  O2-  O250  1  0.95139738  0.91877445  0.60347366  1
  O2-  O251  1  0.95726215  0.91486227  0.93755020  1
  O2-  O252  1  0.33533772  0.29365549  0.26436171  1
  O2-  O253  1  0.33199536  0.29335093  0.60628906  1
  O2-  O254  1  0.32166154  0.30130784  0.93639904  1
  O2-  O255  1  0.33955279  0.79076895  0.27053241  1
  O2-  O256  1  0.33464918  0.78918772  0.59452187  1
  O2-  O257  1  0.33222654  0.78524623  0.93226317  1
  O2-  O258  1  0.82531537  0.30133019  0.26945423  1
  O2-  O259  1  0.83973923  0.29304304  0.60467519  1
  O2-  O260  1  0.83381196  0.29166479  0.92916456  1
  O2-  O261  1  0.82913698  0.78763012  0.26660971  1
  O2-  O262  1  0.82979508  0.80260783  0.60789267  1
  O2-  O263  1  0.84057090  0.79388646  0.93384861  1
  O2-  O264  1  0.42324356  0.04485457  0.06999851  1
  O2-  O265  1  0.41428268  0.04815753  0.39668770  1
  O2-  O266  1  0.41842743  0.03606607  0.72974930  1
  O2-  O267  1  0.41472070  0.54296859  0.05976798  1
  O2-  O268  1  0.41341681  0.54230304  0.39854382  1
  O2-  O269  1  0.41700612  0.55585451  0.72892631  1
  O2-  O270  1  0.91477439  0.04276043  0.06677674  1
  O2-  O271  1  0.92054584  0.04701738  0.40213296  1
  O2-  O272  1  0.91392706  0.04525895  0.73081623  1
  O2-  O273  1  0.91303549  0.53886256  0.06332661  1
  O2-  O274  1  0.92013837  0.53796336  0.39767829  1
  O2-  O275  1  0.91749793  0.54010324  0.73940846  1
  O2-  O276  1  0.29446247  0.17098755  0.06876657  1
  O2-  O277  1  0.29396137  0.16852714  0.39461959  1
  O2-  O278  1  0.29165409  0.16355326  0.73710714  1
  O2-  O279  1  0.29055464  0.65793035  0.06410252  1
  O2-  O280  1  0.29768486  0.66344003  0.39536708  1
  O2-  O281  1  0.28994417  0.66693942  0.72866266  1
  O2-  O282  1  0.78806479  0.17034323  0.06523932  1
  O2-  O283  1  0.79292740  0.17265614  0.40351223  1
  O2-  O284  1  0.79261286  0.16334184  0.72731920  1
  O2-  O285  1  0.79893567  0.66547238  0.06142130  1
  O2-  O286  1  0.78910703  0.66167843  0.40269251  1
  O2-  O287  1  0.79677219  0.67234811  0.73638561  1
