# generated using pymatgen
data_Ca2Al2SiO7
_symmetry_space_group_name_H-M   'P 1'
_cell_length_a   15.45717214
_cell_length_b   15.45721260
_cell_length_c   15.28354858
_cell_angle_alpha   89.99744264
_cell_angle_beta   89.99521950
_cell_angle_gamma   90.01213195
_symmetry_Int_Tables_number   1
_chemical_formula_structural   Ca2Al2SiO7
_chemical_formula_sum   'Ca48 Al48 Si24 O168'
_cell_volume   3651.61862674
_cell_formula_units_Z   24
loop_
 _symmetry_equiv_pos_site_id
 _symmetry_equiv_pos_as_xyz
  1  'x, y, z'
loop_
 _atom_type_symbol
 _atom_type_oxidation_number
  Ca2+  2.0
  Al0+  0.0
  Si0+  0.0
  O2-  -2.0
loop_
 _atom_site_type_symbol
 _atom_site_label
 _atom_site_symmetry_multiplicity
 _atom_site_fract_x
 _atom_site_fract_y
 _atom_site_fract_z
 _atom_site_occupancy
  Ca2+  Ca0  1  0.17360073  0.09709657  0.16965985  1
  Ca2+  Ca1  1  0.17245988  0.08945774  0.49815464  1
  Ca2+  Ca2  1  0.17451216  0.08653212  0.84169656  1
  Ca2+  Ca3  1  0.16461774  0.57519537  0.16570270  1
  Ca2+  Ca4  1  0.17371905  0.57562019  0.51307458  1
  Ca2+  Ca5  1  0.16859722  0.57254102  0.83535518  1
  Ca2+  Ca6  1  0.67958186  0.08389417  0.17228500  1
  Ca2+  Ca7  1  0.67685013  0.07854365  0.50914527  1
  Ca2+  Ca8  1  0.67097321  0.08482759  0.83656017  1
  Ca2+  Ca9  1  0.67266278  0.57693741  0.17095317  1
  Ca2+  Ca10  1  0.66594782  0.57237782  0.50941285  1
  Ca2+  Ca11  1  0.67083158  0.58243175  0.83247562  1
  Ca2+  Ca12  1  0.07734331  0.32397653  0.15718858  1
  Ca2+  Ca13  1  0.08172643  0.32997960  0.49448195  1
  Ca2+  Ca14  1  0.08170573  0.33614889  0.83506681  1
  Ca2+  Ca15  1  0.06859332  0.83491230  0.16192835  1
  Ca2+  Ca16  1  0.07439296  0.82951946  0.49193771  1
  Ca2+  Ca17  1  0.07367299  0.83571395  0.83138950  1
  Ca2+  Ca18  1  0.57982251  0.32918358  0.16340758  1
  Ca2+  Ca19  1  0.58448745  0.33267033  0.49574388  1
  Ca2+  Ca20  1  0.59215200  0.32074769  0.82798548  1
  Ca2+  Ca21  1  0.58771542  0.83697094  0.16548849  1
  Ca2+  Ca22  1  0.59023402  0.83212026  0.50304878  1
  Ca2+  Ca23  1  0.57898051  0.82978207  0.81974430  1
  Ca2+  Ca24  1  0.32705094  0.40686435  0.17018306  1
  Ca2+  Ca25  1  0.33011796  0.41834948  0.50769752  1
  Ca2+  Ca26  1  0.32386822  0.41649221  0.83407231  1
  Ca2+  Ca27  1  0.33134896  0.93270518  0.17071588  1
  Ca2+  Ca28  1  0.33622937  0.92111030  0.50383394  1
  Ca2+  Ca29  1  0.33435439  0.91856204  0.83792884  1
  Ca2+  Ca30  1  0.83182137  0.41678452  0.16679989  1
  Ca2+  Ca31  1  0.82100563  0.41957479  0.50908373  1
  Ca2+  Ca32  1  0.83214196  0.42490298  0.83733172  1
  Ca2+  Ca33  1  0.83516482  0.92451841  0.17353939  1
  Ca2+  Ca34  1  0.82702089  0.92386239  0.50229018  1
  Ca2+  Ca35  1  0.82864667  0.92581030  0.83787517  1
  Ca2+  Ca36  1  0.41991898  0.16611553  0.16182516  1
  Ca2+  Ca37  1  0.42473973  0.17150102  0.49392048  1
  Ca2+  Ca38  1  0.43003227  0.16081664  0.82992073  1
  Ca2+  Ca39  1  0.42093366  0.67031222  0.16262805  1
  Ca2+  Ca40  1  0.41901294  0.66780203  0.50232744  1
  Ca2+  Ca41  1  0.42107057  0.67240305  0.81930199  1
  Ca2+  Ca42  1  0.92369469  0.16492500  0.15630825  1
  Ca2+  Ca43  1  0.92073449  0.16008013  0.49426872  1
  Ca2+  Ca44  1  0.91458415  0.16820184  0.83271956  1
  Ca2+  Ca45  1  0.90740108  0.67874473  0.16012390  1
  Ca2+  Ca46  1  0.90754645  0.67231955  0.49737697  1
  Ca2+  Ca47  1  0.90709480  0.66842020  0.83053071  1
  Al0+  Al48  1  0.00003744  -0.00157768  -0.00691089  1
  Al0+  Al49  1  0.00275701  -0.00152967  0.32819354  1
  Al0+  Al50  1  0.00148763  0.00075035  0.66799854  1
  Al0+  Al51  1  0.00031934  0.50090411  0.00727895  1
  Al0+  Al52  1  0.00138706  0.49988774  0.33333048  1
  Al0+  Al53  1  -0.00034352  0.49925851  0.67121957  1
  Al0+  Al54  1  0.49853762  -0.00066720  0.00080891  1
  Al0+  Al55  1  0.49976254  -0.00077100  0.33990910  1
  Al0+  Al56  1  0.50077386  0.00114528  0.65985683  1
  Al0+  Al57  1  0.49910389  0.50051296  -0.00094062  1
  Al0+  Al58  1  0.49927473  0.50029481  0.33034163  1
  Al0+  Al59  1  0.49873597  0.49963632  0.67240194  1
  Al0+  Al60  1  0.25021445  0.25110621  0.00331894  1
  Al0+  Al61  1  0.25060380  0.25082436  0.33231832  1
  Al0+  Al62  1  0.24956397  0.24826703  0.67001971  1
  Al0+  Al63  1  0.24885657  0.74958716  0.00208177  1
  Al0+  Al64  1  0.25131395  0.74980420  0.33008189  1
  Al0+  Al65  1  0.24849213  0.75091639  0.66568266  1
  Al0+  Al66  1  0.74985308  0.24971204  -0.00265063  1
  Al0+  Al67  1  0.75070603  0.25081930  0.34043257  1
  Al0+  Al68  1  0.75303917  0.25039774  0.66709936  1
  Al0+  Al69  1  0.74865466  0.74892365  -0.00123547  1
  Al0+  Al70  1  0.74972182  0.75011809  0.33105313  1
  Al0+  Al71  1  0.74782630  0.75181758  0.66714343  1
  Al0+  Al72  1  0.67798038  0.42977192  0.34550202  1
  Al0+  Al73  1  0.82417288  0.07079849  0.68364280  1
  Al0+  Al74  1  0.43081461  0.32117062  0.32048582  1
  Al0+  Al75  1  0.42668430  0.82204634  0.64977311  1
  Al0+  Al76  1  0.18029389  0.42997711  0.01692317  1
  Al0+  Al77  1  0.92935412  0.81799307  0.31981946  1
  Al0+  Al78  1  0.92849436  0.32284542  0.98442583  1
  Al0+  Al79  1  0.32078497  0.57283729  0.68144994  1
  Al0+  Al80  1  0.82479764  0.07117911  0.34717841  1
  Al0+  Al81  1  0.17848860  0.42629010  0.68169823  1
  Al0+  Al82  1  0.06964700  0.18068828  0.32031904  1
  Al0+  Al83  1  0.81931126  0.57144075  0.01535616  1
  Al0+  Al84  1  0.56978233  0.17884620  0.98844117  1
  Al0+  Al85  1  0.92759361  0.81995839  0.98335063  1
  Al0+  Al86  1  0.67898214  0.92751185  0.34880218  1
  Al0+  Al87  1  0.81997849  0.57178497  0.68039084  1
  Al0+  Al88  1  0.07234657  0.17928479  0.98254142  1
  Al0+  Al89  1  0.67787089  0.93135249  0.68286161  1
  Al0+  Al90  1  0.82105384  0.07106896  0.01354108  1
  Al0+  Al91  1  0.57383737  0.18054189  0.65087832  1
  Al0+  Al92  1  0.57144851  0.67762914  0.65054502  1
  Al0+  Al93  1  0.31983489  0.07267481  0.34881111  1
  Al0+  Al94  1  0.67670965  0.42703815  0.68314427  1
  Al0+  Al95  1  0.32084779  0.06957228  0.01276488  1
  Si0+  Si96  1  0.07286530  0.67825968  0.98274277  1
  Si0+  Si97  1  0.92959396  0.82208994  0.65113153  1
  Si0+  Si98  1  0.93137434  0.32255573  0.65089343  1
  Si0+  Si99  1  0.07514109  0.67589361  0.31590805  1
  Si0+  Si100  1  0.57332442  0.17684211  0.31796821  1
  Si0+  Si101  1  0.42616538  0.31957160  0.65250184  1
  Si0+  Si102  1  0.32309734  0.57336343  0.01870370  1
  Si0+  Si103  1  0.42707510  0.82271544  0.31572315  1
  Si0+  Si104  1  0.17833516  0.92834603  0.68046256  1
  Si0+  Si105  1  0.18018445  0.43017377  0.34833015  1
  Si0+  Si106  1  0.92616303  0.32402522  0.31807229  1
  Si0+  Si107  1  0.17983064  0.92607536  0.34925189  1
  Si0+  Si108  1  0.32047711  0.06975398  0.68048889  1
  Si0+  Si109  1  0.06956421  0.67790597  0.65278227  1
  Si0+  Si110  1  0.82210657  0.57143677  0.34841055  1
  Si0+  Si111  1  0.56920900  0.67942240  0.31701541  1
  Si0+  Si112  1  0.56989258  0.67814491  0.98516103  1
  Si0+  Si113  1  0.17727286  0.92604336  0.01686444  1
  Si0+  Si114  1  0.07251655  0.17835193  0.65083664  1
  Si0+  Si115  1  0.42752200  0.32338886  0.98216287  1
  Si0+  Si116  1  0.67640594  0.42713558  0.01711881  1
  Si0+  Si117  1  0.42850271  0.81995629  0.98736301  1
  Si0+  Si118  1  0.67766501  0.92799455  0.01558021  1
  Si0+  Si119  1  0.32121532  0.57298957  0.34729307  1
  O2-  O120  1  0.24228359  -0.00135223  0.06019183  1
  O2-  O121  1  0.24722072  -0.00485671  0.39505526  1
  O2-  O122  1  0.25244974  -0.00413050  0.72228857  1
  O2-  O123  1  0.25730847  0.50304204  0.06439433  1
  O2-  O124  1  0.24795264  0.50448451  0.38944339  1
  O2-  O125  1  0.25041589  0.49911993  0.73043760  1
  O2-  O126  1  0.74671198  -0.00424760  0.06000476  1
  O2-  O127  1  0.74890703  0.00270469  0.39657817  1
  O2-  O128  1  0.74876820  0.00286942  0.73417875  1
  O2-  O129  1  0.74623316  0.49486370  0.06163301  1
  O2-  O130  1  0.75667773  0.50039512  0.39212921  1
  O2-  O131  1  0.74716158  0.50153505  0.73136373  1
  O2-  O132  1  -0.00953548  0.25106111  0.27475868  1
  O2-  O133  1  0.00132135  0.24942463  0.60936333  1
  O2-  O134  1  -0.00107707  0.24967850  0.93237348  1
  O2-  O135  1  0.00365231  0.74193533  0.27281001  1
  O2-  O136  1  -0.00288611  0.74683187  0.60912144  1
  O2-  O137  1  0.00306378  0.74490596  0.93724713  1
  O2-  O138  1  0.50532655  0.24637067  0.27339732  1
  O2-  O139  1  0.50014753  0.25800295  0.60647872  1
  O2-  O140  1  0.49702145  0.25526400  0.93949852  1
  O2-  O141  1  0.50117099  0.75403971  0.27432712  1
  O2-  O142  1  0.49849460  0.74923428  0.59994794  1
  O2-  O143  1  0.49664696  0.74738800  0.94485213  1
  O2-  O144  1  0.07229334  0.18170244  0.09639812  1
  O2-  O145  1  0.07168979  0.18442178  0.43413007  1
  O2-  O146  1  0.07519562  0.17676143  0.75512422  1
  O2-  O147  1  0.07539486  0.68200955  0.08857712  1
  O2-  O148  1  0.07822337  0.67633484  0.42160733  1
  O2-  O149  1  0.07075399  0.68032456  0.75751610  1
  O2-  O150  1  0.56823960  0.17914595  0.10181122  1
  O2-  O151  1  0.57154206  0.17902401  0.42340330  1
  O2-  O152  1  0.56982894  0.17865282  0.76427258  1
  O2-  O153  1  0.56887647  0.67803350  0.09092161  1
  O2-  O154  1  0.56697601  0.67663783  0.42128063  1
  O2-  O155  1  0.57007145  0.68107766  0.76460119  1
  O2-  O156  1  0.18078639  0.43095457  0.24353826  1
  O2-  O157  1  0.17960285  0.42701019  0.56722166  1
  O2-  O158  1  0.18243034  0.43210381  0.90419913  1
  O2-  O159  1  0.18256186  0.92310516  0.24393350  1
  O2-  O160  1  0.17506376  0.92965431  0.57542092  1
  O2-  O161  1  0.18168877  0.92156869  0.91101257  1
  O2-  O162  1  0.67676769  0.43296157  0.23224808  1
  O2-  O163  1  0.67904812  0.42796455  0.56899725  1
  O2-  O164  1  0.67417836  0.42945333  0.91213181  1
  O2-  O165  1  0.68033722  0.92730340  0.23464464  1
  O2-  O166  1  0.68241562  0.93137703  0.56945883  1
  O2-  O167  1  0.67592644  0.92765508  0.91041505  1
  O2-  O168  1  0.42927426  0.32411927  0.08817915  1
  O2-  O169  1  0.42973341  0.32200530  0.43356335  1
  O2-  O170  1  0.42101142  0.31288888  0.75770371  1
  O2-  O171  1  0.42984110  0.81948782  0.09280014  1
  O2-  O172  1  0.42047077  0.81930538  0.41976198  1
  O2-  O173  1  0.42556632  0.82130575  0.76416082  1
  O2-  O174  1  0.92961232  0.32165595  0.09866871  1
  O2-  O175  1  0.93086357  0.32946482  0.42366430  1
  O2-  O176  1  0.93283973  0.32487610  0.75540398  1
  O2-  O177  1  0.92818946  0.81860609  0.09670170  1
  O2-  O178  1  0.93156436  0.81538286  0.43334549  1
  O2-  O179  1  0.93318526  0.82304191  0.75599289  1
  O2-  O180  1  0.31914283  0.07126545  0.23564893  1
  O2-  O181  1  0.31626131  0.07241359  0.57546024  1
  O2-  O182  1  0.32301143  0.06399537  0.89943563  1
  O2-  O183  1  0.32079355  0.57429970  0.24213467  1
  O2-  O184  1  0.31713536  0.57248641  0.56698091  1
  O2-  O185  1  0.32206317  0.57605350  0.91383041  1
  O2-  O186  1  0.82476863  0.07032806  0.23334690  1
  O2-  O187  1  0.82875082  0.06641116  0.57002575  1
  O2-  O188  1  0.81875788  0.06974916  0.90096567  1
  O2-  O189  1  0.82003222  0.57230142  0.24276207  1
  O2-  O190  1  0.82212746  0.56823762  0.56623305  1
  O2-  O191  1  0.81520334  0.57300183  0.90289418  1
  O2-  O192  1  0.04940482  0.08175844  0.26662801  1
  O2-  O193  1  0.04521527  0.08624557  0.60260929  1
  O2-  O194  1  0.05037002  0.07896159  0.93098589  1
  O2-  O195  1  0.05156846  0.58127005  0.27050307  1
  O2-  O196  1  0.04479688  0.58499706  0.60531744  1
  O2-  O197  1  0.04894331  0.58350817  0.94061048  1
  O2-  O198  1  0.54604605  0.08264792  0.27406473  1
  O2-  O199  1  0.53967633  0.08639813  0.59496977  1
  O2-  O200  1  0.53564976  0.08286306  0.93398765  1
  O2-  O201  1  0.53669972  0.59071290  0.26579723  1
  O2-  O202  1  0.54239691  0.57742694  0.60017146  1
  O2-  O203  1  0.54381842  0.58604601  0.93765549  1
  O2-  O204  1  0.16436865  0.21722263  0.26645629  1
  O2-  O205  1  0.16425428  0.20725947  0.60266524  1
  O2-  O206  1  0.17179753  0.20976294  0.93210713  1
  O2-  O207  1  0.16775001  0.70258578  0.26751896  1
  O2-  O208  1  0.15973924  0.70811173  0.60303274  1
  O2-  O209  1  0.16660716  0.70504554  0.93626893  1
  O2-  O210  1  0.66807812  0.20303428  0.27412742  1
  O2-  O211  1  0.67179620  0.20879941  0.59803767  1
  O2-  O212  1  0.66534801  0.20835201  0.93277470  1
  O2-  O213  1  0.66150271  0.70508088  0.26897171  1
  O2-  O214  1  0.66960898  0.70739378  0.59635556  1
  O2-  O215  1  0.66016877  0.70718457  0.93727066  1
  O2-  O216  1  0.08585773  0.46273653  0.07400949  1
  O2-  O217  1  0.08720446  0.45506901  0.39585151  1
  O2-  O218  1  0.08215930  0.45710837  0.73557235  1
  O2-  O219  1  0.08186352  0.94790116  0.05903844  1
  O2-  O220  1  0.08611070  0.95057367  0.39460866  1
  O2-  O221  1  0.08928851  0.95958656  0.73080305  1
  O2-  O222  1  0.58259424  0.45541785  0.06312743  1
  O2-  O223  1  0.58237593  0.46524602  0.39870091  1
  O2-  O224  1  0.57763426  0.44929151  0.73629049  1
  O2-  O225  1  0.58385790  0.95274725  0.06213595  1
  O2-  O226  1  0.57851265  0.94727867  0.40033411  1
  O2-  O227  1  0.57717356  0.95787344  0.73205572  1
  O2-  O228  1  0.21139641  0.33407970  0.07205115  1
  O2-  O229  1  0.21145277  0.34041057  0.39652969  1
  O2-  O230  1  0.20772748  0.32885882  0.73592700  1
  O2-  O231  1  0.20579081  0.83421617  0.06598426  1
  O2-  O232  1  0.20605491  0.83208231  0.39565916  1
  O2-  O233  1  0.20215665  0.83643049  0.72911666  1
  O2-  O234  1  0.70120006  0.33363981  0.06290036  1
  O2-  O235  1  0.70368141  0.33349703  0.40174020  1
  O2-  O236  1  0.71043941  0.33056690  0.73503978  1
  O2-  O237  1  0.70204707  0.83378202  0.06103694  1
  O2-  O238  1  0.70998829  0.82898338  0.40050119  1
  O2-  O239  1  0.70475423  0.83234383  0.73437748  1
  O2-  O240  1  0.45867083  0.41768081  0.26350585  1
  O2-  O241  1  0.44364551  0.41678768  0.61153485  1
  O2-  O242  1  0.44998118  0.41844901  0.93713875  1
  O2-  O243  1  0.45363066  0.91585968  0.27009904  1
  O2-  O244  1  0.45412103  0.91975752  0.59563352  1
  O2-  O245  1  0.45646309  0.91061210  0.93870620  1
  O2-  O246  1  0.95579330  0.41657901  0.27029924  1
  O2-  O247  1  0.96132924  0.41348289  0.60174349  1
  O2-  O248  1  0.95983680  0.42253204  0.93538542  1
  O2-  O249  1  0.96328054  0.91262494  0.26393203  1
  O2-  O250  1  0.96445192  0.91162847  0.60322685  1
  O2-  O251  1  0.96037040  0.91406619  0.92640378  1
  O2-  O252  1  0.33505822  0.28868660  0.26583499  1
  O2-  O253  1  0.33461273  0.28802070  0.60352829  1
  O2-  O254  1  0.33398589  0.29736135  0.93811892  1
  O2-  O255  1  0.33737121  0.79146164  0.26474304  1
  O2-  O256  1  0.32694703  0.79480912  0.59671507  1
  O2-  O257  1  0.33521592  0.79456598  0.94134966  1
  O2-  O258  1  0.83016904  0.30413332  0.27510559  1
  O2-  O259  1  0.83985328  0.29594887  0.60264650  1
  O2-  O260  1  0.82935178  0.29801289  0.93217085  1
  O2-  O261  1  0.83340001  0.78744181  0.26367875  1
  O2-  O262  1  0.83714616  0.79681315  0.60477427  1
  O2-  O263  1  0.83089988  0.78775859  0.93059930  1
  O2-  O264  1  0.41474895  0.03380672  0.06996415  1
  O2-  O265  1  0.41599664  0.04315312  0.40306357  1
  O2-  O266  1  0.41324621  0.04380820  0.72529091  1
  O2-  O267  1  0.41806574  0.55021693  0.06407518  1
  O2-  O268  1  0.41198029  0.54288716  0.39397590  1
  O2-  O269  1  0.41826017  0.54820632  0.73619866  1
  O2-  O270  1  0.91972761  0.03936969  0.06294174  1
  O2-  O271  1  0.92332819  0.03907618  0.39836983  1
  O2-  O272  1  0.92202733  0.03935072  0.73649041  1
  O2-  O273  1  0.91668582  0.54696047  0.07049383  1
  O2-  O274  1  0.91831056  0.55151427  0.39225787  1
  O2-  O275  1  0.91790937  0.54390811  0.73424001  1
  O2-  O276  1  0.29492315  0.16724551  0.06645145  1
  O2-  O277  1  0.28541717  0.16790913  0.40336102  1
  O2-  O278  1  0.28937132  0.15884866  0.73053405  1
  O2-  O279  1  0.29520904  0.66634701  0.06668082  1
  O2-  O280  1  0.29540010  0.66552162  0.39430145  1
  O2-  O281  1  0.28929379  0.67081004  0.73394643  1
  O2-  O282  1  0.79044519  0.16818686  0.06681281  1
  O2-  O283  1  0.80214411  0.17076487  0.40051756  1
  O2-  O284  1  0.80062846  0.17118716  0.73206056  1
  O2-  O285  1  0.78310459  0.66672132  0.07022456  1
  O2-  O286  1  0.79338107  0.66387719  0.39386152  1
  O2-  O287  1  0.79434562  0.67113586  0.73159017  1
