# generated using pymatgen
data_Ca2Al2SiO7
_symmetry_space_group_name_H-M   'P 1'
_cell_length_a   15.46351443
_cell_length_b   15.46512301
_cell_length_c   15.28821171
_cell_angle_alpha   90.01424966
_cell_angle_beta   90.01580771
_cell_angle_gamma   89.98487574
_symmetry_Int_Tables_number   1
_chemical_formula_structural   Ca2Al2SiO7
_chemical_formula_sum   'Ca48 Al48 Si24 O168'
_cell_volume   3656.10134725
_cell_formula_units_Z   24
loop_
 _symmetry_equiv_pos_site_id
 _symmetry_equiv_pos_as_xyz
  1  'x, y, z'
loop_
 _atom_type_symbol
 _atom_type_oxidation_number
  Ca2+  2.0
  Al0+  0.0
  Si0+  0.0
  O2-  -2.0
loop_
 _atom_site_type_symbol
 _atom_site_label
 _atom_site_symmetry_multiplicity
 _atom_site_fract_x
 _atom_site_fract_y
 _atom_site_fract_z
 _atom_site_occupancy
  Ca2+  Ca0  1  0.16298500  0.08176972  0.16298758  1
  Ca2+  Ca1  1  0.16188556  0.08189975  0.50567354  1
  Ca2+  Ca2  1  0.16486554  0.07676823  0.83984745  1
  Ca2+  Ca3  1  0.16656111  0.57964124  0.17443209  1
  Ca2+  Ca4  1  0.17085000  0.58674058  0.50473679  1
  Ca2+  Ca5  1  0.15730419  0.56929565  0.83853991  1
  Ca2+  Ca6  1  0.67267845  0.07259807  0.17567132  1
  Ca2+  Ca7  1  0.67146022  0.06812965  0.50739460  1
  Ca2+  Ca8  1  0.66989417  0.07537823  0.83557376  1
  Ca2+  Ca9  1  0.67068057  0.59338592  0.16734826  1
  Ca2+  Ca10  1  0.66487125  0.58399581  0.50731758  1
  Ca2+  Ca11  1  0.66935393  0.58655998  0.83611111  1
  Ca2+  Ca12  1  0.08377770  0.32430686  0.15562857  1
  Ca2+  Ca13  1  0.08920475  0.32496367  0.50077997  1
  Ca2+  Ca14  1  0.08323911  0.32732040  0.82650659  1
  Ca2+  Ca15  1  0.07414870  0.83129354  0.15945710  1
  Ca2+  Ca16  1  0.07355810  0.83612426  0.49461162  1
  Ca2+  Ca17  1  0.07509720  0.84460259  0.82789988  1
  Ca2+  Ca18  1  0.57955320  0.33122150  0.16211126  1
  Ca2+  Ca19  1  0.58516526  0.33583577  0.49946034  1
  Ca2+  Ca20  1  0.58366231  0.33329728  0.82629353  1
  Ca2+  Ca21  1  0.57974741  0.82431208  0.15902293  1
  Ca2+  Ca22  1  0.58552174  0.82590112  0.49782844  1
  Ca2+  Ca23  1  0.57343837  0.82659981  0.82614623  1
  Ca2+  Ca24  1  0.32591009  0.42358628  0.17001510  1
  Ca2+  Ca25  1  0.32843755  0.42748280  0.50485846  1
  Ca2+  Ca26  1  0.32052838  0.41769056  0.83768446  1
  Ca2+  Ca27  1  0.33051003  0.91563860  0.16378105  1
  Ca2+  Ca28  1  0.32555654  0.91625486  0.51053412  1
  Ca2+  Ca29  1  0.32462916  0.91527885  0.84079396  1
  Ca2+  Ca30  1  0.83933516  0.42379730  0.16452884  1
  Ca2+  Ca31  1  0.82981764  0.41930606  0.51178514  1
  Ca2+  Ca32  1  0.83584546  0.42030451  0.84046140  1
  Ca2+  Ca33  1  0.82975837  0.90636749  0.17223978  1
  Ca2+  Ca34  1  0.82693842  0.90528707  0.50476854  1
  Ca2+  Ca35  1  0.82987547  0.90519901  0.83515364  1
  Ca2+  Ca36  1  0.41603667  0.16388156  0.15944480  1
  Ca2+  Ca37  1  0.41712744  0.16932986  0.49858012  1
  Ca2+  Ca38  1  0.41240268  0.16403706  0.83336560  1
  Ca2+  Ca39  1  0.42604115  0.66618394  0.16062069  1
  Ca2+  Ca40  1  0.42415186  0.66875779  0.49628965  1
  Ca2+  Ca41  1  0.42426198  0.67530462  0.82794736  1
  Ca2+  Ca42  1  0.92846506  0.17221195  0.15810968  1
  Ca2+  Ca43  1  0.92758372  0.17125734  0.49917303  1
  Ca2+  Ca44  1  0.92832996  0.17702731  0.82763045  1
  Ca2+  Ca45  1  0.91567400  0.67551749  0.16282845  1
  Ca2+  Ca46  1  0.92347518  0.67653015  0.49665847  1
  Ca2+  Ca47  1  0.91436737  0.67343097  0.83339464  1
  Al0+  Al48  1  -0.00092824  0.00107589  -0.00353570  1
  Al0+  Al49  1  -0.00136165  0.00380491  0.32546575  1
  Al0+  Al50  1  -0.00047209  0.00286532  0.66126606  1
  Al0+  Al51  1  -0.00339703  0.50101316  0.00885867  1
  Al0+  Al52  1  -0.00129659  0.49846296  0.33473171  1
  Al0+  Al53  1  -0.00049699  0.50086234  0.66647671  1
  Al0+  Al54  1  0.49958425  -0.00135776  0.00079156  1
  Al0+  Al55  1  0.50037590  0.00028400  0.33910404  1
  Al0+  Al56  1  0.50100067  0.00018210  0.66706910  1
  Al0+  Al57  1  0.50085478  0.49682116  -0.00409314  1
  Al0+  Al58  1  0.49820785  0.50035201  0.33275494  1
  Al0+  Al59  1  0.50134623  0.49966778  0.66832484  1
  Al0+  Al60  1  0.25161634  0.24900770  0.00424415  1
  Al0+  Al61  1  0.25038878  0.25024381  0.33010221  1
  Al0+  Al62  1  0.25185722  0.25182667  0.66522639  1
  Al0+  Al63  1  0.25000067  0.74840860  0.00115043  1
  Al0+  Al64  1  0.25033172  0.75058900  0.33608161  1
  Al0+  Al65  1  0.25179797  0.75201121  0.66997778  1
  Al0+  Al66  1  0.74944645  0.24881887  -0.00090398  1
  Al0+  Al67  1  0.74956279  0.24859484  0.33372434  1
  Al0+  Al68  1  0.75020081  0.25015275  0.66657309  1
  Al0+  Al69  1  0.75073429  0.74697444  -0.00270658  1
  Al0+  Al70  1  0.74824618  0.74765235  0.33251922  1
  Al0+  Al71  1  0.74984194  0.74901072  0.66459776  1
  Al0+  Al72  1  0.81826350  0.57079428  0.01526872  1
  Al0+  Al73  1  0.32074056  0.57208784  0.34702909  1
  Al0+  Al74  1  0.07299626  0.18108531  0.65044508  1
  Al0+  Al75  1  0.68025587  0.92743959  0.68241528  1
  Al0+  Al76  1  0.93053062  0.82089961  0.65359369  1
  Al0+  Al77  1  0.32144451  0.06908114  0.01545915  1
  Al0+  Al78  1  0.07331914  0.18065127  0.98254473  1
  Al0+  Al79  1  0.17970989  0.43085946  0.67924860  1
  Al0+  Al80  1  0.93084951  0.82057512  0.98532148  1
  Al0+  Al81  1  0.92939191  0.81949690  0.31827407  1
  Al0+  Al82  1  0.17855602  0.43012058  0.01450406  1
  Al0+  Al83  1  0.56934176  0.67909329  0.65021485  1
  Al0+  Al84  1  0.56814524  0.67857533  0.31865063  1
  Al0+  Al85  1  0.68045772  0.92752634  0.34737468  1
  Al0+  Al86  1  0.57112731  0.67745329  0.98336817  1
  Al0+  Al87  1  0.07367668  0.67766365  0.31983994  1
  Al0+  Al88  1  0.67911319  0.42818500  0.68025061  1
  Al0+  Al89  1  0.42720592  0.82189666  0.98514993  1
  Al0+  Al90  1  0.07184961  0.18157698  0.31637406  1
  Al0+  Al91  1  0.42736574  0.82353591  0.65004263  1
  Al0+  Al92  1  0.92825407  0.32307262  0.98567686  1
  Al0+  Al93  1  0.92812199  0.32367245  0.65122174  1
  Al0+  Al94  1  0.17766160  0.93040896  0.67794097  1
  Al0+  Al95  1  0.17570616  0.92695943  0.01621271  1
  Si0+  Si96  1  0.17754254  0.93152306  0.34713748  1
  Si0+  Si97  1  0.32437260  0.57029814  0.01542636  1
  Si0+  Si98  1  0.43020032  0.32070047  0.65137501  1
  Si0+  Si99  1  0.67660058  0.42497628  0.01789492  1
  Si0+  Si100  1  0.68099917  0.92897903  0.01427001  1
  Si0+  Si101  1  0.07345720  0.67689289  0.65337045  1
  Si0+  Si102  1  0.32319415  0.57256477  0.68489294  1
  Si0+  Si103  1  0.43057528  0.32014895  0.31814772  1
  Si0+  Si104  1  0.32308791  0.07324487  0.68144185  1
  Si0+  Si105  1  0.42984359  0.31944509  0.98457921  1
  Si0+  Si106  1  0.92405885  0.32163317  0.31618337  1
  Si0+  Si107  1  0.81989052  0.07290090  0.01477125  1
  Si0+  Si108  1  0.57072517  0.17778435  0.31937661  1
  Si0+  Si109  1  0.32133316  0.07265396  0.34968198  1
  Si0+  Si110  1  0.67844341  0.42761215  0.34707219  1
  Si0+  Si111  1  0.17805631  0.42724806  0.35053105  1
  Si0+  Si112  1  0.42709983  0.82521444  0.31748396  1
  Si0+  Si113  1  0.82155758  0.07233823  0.68393214  1
  Si0+  Si114  1  0.57156307  0.17732794  0.98575466  1
  Si0+  Si115  1  0.82056979  0.56985710  0.35052822  1
  Si0+  Si116  1  0.57265106  0.17838503  0.65131224  1
  Si0+  Si117  1  0.82189779  0.57150538  0.68330909  1
  Si0+  Si118  1  0.82223976  0.07358890  0.35095494  1
  Si0+  Si119  1  0.07273882  0.67671733  0.98551414  1
  O2-  O120  1  0.24951867  -0.00212813  0.06667195  1
  O2-  O121  1  0.25028286  0.00152036  0.39021359  1
  O2-  O122  1  0.25513887  0.00333950  0.72307534  1
  O2-  O123  1  0.25101484  0.50728029  0.06110367  1
  O2-  O124  1  0.24091966  0.50191804  0.39376518  1
  O2-  O125  1  0.24977350  0.50863011  0.72842981  1
  O2-  O126  1  0.75275406  -0.00159516  0.05808721  1
  O2-  O127  1  0.75785211  0.00024980  0.39408757  1
  O2-  O128  1  0.75662452  0.00042838  0.72968857  1
  O2-  O129  1  0.74358139  0.49469136  0.06231818  1
  O2-  O130  1  0.75102403  0.49585588  0.39016096  1
  O2-  O131  1  0.75530249  0.50004190  0.72669490  1
  O2-  O132  1  -0.00299859  0.25752094  0.27274428  1
  O2-  O133  1  0.00216577  0.25461238  0.60035135  1
  O2-  O134  1  0.00352318  0.25582988  0.93486310  1
  O2-  O135  1  0.00299814  0.74951483  0.26775409  1
  O2-  O136  1  0.00964047  0.75004132  0.60887985  1
  O2-  O137  1  0.01120273  0.75113207  0.94011280  1
  O2-  O138  1  0.50027455  0.24796307  0.27523455  1
  O2-  O139  1  0.50180530  0.25001851  0.60899026  1
  O2-  O140  1  0.50105565  0.24834858  0.94290628  1
  O2-  O141  1  0.49449028  0.75503108  0.27363241  1
  O2-  O142  1  0.49862690  0.75162009  0.59899606  1
  O2-  O143  1  0.49751797  0.74828804  0.93571206  1
  O2-  O144  1  0.07063320  0.18215869  0.09651180  1
  O2-  O145  1  0.07359106  0.18287212  0.42929012  1
  O2-  O146  1  0.07427727  0.18192676  0.76319125  1
  O2-  O147  1  0.06982143  0.67610760  0.09118644  1
  O2-  O148  1  0.07221360  0.68003953  0.43376395  1
  O2-  O149  1  0.06982578  0.67263487  0.75863123  1
  O2-  O150  1  0.57163337  0.17873043  0.09134971  1
  O2-  O151  1  0.56976843  0.17961454  0.42444966  1
  O2-  O152  1  0.57186296  0.17852678  0.75653466  1
  O2-  O153  1  0.57004818  0.67931965  0.09753991  1
  O2-  O154  1  0.56807062  0.67618180  0.43118677  1
  O2-  O155  1  0.56786405  0.67865178  0.76330128  1
  O2-  O156  1  0.18203467  0.42518766  0.24500303  1
  O2-  O157  1  0.18472377  0.43055767  0.56603477  1
  O2-  O158  1  0.18097094  0.42990872  0.90122203  1
  O2-  O159  1  0.17872226  0.93230198  0.24242693  1
  O2-  O160  1  0.17799966  0.93287084  0.56402746  1
  O2-  O161  1  0.17540281  0.93089842  0.90270864  1
  O2-  O162  1  0.67761816  0.42487658  0.24215834  1
  O2-  O163  1  0.67871047  0.42909091  0.56636265  1
  O2-  O164  1  0.67620115  0.42247777  0.91269875  1
  O2-  O165  1  0.67931411  0.93119936  0.23375620  1
  O2-  O166  1  0.68138377  0.92939545  0.56908228  1
  O2-  O167  1  0.68120095  0.93188408  0.90927278  1
  O2-  O168  1  0.43278347  0.32049963  0.09015952  1
  O2-  O169  1  0.43168074  0.31917914  0.42339341  1
  O2-  O170  1  0.42963073  0.31896566  0.75644061  1
  O2-  O171  1  0.43213528  0.82333138  0.09931421  1
  O2-  O172  1  0.42831038  0.82656365  0.42287334  1
  O2-  O173  1  0.42808054  0.82283678  0.76318183  1
  O2-  O174  1  0.92730002  0.31881138  0.09976411  1
  O2-  O175  1  0.91941890  0.31956447  0.42138429  1
  O2-  O176  1  0.92794899  0.32193031  0.76425287  1
  O2-  O177  1  0.92717535  0.81788830  0.09829149  1
  O2-  O178  1  0.92993890  0.81801540  0.43192708  1
  O2-  O179  1  0.93005990  0.81823230  0.76656659  1
  O2-  O180  1  0.32476450  0.07378855  0.24522687  1
  O2-  O181  1  0.32346108  0.07541740  0.57529716  1
  O2-  O182  1  0.32367793  0.06999205  0.90214265  1
  O2-  O183  1  0.32416209  0.56575118  0.23414514  1
  O2-  O184  1  0.32420556  0.56902738  0.57888849  1
  O2-  O185  1  0.32619386  0.56517503  0.91012924  1
  O2-  O186  1  0.81706132  0.07852188  0.24543278  1
  O2-  O187  1  0.81743517  0.07376652  0.57810390  1
  O2-  O188  1  0.81491958  0.07645708  0.91016188  1
  O2-  O189  1  0.81924590  0.57024203  0.24545623  1
  O2-  O190  1  0.82096412  0.57094873  0.57730281  1
  O2-  O191  1  0.81728223  0.57158318  0.90247419  1
  O2-  O192  1  0.04010360  0.08670690  0.26036854  1
  O2-  O193  1  0.04075346  0.08527215  0.59444642  1
  O2-  O194  1  0.04137715  0.08340027  0.93114975  1
  O2-  O195  1  0.04661745  0.57697661  0.27045430  1
  O2-  O196  1  0.04464406  0.58616299  0.60297709  1
  O2-  O197  1  0.03847319  0.58536825  0.94043707  1
  O2-  O198  1  0.54230446  0.08616064  0.27225434  1
  O2-  O199  1  0.54364649  0.08800655  0.60206018  1
  O2-  O200  1  0.54390312  0.08628396  0.93774152  1
  O2-  O201  1  0.53728870  0.58174789  0.26439933  1
  O2-  O202  1  0.54082681  0.57927681  0.59879074  1
  O2-  O203  1  0.54651420  0.57698262  0.93292685  1
  O2-  O204  1  0.16920355  0.21135467  0.26295552  1
  O2-  O205  1  0.17192458  0.21025867  0.59685747  1
  O2-  O206  1  0.17383259  0.20666589  0.93394110  1
  O2-  O207  1  0.17375636  0.70198027  0.26860966  1
  O2-  O208  1  0.16948590  0.69735509  0.61097956  1
  O2-  O209  1  0.16933083  0.69031996  0.94206725  1
  O2-  O210  1  0.66220058  0.20549044  0.27105331  1
  O2-  O211  1  0.66291756  0.20640016  0.60182566  1
  O2-  O212  1  0.66222019  0.20489926  0.93685635  1
  O2-  O213  1  0.66480053  0.70884964  0.26552737  1
  O2-  O214  1  0.66810202  0.70678378  0.59806786  1
  O2-  O215  1  0.66819625  0.70773963  0.93112978  1
  O2-  O216  1  0.08248221  0.45747715  0.07056103  1
  O2-  O217  1  0.08146212  0.44382003  0.39375624  1
  O2-  O218  1  0.08205496  0.45850103  0.73249067  1
  O2-  O219  1  0.07702716  0.95840336  0.06829511  1
  O2-  O220  1  0.08525562  0.96260211  0.39209558  1
  O2-  O221  1  0.08119831  0.96361603  0.73044954  1
  O2-  O222  1  0.58168618  0.44849253  0.06310571  1
  O2-  O223  1  0.58673337  0.45616733  0.39408313  1
  O2-  O224  1  0.58227436  0.45678152  0.73523015  1
  O2-  O225  1  0.59013633  0.95856758  0.06206350  1
  O2-  O226  1  0.58540672  0.96238005  0.40277700  1
  O2-  O227  1  0.58433743  0.96278967  0.73516098  1
  O2-  O228  1  0.21494305  0.33576012  0.06917085  1
  O2-  O229  1  0.21325662  0.33625954  0.39684644  1
  O2-  O230  1  0.21662152  0.33588646  0.73274486  1
  O2-  O231  1  0.20170134  0.82677782  0.06819095  1
  O2-  O232  1  0.20263867  0.83942202  0.39501178  1
  O2-  O233  1  0.20378757  0.83308257  0.73303584  1
  O2-  O234  1  0.70143627  0.33099406  0.06505165  1
  O2-  O235  1  0.70273108  0.33427209  0.39455211  1
  O2-  O236  1  0.70374576  0.32945193  0.73312710  1
  O2-  O237  1  0.70925359  0.83687647  0.06002784  1
  O2-  O238  1  0.70991845  0.83048213  0.40089238  1
  O2-  O239  1  0.71089591  0.83070998  0.73515473  1
  O2-  O240  1  0.46094087  0.40978532  0.26888127  1
  O2-  O241  1  0.45920938  0.41158614  0.60324955  1
  O2-  O242  1  0.45725247  0.40933698  0.93412225  1
  O2-  O243  1  0.45445172  0.91924205  0.27281306  1
  O2-  O244  1  0.45459192  0.92331422  0.59873481  1
  O2-  O245  1  0.45845534  0.91969723  0.93256399  1
  O2-  O246  1  0.94567407  0.41736033  0.27366048  1
  O2-  O247  1  0.95326621  0.42305232  0.59854174  1
  O2-  O248  1  0.95057668  0.42479543  0.93874600  1
  O2-  O249  1  0.95121561  0.91995225  0.26702356  1
  O2-  O250  1  0.95552091  0.91827981  0.59864038  1
  O2-  O251  1  0.95310997  0.91904428  0.93194638  1
  O2-  O252  1  0.33952743  0.29270298  0.26983462  1
  O2-  O253  1  0.34075121  0.29195482  0.60016620  1
  O2-  O254  1  0.33903027  0.29042024  0.93727677  1
  O2-  O255  1  0.33266391  0.80166004  0.27345593  1
  O2-  O256  1  0.32789564  0.79572595  0.59804118  1
  O2-  O257  1  0.32735730  0.79609053  0.93404455  1
  O2-  O258  1  0.83165549  0.29285439  0.26837864  1
  O2-  O259  1  0.82962981  0.29277382  0.59844748  1
  O2-  O260  1  0.82952958  0.29227901  0.93439398  1
  O2-  O261  1  0.83166721  0.78683915  0.26649995  1
  O2-  O262  1  0.83584901  0.78565899  0.59906298  1
  O2-  O263  1  0.83599874  0.78419437  0.93171567  1
  O2-  O264  1  0.42112642  0.04220608  0.07018693  1
  O2-  O265  1  0.41341166  0.04795047  0.39900187  1
  O2-  O266  1  0.41758558  0.05163488  0.72714959  1
  O2-  O267  1  0.41597235  0.53674596  0.06243090  1
  O2-  O268  1  0.41452307  0.53277647  0.40271546  1
  O2-  O269  1  0.41374889  0.53908823  0.73144695  1
  O2-  O270  1  0.91284359  0.04849765  0.06025796  1
  O2-  O271  1  0.91821739  0.05286932  0.39325031  1
  O2-  O272  1  0.91671793  0.05099074  0.72666482  1
  O2-  O273  1  0.91261811  0.54196192  0.07523936  1
  O2-  O274  1  0.91290594  0.54430640  0.39870266  1
  O2-  O275  1  0.91587565  0.54916351  0.72956164  1
  O2-  O276  1  0.29678943  0.16810771  0.07012520  1
  O2-  O277  1  0.29374403  0.16540004  0.39644470  1
  O2-  O278  1  0.29839734  0.16714127  0.72723950  1
  O2-  O279  1  0.30651970  0.66577935  0.05980721  1
  O2-  O280  1  0.29650023  0.66980253  0.40271007  1
  O2-  O281  1  0.30421671  0.66770318  0.72896490  1
  O2-  O282  1  0.78735442  0.16197979  0.06588489  1
  O2-  O283  1  0.79047573  0.16468807  0.39975531  1
  O2-  O284  1  0.79043096  0.16372971  0.73116114  1
  O2-  O285  1  0.78459738  0.66631533  0.07142771  1
  O2-  O286  1  0.78934802  0.65998010  0.39833794  1
  O2-  O287  1  0.79224318  0.66332594  0.72987165  1
