# generated using pymatgen
data_Ca2Al2SiO7
_symmetry_space_group_name_H-M   'P 1'
_cell_length_a   15.45950277
_cell_length_b   15.45863312
_cell_length_c   15.28355657
_cell_angle_alpha   90.00680062
_cell_angle_beta   90.01761363
_cell_angle_gamma   89.99625761
_symmetry_Int_Tables_number   1
_chemical_formula_structural   Ca2Al2SiO7
_chemical_formula_sum   'Ca48 Al48 Si24 O168'
_cell_volume   3652.50665489
_cell_formula_units_Z   24
loop_
 _symmetry_equiv_pos_site_id
 _symmetry_equiv_pos_as_xyz
  1  'x, y, z'
loop_
 _atom_type_symbol
 _atom_type_oxidation_number
  Ca2+  2.0
  Al0+  0.0
  Si0+  0.0
  O2-  -2.0
loop_
 _atom_site_type_symbol
 _atom_site_label
 _atom_site_symmetry_multiplicity
 _atom_site_fract_x
 _atom_site_fract_y
 _atom_site_fract_z
 _atom_site_occupancy
  Ca2+  Ca0  1  0.17175029  0.08923130  0.17006010  1
  Ca2+  Ca1  1  0.16186449  0.08147059  0.49890062  1
  Ca2+  Ca2  1  0.17297765  0.08548182  0.84288828  1
  Ca2+  Ca3  1  0.16231958  0.57167832  0.16890298  1
  Ca2+  Ca4  1  0.17320227  0.57151909  0.51138544  1
  Ca2+  Ca5  1  0.16782204  0.57487084  0.83943194  1
  Ca2+  Ca6  1  0.65838787  0.07092100  0.16732103  1
  Ca2+  Ca7  1  0.66972261  0.07179256  0.51297636  1
  Ca2+  Ca8  1  0.66330664  0.07725927  0.84028605  1
  Ca2+  Ca9  1  0.65853623  0.58110384  0.16523372  1
  Ca2+  Ca10  1  0.66345233  0.58536839  0.50525513  1
  Ca2+  Ca11  1  0.66485327  0.58169100  0.84040558  1
  Ca2+  Ca12  1  0.08372472  0.32808020  0.15605942  1
  Ca2+  Ca13  1  0.08299534  0.33312599  0.49690559  1
  Ca2+  Ca14  1  0.07841832  0.33442510  0.83261434  1
  Ca2+  Ca15  1  0.08762847  0.82763593  0.15953171  1
  Ca2+  Ca16  1  0.07556846  0.84105569  0.49566856  1
  Ca2+  Ca17  1  0.08065066  0.82599186  0.82826893  1
  Ca2+  Ca18  1  0.57462342  0.32780137  0.15090921  1
  Ca2+  Ca19  1  0.58433853  0.32410605  0.49945596  1
  Ca2+  Ca20  1  0.58619169  0.32348446  0.83088007  1
  Ca2+  Ca21  1  0.58430312  0.82757006  0.15753089  1
  Ca2+  Ca22  1  0.59299763  0.82420229  0.49715776  1
  Ca2+  Ca23  1  0.58535517  0.82869826  0.83111516  1
  Ca2+  Ca24  1  0.32186179  0.40845570  0.16692243  1
  Ca2+  Ca25  1  0.32260646  0.42022966  0.50803670  1
  Ca2+  Ca26  1  0.32599523  0.41733723  0.83974583  1
  Ca2+  Ca27  1  0.33280353  0.92062942  0.16461777  1
  Ca2+  Ca28  1  0.32491884  0.91439089  0.50090675  1
  Ca2+  Ca29  1  0.34011044  0.92303108  0.84228582  1
  Ca2+  Ca30  1  0.82944814  0.41225150  0.16067216  1
  Ca2+  Ca31  1  0.83519976  0.41887768  0.50631752  1
  Ca2+  Ca32  1  0.83095075  0.41155167  0.84144418  1
  Ca2+  Ca33  1  0.82157881  0.91651525  0.16934040  1
  Ca2+  Ca34  1  0.82652895  0.92221287  0.51066552  1
  Ca2+  Ca35  1  0.82480323  0.91830580  0.83349969  1
  Ca2+  Ca36  1  0.41815655  0.17079751  0.15381452  1
  Ca2+  Ca37  1  0.42244941  0.16349278  0.50211772  1
  Ca2+  Ca38  1  0.42458930  0.16762998  0.83806078  1
  Ca2+  Ca39  1  0.42476476  0.67596454  0.15766485  1
  Ca2+  Ca40  1  0.42589728  0.66044482  0.49856928  1
  Ca2+  Ca41  1  0.42473650  0.66734942  0.83005095  1
  Ca2+  Ca42  1  0.93112914  0.16973209  0.15885127  1
  Ca2+  Ca43  1  0.91799021  0.17004335  0.49904411  1
  Ca2+  Ca44  1  0.91348206  0.17697528  0.82901981  1
  Ca2+  Ca45  1  0.92403233  0.66923348  0.15936141  1
  Ca2+  Ca46  1  0.91444349  0.67588235  0.50074909  1
  Ca2+  Ca47  1  0.92159140  0.67048804  0.83187340  1
  Al0+  Al48  1  -0.00077495  -0.00073237  -0.00268157  1
  Al0+  Al49  1  -0.00042143  0.00265515  0.33060683  1
  Al0+  Al50  1  -0.00134999  0.00091404  0.66766950  1
  Al0+  Al51  1  0.00014193  0.50154467  -0.00200196  1
  Al0+  Al52  1  -0.00234208  0.50112571  0.33859509  1
  Al0+  Al53  1  -0.00048236  0.49937509  0.66543320  1
  Al0+  Al54  1  0.49866305  -0.00020876  0.00386631  1
  Al0+  Al55  1  0.49930266  -0.00216720  0.34003946  1
  Al0+  Al56  1  0.49812858  -0.00259837  0.66403039  1
  Al0+  Al57  1  0.49904228  0.50114048  -0.00141493  1
  Al0+  Al58  1  0.50057176  0.49926194  0.32972730  1
  Al0+  Al59  1  0.49885644  0.50008546  0.66502946  1
  Al0+  Al60  1  0.25070116  0.24963907  0.00025687  1
  Al0+  Al61  1  0.25027943  0.25035443  0.33785115  1
  Al0+  Al62  1  0.24917139  0.24892332  0.66942006  1
  Al0+  Al63  1  0.25088193  0.74991781  -0.00847152  1
  Al0+  Al64  1  0.25121687  0.75098611  0.33835999  1
  Al0+  Al65  1  0.25191494  0.74819078  0.66924186  1
  Al0+  Al66  1  0.75185066  0.24943264  0.00152383  1
  Al0+  Al67  1  0.75031144  0.25089245  0.33201118  1
  Al0+  Al68  1  0.75174609  0.24933858  0.65792469  1
  Al0+  Al69  1  0.75122744  0.75028014  0.00236151  1
  Al0+  Al70  1  0.75048680  0.74906922  0.33139640  1
  Al0+  Al71  1  0.75063093  0.74992580  0.66284393  1
  Al0+  Al72  1  0.93129206  0.82088712  0.65321544  1
  Al0+  Al73  1  0.56974446  0.67940549  0.65201666  1
  Al0+  Al74  1  0.67856908  0.92768329  0.68323199  1
  Al0+  Al75  1  0.07284086  0.17741218  0.98431604  1
  Al0+  Al76  1  0.17820881  0.42903528  0.34815867  1
  Al0+  Al77  1  0.17961793  0.43151568  0.01451042  1
  Al0+  Al78  1  0.07158785  0.67938812  0.98728361  1
  Al0+  Al79  1  0.68012912  0.93000750  0.01449696  1
  Al0+  Al80  1  0.17818706  0.92894838  0.34530020  1
  Al0+  Al81  1  0.93020215  0.32035349  0.98590781  1
  Al0+  Al82  1  0.67778061  0.42822748  0.01167426  1
  Al0+  Al83  1  0.92962806  0.32167427  0.65086354  1
  Al0+  Al84  1  0.57116581  0.67968506  0.31739676  1
  Al0+  Al85  1  0.07015444  0.18138399  0.31970436  1
  Al0+  Al86  1  0.17759798  0.42811723  0.68488159  1
  Al0+  Al87  1  0.57059276  0.17764459  0.65258888  1
  Al0+  Al88  1  0.82105424  0.07298570  0.68257730  1
  Al0+  Al89  1  0.43000215  0.82172431  0.98518495  1
  Al0+  Al90  1  0.32331770  0.57091012  0.68406342  1
  Al0+  Al91  1  0.42721621  0.32264255  0.98538521  1
  Al0+  Al92  1  0.57164987  0.17841925  0.98809016  1
  Al0+  Al93  1  0.67946866  0.92851051  0.34867194  1
  Al0+  Al94  1  0.31891695  0.07000448  0.01336501  1
  Al0+  Al95  1  0.57286380  0.67924808  0.98437920  1
  Si0+  Si96  1  0.32085359  0.06951698  0.68188768  1
  Si0+  Si97  1  0.82167222  0.57222893  0.01703927  1
  Si0+  Si98  1  0.32169383  0.07290223  0.35259258  1
  Si0+  Si99  1  0.82032670  0.57173085  0.68052361  1
  Si0+  Si100  1  0.42575212  0.82270515  0.64661582  1
  Si0+  Si101  1  0.32291780  0.57153976  0.34873288  1
  Si0+  Si102  1  0.07152192  0.67922056  0.32202894  1
  Si0+  Si103  1  0.82435223  0.07337226  0.01875804  1
  Si0+  Si104  1  0.57131452  0.17675769  0.31982008  1
  Si0+  Si105  1  0.07320824  0.67844227  0.64836516  1
  Si0+  Si106  1  0.67768587  0.42867462  0.34830269  1
  Si0+  Si107  1  0.42731605  0.32089312  0.64937566  1
  Si0+  Si108  1  0.42562893  0.82273884  0.31681846  1
  Si0+  Si109  1  0.93000598  0.82167018  0.31770041  1
  Si0+  Si110  1  0.43071854  0.31916025  0.32010709  1
  Si0+  Si111  1  0.07388048  0.17801803  0.64931292  1
  Si0+  Si112  1  0.17590387  0.92603406  0.01361831  1
  Si0+  Si113  1  0.92688286  0.32589212  0.31487036  1
  Si0+  Si114  1  0.82038249  0.57092156  0.34947243  1
  Si0+  Si115  1  0.92694441  0.82253966  0.98401318  1
  Si0+  Si116  1  0.67991977  0.42860440  0.67801041  1
  Si0+  Si117  1  0.32243641  0.57491305  0.01791705  1
  Si0+  Si118  1  0.82165072  0.07260802  0.34923843  1
  Si0+  Si119  1  0.17731922  0.92887084  0.68132231  1
  O2-  O120  1  0.24084086  -0.00245640  0.05878394  1
  O2-  O121  1  0.25204914  0.00350782  0.39455729  1
  O2-  O122  1  0.24957214  -0.00183921  0.72297439  1
  O2-  O123  1  0.25517826  0.50504206  0.06339991  1
  O2-  O124  1  0.25157959  0.50574765  0.39337626  1
  O2-  O125  1  0.24968091  0.50062451  0.73337481  1
  O2-  O126  1  0.75397154  0.00569493  0.06254192  1
  O2-  O127  1  0.75036304  0.00722735  0.39429772  1
  O2-  O128  1  0.74634208  0.00399657  0.73249861  1
  O2-  O129  1  0.75089085  0.50472655  0.06027308  1
  O2-  O130  1  0.74891982  0.49946564  0.39082778  1
  O2-  O131  1  0.75072382  0.49914443  0.72107490  1
  O2-  O132  1  -0.00263091  0.25815466  0.27339165  1
  O2-  O133  1  0.00620179  0.24814519  0.60545893  1
  O2-  O134  1  -0.00014650  0.24759396  0.93404420  1
  O2-  O135  1  0.00453408  0.75312596  0.27730458  1
  O2-  O136  1  0.00836984  0.75002693  0.60250372  1
  O2-  O137  1  -0.00018822  0.75739886  0.94172773  1
  O2-  O138  1  0.50061516  0.24736703  0.27769056  1
  O2-  O139  1  0.49600925  0.25239863  0.60387704  1
  O2-  O140  1  0.50496704  0.25532518  0.93761508  1
  O2-  O141  1  0.49719968  0.75641901  0.27394529  1
  O2-  O142  1  0.49526968  0.75399882  0.60360220  1
  O2-  O143  1  0.50121968  0.75035910  0.93379019  1
  O2-  O144  1  0.07222681  0.17914091  0.09854987  1
  O2-  O145  1  0.06761482  0.18078261  0.43293773  1
  O2-  O146  1  0.07574700  0.17684526  0.75412076  1
  O2-  O147  1  0.06966495  0.67986292  0.10162791  1
  O2-  O148  1  0.06774186  0.67946176  0.42687248  1
  O2-  O149  1  0.07053744  0.67936724  0.75376648  1
  O2-  O150  1  0.56756385  0.17832876  0.10267246  1
  O2-  O151  1  0.57074181  0.17899246  0.42512440  1
  O2-  O152  1  0.56980304  0.17910513  0.76492154  1
  O2-  O153  1  0.57153929  0.68189991  0.09849780  1
  O2-  O154  1  0.57060242  0.67809448  0.43066589  1
  O2-  O155  1  0.57144073  0.67892903  0.76410606  1
  O2-  O156  1  0.17835405  0.42942260  0.23523691  1
  O2-  O157  1  0.17937628  0.42912434  0.57031379  1
  O2-  O158  1  0.17835744  0.43338025  0.90220741  1
  O2-  O159  1  0.17995531  0.92638528  0.23286621  1
  O2-  O160  1  0.17713932  0.93099087  0.57563558  1
  O2-  O161  1  0.17664354  0.92586811  0.90793807  1
  O2-  O162  1  0.67722407  0.42777330  0.24365500  1
  O2-  O163  1  0.68091023  0.43052895  0.57198458  1
  O2-  O164  1  0.68115080  0.42772152  0.89839202  1
  O2-  O165  1  0.68052068  0.92868647  0.23554934  1
  O2-  O166  1  0.68258734  0.92725585  0.56898580  1
  O2-  O167  1  0.68219209  0.92844454  0.90201369  1
  O2-  O168  1  0.42689935  0.31871569  0.10020705  1
  O2-  O169  1  0.43284292  0.31952880  0.42546079  1
  O2-  O170  1  0.42828875  0.32042191  0.75420223  1
  O2-  O171  1  0.42922286  0.82084371  0.09942298  1
  O2-  O172  1  0.42239751  0.82139509  0.42225542  1
  O2-  O173  1  0.42496855  0.82494873  0.75153756  1
  O2-  O174  1  0.93190520  0.32044003  0.10004714  1
  O2-  O175  1  0.92526023  0.32622280  0.42046136  1
  O2-  O176  1  0.92750645  0.32272267  0.76302955  1
  O2-  O177  1  0.92651292  0.82041650  0.09035032  1
  O2-  O178  1  0.92960743  0.82043191  0.42288189  1
  O2-  O179  1  0.93314879  0.81694784  0.76596101  1
  O2-  O180  1  0.32296750  0.07524463  0.24752765  1
  O2-  O181  1  0.32002956  0.06944551  0.57625947  1
  O2-  O182  1  0.31982265  0.06800018  0.90002324  1
  O2-  O183  1  0.32233287  0.57154655  0.24352415  1
  O2-  O184  1  0.32228575  0.56792997  0.56928766  1
  O2-  O185  1  0.31964282  0.57476241  0.91270430  1
  O2-  O186  1  0.82208395  0.07078448  0.24388298  1
  O2-  O187  1  0.82067760  0.07065857  0.56804914  1
  O2-  O188  1  0.82509320  0.07256224  0.91359967  1
  O2-  O189  1  0.82434460  0.57175605  0.24489618  1
  O2-  O190  1  0.81927131  0.57186727  0.57471697  1
  O2-  O191  1  0.82263729  0.57370060  0.91145082  1
  O2-  O192  1  0.03927479  0.08530746  0.26394233  1
  O2-  O193  1  0.04608212  0.08470167  0.60308095  1
  O2-  O194  1  0.04917027  0.07684960  0.93376984  1
  O2-  O195  1  0.03872398  0.58862582  0.27467580  1
  O2-  O196  1  0.04305291  0.58638453  0.60187828  1
  O2-  O197  1  0.03567284  0.58666460  0.93076262  1
  O2-  O198  1  0.54343468  0.08344579  0.27607952  1
  O2-  O199  1  0.53669723  0.08196187  0.59708256  1
  O2-  O200  1  0.53734947  0.08260723  0.93562620  1
  O2-  O201  1  0.54059816  0.58211079  0.26458336  1
  O2-  O202  1  0.53926091  0.58217341  0.59631870  1
  O2-  O203  1  0.54705273  0.58022502  0.93326282  1
  O2-  O204  1  0.16952017  0.20944434  0.26993175  1
  O2-  O205  1  0.16784971  0.20213931  0.60176045  1
  O2-  O206  1  0.17024890  0.20654598  0.93243522  1
  O2-  O207  1  0.16509442  0.70332566  0.27678410  1
  O2-  O208  1  0.16877696  0.70013920  0.60477675  1
  O2-  O209  1  0.16612792  0.70730534  0.92940090  1
  O2-  O210  1  0.66383554  0.20334385  0.27379212  1
  O2-  O211  1  0.66473514  0.20999438  0.59420774  1
  O2-  O212  1  0.67170013  0.20106932  0.93791814  1
  O2-  O213  1  0.66905263  0.70779747  0.26466146  1
  O2-  O214  1  0.66654918  0.70932372  0.59660319  1
  O2-  O215  1  0.67283213  0.70614307  0.93469228  1
  O2-  O216  1  0.08324869  0.46532081  0.06853334  1
  O2-  O217  1  0.08092497  0.45896507  0.40177699  1
  O2-  O218  1  0.07836079  0.45834988  0.73428714  1
  O2-  O219  1  0.08023366  0.94487515  0.05888916  1
  O2-  O220  1  0.08137145  0.96162375  0.39911453  1
  O2-  O221  1  0.08638973  0.95606223  0.72927860  1
  O2-  O222  1  0.58079156  0.45757009  0.06731089  1
  O2-  O223  1  0.58605419  0.45652726  0.39637486  1
  O2-  O224  1  0.58762053  0.45455010  0.72345064  1
  O2-  O225  1  0.58434121  0.96064593  0.07040511  1
  O2-  O226  1  0.58150984  0.95359896  0.40317332  1
  O2-  O227  1  0.57695323  0.95163811  0.73019175  1
  O2-  O228  1  0.21126875  0.33467695  0.06777400  1
  O2-  O229  1  0.21183202  0.33420288  0.40407903  1
  O2-  O230  1  0.20521415  0.32861793  0.73479231  1
  O2-  O231  1  0.20531400  0.83294476  0.05942044  1
  O2-  O232  1  0.20734010  0.83322296  0.40381044  1
  O2-  O233  1  0.20213573  0.83532158  0.72600951  1
  O2-  O234  1  0.71037473  0.33300096  0.06942377  1
  O2-  O235  1  0.70531092  0.33625217  0.39608162  1
  O2-  O236  1  0.70849282  0.33644308  0.72220321  1
  O2-  O237  1  0.71432045  0.83424131  0.06992219  1
  O2-  O238  1  0.71497080  0.83198410  0.39994885  1
  O2-  O239  1  0.71321781  0.83017609  0.73348333  1
  O2-  O240  1  0.45836433  0.40996039  0.27137517  1
  O2-  O241  1  0.45372922  0.41357063  0.60151598  1
  O2-  O242  1  0.44820929  0.42277938  0.93529384  1
  O2-  O243  1  0.44892880  0.91855236  0.27422071  1
  O2-  O244  1  0.44824949  0.91606391  0.59834566  1
  O2-  O245  1  0.45905756  0.91967498  0.93350294  1
  O2-  O246  1  0.95005837  0.42109118  0.27139315  1
  O2-  O247  1  0.95833998  0.41925491  0.59559664  1
  O2-  O248  1  0.95631569  0.41935012  0.93420161  1
  O2-  O249  1  0.95422288  0.91386384  0.27039065  1
  O2-  O250  1  0.96076373  0.91793557  0.59811280  1
  O2-  O251  1  0.94681128  0.91665188  0.93801209  1
  O2-  O252  1  0.33813258  0.29150323  0.27483383  1
  O2-  O253  1  0.33390692  0.29230812  0.60310186  1
  O2-  O254  1  0.33252911  0.28824799  0.93104768  1
  O2-  O255  1  0.33257710  0.79529920  0.26979783  1
  O2-  O256  1  0.33148664  0.79576873  0.60069338  1
  O2-  O257  1  0.33201720  0.79715618  0.92978730  1
  O2-  O258  1  0.83265071  0.29962241  0.26952173  1
  O2-  O259  1  0.83502493  0.29141095  0.59135487  1
  O2-  O260  1  0.83139473  0.29327716  0.93380412  1
  O2-  O261  1  0.84085111  0.78790676  0.26909595  1
  O2-  O262  1  0.83735227  0.78568964  0.59621103  1
  O2-  O263  1  0.83652911  0.79084750  0.93658177  1
  O2-  O264  1  0.41283899  0.03710666  0.07172709  1
  O2-  O265  1  0.41403494  0.04550808  0.40116692  1
  O2-  O266  1  0.41207044  0.04068197  0.72865402  1
  O2-  O267  1  0.41698328  0.55274331  0.06327155  1
  O2-  O268  1  0.41556065  0.54052369  0.39498389  1
  O2-  O269  1  0.42163084  0.54130752  0.73565014  1
  O2-  O270  1  0.91747363  0.04377410  0.06570283  1
  O2-  O271  1  0.91421351  0.04450383  0.39582487  1
  O2-  O272  1  0.91909745  0.04334233  0.73504030  1
  O2-  O273  1  0.91398760  0.54423252  0.06512542  1
  O2-  O274  1  0.91050348  0.54409724  0.40163780  1
  O2-  O275  1  0.91300300  0.54654100  0.72650240  1
  O2-  O276  1  0.28956716  0.16589999  0.06980709  1
  O2-  O277  1  0.29581539  0.16504113  0.40179762  1
  O2-  O278  1  0.29422562  0.16124059  0.72881588  1
  O2-  O279  1  0.29424210  0.66888379  0.06263725  1
  O2-  O280  1  0.30165624  0.66564268  0.39602092  1
  O2-  O281  1  0.29850612  0.67091119  0.73527879  1
  O2-  O282  1  0.80235346  0.16689743  0.06622363  1
  O2-  O283  1  0.79970718  0.16857383  0.39338732  1
  O2-  O284  1  0.79492916  0.17388103  0.73019183  1
  O2-  O285  1  0.79846320  0.66536268  0.06587008  1
  O2-  O286  1  0.79196820  0.66246207  0.39730329  1
  O2-  O287  1  0.79157095  0.66222744  0.72840735  1
