# generated using pymatgen
data_Ca2Al2SiO7
_symmetry_space_group_name_H-M   'P 1'
_cell_length_a   15.46231475
_cell_length_b   15.46361968
_cell_length_c   15.28733847
_cell_angle_alpha   89.99948174
_cell_angle_beta   90.02198079
_cell_angle_gamma   89.99076810
_symmetry_Int_Tables_number   1
_chemical_formula_structural   Ca2Al2SiO7
_chemical_formula_sum   'Ca48 Al48 Si24 O168'
_cell_volume   3655.25359559
_cell_formula_units_Z   24
loop_
 _symmetry_equiv_pos_site_id
 _symmetry_equiv_pos_as_xyz
  1  'x, y, z'
loop_
 _atom_type_symbol
 _atom_type_oxidation_number
  Ca2+  2.0
  Al0+  0.0
  Si0+  0.0
  O2-  -2.0
loop_
 _atom_site_type_symbol
 _atom_site_label
 _atom_site_symmetry_multiplicity
 _atom_site_fract_x
 _atom_site_fract_y
 _atom_site_fract_z
 _atom_site_occupancy
  Ca2+  Ca0  1  0.17388759  0.07382216  0.17468668  1
  Ca2+  Ca1  1  0.17383121  0.07227805  0.51203250  1
  Ca2+  Ca2  1  0.17155503  0.07993367  0.83080302  1
  Ca2+  Ca3  1  0.16204452  0.58601736  0.16872185  1
  Ca2+  Ca4  1  0.16649531  0.58147842  0.50537732  1
  Ca2+  Ca5  1  0.16263270  0.57330999  0.84270746  1
  Ca2+  Ca6  1  0.66264345  0.07449110  0.16872270  1
  Ca2+  Ca7  1  0.66623744  0.07877120  0.50389212  1
  Ca2+  Ca8  1  0.67154358  0.08405722  0.84179421  1
  Ca2+  Ca9  1  0.66557042  0.58721288  0.17350435  1
  Ca2+  Ca10  1  0.65490410  0.58164132  0.50139307  1
  Ca2+  Ca11  1  0.66890881  0.58917862  0.84193342  1
  Ca2+  Ca12  1  0.08127806  0.33399612  0.15921208  1
  Ca2+  Ca13  1  0.08778318  0.32674335  0.50248774  1
  Ca2+  Ca14  1  0.08505970  0.32985689  0.82607820  1
  Ca2+  Ca15  1  0.08002078  0.82644719  0.16650252  1
  Ca2+  Ca16  1  0.08040476  0.83777078  0.48904800  1
  Ca2+  Ca17  1  0.08417017  0.83087412  0.82947989  1
  Ca2+  Ca18  1  0.59369738  0.32350205  0.16627178  1
  Ca2+  Ca19  1  0.58868766  0.32169683  0.49380030  1
  Ca2+  Ca20  1  0.58708902  0.32065638  0.82878181  1
  Ca2+  Ca21  1  0.57734778  0.83666499  0.15896720  1
  Ca2+  Ca22  1  0.57254357  0.83016488  0.49054154  1
  Ca2+  Ca23  1  0.57787861  0.83151456  0.82989857  1
  Ca2+  Ca24  1  0.32844870  0.41876483  0.16955813  1
  Ca2+  Ca25  1  0.32910081  0.42102024  0.50852976  1
  Ca2+  Ca26  1  0.32139302  0.41472227  0.83711307  1
  Ca2+  Ca27  1  0.33168684  0.90634315  0.17187269  1
  Ca2+  Ca28  1  0.32662298  0.91139208  0.50525917  1
  Ca2+  Ca29  1  0.33726810  0.91389078  0.83068068  1
  Ca2+  Ca30  1  0.82720455  0.42703451  0.16910275  1
  Ca2+  Ca31  1  0.82756529  0.41993255  0.49961812  1
  Ca2+  Ca32  1  0.83190555  0.42517409  0.84021271  1
  Ca2+  Ca33  1  0.82060316  0.91536706  0.17041150  1
  Ca2+  Ca34  1  0.82682982  0.91510812  0.50253694  1
  Ca2+  Ca35  1  0.82496145  0.92904893  0.84057629  1
  Ca2+  Ca36  1  0.43139081  0.16405681  0.16332534  1
  Ca2+  Ca37  1  0.42599588  0.15932108  0.50046446  1
  Ca2+  Ca38  1  0.42738325  0.16118271  0.82722319  1
  Ca2+  Ca39  1  0.42821017  0.67811854  0.16200634  1
  Ca2+  Ca40  1  0.42155501  0.67716393  0.49588532  1
  Ca2+  Ca41  1  0.42716388  0.67714930  0.82859118  1
  Ca2+  Ca42  1  0.91432647  0.16701148  0.16144537  1
  Ca2+  Ca43  1  0.92308457  0.15720599  0.50106158  1
  Ca2+  Ca44  1  0.91856037  0.16253817  0.82489948  1
  Ca2+  Ca45  1  0.92140437  0.66952628  0.16412932  1
  Ca2+  Ca46  1  0.92677437  0.67679658  0.49111158  1
  Ca2+  Ca47  1  0.91835438  0.66454881  0.83518721  1
  Al0+  Al48  1  0.00171860  0.00067135  0.00371369  1
  Al0+  Al49  1  0.00155750  0.00056819  0.32987053  1
  Al0+  Al50  1  -0.00068135  -0.00004406  0.67022163  1
  Al0+  Al51  1  -0.00242933  0.49872529  0.00471365  1
  Al0+  Al52  1  -0.00076207  0.49788267  0.33267644  1
  Al0+  Al53  1  -0.00248262  0.49927642  0.66877640  1
  Al0+  Al54  1  0.49937261  0.00278418  -0.00559839  1
  Al0+  Al55  1  0.50125649  0.00194786  0.32976095  1
  Al0+  Al56  1  0.49857735  -0.00179854  0.66166147  1
  Al0+  Al57  1  0.49652957  0.49922722  -0.00262205  1
  Al0+  Al58  1  0.49779706  0.49898930  0.33544750  1
  Al0+  Al59  1  0.49924927  0.49775790  0.66749809  1
  Al0+  Al60  1  0.24855646  0.24916492  0.00577148  1
  Al0+  Al61  1  0.25063814  0.24999988  0.33406732  1
  Al0+  Al62  1  0.24901592  0.24867575  0.66978717  1
  Al0+  Al63  1  0.24927873  0.74795987  -0.00826979  1
  Al0+  Al64  1  0.25025074  0.74789577  0.33132240  1
  Al0+  Al65  1  0.25095393  0.74726633  0.66887288  1
  Al0+  Al66  1  0.75256329  0.25270348  -0.00174395  1
  Al0+  Al67  1  0.75196251  0.25267138  0.33389319  1
  Al0+  Al68  1  0.75106589  0.25241854  0.66506349  1
  Al0+  Al69  1  0.75179652  0.75201663  0.00475251  1
  Al0+  Al70  1  0.75260089  0.75105781  0.33445908  1
  Al0+  Al71  1  0.75237737  0.74801544  0.66380524  1
  Al0+  Al72  1  0.67850193  0.92880859  0.34804652  1
  Al0+  Al73  1  0.07041120  0.17859350  0.65384361  1
  Al0+  Al74  1  0.17790245  0.92600982  0.68275612  1
  Al0+  Al75  1  0.17912274  0.42905761  0.01588100  1
  Al0+  Al76  1  0.57120480  0.18322096  0.98567091  1
  Al0+  Al77  1  0.06753680  0.67850520  0.98511099  1
  Al0+  Al78  1  0.57292318  0.17942178  0.65223316  1
  Al0+  Al79  1  0.07096592  0.67727683  0.31954830  1
  Al0+  Al80  1  0.81901239  0.07138705  0.67851316  1
  Al0+  Al81  1  0.32260535  0.06988636  0.68218785  1
  Al0+  Al82  1  0.18115775  0.92862936  0.34474367  1
  Al0+  Al83  1  0.57227018  0.18110649  0.31922277  1
  Al0+  Al84  1  0.92840274  0.82466665  0.31716972  1
  Al0+  Al85  1  0.57378107  0.67756837  0.65113207  1
  Al0+  Al86  1  0.42995966  0.82176585  0.31782470  1
  Al0+  Al87  1  0.42819690  0.82018187  0.64870256  1
  Al0+  Al88  1  0.17830621  0.43047061  0.68002958  1
  Al0+  Al89  1  0.57403520  0.67819721  0.98629273  1
  Al0+  Al90  1  0.67774357  0.93206038  0.01354936  1
  Al0+  Al91  1  0.82311286  0.07414451  0.01552872  1
  Al0+  Al92  1  0.57113175  0.67702983  0.31943099  1
  Al0+  Al93  1  0.42845480  0.82239621  0.98237257  1
  Al0+  Al94  1  0.67885498  0.43104656  0.34740583  1
  Al0+  Al95  1  0.81885596  0.57218373  0.01438135  1
  Si0+  Si96  1  0.92878268  0.82460579  0.98191545  1
  Si0+  Si97  1  0.17698251  0.42689095  0.35008598  1
  Si0+  Si98  1  0.92859165  0.32392046  0.64818597  1
  Si0+  Si99  1  0.82216907  0.07350488  0.34958935  1
  Si0+  Si100  1  0.67826650  0.42904964  0.68193119  1
  Si0+  Si101  1  0.32235741  0.07406210  0.34983982  1
  Si0+  Si102  1  0.17991669  0.92656658  0.01528664  1
  Si0+  Si103  1  0.32340368  0.57068403  0.68618162  1
  Si0+  Si104  1  0.31939768  0.56906451  0.34886236  1
  Si0+  Si105  1  0.42699028  0.32046482  0.65118224  1
  Si0+  Si106  1  0.93120270  0.82136256  0.65336150  1
  Si0+  Si107  1  0.32065569  0.57248537  0.01775968  1
  Si0+  Si108  1  0.93094086  0.32019790  0.98436285  1
  Si0+  Si109  1  0.82055257  0.57078583  0.68158747  1
  Si0+  Si110  1  0.07225507  0.17804119  0.98551980  1
  Si0+  Si111  1  0.42344203  0.32147665  0.98351792  1
  Si0+  Si112  1  0.82366116  0.57222037  0.35212106  1
  Si0+  Si113  1  0.67572125  0.42899746  0.01437764  1
  Si0+  Si114  1  0.06956434  0.67634631  0.65449431  1
  Si0+  Si115  1  0.93041790  0.32032012  0.31713871  1
  Si0+  Si116  1  0.32021576  0.07102967  0.01560329  1
  Si0+  Si117  1  0.07267716  0.17963621  0.31770496  1
  Si0+  Si118  1  0.42585527  0.32244793  0.31721143  1
  Si0+  Si119  1  0.67846118  0.92660444  0.68088376  1
  O2-  O120  1  0.25362366  -0.00465145  0.05709681  1
  O2-  O121  1  0.25593721  0.00251011  0.39205707  1
  O2-  O122  1  0.25174307  -0.00352888  0.73272006  1
  O2-  O123  1  0.25281911  0.50331285  0.06411090  1
  O2-  O124  1  0.24696160  0.49843643  0.39144913  1
  O2-  O125  1  0.25161557  0.50431634  0.72944528  1
  O2-  O126  1  0.75045361  0.00357916  0.06487108  1
  O2-  O127  1  0.75505237  0.00346263  0.39350656  1
  O2-  O128  1  0.74127776  0.00072966  0.72552294  1
  O2-  O129  1  0.73558395  0.50537197  0.05857392  1
  O2-  O130  1  0.74841833  0.51016234  0.39624706  1
  O2-  O131  1  0.74457053  0.50460587  0.72315709  1
  O2-  O132  1  0.00160953  0.24981074  0.27441718  1
  O2-  O133  1  -0.00476904  0.25256995  0.60497239  1
  O2-  O134  1  -0.00140385  0.24601730  0.94304098  1
  O2-  O135  1  -0.00093005  0.74941199  0.26997612  1
  O2-  O136  1  0.00656466  0.75380527  0.61200522  1
  O2-  O137  1  -0.00412407  0.75479447  0.93606995  1
  O2-  O138  1  0.49618775  0.25560172  0.27345087  1
  O2-  O139  1  0.49596726  0.25279543  0.60613838  1
  O2-  O140  1  0.49687650  0.25859730  0.93896740  1
  O2-  O141  1  0.50741555  0.75534984  0.26838416  1
  O2-  O142  1  0.50328450  0.75017511  0.60085993  1
  O2-  O143  1  0.50369775  0.75136311  0.93590783  1
  O2-  O144  1  0.07347535  0.18081790  0.09098214  1
  O2-  O145  1  0.07280150  0.18080407  0.42268094  1
  O2-  O146  1  0.06850959  0.18095268  0.76710884  1
  O2-  O147  1  0.06648710  0.67947372  0.09779112  1
  O2-  O148  1  0.06988671  0.67487958  0.43384684  1
  O2-  O149  1  0.06368638  0.67241285  0.75931145  1
  O2-  O150  1  0.57051519  0.18454309  0.09884287  1
  O2-  O151  1  0.57227823  0.18249878  0.43235954  1
  O2-  O152  1  0.57458612  0.18332835  0.76532057  1
  O2-  O153  1  0.57081553  0.67687775  0.09937626  1
  O2-  O154  1  0.56371188  0.67556242  0.43269456  1
  O2-  O155  1  0.57520744  0.67861637  0.76458192  1
  O2-  O156  1  0.17772221  0.42443542  0.24515044  1
  O2-  O157  1  0.17882211  0.43308133  0.56641256  1
  O2-  O158  1  0.17930240  0.42800253  0.90281846  1
  O2-  O159  1  0.18183552  0.93136671  0.23118169  1
  O2-  O160  1  0.17602448  0.92802165  0.56899145  1
  O2-  O161  1  0.17666256  0.92962106  0.91054314  1
  O2-  O162  1  0.68380146  0.42872563  0.23442542  1
  O2-  O163  1  0.68059556  0.42757855  0.57687507  1
  O2-  O164  1  0.68118207  0.42559889  0.90858638  1
  O2-  O165  1  0.67671843  0.93205091  0.23533853  1
  O2-  O166  1  0.68279026  0.92595155  0.57524437  1
  O2-  O167  1  0.67933534  0.93384282  0.89943683  1
  O2-  O168  1  0.42027740  0.31845208  0.08910717  1
  O2-  O169  1  0.42221286  0.32169737  0.42264578  1
  O2-  O170  1  0.42857673  0.32156736  0.75677374  1
  O2-  O171  1  0.42671500  0.82054689  0.09585168  1
  O2-  O172  1  0.42666061  0.81904001  0.43095087  1
  O2-  O173  1  0.42978373  0.81829697  0.76206831  1
  O2-  O174  1  0.93198545  0.32072680  0.08972345  1
  O2-  O175  1  0.93158770  0.32217602  0.42211845  1
  O2-  O176  1  0.92937968  0.32693925  0.75376706  1
  O2-  O177  1  0.93185426  0.82536855  0.08711213  1
  O2-  O178  1  0.93190399  0.82447303  0.43179375  1
  O2-  O179  1  0.92893150  0.81883435  0.75833233  1
  O2-  O180  1  0.31816873  0.07961598  0.24403148  1
  O2-  O181  1  0.31953237  0.07238270  0.56860767  1
  O2-  O182  1  0.31735481  0.07524330  0.91106353  1
  O2-  O183  1  0.31904932  0.56593647  0.24398966  1
  O2-  O184  1  0.32254222  0.56828474  0.58012845  1
  O2-  O185  1  0.31817324  0.56936540  0.91229727  1
  O2-  O186  1  0.82097675  0.07598246  0.24421840  1
  O2-  O187  1  0.82108393  0.06827700  0.56542389  1
  O2-  O188  1  0.82284269  0.07366982  0.90170234  1
  O2-  O189  1  0.82810311  0.56639356  0.24687868  1
  O2-  O190  1  0.82657587  0.56818274  0.57707894  1
  O2-  O191  1  0.82232624  0.56642798  0.90073669  1
  O2-  O192  1  0.04654392  0.08891457  0.26818019  1
  O2-  O193  1  0.03810608  0.08229507  0.59965577  1
  O2-  O194  1  0.04822574  0.08506485  0.93918507  1
  O2-  O195  1  0.04239195  0.57795343  0.26751077  1
  O2-  O196  1  0.03492712  0.58759408  0.60475550  1
  O2-  O197  1  0.03324399  0.58116908  0.93373491  1
  O2-  O198  1  0.54039896  0.08656924  0.26310023  1
  O2-  O199  1  0.54423255  0.08245414  0.59893223  1
  O2-  O200  1  0.53909003  0.08857025  0.93028292  1
  O2-  O201  1  0.53795157  0.57925947  0.26722457  1
  O2-  O202  1  0.54371034  0.57718260  0.60229184  1
  O2-  O203  1  0.54559472  0.57821974  0.93395800  1
  O2-  O204  1  0.16412201  0.20912521  0.27000508  1
  O2-  O205  1  0.16596104  0.21182074  0.59910401  1
  O2-  O206  1  0.16287299  0.21009773  0.93881192  1
  O2-  O207  1  0.16867422  0.70363681  0.26571875  1
  O2-  O208  1  0.16497291  0.69391259  0.61144764  1
  O2-  O209  1  0.16409421  0.70476087  0.92967580  1
  O2-  O210  1  0.66826757  0.21609627  0.26670028  1
  O2-  O211  1  0.66809520  0.21456624  0.59759279  1
  O2-  O212  1  0.66818064  0.21521055  0.93228302  1
  O2-  O213  1  0.67518407  0.69347689  0.27619219  1
  O2-  O214  1  0.67446873  0.69966350  0.59916750  1
  O2-  O215  1  0.67496796  0.70327634  0.93662137  1
  O2-  O216  1  0.08264323  0.45892049  0.06986592  1
  O2-  O217  1  0.08458157  0.45258179  0.39700434  1
  O2-  O218  1  0.08113922  0.46055394  0.73382748  1
  O2-  O219  1  0.08978884  0.95719347  0.06429142  1
  O2-  O220  1  0.08426791  0.96188062  0.39727072  1
  O2-  O221  1  0.08077145  0.95720639  0.73695268  1
  O2-  O222  1  0.57801101  0.44159501  0.05611962  1
  O2-  O223  1  0.57985062  0.45379824  0.40121532  1
  O2-  O224  1  0.58453567  0.44882415  0.72883036  1
  O2-  O225  1  0.57916959  0.96370961  0.06494524  1
  O2-  O226  1  0.58207685  0.96291958  0.40110272  1
  O2-  O227  1  0.58255700  0.94641059  0.72231257  1
  O2-  O228  1  0.20954223  0.33271150  0.07190317  1
  O2-  O229  1  0.20635618  0.33526810  0.39775847  1
  O2-  O230  1  0.20781059  0.33401016  0.73416339  1
  O2-  O231  1  0.20603200  0.83305418  0.05949901  1
  O2-  O232  1  0.20783852  0.83056317  0.39784965  1
  O2-  O233  1  0.20262865  0.82584116  0.73441560  1
  O2-  O234  1  0.71277514  0.34001547  0.06269878  1
  O2-  O235  1  0.71758810  0.33699101  0.40302502  1
  O2-  O236  1  0.71215366  0.34006513  0.73114749  1
  O2-  O237  1  0.70574772  0.83424095  0.06731543  1
  O2-  O238  1  0.70910112  0.83212905  0.40293437  1
  O2-  O239  1  0.71117518  0.83478270  0.72684398  1
  O2-  O240  1  0.44932844  0.41588820  0.27098303  1
  O2-  O241  1  0.45163850  0.41418442  0.60462471  1
  O2-  O242  1  0.44099346  0.41699061  0.93860868  1
  O2-  O243  1  0.45123462  0.92240800  0.26657074  1
  O2-  O244  1  0.45101570  0.91935408  0.59570970  1
  O2-  O245  1  0.45391775  0.92161619  0.93024179  1
  O2-  O246  1  0.95918217  0.41088185  0.26791663  1
  O2-  O247  1  0.95805887  0.41577438  0.59989611  1
  O2-  O248  1  0.96216052  0.41031935  0.93617451  1
  O2-  O249  1  0.95868510  0.92149036  0.26213004  1
  O2-  O250  1  0.95564426  0.91333662  0.60579262  1
  O2-  O251  1  0.95770037  0.91807418  0.93636055  1
  O2-  O252  1  0.33255780  0.29585573  0.26933318  1
  O2-  O253  1  0.33306588  0.29649201  0.60523746  1
  O2-  O254  1  0.33130273  0.28982975  0.93726872  1
  O2-  O255  1  0.33349751  0.78675734  0.26495859  1
  O2-  O256  1  0.32895838  0.78766974  0.59795405  1
  O2-  O257  1  0.33122769  0.79167610  0.92825976  1
  O2-  O258  1  0.83969693  0.29263227  0.26834501  1
  O2-  O259  1  0.83480872  0.30106892  0.60189434  1
  O2-  O260  1  0.83907511  0.29739795  0.93465795  1
  O2-  O261  1  0.83012177  0.79702257  0.26523680  1
  O2-  O262  1  0.84199785  0.78897903  0.60333375  1
  O2-  O263  1  0.83494552  0.79968818  0.93704310  1
  O2-  O264  1  0.41380139  0.04831942  0.06084423  1
  O2-  O265  1  0.41745303  0.05217052  0.39245352  1
  O2-  O266  1  0.42232608  0.04288901  0.73403827  1
  O2-  O267  1  0.41436171  0.54640724  0.06400036  1
  O2-  O268  1  0.40884600  0.53897514  0.39951355  1
  O2-  O269  1  0.41540517  0.54089585  0.73334167  1
  O2-  O270  1  0.92283767  0.04828291  0.06802971  1
  O2-  O271  1  0.91789826  0.04947668  0.39233607  1
  O2-  O272  1  0.91398470  0.03926891  0.73451648  1
  O2-  O273  1  0.91039102  0.53042041  0.07072355  1
  O2-  O274  1  0.91394167  0.53582205  0.40029580  1
  O2-  O275  1  0.90902788  0.53663422  0.73247822  1
  O2-  O276  1  0.28722657  0.15945607  0.06700601  1
  O2-  O277  1  0.29348273  0.16639826  0.39780733  1
  O2-  O278  1  0.29225595  0.16756412  0.73625912  1
  O2-  O279  1  0.29202056  0.66582481  0.06199392  1
  O2-  O280  1  0.29046615  0.65966324  0.39743913  1
  O2-  O281  1  0.29986607  0.66405829  0.73178180  1
  O2-  O282  1  0.79806798  0.17480698  0.06580733  1
  O2-  O283  1  0.79745355  0.16706544  0.39634990  1
  O2-  O284  1  0.79459717  0.17111124  0.73019328  1
  O2-  O285  1  0.80036899  0.67060819  0.06869754  1
  O2-  O286  1  0.80881948  0.66830984  0.39580045  1
  O2-  O287  1  0.79837549  0.66378875  0.72946000  1
