# generated using pymatgen
data_Ca2Al2SiO7
_symmetry_space_group_name_H-M   'P 1'
_cell_length_a   15.46727277
_cell_length_b   15.46538042
_cell_length_c   15.28889501
_cell_angle_alpha   90.00696502
_cell_angle_beta   89.99613940
_cell_angle_gamma   89.96985821
_symmetry_Int_Tables_number   1
_chemical_formula_structural   Ca2Al2SiO7
_chemical_formula_sum   'Ca48 Al48 Si24 O168'
_cell_volume   3657.21410387
_cell_formula_units_Z   24
loop_
 _symmetry_equiv_pos_site_id
 _symmetry_equiv_pos_as_xyz
  1  'x, y, z'
loop_
 _atom_type_symbol
 _atom_type_oxidation_number
  Ca2+  2.0
  Al0+  0.0
  Si0+  0.0
  O2-  -2.0
loop_
 _atom_site_type_symbol
 _atom_site_label
 _atom_site_symmetry_multiplicity
 _atom_site_fract_x
 _atom_site_fract_y
 _atom_site_fract_z
 _atom_site_occupancy
  Ca2+  Ca0  1  0.16730356  0.08273438  0.17113669  1
  Ca2+  Ca1  1  0.16697735  0.06907464  0.50502306  1
  Ca2+  Ca2  1  0.17838914  0.08184229  0.83775859  1
  Ca2+  Ca3  1  0.16700841  0.58523964  0.17315642  1
  Ca2+  Ca4  1  0.16884137  0.58392200  0.50399488  1
  Ca2+  Ca5  1  0.15836134  0.57967905  0.83466098  1
  Ca2+  Ca6  1  0.66445324  0.08159328  0.16265733  1
  Ca2+  Ca7  1  0.67173482  0.07748651  0.50687209  1
  Ca2+  Ca8  1  0.66285326  0.07520929  0.84164718  1
  Ca2+  Ca9  1  0.67524758  0.58249461  0.17539864  1
  Ca2+  Ca10  1  0.67445324  0.58692081  0.50052652  1
  Ca2+  Ca11  1  0.66821376  0.58173233  0.83978329  1
  Ca2+  Ca12  1  0.08245517  0.32060804  0.16021721  1
  Ca2+  Ca13  1  0.09243596  0.32573165  0.49840220  1
  Ca2+  Ca14  1  0.08627567  0.32829475  0.83368101  1
  Ca2+  Ca15  1  0.07831048  0.82572548  0.16335669  1
  Ca2+  Ca16  1  0.08711238  0.82726280  0.48972792  1
  Ca2+  Ca17  1  0.08949362  0.82255971  0.82775087  1
  Ca2+  Ca18  1  0.57297436  0.32772010  0.15947077  1
  Ca2+  Ca19  1  0.57055750  0.33098992  0.49422537  1
  Ca2+  Ca20  1  0.57119570  0.32582363  0.83065241  1
  Ca2+  Ca21  1  0.57188590  0.83749156  0.16047698  1
  Ca2+  Ca22  1  0.57095222  0.84153464  0.49987492  1
  Ca2+  Ca23  1  0.57405630  0.84670215  0.83233484  1
  Ca2+  Ca24  1  0.33927354  0.42322180  0.17410261  1
  Ca2+  Ca25  1  0.33213938  0.42099523  0.50483164  1
  Ca2+  Ca26  1  0.33101936  0.41248947  0.83594914  1
  Ca2+  Ca27  1  0.32988263  0.92029823  0.17111821  1
  Ca2+  Ca28  1  0.32389624  0.91552336  0.50698855  1
  Ca2+  Ca29  1  0.33572265  0.92389980  0.83825624  1
  Ca2+  Ca30  1  0.83619756  0.42027189  0.17215256  1
  Ca2+  Ca31  1  0.83873856  0.42695459  0.50329129  1
  Ca2+  Ca32  1  0.83561250  0.41631439  0.84218272  1
  Ca2+  Ca33  1  0.82945447  0.90412104  0.16913523  1
  Ca2+  Ca34  1  0.82911315  0.91198739  0.50369122  1
  Ca2+  Ca35  1  0.82009668  0.90795407  0.84012680  1
  Ca2+  Ca36  1  0.41550534  0.17684614  0.15604688  1
  Ca2+  Ca37  1  0.40174298  0.17707152  0.50106596  1
  Ca2+  Ca38  1  0.41111310  0.16799571  0.83171803  1
  Ca2+  Ca39  1  0.40696047  0.67963362  0.16654271  1
  Ca2+  Ca40  1  0.41064157  0.67894072  0.49407949  1
  Ca2+  Ca41  1  0.41513423  0.68317541  0.82929722  1
  Ca2+  Ca42  1  0.93064743  0.16804724  0.16012614  1
  Ca2+  Ca43  1  0.92633015  0.16622142  0.49084084  1
  Ca2+  Ca44  1  0.92066590  0.16877862  0.83641410  1
  Ca2+  Ca45  1  0.92446215  0.67153986  0.16385492  1
  Ca2+  Ca46  1  0.92865948  0.67194985  0.49184151  1
  Ca2+  Ca47  1  0.92734955  0.67188444  0.83411718  1
  Al0+  Al48  1  -0.00255324  -0.00110593  -0.00898895  1
  Al0+  Al49  1  -0.00118369  -0.00038866  0.32957237  1
  Al0+  Al50  1  -0.00109529  -0.00008081  0.67161269  1
  Al0+  Al51  1  0.00003139  0.50042150  -0.00345850  1
  Al0+  Al52  1  -0.00034110  0.49891637  0.33709324  1
  Al0+  Al53  1  0.00124138  0.50117682  0.66711846  1
  Al0+  Al54  1  0.49958856  0.00104154  0.00428132  1
  Al0+  Al55  1  0.50056043  0.00228630  0.33166604  1
  Al0+  Al56  1  0.50243654  0.00187793  0.66714121  1
  Al0+  Al57  1  0.49996305  0.50012687  -0.00095510  1
  Al0+  Al58  1  0.50001221  0.50044840  0.33576590  1
  Al0+  Al59  1  0.50215040  0.49985598  0.66295213  1
  Al0+  Al60  1  0.24842440  0.25070126  -0.00151855  1
  Al0+  Al61  1  0.25074145  0.25089384  0.32391914  1
  Al0+  Al62  1  0.24850075  0.25159248  0.66957716  1
  Al0+  Al63  1  0.25060716  0.74923889  -0.00785489  1
  Al0+  Al64  1  0.25032839  0.74975137  0.33260659  1
  Al0+  Al65  1  0.25172994  0.74824731  0.66170023  1
  Al0+  Al66  1  0.74854647  0.24876852  -0.00442153  1
  Al0+  Al67  1  0.74801354  0.24843539  0.33593404  1
  Al0+  Al68  1  0.74956938  0.25252860  0.66529631  1
  Al0+  Al69  1  0.75010558  0.74783461  0.00324446  1
  Al0+  Al70  1  0.74909093  0.74834637  0.33876094  1
  Al0+  Al71  1  0.75164566  0.74923125  0.67215584  1
  Al0+  Al72  1  0.17788514  0.92469779  0.68197291  1
  Al0+  Al73  1  0.18010345  0.43129301  0.68095272  1
  Al0+  Al74  1  0.07269450  0.17640382  0.98215171  1
  Al0+  Al75  1  0.42913616  0.82245929  0.31984066  1
  Al0+  Al76  1  0.56928692  0.17857415  0.98462906  1
  Al0+  Al77  1  0.43038024  0.82106640  0.98719614  1
  Al0+  Al78  1  0.68037860  0.92904174  0.01681991  1
  Al0+  Al79  1  0.07159522  0.68019642  0.98407406  1
  Al0+  Al80  1  0.32087254  0.57117954  0.34681189  1
  Al0+  Al81  1  0.43182325  0.82241987  0.65219916  1
  Al0+  Al82  1  0.43018460  0.32118683  0.31942616  1
  Al0+  Al83  1  0.17879103  0.93066070  0.34312128  1
  Al0+  Al84  1  0.82201845  0.57017552  0.34884652  1
  Al0+  Al85  1  0.31922496  0.07053785  0.68014533  1
  Al0+  Al86  1  0.07208640  0.67715591  0.31892888  1
  Al0+  Al87  1  0.07047380  0.67941493  0.65034568  1
  Al0+  Al88  1  0.31855199  0.07079973  0.01581052  1
  Al0+  Al89  1  0.42784288  0.32037007  0.65118721  1
  Al0+  Al90  1  0.92968865  0.32062337  0.98724709  1
  Al0+  Al91  1  0.68169449  0.93063025  0.68022453  1
  Al0+  Al92  1  0.92550903  0.82052697  0.98405735  1
  Al0+  Al93  1  0.07046389  0.17878963  0.32148872  1
  Al0+  Al94  1  0.92678177  0.82076644  0.31991114  1
  Al0+  Al95  1  0.42792468  0.32361166  0.98388968  1
  Si0+  Si96  1  0.82114050  0.56899449  0.68494697  1
  Si0+  Si97  1  0.32193903  0.57154781  0.01383089  1
  Si0+  Si98  1  0.57495781  0.67698511  0.65018904  1
  Si0+  Si99  1  0.17790187  0.43082642  0.01589513  1
  Si0+  Si100  1  0.92539423  0.32131281  0.32036473  1
  Si0+  Si101  1  0.67808902  0.42701463  0.35157864  1
  Si0+  Si102  1  0.57516365  0.17812025  0.31589081  1
  Si0+  Si103  1  0.57191086  0.67862150  0.31849973  1
  Si0+  Si104  1  0.82256307  0.07382476  0.01768894  1
  Si0+  Si105  1  0.32273788  0.07385811  0.34811610  1
  Si0+  Si106  1  0.67864795  0.42888552  0.68305214  1
  Si0+  Si107  1  0.17661916  0.92530460  0.01526352  1
  Si0+  Si108  1  0.92704873  0.82188119  0.65100824  1
  Si0+  Si109  1  0.67778736  0.42757070  0.01519535  1
  Si0+  Si110  1  0.92797520  0.32156739  0.65085219  1
  Si0+  Si111  1  0.67759772  0.92881773  0.34916248  1
  Si0+  Si112  1  0.57378166  0.17938550  0.64767749  1
  Si0+  Si113  1  0.32539721  0.57176954  0.68372116  1
  Si0+  Si114  1  0.82294227  0.07629531  0.68406577  1
  Si0+  Si115  1  0.06952676  0.17910327  0.65161950  1
  Si0+  Si116  1  0.57299218  0.67758579  0.98599949  1
  Si0+  Si117  1  0.82095707  0.56837192  0.01637837  1
  Si0+  Si118  1  0.82069694  0.07116123  0.34717679  1
  Si0+  Si119  1  0.17862985  0.42595918  0.34817220  1
  O2-  O120  1  0.24088018  -0.00219713  0.06076553  1
  O2-  O121  1  0.25550900  0.00353843  0.39101646  1
  O2-  O122  1  0.25109711  -0.00442594  0.73163690  1
  O2-  O123  1  0.25167303  0.49964120  0.05666008  1
  O2-  O124  1  0.24480126  0.49695807  0.39228510  1
  O2-  O125  1  0.25590555  0.50450499  0.72880960  1
  O2-  O126  1  0.75839633  0.00111022  0.06326233  1
  O2-  O127  1  0.75069498  -0.00098173  0.38954633  1
  O2-  O128  1  0.75631148  0.00544942  0.72699812  1
  O2-  O129  1  0.75006013  0.49674869  0.05834779  1
  O2-  O130  1  0.74876804  0.49349287  0.39658916  1
  O2-  O131  1  0.74912557  0.49908848  0.72750854  1
  O2-  O132  1  -0.00450364  0.25471380  0.27698229  1
  O2-  O133  1  -0.00503130  0.24709438  0.60877043  1
  O2-  O134  1  -0.00033092  0.24915751  0.93398665  1
  O2-  O135  1  -0.00079317  0.74902757  0.27079549  1
  O2-  O136  1  0.00149383  0.76067720  0.60589387  1
  O2-  O137  1  0.00409725  0.75646000  0.93381643  1
  O2-  O138  1  0.50395547  0.24520280  0.27448749  1
  O2-  O139  1  0.50160477  0.24454429  0.60376983  1
  O2-  O140  1  0.49572887  0.24809738  0.93387492  1
  O2-  O141  1  0.50380596  0.74688414  0.27359446  1
  O2-  O142  1  0.50624988  0.74562814  0.60664226  1
  O2-  O143  1  0.50634067  0.74706476  0.94106478  1
  O2-  O144  1  0.07168507  0.17952354  0.09615570  1
  O2-  O145  1  0.06900455  0.17953311  0.43516767  1
  O2-  O146  1  0.06871591  0.18156462  0.75615098  1
  O2-  O147  1  0.07056598  0.67688920  0.09739089  1
  O2-  O148  1  0.07053224  0.67790381  0.43259481  1
  O2-  O149  1  0.06517946  0.67584344  0.76310132  1
  O2-  O150  1  0.56970948  0.18262006  0.09859271  1
  O2-  O151  1  0.58116263  0.17899491  0.42129509  1
  O2-  O152  1  0.57876259  0.18227461  0.75251948  1
  O2-  O153  1  0.57314668  0.67600845  0.09152025  1
  O2-  O154  1  0.57324688  0.68005358  0.42416484  1
  O2-  O155  1  0.57529821  0.67407436  0.75572619  1
  O2-  O156  1  0.17885290  0.42477133  0.24259694  1
  O2-  O157  1  0.18059277  0.42964285  0.56763780  1
  O2-  O158  1  0.17651982  0.43268391  0.91070700  1
  O2-  O159  1  0.17846964  0.93248736  0.23013496  1
  O2-  O160  1  0.17686568  0.92747557  0.56785405  1
  O2-  O161  1  0.18233443  0.92345465  0.90987043  1
  O2-  O162  1  0.67896399  0.42763726  0.24591890  1
  O2-  O163  1  0.68070770  0.42879026  0.57798365  1
  O2-  O164  1  0.67758604  0.43126243  0.90989739  1
  O2-  O165  1  0.67658365  0.92861461  0.24445197  1
  O2-  O166  1  0.68362537  0.93205991  0.56640131  1
  O2-  O167  1  0.68085161  0.93003195  0.90375610  1
  O2-  O168  1  0.43251423  0.32667551  0.09757628  1
  O2-  O169  1  0.42981043  0.31956531  0.43278412  1
  O2-  O170  1  0.43078340  0.32117960  0.76357650  1
  O2-  O171  1  0.42933601  0.81863973  0.10042287  1
  O2-  O172  1  0.43173146  0.82329604  0.43297204  1
  O2-  O173  1  0.43420809  0.82177364  0.76530618  1
  O2-  O174  1  0.93165468  0.32173165  0.10119181  1
  O2-  O175  1  0.92328630  0.31859004  0.42627947  1
  O2-  O176  1  0.92645601  0.32179028  0.75551431  1
  O2-  O177  1  0.92354939  0.81400755  0.09737345  1
  O2-  O178  1  0.92611227  0.82033110  0.43381292  1
  O2-  O179  1  0.92242421  0.81646991  0.75594833  1
  O2-  O180  1  0.32256829  0.07399229  0.24263859  1
  O2-  O181  1  0.31394030  0.07235620  0.56606803  1
  O2-  O182  1  0.31981067  0.06935165  0.90283740  1
  O2-  O183  1  0.32153964  0.56963093  0.23331199  1
  O2-  O184  1  0.32515002  0.56984843  0.57795030  1
  O2-  O185  1  0.32386856  0.57108309  0.90893299  1
  O2-  O186  1  0.81897339  0.07622247  0.24291642  1
  O2-  O187  1  0.82242608  0.07847382  0.57784375  1
  O2-  O188  1  0.81806162  0.07742138  0.91224166  1
  O2-  O189  1  0.81942696  0.56761803  0.23567733  1
  O2-  O190  1  0.81998902  0.56757693  0.57982453  1
  O2-  O191  1  0.81892670  0.56727831  0.91096191  1
  O2-  O192  1  0.03647964  0.08545262  0.26486874  1
  O2-  O193  1  0.04347368  0.08572681  0.60564713  1
  O2-  O194  1  0.04636413  0.07893428  0.92754769  1
  O2-  O195  1  0.04372073  0.57705062  0.26896917  1
  O2-  O196  1  0.03371224  0.58396819  0.59694143  1
  O2-  O197  1  0.03670182  0.58402014  0.93050658  1
  O2-  O198  1  0.55174682  0.08418867  0.27065466  1
  O2-  O199  1  0.55257698  0.08491012  0.60245216  1
  O2-  O200  1  0.54251295  0.07975353  0.93389264  1
  O2-  O201  1  0.54934373  0.58405505  0.27366141  1
  O2-  O202  1  0.55251703  0.58347931  0.60216948  1
  O2-  O203  1  0.54726841  0.58481563  0.93814238  1
  O2-  O204  1  0.16457373  0.20954317  0.26378451  1
  O2-  O205  1  0.15899708  0.21257672  0.60409440  1
  O2-  O206  1  0.16860304  0.20999700  0.92875304  1
  O2-  O207  1  0.16970174  0.70512890  0.26580157  1
  O2-  O208  1  0.16970245  0.70154179  0.59845007  1
  O2-  O209  1  0.16991579  0.70279234  0.92853356  1
  O2-  O210  1  0.66739238  0.20577726  0.26750345  1
  O2-  O211  1  0.66611078  0.20976857  0.59928034  1
  O2-  O212  1  0.66649248  0.20745157  0.93025222  1
  O2-  O213  1  0.66557415  0.70377802  0.27284636  1
  O2-  O214  1  0.66940482  0.70352708  0.60571671  1
  O2-  O215  1  0.66678788  0.69995546  0.93974017  1
  O2-  O216  1  0.08675873  0.46103615  0.06354205  1
  O2-  O217  1  0.08366967  0.44500004  0.39473507  1
  O2-  O218  1  0.08335067  0.46260828  0.73525108  1
  O2-  O219  1  0.07900345  0.94591812  0.05476680  1
  O2-  O220  1  0.08214703  0.96223267  0.39809007  1
  O2-  O221  1  0.07810289  0.95065063  0.73364574  1
  O2-  O222  1  0.58713961  0.45794589  0.06396319  1
  O2-  O223  1  0.58634040  0.45593023  0.39944942  1
  O2-  O224  1  0.58704556  0.45730633  0.73020058  1
  O2-  O225  1  0.58534297  0.96270247  0.07220668  1
  O2-  O226  1  0.58710751  0.96072708  0.39761634  1
  O2-  O227  1  0.58600715  0.96254138  0.73425732  1
  O2-  O228  1  0.20207805  0.33776587  0.06188334  1
  O2-  O229  1  0.20887687  0.33308858  0.39411936  1
  O2-  O230  1  0.20946071  0.33544762  0.73637868  1
  O2-  O231  1  0.20708167  0.83215419  0.06033695  1
  O2-  O232  1  0.20948577  0.83441597  0.39727744  1
  O2-  O233  1  0.20627196  0.82493734  0.73118583  1
  O2-  O234  1  0.70433692  0.33529213  0.06166131  1
  O2-  O235  1  0.70085141  0.33261863  0.39799618  1
  O2-  O236  1  0.70682711  0.33718743  0.73033423  1
  O2-  O237  1  0.70835400  0.83046757  0.06988939  1
  O2-  O238  1  0.70315191  0.83738797  0.39818243  1
  O2-  O239  1  0.71042740  0.83343350  0.73497821  1
  O2-  O240  1  0.46323193  0.41792129  0.26715255  1
  O2-  O241  1  0.46163212  0.41674517  0.59763358  1
  O2-  O242  1  0.46019082  0.42071089  0.93033432  1
  O2-  O243  1  0.46051160  0.91923942  0.26660233  1
  O2-  O244  1  0.46505645  0.91841478  0.59811584  1
  O2-  O245  1  0.46317052  0.91690426  0.93533271  1
  O2-  O246  1  0.94822257  0.41570062  0.27632643  1
  O2-  O247  1  0.95995798  0.41202742  0.60363392  1
  O2-  O248  1  0.95752909  0.41793168  0.93220101  1
  O2-  O249  1  0.95065693  0.91926033  0.26634842  1
  O2-  O250  1  0.94249317  0.92000910  0.61015212  1
  O2-  O251  1  0.93851454  0.92211723  0.93353106  1
  O2-  O252  1  0.33503580  0.29375213  0.26206309  1
  O2-  O253  1  0.33035546  0.28965460  0.59836973  1
  O2-  O254  1  0.32809198  0.29943180  0.93466436  1
  O2-  O255  1  0.33423745  0.78975478  0.26510959  1
  O2-  O256  1  0.33612654  0.79055760  0.59731925  1
  O2-  O257  1  0.33676531  0.78855562  0.92989375  1
  O2-  O258  1  0.83170571  0.29576532  0.27461662  1
  O2-  O259  1  0.83474043  0.29923085  0.60285172  1
  O2-  O260  1  0.83094214  0.29513500  0.93333724  1
  O2-  O261  1  0.82755265  0.78999181  0.26989719  1
  O2-  O262  1  0.83541005  0.78905548  0.60395113  1
  O2-  O263  1  0.82971961  0.78236753  0.93084462  1
  O2-  O264  1  0.41446944  0.03998615  0.07076165  1
  O2-  O265  1  0.41791331  0.05266568  0.39341243  1
  O2-  O266  1  0.42059361  0.04865197  0.72911537  1
  O2-  O267  1  0.41402006  0.54485443  0.06228477  1
  O2-  O268  1  0.41752705  0.54124711  0.40204120  1
  O2-  O269  1  0.41997318  0.54659436  0.72811298  1
  O2-  O270  1  0.91924013  0.05302204  0.05927036  1
  O2-  O271  1  0.91180658  0.04406023  0.39618561  1
  O2-  O272  1  0.91685157  0.05481968  0.73016915  1
  O2-  O273  1  0.91253105  0.53927027  0.06321357  1
  O2-  O274  1  0.91737322  0.53883558  0.40610438  1
  O2-  O275  1  0.91138036  0.53748832  0.73193134  1
  O2-  O276  1  0.28930833  0.16962717  0.06787601  1
  O2-  O277  1  0.29372672  0.16783402  0.39169123  1
  O2-  O278  1  0.28717165  0.16737155  0.73407804  1
  O2-  O279  1  0.29236581  0.66360508  0.06015895  1
  O2-  O280  1  0.29105397  0.66733065  0.40171486  1
  O2-  O281  1  0.30077125  0.66602081  0.72752009  1
  O2-  O282  1  0.79204456  0.16613094  0.06520590  1
  O2-  O283  1  0.79203581  0.16180962  0.39862573  1
  O2-  O284  1  0.79547607  0.17007871  0.72907663  1
  O2-  O285  1  0.79114599  0.65831754  0.06541245  1
  O2-  O286  1  0.78759553  0.66445060  0.40627225  1
  O2-  O287  1  0.79372221  0.66014275  0.73328386  1
