# generated using pymatgen
data_Ca2Al2SiO7
_symmetry_space_group_name_H-M   'P 1'
_cell_length_a   15.45187262
_cell_length_b   15.45234588
_cell_length_c   15.27959329
_cell_angle_alpha   90.00171152
_cell_angle_beta   89.99464743
_cell_angle_gamma   90.00032842
_symmetry_Int_Tables_number   1
_chemical_formula_structural   Ca2Al2SiO7
_chemical_formula_sum   'Ca48 Al48 Si24 O168'
_cell_volume   3648.27302742
_cell_formula_units_Z   24
loop_
 _symmetry_equiv_pos_site_id
 _symmetry_equiv_pos_as_xyz
  1  'x, y, z'
loop_
 _atom_type_symbol
 _atom_type_oxidation_number
  Ca2+  2.0
  Al0+  0.0
  Si0+  0.0
  O2-  -2.0
loop_
 _atom_site_type_symbol
 _atom_site_label
 _atom_site_symmetry_multiplicity
 _atom_site_fract_x
 _atom_site_fract_y
 _atom_site_fract_z
 _atom_site_occupancy
  Ca2+  Ca0  1  0.16741909  0.07810837  0.17411105  1
  Ca2+  Ca1  1  0.17714885  0.08487957  0.50016592  1
  Ca2+  Ca2  1  0.17192071  0.08948468  0.83617844  1
  Ca2+  Ca3  1  0.17602677  0.58425892  0.16673820  1
  Ca2+  Ca4  1  0.17572731  0.57673999  0.50438973  1
  Ca2+  Ca5  1  0.16695097  0.57190718  0.84413751  1
  Ca2+  Ca6  1  0.67186235  0.07746220  0.17073742  1
  Ca2+  Ca7  1  0.67008730  0.08298701  0.50703394  1
  Ca2+  Ca8  1  0.65959781  0.07192899  0.83605215  1
  Ca2+  Ca9  1  0.66695096  0.58281935  0.16998200  1
  Ca2+  Ca10  1  0.66071962  0.57549731  0.49736273  1
  Ca2+  Ca11  1  0.67476718  0.58405640  0.84270164  1
  Ca2+  Ca12  1  0.07376341  0.33122736  0.15608329  1
  Ca2+  Ca13  1  0.07467980  0.33792144  0.49800791  1
  Ca2+  Ca14  1  0.07858566  0.33897084  0.83187169  1
  Ca2+  Ca15  1  0.08554706  0.82951498  0.15965955  1
  Ca2+  Ca16  1  0.08009716  0.83973166  0.49663286  1
  Ca2+  Ca17  1  0.07824084  0.82315671  0.82949565  1
  Ca2+  Ca18  1  0.57900212  0.33828658  0.16910092  1
  Ca2+  Ca19  1  0.57356955  0.33007853  0.49232427  1
  Ca2+  Ca20  1  0.57550648  0.32481929  0.82274142  1
  Ca2+  Ca21  1  0.57843844  0.82373765  0.15660629  1
  Ca2+  Ca22  1  0.58606055  0.82703550  0.49638300  1
  Ca2+  Ca23  1  0.58530899  0.83190287  0.83390960  1
  Ca2+  Ca24  1  0.33137744  0.42561436  0.17183128  1
  Ca2+  Ca25  1  0.33460481  0.41609249  0.50553630  1
  Ca2+  Ca26  1  0.32222360  0.41607940  0.83987417  1
  Ca2+  Ca27  1  0.32851101  0.91956386  0.17396598  1
  Ca2+  Ca28  1  0.33129226  0.92780760  0.50236915  1
  Ca2+  Ca29  1  0.34134659  0.92428505  0.83788998  1
  Ca2+  Ca30  1  0.83186102  0.41678839  0.16988274  1
  Ca2+  Ca31  1  0.82897125  0.40939625  0.50097374  1
  Ca2+  Ca32  1  0.83794038  0.41870811  0.84055212  1
  Ca2+  Ca33  1  0.82887144  0.92266921  0.17119538  1
  Ca2+  Ca34  1  0.83019398  0.92357815  0.50738651  1
  Ca2+  Ca35  1  0.82204388  0.90944292  0.83696581  1
  Ca2+  Ca36  1  0.40832072  0.17291336  0.16670505  1
  Ca2+  Ca37  1  0.41388587  0.17177824  0.49937015  1
  Ca2+  Ca38  1  0.42009431  0.17104169  0.82165272  1
  Ca2+  Ca39  1  0.42330966  0.66499424  0.15840927  1
  Ca2+  Ca40  1  0.42262254  0.66400561  0.48859240  1
  Ca2+  Ca41  1  0.41581567  0.66952276  0.83788624  1
  Ca2+  Ca42  1  0.91896671  0.17388473  0.16146388  1
  Ca2+  Ca43  1  0.91226216  0.17641508  0.49198946  1
  Ca2+  Ca44  1  0.92346314  0.17783184  0.83013288  1
  Ca2+  Ca45  1  0.92314206  0.66382860  0.15753871  1
  Ca2+  Ca46  1  0.91751778  0.67512007  0.49907873  1
  Ca2+  Ca47  1  0.92058431  0.66448293  0.83250389  1
  Al0+  Al48  1  0.00025653  0.00232001  -0.00587289  1
  Al0+  Al49  1  -0.00221751  0.00067279  0.34098639  1
  Al0+  Al50  1  0.00039971  0.00011566  0.66409762  1
  Al0+  Al51  1  -0.00100580  0.50058857  0.00177477  1
  Al0+  Al52  1  -0.00077556  0.50227082  0.32975844  1
  Al0+  Al53  1  0.00174470  0.50043975  0.66377284  1
  Al0+  Al54  1  0.50003028  -0.00050995  0.00496474  1
  Al0+  Al55  1  0.50001164  -0.00072454  0.33682005  1
  Al0+  Al56  1  0.50115950  -0.00187683  0.66986522  1
  Al0+  Al57  1  0.50079173  0.50008003  -0.00374680  1
  Al0+  Al58  1  0.50123824  0.49922008  0.33268061  1
  Al0+  Al59  1  0.50127191  0.50091996  0.66639461  1
  Al0+  Al60  1  0.24849627  0.24996531  0.00166546  1
  Al0+  Al61  1  0.24868025  0.24990640  0.33184101  1
  Al0+  Al62  1  0.24915497  0.25099835  0.67174930  1
  Al0+  Al63  1  0.25043155  0.75120764  -0.00746735  1
  Al0+  Al64  1  0.24937572  0.74937223  0.34377404  1
  Al0+  Al65  1  0.25134681  0.74994223  0.66577812  1
  Al0+  Al66  1  0.74925453  0.24918720  -0.00442866  1
  Al0+  Al67  1  0.74847012  0.25064475  0.33579338  1
  Al0+  Al68  1  0.75063923  0.24905923  0.66181491  1
  Al0+  Al69  1  0.74834596  0.74892106  0.00741330  1
  Al0+  Al70  1  0.75171851  0.74913864  0.32836357  1
  Al0+  Al71  1  0.75156418  0.75028996  0.66487382  1
  Al0+  Al72  1  0.07282993  0.17765234  0.98439925  1
  Al0+  Al73  1  0.81855250  0.07102408  0.34672401  1
  Al0+  Al74  1  0.32142956  0.57208639  0.01383954  1
  Al0+  Al75  1  0.57047749  0.67941505  0.31902992  1
  Al0+  Al76  1  0.68080133  0.43120446  0.34661152  1
  Al0+  Al77  1  0.31890354  0.06870762  0.68191461  1
  Al0+  Al78  1  0.93074201  0.32176536  0.65091019  1
  Al0+  Al79  1  0.17810149  0.92778066  0.34847207  1
  Al0+  Al80  1  0.92811249  0.32117090  0.98478831  1
  Al0+  Al81  1  0.07139609  0.67984580  0.98756240  1
  Al0+  Al82  1  0.42787281  0.32144186  0.65268083  1
  Al0+  Al83  1  0.92750392  0.32143781  0.31835248  1
  Al0+  Al84  1  0.17967607  0.43142122  0.68018891  1
  Al0+  Al85  1  0.32158309  0.56869119  0.34695812  1
  Al0+  Al86  1  0.17833970  0.42788485  0.01801050  1
  Al0+  Al87  1  0.57019298  0.17620566  0.65134656  1
  Al0+  Al88  1  0.82030823  0.56985788  0.01327789  1
  Al0+  Al89  1  0.92923417  0.81999002  0.65365042  1
  Al0+  Al90  1  0.32246332  0.07346352  0.34849001  1
  Al0+  Al91  1  0.42782795  0.31947354  0.31841833  1
  Al0+  Al92  1  0.67855394  0.92933537  0.01627572  1
  Al0+  Al93  1  0.57221226  0.67776175  0.98305446  1
  Al0+  Al94  1  0.68184160  0.92882178  0.68051545  1
  Al0+  Al95  1  0.42920744  0.82256035  0.98511979  1
  Si0+  Si96  1  0.17591592  0.42864418  0.34894657  1
  Si0+  Si97  1  0.57241657  0.68009138  0.65132199  1
  Si0+  Si98  1  0.17613324  0.92629559  0.68625456  1
  Si0+  Si99  1  0.42672216  0.82228566  0.31942104  1
  Si0+  Si100  1  0.57012991  0.17820009  0.98702197  1
  Si0+  Si101  1  0.42879831  0.82081831  0.65022552  1
  Si0+  Si102  1  0.67867100  0.42756367  0.68114175  1
  Si0+  Si103  1  0.81945479  0.56984246  0.67899020  1
  Si0+  Si104  1  0.32125846  0.07107378  0.01514675  1
  Si0+  Si105  1  0.57193397  0.17618760  0.31596255  1
  Si0+  Si106  1  0.82252891  0.07252318  0.01453686  1
  Si0+  Si107  1  0.42898331  0.32097548  0.98578819  1
  Si0+  Si108  1  0.07208362  0.68062149  0.31916048  1
  Si0+  Si109  1  0.17763199  0.92956296  0.01061042  1
  Si0+  Si110  1  0.82382518  0.07439053  0.68537088  1
  Si0+  Si111  1  0.67725372  0.42485680  0.01448598  1
  Si0+  Si112  1  0.67902750  0.92561108  0.34977031  1
  Si0+  Si113  1  0.93004915  0.82274326  0.31749717  1
  Si0+  Si114  1  0.07309568  0.67832750  0.64811965  1
  Si0+  Si115  1  0.07023838  0.17748120  0.31801608  1
  Si0+  Si116  1  0.82484145  0.57383218  0.35157488  1
  Si0+  Si117  1  0.92717582  0.82331304  0.98573008  1
  Si0+  Si118  1  0.32552920  0.57420282  0.68480221  1
  Si0+  Si119  1  0.07290956  0.17747030  0.64793937  1
  O2-  O120  1  0.24802505  0.00066830  0.05410628  1
  O2-  O121  1  0.25102347  -0.00020444  0.39698727  1
  O2-  O122  1  0.24440907  -0.00542690  0.73137008  1
  O2-  O123  1  0.25132922  0.49977149  0.06641375  1
  O2-  O124  1  0.24826415  0.49289476  0.39427757  1
  O2-  O125  1  0.25672873  0.50459269  0.72620620  1
  O2-  O126  1  0.75577738  0.00263904  0.06031008  1
  O2-  O127  1  0.74352893  -0.00279782  0.39480612  1
  O2-  O128  1  0.75535137  0.00478613  0.72876187  1
  O2-  O129  1  0.74571750  0.49415289  0.05782957  1
  O2-  O130  1  0.75685634  0.50438862  0.39543759  1
  O2-  O131  1  0.75197529  0.49619141  0.72273234  1
  O2-  O132  1  0.00418994  0.24830695  0.27330988  1
  O2-  O133  1  0.00177893  0.24368690  0.60360682  1
  O2-  O134  1  0.00269193  0.25177816  0.93500274  1
  O2-  O135  1  0.00195185  0.75260030  0.27629328  1
  O2-  O136  1  0.00852404  0.75127731  0.60418516  1
  O2-  O137  1  -0.00498462  0.75375801  0.94168699  1
  O2-  O138  1  0.49920725  0.24073365  0.27123919  1
  O2-  O139  1  0.50017144  0.25019117  0.60164738  1
  O2-  O140  1  0.50030077  0.24996490  0.94458806  1
  O2-  O141  1  0.49617702  0.75533392  0.27429933  1
  O2-  O142  1  0.49664049  0.74618080  0.60905392  1
  O2-  O143  1  0.50047329  0.75015799  0.93326805  1
  O2-  O144  1  0.07042077  0.17309591  0.09804760  1
  O2-  O145  1  0.06953948  0.17792481  0.42367499  1
  O2-  O146  1  0.07163031  0.17769630  0.75344731  1
  O2-  O147  1  0.07179432  0.68427470  0.10111424  1
  O2-  O148  1  0.06923089  0.67989517  0.42440321  1
  O2-  O149  1  0.07059947  0.67740358  0.75363310  1
  O2-  O150  1  0.57057856  0.17814202  0.09213524  1
  O2-  O151  1  0.57330132  0.17812327  0.42126360  1
  O2-  O152  1  0.56813163  0.17742784  0.76584054  1
  O2-  O153  1  0.57112868  0.67920113  0.09659568  1
  O2-  O154  1  0.57012689  0.68093343  0.43315746  1
  O2-  O155  1  0.57544639  0.68095379  0.75589975  1
  O2-  O156  1  0.17527508  0.43199522  0.24381622  1
  O2-  O157  1  0.17817099  0.43490270  0.56670737  1
  O2-  O158  1  0.18014428  0.42859126  0.90408855  1
  O2-  O159  1  0.17760289  0.92681229  0.23411435  1
  O2-  O160  1  0.17805954  0.92665475  0.58077237  1
  O2-  O161  1  0.17741253  0.93051173  0.90573303  1
  O2-  O162  1  0.68130479  0.43230987  0.23346323  1
  O2-  O163  1  0.67714966  0.43030093  0.57612600  1
  O2-  O164  1  0.67751768  0.42367152  0.90851020  1
  O2-  O165  1  0.68162962  0.92610521  0.24424761  1
  O2-  O166  1  0.68456144  0.92622313  0.56737646  1
  O2-  O167  1  0.67903531  0.93061087  0.90290725  1
  O2-  O168  1  0.42975705  0.32043213  0.09105338  1
  O2-  O169  1  0.42962492  0.32050596  0.43121374  1
  O2-  O170  1  0.43065119  0.32025827  0.76687740  1
  O2-  O171  1  0.42925923  0.82490516  0.09880177  1
  O2-  O172  1  0.42901704  0.82087298  0.42548013  1
  O2-  O173  1  0.42881949  0.82129106  0.75504015  1
  O2-  O174  1  0.92618692  0.31703937  0.09842344  1
  O2-  O175  1  0.92958989  0.32065543  0.43177964  1
  O2-  O176  1  0.93144112  0.32384631  0.76355781  1
  O2-  O177  1  0.93088573  0.82611902  0.09161386  1
  O2-  O178  1  0.92842666  0.82096711  0.42276088  1
  O2-  O179  1  0.92709485  0.81367113  0.76661866  1
  O2-  O180  1  0.31981141  0.07153856  0.23436979  1
  O2-  O181  1  0.31797866  0.06747675  0.56919363  1
  O2-  O182  1  0.32371454  0.07103478  0.91004838  1
  O2-  O183  1  0.32010895  0.57119706  0.23432219  1
  O2-  O184  1  0.32551563  0.57529925  0.57887168  1
  O2-  O185  1  0.31973930  0.56902619  0.90009353  1
  O2-  O186  1  0.81917884  0.06785794  0.23325996  1
  O2-  O187  1  0.82205351  0.07308124  0.57947845  1
  O2-  O188  1  0.82076266  0.07265128  0.90916982  1
  O2-  O189  1  0.82575948  0.57468050  0.24632167  1
  O2-  O190  1  0.81716056  0.57178970  0.57384393  1
  O2-  O191  1  0.81955413  0.57021599  0.89927153  1
  O2-  O192  1  0.04088485  0.08380907  0.27353303  1
  O2-  O193  1  0.05208713  0.08225114  0.60285440  1
  O2-  O194  1  0.04416556  0.08094906  0.92667892  1
  O2-  O195  1  0.04358029  0.59024448  0.26968531  1
  O2-  O196  1  0.04224423  0.58794432  0.59917798  1
  O2-  O197  1  0.03862391  0.58440105  0.93341196  1
  O2-  O198  1  0.55174593  0.07978884  0.27235017  1
  O2-  O199  1  0.54220250  0.07737961  0.59958470  1
  O2-  O200  1  0.53965921  0.08716190  0.94025532  1
  O2-  O201  1  0.53972711  0.58350210  0.26549881  1
  O2-  O202  1  0.54799836  0.58681984  0.60456384  1
  O2-  O203  1  0.54681080  0.57884991  0.92857563  1
  O2-  O204  1  0.16459155  0.19862354  0.27176611  1
  O2-  O205  1  0.16561342  0.20713424  0.60330641  1
  O2-  O206  1  0.17208873  0.20493396  0.93198838  1
  O2-  O207  1  0.16496002  0.70861810  0.27444884  1
  O2-  O208  1  0.16871315  0.70008635  0.60374158  1
  O2-  O209  1  0.16454545  0.71130867  0.92815506  1
  O2-  O210  1  0.66338156  0.20701355  0.26860734  1
  O2-  O211  1  0.66932605  0.20257772  0.59949455  1
  O2-  O212  1  0.66130857  0.20296512  0.93701055  1
  O2-  O213  1  0.66834483  0.70748296  0.26551724  1
  O2-  O214  1  0.66167451  0.71215385  0.60159401  1
  O2-  O215  1  0.67167853  0.70857336  0.93295000  1
  O2-  O216  1  0.07998007  0.45696364  0.06885706  1
  O2-  O217  1  0.08368110  0.46002335  0.39551955  1
  O2-  O218  1  0.08372683  0.46624840  0.73423148  1
  O2-  O219  1  0.08519436  0.95607898  0.05852162  1
  O2-  O220  1  0.08082880  0.95701079  0.40346715  1
  O2-  O221  1  0.08091666  0.94963221  0.73003244  1
  O2-  O222  1  0.58372089  0.45097071  0.06009983  1
  O2-  O223  1  0.58610293  0.46477877  0.40279611  1
  O2-  O224  1  0.58795715  0.45757412  0.72991069  1
  O2-  O225  1  0.58410627  0.96370170  0.07256795  1
  O2-  O226  1  0.58353817  0.94497059  0.39424700  1
  O2-  O227  1  0.58523308  0.95704689  0.73570289  1
  O2-  O228  1  0.20617075  0.32887154  0.07038279  1
  O2-  O229  1  0.19613380  0.33307040  0.39230186  1
  O2-  O230  1  0.20655391  0.33498532  0.73586339  1
  O2-  O231  1  0.20584655  0.83807898  0.05788940  1
  O2-  O232  1  0.20416931  0.83133930  0.40694533  1
  O2-  O233  1  0.20157782  0.83104442  0.72943679  1
  O2-  O234  1  0.70239021  0.33127046  0.06140075  1
  O2-  O235  1  0.70898436  0.33487948  0.40218066  1
  O2-  O236  1  0.70387807  0.33423340  0.72648794  1
  O2-  O237  1  0.70757486  0.83367036  0.07176122  1
  O2-  O238  1  0.70949312  0.83283566  0.39511471  1
  O2-  O239  1  0.71625095  0.83273221  0.73471669  1
  O2-  O240  1  0.46473321  0.41391896  0.26440755  1
  O2-  O241  1  0.45640979  0.42117451  0.60137950  1
  O2-  O242  1  0.45548397  0.41165501  0.93640839  1
  O2-  O243  1  0.44924922  0.91716398  0.27413611  1
  O2-  O244  1  0.46081907  0.91076117  0.60271795  1
  O2-  O245  1  0.46151253  0.92103881  0.93294300  1
  O2-  O246  1  0.95515345  0.42005595  0.26635202  1
  O2-  O247  1  0.96322287  0.41775171  0.59591145  1
  O2-  O248  1  0.95476638  0.42049057  0.93381924  1
  O2-  O249  1  0.95686055  0.91540826  0.27174629  1
  O2-  O250  1  0.95498058  0.91834741  0.59974430  1
  O2-  O251  1  0.95152949  0.91551936  0.93658252  1
  O2-  O252  1  0.33012311  0.29205513  0.26360315  1
  O2-  O253  1  0.32878942  0.29311189  0.60200427  1
  O2-  O254  1  0.33734868  0.29136123  0.93988038  1
  O2-  O255  1  0.33163806  0.79607747  0.27729681  1
  O2-  O256  1  0.33545473  0.79730186  0.60303441  1
  O2-  O257  1  0.33206661  0.79713447  0.92783619  1
  O2-  O258  1  0.83074088  0.28895962  0.26642369  1
  O2-  O259  1  0.83300576  0.29334438  0.59768744  1
  O2-  O260  1  0.83003083  0.29192635  0.92987040  1
  O2-  O261  1  0.83935324  0.79444006  0.26813961  1
  O2-  O262  1  0.83595562  0.78372313  0.59584728  1
  O2-  O263  1  0.83313237  0.79561830  0.94316818  1
  O2-  O264  1  0.41122049  0.04284891  0.06539125  1
  O2-  O265  1  0.42133639  0.04648482  0.40199227  1
  O2-  O266  1  0.41533576  0.03615467  0.73577975  1
  O2-  O267  1  0.42151598  0.54382823  0.06387220  1
  O2-  O268  1  0.41779700  0.53834514  0.40129178  1
  O2-  O269  1  0.42018420  0.55102574  0.72987855  1
  O2-  O270  1  0.91684184  0.04744055  0.05990195  1
  O2-  O271  1  0.91286342  0.04027204  0.40470333  1
  O2-  O272  1  0.91881276  0.04955246  0.72848768  1
  O2-  O273  1  0.91596953  0.54127936  0.06955285  1
  O2-  O274  1  0.91885515  0.55021560  0.39795566  1
  O2-  O275  1  0.91294979  0.54502164  0.72412028  1
  O2-  O276  1  0.29376961  0.16250375  0.06295152  1
  O2-  O277  1  0.29154771  0.17133149  0.40162662  1
  O2-  O278  1  0.28953066  0.16532490  0.73679667  1
  O2-  O279  1  0.29210873  0.67216656  0.06330540  1
  O2-  O280  1  0.29053763  0.66329559  0.40533934  1
  O2-  O281  1  0.29972160  0.66858575  0.72926505  1
  O2-  O282  1  0.79324468  0.16513873  0.06105248  1
  O2-  O283  1  0.78747210  0.16642363  0.40215238  1
  O2-  O284  1  0.79805550  0.16853948  0.73016772  1
  O2-  O285  1  0.79181070  0.66528149  0.07104771  1
  O2-  O286  1  0.79766229  0.66804692  0.39642411  1
  O2-  O287  1  0.78818005  0.65974609  0.72761073  1
