# generated using pymatgen
data_Ca2Al2SiO7
_symmetry_space_group_name_H-M   'P 1'
_cell_length_a   15.46279894
_cell_length_b   15.46270065
_cell_length_c   15.28791185
_cell_angle_alpha   90.00465256
_cell_angle_beta   90.00813408
_cell_angle_gamma   89.99874266
_symmetry_Int_Tables_number   1
_chemical_formula_structural   Ca2Al2SiO7
_chemical_formula_sum   'Ca48 Al48 Si24 O168'
_cell_volume   3655.28817109
_cell_formula_units_Z   24
loop_
 _symmetry_equiv_pos_site_id
 _symmetry_equiv_pos_as_xyz
  1  'x, y, z'
loop_
 _atom_type_symbol
 _atom_type_oxidation_number
  Ca2+  2.0
  Al0+  0.0
  Si0+  0.0
  O2-  -2.0
loop_
 _atom_site_type_symbol
 _atom_site_label
 _atom_site_symmetry_multiplicity
 _atom_site_fract_x
 _atom_site_fract_y
 _atom_site_fract_z
 _atom_site_occupancy
  Ca2+  Ca0  1  0.17066899  0.07541522  0.17520717  1
  Ca2+  Ca1  1  0.16461426  0.07814866  0.50273185  1
  Ca2+  Ca2  1  0.16426132  0.08642422  0.83571234  1
  Ca2+  Ca3  1  0.18171188  0.57869357  0.17603688  1
  Ca2+  Ca4  1  0.17730412  0.57556738  0.50706509  1
  Ca2+  Ca5  1  0.17355085  0.58282637  0.83232661  1
  Ca2+  Ca6  1  0.66757472  0.08560989  0.17200571  1
  Ca2+  Ca7  1  0.65292019  0.07898948  0.50149134  1
  Ca2+  Ca8  1  0.66917869  0.08779879  0.84037534  1
  Ca2+  Ca9  1  0.65673084  0.57585680  0.16996232  1
  Ca2+  Ca10  1  0.66415263  0.57110956  0.50498624  1
  Ca2+  Ca11  1  0.66441148  0.56995107  0.83793515  1
  Ca2+  Ca12  1  0.08356433  0.33621960  0.16595643  1
  Ca2+  Ca13  1  0.08030981  0.34580527  0.49946910  1
  Ca2+  Ca14  1  0.07651042  0.33152440  0.81829921  1
  Ca2+  Ca15  1  0.07938879  0.83537743  0.16159582  1
  Ca2+  Ca16  1  0.08472587  0.82566337  0.49648763  1
  Ca2+  Ca17  1  0.07574553  0.82627918  0.82829445  1
  Ca2+  Ca18  1  0.57538875  0.33660293  0.16147404  1
  Ca2+  Ca19  1  0.58564453  0.32837564  0.49144828  1
  Ca2+  Ca20  1  0.58704884  0.32950595  0.83207553  1
  Ca2+  Ca21  1  0.58467445  0.82261426  0.16804923  1
  Ca2+  Ca22  1  0.57661733  0.82517327  0.48580681  1
  Ca2+  Ca23  1  0.58538399  0.82208137  0.83145013  1
  Ca2+  Ca24  1  0.33935123  0.42263880  0.17312250  1
  Ca2+  Ca25  1  0.33355723  0.42528095  0.50397405  1
  Ca2+  Ca26  1  0.33427513  0.42505462  0.83834152  1
  Ca2+  Ca27  1  0.33146712  0.91610480  0.17689419  1
  Ca2+  Ca28  1  0.33241477  0.91320618  0.49971141  1
  Ca2+  Ca29  1  0.33050606  0.91973110  0.83592178  1
  Ca2+  Ca30  1  0.81696689  0.41511082  0.17078912  1
  Ca2+  Ca31  1  0.82231281  0.41762856  0.50854391  1
  Ca2+  Ca32  1  0.82461744  0.41263286  0.83239181  1
  Ca2+  Ca33  1  0.82849854  0.92106663  0.16935277  1
  Ca2+  Ca34  1  0.82456321  0.91853622  0.49965867  1
  Ca2+  Ca35  1  0.83583675  0.92452853  0.84220563  1
  Ca2+  Ca36  1  0.42833543  0.17880019  0.16230254  1
  Ca2+  Ca37  1  0.42632857  0.17733912  0.49111575  1
  Ca2+  Ca38  1  0.42749370  0.17527509  0.82909744  1
  Ca2+  Ca39  1  0.42434998  0.65992475  0.16676154  1
  Ca2+  Ca40  1  0.41764235  0.66517816  0.49076734  1
  Ca2+  Ca41  1  0.41642315  0.65891039  0.83609655  1
  Ca2+  Ca42  1  0.91626549  0.16442616  0.16210911  1
  Ca2+  Ca43  1  0.92257050  0.17419342  0.50361357  1
  Ca2+  Ca44  1  0.91884753  0.17212509  0.82516327  1
  Ca2+  Ca45  1  0.91854362  0.67533798  0.15948729  1
  Ca2+  Ca46  1  0.92397801  0.65154954  0.50134259  1
  Ca2+  Ca47  1  0.91651206  0.67004676  0.82372873  1
  Al0+  Al48  1  -0.00181862  -0.00045470  0.00006305  1
  Al0+  Al49  1  0.00079599  0.00056849  0.33842295  1
  Al0+  Al50  1  -0.00190557  -0.00052997  0.66250452  1
  Al0+  Al51  1  0.00030239  0.50016231  -0.00029628  1
  Al0+  Al52  1  0.00110220  0.50043141  0.32987980  1
  Al0+  Al53  1  -0.00038289  0.50205881  0.66533508  1
  Al0+  Al54  1  0.49932722  -0.00116910  -0.00199889  1
  Al0+  Al55  1  0.50084411  -0.00003462  0.32971368  1
  Al0+  Al56  1  0.49805720  -0.00075760  0.66586450  1
  Al0+  Al57  1  0.49864883  0.50087216  -0.00103032  1
  Al0+  Al58  1  0.50160937  0.49910262  0.33631697  1
  Al0+  Al59  1  0.49985161  0.49997268  0.67506017  1
  Al0+  Al60  1  0.25076769  0.24926227  -0.00258108  1
  Al0+  Al61  1  0.24808826  0.24899753  0.33229114  1
  Al0+  Al62  1  0.25166697  0.24709128  0.66610797  1
  Al0+  Al63  1  0.24985214  0.74901534  0.00406592  1
  Al0+  Al64  1  0.24893221  0.75027443  0.33690558  1
  Al0+  Al65  1  0.24714513  0.75193358  0.66873089  1
  Al0+  Al66  1  0.75176693  0.24922839  0.00656836  1
  Al0+  Al67  1  0.75540583  0.25045473  0.33489791  1
  Al0+  Al68  1  0.75134641  0.24669316  0.66095199  1
  Al0+  Al69  1  0.75027796  0.75101509  -0.01000426  1
  Al0+  Al70  1  0.75254120  0.75326969  0.33400394  1
  Al0+  Al71  1  0.74725114  0.75135179  0.66754323  1
  Al0+  Al72  1  0.68044303  0.42973051  0.34648254  1
  Al0+  Al73  1  0.81987716  0.06976212  0.01318822  1
  Al0+  Al74  1  0.57460719  0.17921429  0.31749951  1
  Al0+  Al75  1  0.68130949  0.43064835  0.01477291  1
  Al0+  Al76  1  0.57074299  0.17887493  0.65247473  1
  Al0+  Al77  1  0.17862176  0.92886704  0.34796399  1
  Al0+  Al78  1  0.42812357  0.32169544  0.31970190  1
  Al0+  Al79  1  0.67922795  0.93083566  0.34598385  1
  Al0+  Al80  1  0.17941162  0.42698376  0.68179878  1
  Al0+  Al81  1  0.67986023  0.42556419  0.68254361  1
  Al0+  Al82  1  0.31892325  0.56994900  0.01683426  1
  Al0+  Al83  1  0.06983847  0.68056402  0.65225464  1
  Al0+  Al84  1  0.57328985  0.67833043  0.32060431  1
  Al0+  Al85  1  0.17688050  0.42709145  0.34770858  1
  Al0+  Al86  1  0.82033092  0.57282941  0.68097081  1
  Al0+  Al87  1  0.32056431  0.57346923  0.68445649  1
  Al0+  Al88  1  0.57325801  0.17878218  0.98538718  1
  Al0+  Al89  1  0.42850518  0.32208579  0.98261617  1
  Al0+  Al90  1  0.93013519  0.32206163  0.65088772  1
  Al0+  Al91  1  0.07398668  0.17742367  0.65090868  1
  Al0+  Al92  1  0.92997178  0.82090400  0.98616524  1
  Al0+  Al93  1  0.32248957  0.56918706  0.34866913  1
  Al0+  Al94  1  0.42674615  0.82046598  0.31909597  1
  Al0+  Al95  1  0.56968230  0.67969871  0.98466827  1
  Si0+  Si96  1  0.82066025  0.06719987  0.68100564  1
  Si0+  Si97  1  0.93132974  0.32229698  0.31566646  1
  Si0+  Si98  1  0.67644161  0.92534840  0.01535836  1
  Si0+  Si99  1  0.07290313  0.67825120  0.98399234  1
  Si0+  Si100  1  0.92509226  0.82255792  0.64707433  1
  Si0+  Si101  1  0.82392018  0.57480491  0.01540122  1
  Si0+  Si102  1  0.92968486  0.32133141  0.98709594  1
  Si0+  Si103  1  0.17980955  0.93126618  0.01354215  1
  Si0+  Si104  1  0.17692301  0.93071575  0.68345828  1
  Si0+  Si105  1  0.32232554  0.06931840  0.68225603  1
  Si0+  Si106  1  0.93076510  0.82406146  0.31827410  1
  Si0+  Si107  1  0.56969129  0.67843794  0.65241537  1
  Si0+  Si108  1  0.82403343  0.07269464  0.35348293  1
  Si0+  Si109  1  0.67537622  0.92962031  0.68266694  1
  Si0+  Si110  1  0.82335271  0.57448894  0.34635020  1
  Si0+  Si111  1  0.32210300  0.07149190  0.34968621  1
  Si0+  Si112  1  0.07036279  0.17861746  0.98756858  1
  Si0+  Si113  1  0.42897477  0.32338527  0.65064316  1
  Si0+  Si114  1  0.06975432  0.17659603  0.31712583  1
  Si0+  Si115  1  0.07009052  0.67932078  0.31724721  1
  Si0+  Si116  1  0.32239691  0.07214388  0.01504877  1
  Si0+  Si117  1  0.42466540  0.82261137  0.98266232  1
  Si0+  Si118  1  0.17592078  0.42510543  0.01603565  1
  Si0+  Si119  1  0.42861633  0.82101991  0.65344824  1
  O2-  O120  1  0.25234519  -0.00040457  0.05686770  1
  O2-  O121  1  0.25585163  0.00048091  0.39514784  1
  O2-  O122  1  0.24546699  0.00402479  0.72577436  1
  O2-  O123  1  0.24487009  0.49292622  0.06025164  1
  O2-  O124  1  0.25237089  0.49473674  0.39716858  1
  O2-  O125  1  0.25108135  0.49797803  0.73373262  1
  O2-  O126  1  0.74176402  -0.00198882  0.05844743  1
  O2-  O127  1  0.74860417  0.00995076  0.39545357  1
  O2-  O128  1  0.74819672  -0.00143750  0.72471397  1
  O2-  O129  1  0.75526579  0.50759800  0.06096759  1
  O2-  O130  1  0.75190291  0.50903931  0.39005804  1
  O2-  O131  1  0.75119468  0.49919575  0.73233856  1
  O2-  O132  1  0.00239751  0.25038820  0.27400281  1
  O2-  O133  1  0.00895429  0.25583604  0.60103747  1
  O2-  O134  1  0.00500045  0.25432453  0.94572693  1
  O2-  O135  1  0.00002702  0.75173921  0.27538057  1
  O2-  O136  1  -0.01002260  0.75015325  0.60370095  1
  O2-  O137  1  0.00033562  0.74268655  0.93932147  1
  O2-  O138  1  0.50376612  0.25293162  0.26927894  1
  O2-  O139  1  0.50115102  0.25811103  0.60682107  1
  O2-  O140  1  0.50213202  0.25050865  0.93400199  1
  O2-  O141  1  0.49871414  0.74829248  0.27000300  1
  O2-  O142  1  0.49514016  0.74632163  0.61169426  1
  O2-  O143  1  0.49499816  0.75593219  0.93840144  1
  O2-  O144  1  0.06917936  0.17573910  0.09277918  1
  O2-  O145  1  0.06643876  0.17147104  0.42142238  1
  O2-  O146  1  0.06725226  0.17281881  0.76507346  1
  O2-  O147  1  0.07245335  0.68173026  0.08979847  1
  O2-  O148  1  0.06772655  0.67920247  0.42213238  1
  O2-  O149  1  0.07138395  0.68713885  0.76553493  1
  O2-  O150  1  0.57159796  0.17895969  0.09832292  1
  O2-  O151  1  0.57027090  0.17977894  0.43138668  1
  O2-  O152  1  0.56915255  0.17531218  0.76538432  1
  O2-  O153  1  0.57064095  0.68126833  0.09740258  1
  O2-  O154  1  0.57425758  0.68070792  0.43459515  1
  O2-  O155  1  0.57120668  0.68181052  0.75754981  1
  O2-  O156  1  0.17218111  0.43244443  0.23391734  1
  O2-  O157  1  0.18286146  0.42992378  0.56859909  1
  O2-  O158  1  0.17303517  0.42473481  0.91087886  1
  O2-  O159  1  0.17436719  0.93323233  0.23432573  1
  O2-  O160  1  0.17831162  0.92957409  0.57866100  1
  O2-  O161  1  0.17925369  0.93310887  0.90820531  1
  O2-  O162  1  0.68183359  0.42934477  0.23325269  1
  O2-  O163  1  0.67910735  0.42698578  0.56895236  1
  O2-  O164  1  0.68498814  0.42790236  0.90202088  1
  O2-  O165  1  0.68507926  0.92765619  0.23317938  1
  O2-  O166  1  0.67481087  0.92991497  0.57761695  1
  O2-  O167  1  0.67858513  0.92510887  0.90929881  1
  O2-  O168  1  0.42709231  0.31992126  0.09599777  1
  O2-  O169  1  0.42771750  0.31951913  0.43346058  1
  O2-  O170  1  0.42783075  0.31993203  0.75617959  1
  O2-  O171  1  0.42171707  0.82394481  0.08752481  1
  O2-  O172  1  0.42828001  0.81989014  0.43337420  1
  O2-  O173  1  0.43123194  0.82538879  0.75864816  1
  O2-  O174  1  0.93117004  0.32019507  0.09241973  1
  O2-  O175  1  0.93126982  0.32320785  0.42024167  1
  O2-  O176  1  0.92802137  0.31591114  0.76515146  1
  O2-  O177  1  0.93340410  0.82239336  0.09958365  1
  O2-  O178  1  0.93172987  0.82594657  0.42309460  1
  O2-  O179  1  0.92860771  0.82632035  0.75278799  1
  O2-  O180  1  0.31733902  0.07059681  0.24372596  1
  O2-  O181  1  0.32538668  0.06381564  0.57768170  1
  O2-  O182  1  0.31980516  0.07089131  0.90965014  1
  O2-  O183  1  0.31989882  0.57009256  0.23493516  1
  O2-  O184  1  0.32098914  0.57641003  0.57146802  1
  O2-  O185  1  0.31438369  0.57263808  0.90405938  1
  O2-  O186  1  0.82904859  0.06910589  0.24783668  1
  O2-  O187  1  0.82323622  0.06388045  0.57623187  1
  O2-  O188  1  0.82399100  0.06808631  0.89998421  1
  O2-  O189  1  0.82651183  0.57314164  0.24053514  1
  O2-  O190  1  0.81528533  0.57350013  0.56707458  1
  O2-  O191  1  0.82562838  0.57261543  0.91028736  1
  O2-  O192  1  0.03724979  0.08610508  0.26828133  1
  O2-  O193  1  0.03757132  0.08138135  0.59644542  1
  O2-  O194  1  0.03855672  0.08876004  0.93875393  1
  O2-  O195  1  0.04094198  0.58944942  0.26662895  1
  O2-  O196  1  0.04367684  0.58398839  0.59675725  1
  O2-  O197  1  0.05216831  0.58275955  0.93989931  1
  O2-  O198  1  0.54635659  0.08090278  0.26505395  1
  O2-  O199  1  0.53335610  0.08302910  0.59960686  1
  O2-  O200  1  0.54578510  0.07863707  0.93379416  1
  O2-  O201  1  0.54554304  0.58007824  0.26846999  1
  O2-  O202  1  0.54468607  0.58469490  0.60849401  1
  O2-  O203  1  0.53657488  0.58491727  0.92989018  1
  O2-  O204  1  0.16233865  0.19887613  0.26885454  1
  O2-  O205  1  0.17639206  0.19191119  0.60175704  1
  O2-  O206  1  0.16366610  0.19922653  0.94018750  1
  O2-  O207  1  0.16143029  0.70849564  0.27079116  1
  O2-  O208  1  0.16408712  0.71926261  0.59823388  1
  O2-  O209  1  0.16417597  0.71034892  0.93754345  1
  O2-  O210  1  0.67712226  0.20162770  0.27074896  1
  O2-  O211  1  0.66882017  0.19999441  0.59831177  1
  O2-  O212  1  0.67371368  0.20658809  0.93569120  1
  O2-  O213  1  0.67158363  0.71018881  0.26776875  1
  O2-  O214  1  0.66003665  0.70992805  0.60470357  1
  O2-  O215  1  0.66511744  0.70987933  0.92738107  1
  O2-  O216  1  0.08177557  0.45049522  0.06255266  1
  O2-  O217  1  0.07967447  0.46194404  0.39971946  1
  O2-  O218  1  0.07980305  0.45544934  0.73204928  1
  O2-  O219  1  0.08916278  0.96187374  0.06155908  1
  O2-  O220  1  0.08432961  0.96310251  0.40449187  1
  O2-  O221  1  0.08370934  0.95715826  0.72924322  1
  O2-  O222  1  0.58405453  0.46249929  0.06533103  1
  O2-  O223  1  0.58468615  0.45622880  0.40255568  1
  O2-  O224  1  0.58252722  0.45431142  0.73700464  1
  O2-  O225  1  0.58051882  0.94472319  0.05880935  1
  O2-  O226  1  0.58110305  0.95698769  0.40004696  1
  O2-  O227  1  0.58449644  0.95833624  0.73111505  1
  O2-  O228  1  0.19937520  0.32995085  0.06091898  1
  O2-  O229  1  0.19345334  0.32438239  0.39561520  1
  O2-  O230  1  0.20198846  0.32491166  0.73149290  1
  O2-  O231  1  0.20425188  0.83901080  0.06113517  1
  O2-  O232  1  0.20514422  0.83253216  0.40345217  1
  O2-  O233  1  0.20758218  0.84156691  0.73393548  1
  O2-  O234  1  0.71529895  0.33600096  0.07035198  1
  O2-  O235  1  0.71706333  0.33458760  0.40004973  1
  O2-  O236  1  0.71161951  0.32618175  0.73234515  1
  O2-  O237  1  0.70840732  0.83321878  0.06028338  1
  O2-  O238  1  0.71538150  0.83662324  0.40312429  1
  O2-  O239  1  0.70170852  0.83753903  0.72991047  1
  O2-  O240  1  0.45657015  0.42000273  0.26777296  1
  O2-  O241  1  0.45130720  0.41930293  0.60867896  1
  O2-  O242  1  0.45587327  0.42023478  0.93078286  1
  O2-  O243  1  0.45398453  0.91881385  0.26582787  1
  O2-  O244  1  0.45965307  0.91045231  0.60362998  1
  O2-  O245  1  0.44722989  0.91680647  0.93558591  1
  O2-  O246  1  0.95920685  0.41299483  0.26553057  1
  O2-  O247  1  0.95095716  0.42224182  0.59896527  1
  O2-  O248  1  0.95186314  0.41476494  0.93987830  1
  O2-  O249  1  0.96193569  0.91504840  0.27072627  1
  O2-  O250  1  0.95543060  0.91368652  0.59926071  1
  O2-  O251  1  0.96606278  0.91567281  0.93043385  1
  O2-  O252  1  0.32916994  0.29218570  0.26657007  1
  O2-  O253  1  0.33705059  0.29322857  0.60450085  1
  O2-  O254  1  0.32999509  0.29096266  0.92969934  1
  O2-  O255  1  0.32595826  0.79703638  0.26799408  1
  O2-  O256  1  0.33418526  0.79942184  0.60920097  1
  O2-  O257  1  0.33127132  0.79484039  0.93585109  1
  O2-  O258  1  0.84097898  0.29203811  0.26701366  1
  O2-  O259  1  0.83598461  0.28470239  0.59476895  1
  O2-  O260  1  0.84021821  0.28789796  0.94014084  1
  O2-  O261  1  0.83937715  0.79820486  0.26970019  1
  O2-  O262  1  0.82890215  0.80235055  0.60407997  1
  O2-  O263  1  0.83404582  0.79705145  0.92841865  1
  O2-  O264  1  0.41411315  0.04471907  0.06211076  1
  O2-  O265  1  0.41629271  0.04782059  0.39431265  1
  O2-  O266  1  0.41016588  0.03349487  0.73331244  1
  O2-  O267  1  0.41639935  0.54061900  0.06817128  1
  O2-  O268  1  0.42074665  0.54420387  0.40264727  1
  O2-  O269  1  0.41896962  0.54706163  0.73829790  1
  O2-  O270  1  0.91530294  0.03481918  0.06917177  1
  O2-  O271  1  0.91357031  0.03847899  0.40228943  1
  O2-  O272  1  0.91175912  0.03693837  0.72968775  1
  O2-  O273  1  0.91839322  0.55076395  0.06199929  1
  O2-  O274  1  0.91538373  0.54309027  0.39218462  1
  O2-  O275  1  0.92104854  0.55165629  0.73150247  1
  O2-  O276  1  0.29210985  0.16269658  0.06307858  1
  O2-  O277  1  0.29243640  0.16321824  0.39649227  1
  O2-  O278  1  0.30036114  0.16185352  0.73038248  1
  O2-  O279  1  0.28746773  0.66681716  0.07118306  1
  O2-  O280  1  0.29114918  0.66724876  0.40028731  1
  O2-  O281  1  0.28825140  0.67192938  0.73710952  1
  O2-  O282  1  0.79498898  0.16535064  0.07140165  1
  O2-  O283  1  0.80773240  0.16852565  0.39721908  1
  O2-  O284  1  0.79520479  0.15975173  0.72675681  1
  O2-  O285  1  0.79964514  0.67058442  0.05755308  1
  O2-  O286  1  0.80619814  0.66969143  0.39189344  1
  O2-  O287  1  0.79273689  0.67278212  0.73308723  1
