# generated using pymatgen
data_Ca2Al2SiO7
_symmetry_space_group_name_H-M   'P 1'
_cell_length_a   15.46004434
_cell_length_b   15.46032797
_cell_length_c   15.28567171
_cell_angle_alpha   89.98750551
_cell_angle_beta   90.00737586
_cell_angle_gamma   90.01342881
_symmetry_Int_Tables_number   1
_chemical_formula_structural   Ca2Al2SiO7
_chemical_formula_sum   'Ca48 Al48 Si24 O168'
_cell_volume   3653.54061836
_cell_formula_units_Z   24
loop_
 _symmetry_equiv_pos_site_id
 _symmetry_equiv_pos_as_xyz
  1  'x, y, z'
loop_
 _atom_type_symbol
 _atom_type_oxidation_number
  Ca2+  2.0
  Al0+  0.0
  Si0+  0.0
  O2-  -2.0
loop_
 _atom_site_type_symbol
 _atom_site_label
 _atom_site_symmetry_multiplicity
 _atom_site_fract_x
 _atom_site_fract_y
 _atom_site_fract_z
 _atom_site_occupancy
  Ca2+  Ca0  1  0.17289209  0.08085133  0.17206835  1
  Ca2+  Ca1  1  0.16533682  0.08423557  0.50398032  1
  Ca2+  Ca2  1  0.16023801  0.07236656  0.83667306  1
  Ca2+  Ca3  1  0.16148300  0.57132718  0.16805577  1
  Ca2+  Ca4  1  0.17039142  0.57241449  0.51247514  1
  Ca2+  Ca5  1  0.16667548  0.57890901  0.84073056  1
  Ca2+  Ca6  1  0.67493817  0.08037629  0.17406308  1
  Ca2+  Ca7  1  0.67228208  0.08872427  0.50508834  1
  Ca2+  Ca8  1  0.66645987  0.08436347  0.83484633  1
  Ca2+  Ca9  1  0.67474990  0.59389680  0.17096205  1
  Ca2+  Ca10  1  0.67394385  0.58015089  0.50636639  1
  Ca2+  Ca11  1  0.67772595  0.58201038  0.83543562  1
  Ca2+  Ca12  1  0.09395058  0.33005854  0.16646873  1
  Ca2+  Ca13  1  0.08854108  0.32937671  0.49711585  1
  Ca2+  Ca14  1  0.08347869  0.33249222  0.82456270  1
  Ca2+  Ca15  1  0.08285477  0.82661661  0.15835399  1
  Ca2+  Ca16  1  0.08421841  0.82771817  0.50534421  1
  Ca2+  Ca17  1  0.08605708  0.82532714  0.82471919  1
  Ca2+  Ca18  1  0.57206773  0.33612545  0.16454693  1
  Ca2+  Ca19  1  0.57793085  0.33547972  0.49836276  1
  Ca2+  Ca20  1  0.58298549  0.33015312  0.82292309  1
  Ca2+  Ca21  1  0.58208524  0.82272436  0.16264041  1
  Ca2+  Ca22  1  0.58016533  0.82485326  0.49370464  1
  Ca2+  Ca23  1  0.57905269  0.82617833  0.83127745  1
  Ca2+  Ca24  1  0.32450017  0.41765376  0.16945377  1
  Ca2+  Ca25  1  0.32559430  0.41635097  0.50380801  1
  Ca2+  Ca26  1  0.32085891  0.42551319  0.83477156  1
  Ca2+  Ca27  1  0.32941253  0.92539174  0.16675257  1
  Ca2+  Ca28  1  0.32721018  0.92348301  0.50624334  1
  Ca2+  Ca29  1  0.31876857  0.92167284  0.83857345  1
  Ca2+  Ca30  1  0.83218262  0.43062094  0.17136528  1
  Ca2+  Ca31  1  0.83083404  0.42591672  0.51027078  1
  Ca2+  Ca32  1  0.83909067  0.42639939  0.83168714  1
  Ca2+  Ca33  1  0.83278048  0.92155059  0.17409774  1
  Ca2+  Ca34  1  0.83897062  0.92132789  0.50301510  1
  Ca2+  Ca35  1  0.83735916  0.91410645  0.83182475  1
  Ca2+  Ca36  1  0.40355062  0.17060535  0.16618482  1
  Ca2+  Ca37  1  0.41893688  0.17188359  0.49188328  1
  Ca2+  Ca38  1  0.42064320  0.16424419  0.82821617  1
  Ca2+  Ca39  1  0.42903801  0.65821731  0.15821636  1
  Ca2+  Ca40  1  0.42104425  0.66115278  0.49476119  1
  Ca2+  Ca41  1  0.41668469  0.65504046  0.83057286  1
  Ca2+  Ca42  1  0.92195713  0.16613836  0.16691979  1
  Ca2+  Ca43  1  0.92762046  0.17309530  0.49760994  1
  Ca2+  Ca44  1  0.92426662  0.17787673  0.81919737  1
  Ca2+  Ca45  1  0.91859428  0.66293886  0.15954573  1
  Ca2+  Ca46  1  0.91609409  0.66447507  0.50154860  1
  Ca2+  Ca47  1  0.92721389  0.66554006  0.82638653  1
  Al0+  Al48  1  -0.00108895  0.00052624  0.00395083  1
  Al0+  Al49  1  -0.00064315  -0.00015208  0.33256879  1
  Al0+  Al50  1  -0.00024740  0.00004374  0.66397130  1
  Al0+  Al51  1  -0.00232488  0.49993139  0.00501546  1
  Al0+  Al52  1  -0.00117523  0.49918324  0.34187725  1
  Al0+  Al53  1  0.00009968  0.50052548  0.66604611  1
  Al0+  Al54  1  0.50122056  -0.00059482  0.00415976  1
  Al0+  Al55  1  0.49957186  -0.00134303  0.33551055  1
  Al0+  Al56  1  0.50208934  -0.00102614  0.66190061  1
  Al0+  Al57  1  0.50013087  0.49683019  -0.00499061  1
  Al0+  Al58  1  0.50045579  0.49922562  0.32246254  1
  Al0+  Al59  1  0.50164634  0.49822389  0.67208101  1
  Al0+  Al60  1  0.24970698  0.24993141  0.00126156  1
  Al0+  Al61  1  0.25018167  0.24853570  0.33319854  1
  Al0+  Al62  1  0.25357610  0.25110796  0.66761251  1
  Al0+  Al63  1  0.25188140  0.75066050  0.00522516  1
  Al0+  Al64  1  0.24946093  0.75042597  0.33066204  1
  Al0+  Al65  1  0.25183349  0.75348207  0.66831430  1
  Al0+  Al66  1  0.74928023  0.25119964  0.00104943  1
  Al0+  Al67  1  0.75076596  0.25052671  0.33585673  1
  Al0+  Al68  1  0.75013436  0.24946910  0.66201755  1
  Al0+  Al69  1  0.74813461  0.75082476  -0.00209088  1
  Al0+  Al70  1  0.75036220  0.75118254  0.33366374  1
  Al0+  Al71  1  0.74931031  0.75169788  0.66667294  1
  Al0+  Al72  1  0.07079763  0.67909340  0.98898472  1
  Al0+  Al73  1  0.56998821  0.68063836  0.32001850  1
  Al0+  Al74  1  0.17586688  0.92752787  0.01676497  1
  Al0+  Al75  1  0.31982568  0.06953227  0.34892477  1
  Al0+  Al76  1  0.92932565  0.32354092  0.65120019  1
  Al0+  Al77  1  0.57061565  0.67817619  0.98242652  1
  Al0+  Al78  1  0.17816666  0.42775276  0.68151459  1
  Al0+  Al79  1  0.17816645  0.93223172  0.67916509  1
  Al0+  Al80  1  0.42942644  0.31856766  0.31831899  1
  Al0+  Al81  1  0.18096472  0.42959525  0.34869726  1
  Al0+  Al82  1  0.32375326  0.57119850  0.01617487  1
  Al0+  Al83  1  0.06947697  0.17976316  0.31758655  1
  Al0+  Al84  1  0.81956034  0.57217377  0.34858959  1
  Al0+  Al85  1  0.07406305  0.67871286  0.65221084  1
  Al0+  Al86  1  0.57091399  0.17727828  0.65259507  1
  Al0+  Al87  1  0.17725973  0.43020779  0.01598315  1
  Al0+  Al88  1  0.92774966  0.82033301  0.65104959  1
  Al0+  Al89  1  0.32162492  0.07005070  0.01402895  1
  Al0+  Al90  1  0.07372320  0.17955868  0.65273614  1
  Al0+  Al91  1  0.67985497  0.42697609  0.68123076  1
  Al0+  Al92  1  0.81791982  0.57098054  0.01372027  1
  Al0+  Al93  1  0.82107929  0.57363031  0.68284461  1
  Al0+  Al94  1  0.82168733  0.07202518  0.34856379  1
  Al0+  Al95  1  0.32145402  0.57288756  0.67931207  1
  Si0+  Si96  1  0.42746355  0.31880875  0.98185140  1
  Si0+  Si97  1  0.57244832  0.17869850  0.98662914  1
  Si0+  Si98  1  0.92694465  0.31980586  0.98672131  1
  Si0+  Si99  1  0.42600062  0.82374043  0.31491812  1
  Si0+  Si100  1  0.92742390  0.82426490  0.98474295  1
  Si0+  Si101  1  0.42949028  0.82229916  0.65136250  1
  Si0+  Si102  1  0.92690693  0.32371864  0.31538633  1
  Si0+  Si103  1  0.17669904  0.92574644  0.35147325  1
  Si0+  Si104  1  0.57372662  0.17611815  0.31557667  1
  Si0+  Si105  1  0.32385133  0.57253586  0.34651092  1
  Si0+  Si106  1  0.32520802  0.07162032  0.68139110  1
  Si0+  Si107  1  0.07101623  0.67659825  0.31922568  1
  Si0+  Si108  1  0.42972213  0.82409985  0.98302999  1
  Si0+  Si109  1  0.82009363  0.06982088  0.68127832  1
  Si0+  Si110  1  0.07030402  0.17891064  0.98581611  1
  Si0+  Si111  1  0.56962375  0.67864286  0.65253581  1
  Si0+  Si112  1  0.67544749  0.42859332  0.34791268  1
  Si0+  Si113  1  0.93019458  0.81978028  0.31780664  1
  Si0+  Si114  1  0.67695406  0.92905700  0.68218025  1
  Si0+  Si115  1  0.67927610  0.92876384  0.35084837  1
  Si0+  Si116  1  0.82014848  0.07342189  0.01373128  1
  Si0+  Si117  1  0.67791575  0.42543949  0.01753480  1
  Si0+  Si118  1  0.67961151  0.92972829  0.01497303  1
  Si0+  Si119  1  0.43053374  0.32247473  0.65009845  1
  O2-  O120  1  0.24765763  0.00065085  0.06496177  1
  O2-  O121  1  0.24677677  -0.00655785  0.39488394  1
  O2-  O122  1  0.25051508  0.00993366  0.72532168  1
  O2-  O123  1  0.24813407  0.50355651  0.06666256  1
  O2-  O124  1  0.25378293  0.50744534  0.39254911  1
  O2-  O125  1  0.24436052  0.50646076  0.72940821  1
  O2-  O126  1  0.75209550  -0.00035313  0.05619994  1
  O2-  O127  1  0.74299614  0.00146868  0.39549717  1
  O2-  O128  1  0.74875567  -0.00074421  0.72469943  1
  O2-  O129  1  0.74085275  0.49906545  0.06195595  1
  O2-  O130  1  0.74516744  0.49578587  0.39176038  1
  O2-  O131  1  0.75232341  0.49772257  0.73199330  1
  O2-  O132  1  -0.00475440  0.25517248  0.26947806  1
  O2-  O133  1  0.00640508  0.25593109  0.60241615  1
  O2-  O134  1  -0.00065729  0.25000100  0.94490813  1
  O2-  O135  1  0.00043105  0.74833403  0.27628455  1
  O2-  O136  1  -0.00224406  0.74663500  0.60089413  1
  O2-  O137  1  -0.00099809  0.75795096  0.94324962  1
  O2-  O138  1  0.50448784  0.24304527  0.26998147  1
  O2-  O139  1  0.49687885  0.25141784  0.60564324  1
  O2-  O140  1  0.50009029  0.24694406  0.94306467  1
  O2-  O141  1  0.49214235  0.75192134  0.27187872  1
  O2-  O142  1  0.49546530  0.74602146  0.60972779  1
  O2-  O143  1  0.49087329  0.74888643  0.93704277  1
  O2-  O144  1  0.06860201  0.17787390  0.09104335  1
  O2-  O145  1  0.06896060  0.17952626  0.43008062  1
  O2-  O146  1  0.06835953  0.17649991  0.76703435  1
  O2-  O147  1  0.06425890  0.67848146  0.10278373  1
  O2-  O148  1  0.07268854  0.67862638  0.42375092  1
  O2-  O149  1  0.07478339  0.68202497  0.76601132  1
  O2-  O150  1  0.57691031  0.18024326  0.09140682  1
  O2-  O151  1  0.57297897  0.17691226  0.42089721  1
  O2-  O152  1  0.56818452  0.17410093  0.76647107  1
  O2-  O153  1  0.57376635  0.68377292  0.09566530  1
  O2-  O154  1  0.56846723  0.68193307  0.43348418  1
  O2-  O155  1  0.57009267  0.68211021  0.75753636  1
  O2-  O156  1  0.18118517  0.43072122  0.23559109  1
  O2-  O157  1  0.18442894  0.42532563  0.56789602  1
  O2-  O158  1  0.17695900  0.42778453  0.90302111  1
  O2-  O159  1  0.17638887  0.92516711  0.24594587  1
  O2-  O160  1  0.18178123  0.93142455  0.56602370  1
  O2-  O161  1  0.17376748  0.93110102  0.90317685  1
  O2-  O162  1  0.67615672  0.42837557  0.24198164  1
  O2-  O163  1  0.67605460  0.43143611  0.56736769  1
  O2-  O164  1  0.68207700  0.41957870  0.91271274  1
  O2-  O165  1  0.68239251  0.92809388  0.24471327  1
  O2-  O166  1  0.67464938  0.92909599  0.57735603  1
  O2-  O167  1  0.67771905  0.93164447  0.90985893  1
  O2-  O168  1  0.42817446  0.31803117  0.08718052  1
  O2-  O169  1  0.43245170  0.31894280  0.43126322  1
  O2-  O170  1  0.43190964  0.32080584  0.75578080  1
  O2-  O171  1  0.43708538  0.82876581  0.08840244  1
  O2-  O172  1  0.42723094  0.82445006  0.42074407  1
  O2-  O173  1  0.43367931  0.82828458  0.75602334  1
  O2-  O174  1  0.92229669  0.31615635  0.09173193  1
  O2-  O175  1  0.92678443  0.32236701  0.42030074  1
  O2-  O176  1  0.92684042  0.31801225  0.76568651  1
  O2-  O177  1  0.92491097  0.82553569  0.09078643  1
  O2-  O178  1  0.92893722  0.82071168  0.42226524  1
  O2-  O179  1  0.92850911  0.82179586  0.76482618  1
  O2-  O180  1  0.31782361  0.06750563  0.23588969  1
  O2-  O181  1  0.32848499  0.06733367  0.57591562  1
  O2-  O182  1  0.32461896  0.06805996  0.90045896  1
  O2-  O183  1  0.32366361  0.57112204  0.24123950  1
  O2-  O184  1  0.32508568  0.56963586  0.56512697  1
  O2-  O185  1  0.32316974  0.56618607  0.90300549  1
  O2-  O186  1  0.82000561  0.06800828  0.23440337  1
  O2-  O187  1  0.81847343  0.06806469  0.57638320  1
  O2-  O188  1  0.81845347  0.07502377  0.90881532  1
  O2-  O189  1  0.81841134  0.57325907  0.23497511  1
  O2-  O190  1  0.81417035  0.57567477  0.56925397  1
  O2-  O191  1  0.81905582  0.56990875  0.90154649  1
  O2-  O192  1  0.03638256  0.08292205  0.26361490  1
  O2-  O193  1  0.03948521  0.08371614  0.59858947  1
  O2-  O194  1  0.04032583  0.08681300  0.93978765  1
  O2-  O195  1  0.04015765  0.58477734  0.27381146  1
  O2-  O196  1  0.04982818  0.57948824  0.60044090  1
  O2-  O197  1  0.03560893  0.58290965  0.93658441  1
  O2-  O198  1  0.55104887  0.08031636  0.27199819  1
  O2-  O199  1  0.54267115  0.08090680  0.59600241  1
  O2-  O200  1  0.54709000  0.08528180  0.94075039  1
  O2-  O201  1  0.54496384  0.58462645  0.26208924  1
  O2-  O202  1  0.54476812  0.58548334  0.60691739  1
  O2-  O203  1  0.54622568  0.57896433  0.93079786  1
  O2-  O204  1  0.16589389  0.21068083  0.26378799  1
  O2-  O205  1  0.17523187  0.20132030  0.60313347  1
  O2-  O206  1  0.16237161  0.20492278  0.93905190  1
  O2-  O207  1  0.16323812  0.70288815  0.27085872  1
  O2-  O208  1  0.17119563  0.71303285  0.59843289  1
  O2-  O209  1  0.17054297  0.70511420  0.93922110  1
  O2-  O210  1  0.66825258  0.20156691  0.27024421  1
  O2-  O211  1  0.66685711  0.20595978  0.59747329  1
  O2-  O212  1  0.66362427  0.20755559  0.93732596  1
  O2-  O213  1  0.66518785  0.71800687  0.26581271  1
  O2-  O214  1  0.65910919  0.71188885  0.60445632  1
  O2-  O215  1  0.66487499  0.71654532  0.92810862  1
  O2-  O216  1  0.07911922  0.45613671  0.07131410  1
  O2-  O217  1  0.08389865  0.45677319  0.40224328  1
  O2-  O218  1  0.07737014  0.44824072  0.73122929  1
  O2-  O219  1  0.07722613  0.95603528  0.07088075  1
  O2-  O220  1  0.08343931  0.95313619  0.39569254  1
  O2-  O221  1  0.08124136  0.96110249  0.73370693  1
  O2-  O222  1  0.58184342  0.44609874  0.05909749  1
  O2-  O223  1  0.58193667  0.45660074  0.39239165  1
  O2-  O224  1  0.58328349  0.45567933  0.73735887  1
  O2-  O225  1  0.59050976  0.95910923  0.06629599  1
  O2-  O226  1  0.58363835  0.94751942  0.39503743  1
  O2-  O227  1  0.58654733  0.95929328  0.73151576  1
  O2-  O228  1  0.20931789  0.33191497  0.06749349  1
  O2-  O229  1  0.21496505  0.33375730  0.40043167  1
  O2-  O230  1  0.21190536  0.33077354  0.73625323  1
  O2-  O231  1  0.20467994  0.83056796  0.07162158  1
  O2-  O232  1  0.20240643  0.83143667  0.39672818  1
  O2-  O233  1  0.21323168  0.83817208  0.73476838  1
  O2-  O234  1  0.70735039  0.33407964  0.06763115  1
  O2-  O235  1  0.69743164  0.33386456  0.39291409  1
  O2-  O236  1  0.70446052  0.32626645  0.73196365  1
  O2-  O237  1  0.70744817  0.83868931  0.06331174  1
  O2-  O238  1  0.71003266  0.83784041  0.39852471  1
  O2-  O239  1  0.70403319  0.83820742  0.73142284  1
  O2-  O240  1  0.46040698  0.41319396  0.25951310  1
  O2-  O241  1  0.46038781  0.41468105  0.60324905  1
  O2-  O242  1  0.45626613  0.40896668  0.93291062  1
  O2-  O243  1  0.45639821  0.91590424  0.26783669  1
  O2-  O244  1  0.46433018  0.90985396  0.59925176  1
  O2-  O245  1  0.46516744  0.91448460  0.93492686  1
  O2-  O246  1  0.95288100  0.41842805  0.27134066  1
  O2-  O247  1  0.94856578  0.42374225  0.59981579  1
  O2-  O248  1  0.95398857  0.41217249  0.94166848  1
  O2-  O249  1  0.95747686  0.91118703  0.26863464  1
  O2-  O250  1  0.95756643  0.91805590  0.59748538  1
  O2-  O251  1  0.94899563  0.91984136  0.93977402  1
  O2-  O252  1  0.33445727  0.28503324  0.26325987  1
  O2-  O253  1  0.33714836  0.29850486  0.60357900  1
  O2-  O254  1  0.33652570  0.28937663  0.93399603  1
  O2-  O255  1  0.33111267  0.80291424  0.26933221  1
  O2-  O256  1  0.33721015  0.80102727  0.60300695  1
  O2-  O257  1  0.33259501  0.80761244  0.94218006  1
  O2-  O258  1  0.83262279  0.29772357  0.26934521  1
  O2-  O259  1  0.83316958  0.28954574  0.59682772  1
  O2-  O260  1  0.83628307  0.28959071  0.93762351  1
  O2-  O261  1  0.83790939  0.79356369  0.26956479  1
  O2-  O262  1  0.82716105  0.79715190  0.59829366  1
  O2-  O263  1  0.83399770  0.79888033  0.93849300  1
  O2-  O264  1  0.42000305  0.04189744  0.06900241  1
  O2-  O265  1  0.41852991  0.04163969  0.40110302  1
  O2-  O266  1  0.41676100  0.03828239  0.72788014  1
  O2-  O267  1  0.42236546  0.53685558  0.06669517  1
  O2-  O268  1  0.41828117  0.54492236  0.38979081  1
  O2-  O269  1  0.41760635  0.53962731  0.73404632  1
  O2-  O270  1  0.91145136  0.04784819  0.06293006  1
  O2-  O271  1  0.91626048  0.03579101  0.40168983  1
  O2-  O272  1  0.91068047  0.04090299  0.72980107  1
  O2-  O273  1  0.91157776  0.53697705  0.07103521  1
  O2-  O274  1  0.91499511  0.54274352  0.40387899  1
  O2-  O275  1  0.92080361  0.54828922  0.73336999  1
  O2-  O276  1  0.29277184  0.16824811  0.06602104  1
  O2-  O277  1  0.28908627  0.16539182  0.40238139  1
  O2-  O278  1  0.30932163  0.16764512  0.72474806  1
  O2-  O279  1  0.30814362  0.67314748  0.06578671  1
  O2-  O280  1  0.30294485  0.66866549  0.38997222  1
  O2-  O281  1  0.30416283  0.67444938  0.72974407  1
  O2-  O282  1  0.78864190  0.16282416  0.06381818  1
  O2-  O283  1  0.79428286  0.16952013  0.40184705  1
  O2-  O284  1  0.79087668  0.16085138  0.72870167  1
  O2-  O285  1  0.78815711  0.66935569  0.06611731  1
  O2-  O286  1  0.78760546  0.66883666  0.40098682  1
  O2-  O287  1  0.78809147  0.67121204  0.73549984  1
