# generated using pymatgen
data_In86Cu29Se144
_symmetry_space_group_name_H-M   'P 1'
_cell_length_a   17.57474157
_cell_length_b   17.57393727
_cell_length_c   23.44176717
_cell_angle_alpha   89.98024239
_cell_angle_beta   89.99389315
_cell_angle_gamma   90.00421156
_symmetry_Int_Tables_number   1
_chemical_formula_structural   In86Cu29Se144
_chemical_formula_sum   'In86 Cu29 Se144'
_cell_volume   7240.16290648
_cell_formula_units_Z   1
loop_
 _symmetry_equiv_pos_site_id
 _symmetry_equiv_pos_as_xyz
  1  'x, y, z'
loop_
 _atom_site_type_symbol
 _atom_site_label
 _atom_site_symmetry_multiplicity
 _atom_site_fract_x
 _atom_site_fract_y
 _atom_site_fract_z
 _atom_site_occupancy
  In  In0  1  -0.00540551  0.15845540  0.12384804  1
  In  In1  1  0.00466092  0.17121591  0.61292565  1
  In  In2  1  -0.00315624  0.52989712  0.13974599  1
  In  In3  1  0.00605132  0.50666540  0.61872557  1
  In  In4  1  0.00033412  0.82911978  0.12476016  1
  In  In5  1  -0.00017322  0.81135445  0.63052426  1
  In  In6  1  0.31403449  0.17573592  0.13709704  1
  In  In7  1  0.32925884  0.17036941  0.62636512  1
  In  In8  1  0.31679154  0.50879173  0.14569512  1
  In  In9  1  0.33132188  0.49945208  0.62091931  1
  In  In10  1  0.32066833  0.84700704  0.13186015  1
  In  In11  1  0.32303689  0.84376150  0.62783479  1
  In  In12  1  0.68183381  0.16990080  0.12620147  1
  In  In13  1  0.67340734  0.15193158  0.62743545  1
  In  In14  1  0.66846152  0.49071457  0.12602766  1
  In  In15  1  0.66871296  0.51000106  0.60823163  1
  In  In16  1  0.68700734  0.82292440  0.12134223  1
  In  In17  1  0.68603509  0.83817270  0.63359936  1
  In  In18  1  0.16327112  -0.00260849  0.37372777  1
  In  In19  1  0.16878482  -0.00419152  0.88021708  1
  In  In20  1  0.17542982  0.32711337  0.37732226  1
  In  In21  1  0.16549135  0.32442591  0.87539128  1
  In  In22  1  0.16482026  0.66592412  0.37763440  1
  In  In23  1  0.17269505  0.67396920  0.86754072  1
  In  In24  1  0.49381625  0.01331514  0.37513415  1
  In  In25  1  0.49644906  -0.00392237  0.86725290  1
  In  In26  1  0.50309604  0.34006695  0.37128598  1
  In  In27  1  0.49171338  0.34439096  0.87362811  1
  In  In28  1  0.48755353  0.66525028  0.38007484  1
  In  In29  1  0.49408203  0.67464769  0.87008360  1
  In  In30  1  0.85533930  0.00032751  0.36934523  1
  In  In31  1  0.83157640  0.00318510  0.87841803  1
  In  In32  1  0.82562038  0.33819209  0.37843842  1
  In  In33  1  0.83373033  0.33235657  0.88285491  1
  In  In34  1  0.83471952  0.65741760  0.37220305  1
  In  In35  1  0.84480488  0.65563513  0.87902256  1
  In  In36  1  0.01376356  0.15637703  0.37955431  1
  In  In37  1  0.00267597  0.16623363  0.88730257  1
  In  In38  1  -0.00776698  0.50783999  0.37967684  1
  In  In39  1  -0.01513819  0.50992798  0.87377823  1
  In  In40  1  0.00975080  0.84668492  0.36288992  1
  In  In41  1  0.00875332  0.82521664  0.87805109  1
  In  In42  1  0.31136664  0.15659811  0.35813494  1
  In  In43  1  0.32555501  0.15825224  0.86937600  1
  In  In44  1  0.32785918  0.50315485  0.37753238  1
  In  In45  1  0.33143134  0.50142577  0.86460704  1
  In  In46  1  0.31637308  0.81204031  0.36563958  1
  In  In47  1  0.32616043  0.83130609  0.86862722  1
  In  In48  1  0.65875193  0.18057603  0.37568672  1
  In  In49  1  0.68167680  0.16795449  0.87732255  1
  In  In50  1  0.68085774  0.49439817  0.38659038  1
  In  In51  1  0.68321226  0.50865203  0.87311048  1
  In  In52  1  0.67355223  0.82477299  0.37487930  1
  In  In53  1  0.66563507  0.83938842  0.87737018  1
  In  In54  1  0.16324043  -0.00079451  0.12477900  1
  In  In55  1  0.17303886  0.00880602  0.61787090  1
  In  In56  1  0.17388776  0.33354073  0.13258641  1
  In  In57  1  0.17582812  0.34315181  0.61239201  1
  In  In58  1  0.15039148  0.67889867  0.13994450  1
  In  In59  1  0.16741820  0.66767211  0.62296688  1
  In  In60  1  0.48751743  -0.00754508  0.12487492  1
  In  In61  1  0.50084476  -0.00169185  0.63217925  1
  In  In62  1  0.49122166  0.34576865  0.13458455  1
  In  In63  1  0.48627248  0.33649670  0.62385567  1
  In  In64  1  0.49862215  0.65654616  0.12608947  1
  In  In65  1  0.50036639  0.64799587  0.62018275  1
  In  In66  1  0.84296802  0.00061133  0.12238400  1
  In  In67  1  0.82790103  -0.00711865  0.62940335  1
  In  In68  1  0.83095822  0.32583774  0.12438701  1
  In  In69  1  0.84293711  0.33691665  0.61747528  1
  In  In70  1  0.84604315  0.67735568  0.10324343  1
  In  In71  1  0.83926458  0.66630650  0.62719186  1
  In  In72  1  0.00730451  0.34007802  0.74725017  1
  In  In73  1  0.00525204  0.32983857  0.25603953  1
  In  In74  1  0.50144300  0.16738192  0.00284378  1
  In  In75  1  0.49572209  0.83204941  0.49871032  1
  In  In76  1  0.66199993  0.00526144  0.24110605  1
  In  In77  1  0.16437297  0.49768700  0.01287653  1
  In  In78  1  0.66330538  0.66754731  0.74772172  1
  In  In79  1  0.50240202  0.83336171  -0.00432577  1
  In  In80  1  0.50308864  0.49938910  0.00281476  1
  In  In81  1  0.83828198  0.82864417  0.50530092  1
  In  In82  1  0.66874537  0.66407787  0.25007659  1
  In  In83  1  0.66377013  0.33151448  0.75454680  1
  In  In84  1  0.00155104  -0.00342315  0.75624381  1
  In  In85  1  0.49531850  0.17406053  0.50071215  1
  Cu  Cu86  1  -0.00296689  0.33369078  0.49149905  1
  Cu  Cu87  1  0.83125444  0.49938611  0.25405472  1
  Cu  Cu88  1  0.49264731  0.17425937  0.25225822  1
  Cu  Cu89  1  0.67384274  0.00071280  0.00140288  1
  Cu  Cu90  1  0.16577677  0.83311168  0.74966736  1
  Cu  Cu91  1  0.31853067  0.00430052  0.00170579  1
  Cu  Cu92  1  0.16740267  0.50494179  0.74083308  1
  Cu  Cu93  1  0.67094013  0.33082974  0.49977174  1
  Cu  Cu94  1  0.67745081  -0.00137950  0.50571574  1
  Cu  Cu95  1  0.00573327  0.66551290  0.00151938  1
  Cu  Cu96  1  0.49319421  0.49439574  0.74380526  1
  Cu  Cu97  1  0.00217016  0.66872895  0.49921656  1
  Cu  Cu98  1  0.00608251  -0.00114445  0.49636062  1
  Cu  Cu99  1  0.32810130  0.33193663  0.00653034  1
  Cu  Cu100  1  0.49235129  0.83055839  0.74882497  1
  Cu  Cu101  1  0.83016106  0.16839991  0.24928056  1
  Cu  Cu102  1  0.49738076  0.16291731  0.74585660  1
  Cu  Cu103  1  0.32624436  0.66288997  0.49899960  1
  Cu  Cu104  1  -0.00174076  -0.00629102  0.00124122  1
  Cu  Cu105  1  0.49689534  0.50272776  0.25499017  1
  Cu  Cu106  1  0.50021321  0.83696035  0.25209048  1
  Cu  Cu107  1  0.67441476  0.33184140  0.00322010  1
  Cu  Cu108  1  0.32895711  0.67518856  -0.00076920  1
  Cu  Cu109  1  0.83724990  0.16421428  0.75319406  1
  Cu  Cu110  1  0.32699805  -0.00484499  0.49510469  1
  Cu  Cu111  1  -0.00021555  0.33267694  0.00507859  1
  Cu  Cu112  1  0.33407184  0.33324702  0.49591910  1
  Cu  Cu113  1  0.16319580  0.83398176  0.25016345  1
  Cu  Cu114  1  0.17641031  0.16937584  0.74744863  1
  Se  Se115  1  0.07984795  0.08004627  0.05391402  1
  Se  Se116  1  0.08875672  0.08674726  0.54769065  1
  Se  Se117  1  0.07036656  0.41195062  0.07129409  1
  Se  Se118  1  0.07804927  0.41521231  0.55002008  1
  Se  Se119  1  0.08879962  0.74904236  0.05490630  1
  Se  Se120  1  0.08494885  0.75230796  0.55263560  1
  Se  Se121  1  0.40381050  0.08196247  0.05936343  1
  Se  Se122  1  0.41167187  0.07212113  0.55596192  1
  Se  Se123  1  0.40044343  0.42229008  0.06287006  1
  Se  Se124  1  0.41581323  0.41802806  0.54950960  1
  Se  Se125  1  0.41255454  0.74979325  0.06150622  1
  Se  Se126  1  0.40651218  0.74440237  0.56097972  1
  Se  Se127  1  0.75453242  0.08399810  0.05613748  1
  Se  Se128  1  0.76211589  0.08302714  0.55531393  1
  Se  Se129  1  0.75616859  0.41736939  0.05551930  1
  Se  Se130  1  0.75428651  0.41635282  0.55118363  1
  Se  Se131  1  0.74858430  0.74871158  0.04090398  1
  Se  Se132  1  0.73877204  0.74099551  0.55834698  1
  Se  Se133  1  0.24271741  0.24899030  0.05642416  1
  Se  Se134  1  0.25360794  0.24664655  0.55032927  1
  Se  Se135  1  0.25548897  0.59506681  0.06383666  1
  Se  Se136  1  0.24329778  0.57908534  0.55343710  1
  Se  Se137  1  0.24239938  0.91253850  0.05246452  1
  Se  Se138  1  0.24432135  0.91366560  0.55008843  1
  Se  Se139  1  0.58509594  0.26279396  0.06376732  1
  Se  Se140  1  0.59195052  0.25398260  0.56462282  1
  Se  Se141  1  0.59649551  0.59171586  0.05657503  1
  Se  Se142  1  0.57567685  0.58012819  0.54233427  1
  Se  Se143  1  0.59184367  0.92217926  0.06095192  1
  Se  Se144  1  0.59195674  0.91869717  0.56042255  1
  Se  Se145  1  0.91537629  0.24622603  0.05555949  1
  Se  Se146  1  0.91532556  0.24908379  0.54700958  1
  Se  Se147  1  0.92482541  0.57339236  0.04914641  1
  Se  Se148  1  0.91610784  0.58788849  0.55307976  1
  Se  Se149  1  0.91475698  0.90924607  0.05367210  1
  Se  Se150  1  0.92992589  0.92178282  0.56289978  1
  Se  Se151  1  0.08680310  0.24976539  0.44578948  1
  Se  Se152  1  0.08643986  0.25322290  0.95174556  1
  Se  Se153  1  0.08367056  0.58186691  0.44789268  1
  Se  Se154  1  0.08694248  0.58536222  0.94055706  1
  Se  Se155  1  0.08532349  0.91068797  0.44492684  1
  Se  Se156  1  0.08431101  0.91382708  0.94678883  1
  Se  Se157  1  0.40649642  0.24953712  0.43193378  1
  Se  Se158  1  0.40935189  0.25682771  0.94325733  1
  Se  Se159  1  0.41424616  0.57990413  0.45104112  1
  Se  Se160  1  0.40791110  0.58973178  0.94237213  1
  Se  Se161  1  0.40801641  0.91809482  0.43426519  1
  Se  Se162  1  0.40529326  0.92623369  0.94320538  1
  Se  Se163  1  0.75102931  0.24473421  0.44681315  1
  Se  Se164  1  0.75640697  0.24511454  0.95217921  1
  Se  Se165  1  0.75322534  0.59208907  0.44806366  1
  Se  Se166  1  0.75921775  0.57731037  0.94875485  1
  Se  Se167  1  0.75197308  0.92166399  0.43995539  1
  Se  Se168  1  0.75228702  0.91514543  0.94689518  1
  Se  Se169  1  0.24841078  0.08333659  0.44182860  1
  Se  Se170  1  0.24220176  0.09185144  0.94616053  1
  Se  Se171  1  0.24708223  0.41783179  0.44722883  1
  Se  Se172  1  0.25479376  0.41622756  0.94287825  1
  Se  Se173  1  0.24442543  0.75178109  0.45013764  1
  Se  Se174  1  0.24664937  0.75481372  0.94314498  1
  Se  Se175  1  0.59172799  0.07720406  0.44775652  1
  Se  Se176  1  0.58790204  0.07500518  0.94088902  1
  Se  Se177  1  0.58540015  0.41179697  0.44627342  1
  Se  Se178  1  0.59482849  0.40958610  0.94047862  1
  Se  Se179  1  0.59079004  0.74172940  0.44348266  1
  Se  Se180  1  0.59073647  0.73559751  0.94183658  1
  Se  Se181  1  0.91886925  0.08223626  0.44722289  1
  Se  Se182  1  0.91578932  0.08109704  0.94909208  1
  Se  Se183  1  0.91023250  0.42048423  0.44563379  1
  Se  Se184  1  0.92304582  0.41522441  0.94537072  1
  Se  Se185  1  0.92507398  0.74954065  0.43624786  1
  Se  Se186  1  0.92157875  0.74666302  0.94654811  1
  Se  Se187  1  0.24396265  0.25566405  0.29532606  1
  Se  Se188  1  0.25395218  0.25557271  0.80336219  1
  Se  Se189  1  0.26544165  0.60337779  0.31136514  1
  Se  Se190  1  0.25049722  0.58658906  0.79852590  1
  Se  Se191  1  0.24899408  0.91469298  0.30450676  1
  Se  Se192  1  0.24556760  0.92084686  0.80324316  1
  Se  Se193  1  0.58250946  0.25490835  0.30025786  1
  Se  Se194  1  0.57236913  0.23901323  0.81409340  1
  Se  Se195  1  0.58150815  0.57873393  0.31539163  1
  Se  Se196  1  0.57342823  0.57084311  0.80807046  1
  Se  Se197  1  0.58094529  0.91485964  0.31223286  1
  Se  Se198  1  0.57942230  0.90872174  0.80351799  1
  Se  Se199  1  0.91064222  0.24217324  0.31448801  1
  Se  Se200  1  0.91879672  0.24630977  0.80989973  1
  Se  Se201  1  0.91966981  0.58377770  0.29992454  1
  Se  Se202  1  0.91921504  0.58961597  0.79717449  1
  Se  Se203  1  0.91316721  0.91224468  0.29529774  1
  Se  Se204  1  0.91138896  0.90734586  0.81317454  1
  Se  Se205  1  0.07418016  0.07074845  0.30374247  1
  Se  Se206  1  0.09098154  0.09578944  0.80896036  1
  Se  Se207  1  0.08722806  0.42351666  0.31635454  1
  Se  Se208  1  0.09370501  0.42994896  0.81101709  1
  Se  Se209  1  0.08312527  0.74550100  0.30334632  1
  Se  Se210  1  0.08058262  0.74815511  0.79955500  1
  Se  Se211  1  0.41381483  0.08190698  0.29931467  1
  Se  Se212  1  0.41371936  0.08097239  0.80175893  1
  Se  Se213  1  0.41219150  0.41974000  0.30744684  1
  Se  Se214  1  0.40995119  0.41172414  0.79765158  1
  Se  Se215  1  0.42143267  0.74785303  0.30326094  1
  Se  Se216  1  0.40805127  0.74653131  0.79969216  1
  Se  Se217  1  0.74797415  0.08805514  0.31060855  1
  Se  Se218  1  0.75101853  0.08262477  0.80408572  1
  Se  Se219  1  0.74576598  0.41713028  0.30483264  1
  Se  Se220  1  0.76420586  0.41988434  0.80448337  1
  Se  Se221  1  0.76427339  0.75798843  0.30209134  1
  Se  Se222  1  0.75099070  0.74774657  0.81425661  1
  Se  Se223  1  0.25975667  0.06397160  0.19394863  1
  Se  Se224  1  0.25355132  0.07968147  0.69465236  1
  Se  Se225  1  0.25175475  0.40741419  0.20737033  1
  Se  Se226  1  0.24912661  0.41568460  0.69174928  1
  Se  Se227  1  0.25266655  0.75135510  0.19942665  1
  Se  Se228  1  0.24863359  0.75058679  0.69409123  1
  Se  Se229  1  0.56865479  0.09812571  0.18416259  1
  Se  Se230  1  0.58668339  0.08062974  0.69881458  1
  Se  Se231  1  0.58240825  0.42255596  0.20026099  1
  Se  Se232  1  0.58325265  0.42186063  0.68666824  1
  Se  Se233  1  0.57949622  0.75977591  0.18906639  1
  Se  Se234  1  0.57311188  0.75635868  0.68440472  1
  Se  Se235  1  0.91301851  0.08325400  0.19841831  1
  Se  Se236  1  0.92117166  0.09192425  0.69054019  1
  Se  Se237  1  0.91444972  0.42000547  0.19308786  1
  Se  Se238  1  0.91270907  0.42629270  0.69085330  1
  Se  Se239  1  0.92588684  0.72843000  0.18565016  1
  Se  Se240  1  0.88907543  0.77107465  0.69433585  1
  Se  Se241  1  0.08702157  0.23747477  0.19320031  1
  Se  Se242  1  0.09420287  0.24691649  0.68718791  1
  Se  Se243  1  0.11613433  0.55795043  0.19756677  1
  Se  Se244  1  0.07995530  0.58836411  0.69301955  1
  Se  Se245  1  0.08009285  0.91464783  0.19370419  1
  Se  Se246  1  0.08793897  0.91425237  0.68773452  1
  Se  Se247  1  0.40934418  0.25647915  0.19743489  1
  Se  Se248  1  0.41587532  0.24943895  0.69544020  1
  Se  Se249  1  0.41699398  0.58907742  0.20170866  1
  Se  Se250  1  0.41218637  0.58260364  0.69350223  1
  Se  Se251  1  0.41322245  0.91912238  0.20169586  1
  Se  Se252  1  0.41212925  0.91890126  0.69714818  1
  Se  Se253  1  0.74718555  0.25645953  0.20120642  1
  Se  Se254  1  0.75963218  0.24718349  0.69206186  1
  Se  Se255  1  0.75935274  0.58031024  0.18713297  1
  Se  Se256  1  0.75069251  0.57284852  0.69055600  1
  Se  Se257  1  0.75826811  0.91066622  0.19395592  1
  Se  Se258  1  0.74963361  0.92550414  0.70646785  1
