# generated using pymatgen
data_In86Cu29Se144
_symmetry_space_group_name_H-M   'P 1'
_cell_length_a   17.57377256
_cell_length_b   17.57309142
_cell_length_c   23.43287676
_cell_angle_alpha   90.02547373
_cell_angle_beta   89.98549713
_cell_angle_gamma   89.98999491
_symmetry_Int_Tables_number   1
_chemical_formula_structural   In86Cu29Se144
_chemical_formula_sum   'In86 Cu29 Se144'
_cell_volume   7236.66910191
_cell_formula_units_Z   1
loop_
 _symmetry_equiv_pos_site_id
 _symmetry_equiv_pos_as_xyz
  1  'x, y, z'
loop_
 _atom_site_type_symbol
 _atom_site_label
 _atom_site_symmetry_multiplicity
 _atom_site_fract_x
 _atom_site_fract_y
 _atom_site_fract_z
 _atom_site_occupancy
  In  In0  1  -0.01113525  0.16701088  0.14300264  1
  In  In1  1  0.01152330  0.18072861  0.61858970  1
  In  In2  1  0.00182037  0.50119498  0.12619557  1
  In  In3  1  0.00659251  0.48618673  0.62992784  1
  In  In4  1  -0.01092621  0.83474016  0.13279822  1
  In  In5  1  -0.01545205  0.83691362  0.62335571  1
  In  In6  1  0.35229849  0.17016687  0.12067403  1
  In  In7  1  0.32159082  0.16352810  0.63073392  1
  In  In8  1  0.32773404  0.50264592  0.12365786  1
  In  In9  1  0.33350234  0.49932202  0.61554927  1
  In  In10  1  0.32269699  0.83190966  0.12932138  1
  In  In11  1  0.34832395  0.83181602  0.62430480  1
  In  In12  1  0.66091721  0.18797649  0.11871231  1
  In  In13  1  0.67318636  0.15812541  0.63385348  1
  In  In14  1  0.68365927  0.51160307  0.10008742  1
  In  In15  1  0.65390558  0.50134366  0.62830614  1
  In  In16  1  0.66721552  0.80907111  0.11926056  1
  In  In17  1  0.66963880  0.83400208  0.62212227  1
  In  In18  1  0.16841855  0.01738075  0.38134229  1
  In  In19  1  0.17313503  -0.00146025  0.86596102  1
  In  In20  1  0.16898534  0.33308717  0.37317639  1
  In  In21  1  0.17223992  0.34783754  0.87417963  1
  In  In22  1  0.15807683  0.65387851  0.36953553  1
  In  In23  1  0.16057409  0.66706307  0.87699119  1
  In  In24  1  0.48553497  -0.00472049  0.38072941  1
  In  In25  1  0.52279373  0.01458560  0.84923785  1
  In  In26  1  0.50360044  0.34868597  0.37400054  1
  In  In27  1  0.51519354  0.32591651  0.89443795  1
  In  In28  1  0.49900617  0.66564759  0.37070417  1
  In  In29  1  0.50031753  0.65352170  0.88396174  1
  In  In30  1  0.83711716  -0.00166662  0.37907175  1
  In  In31  1  0.82062038  0.00707333  0.87444779  1
  In  In32  1  0.83939360  0.31892683  0.37307115  1
  In  In33  1  0.84259538  0.34189875  0.86773416  1
  In  In34  1  0.83898626  0.67477393  0.36701036  1
  In  In35  1  0.84179557  0.65576321  0.88945464  1
  In  In36  1  0.00142167  0.17045015  0.37170279  1
  In  In37  1  -0.01361498  0.17008397  0.87130539  1
  In  In38  1  0.00774098  0.50774624  0.36779318  1
  In  In39  1  -0.00065442  0.50180903  0.87796360  1
  In  In40  1  -0.01160657  0.82412263  0.37115082  1
  In  In41  1  0.00742756  0.81754755  0.87411809  1
  In  In42  1  0.32252855  0.16603386  0.37608037  1
  In  In43  1  0.35828890  0.17472828  0.86227614  1
  In  In44  1  0.33473985  0.49774788  0.37087015  1
  In  In45  1  0.34125590  0.50001518  0.89274441  1
  In  In46  1  0.34758207  0.83494329  0.37689375  1
  In  In47  1  0.33962919  0.83483233  0.87075358  1
  In  In48  1  0.67836200  0.17105112  0.38010454  1
  In  In49  1  0.66118998  0.16673850  0.86158606  1
  In  In50  1  0.65207055  0.50007055  0.37298888  1
  In  In51  1  0.68280732  0.48795835  0.89505135  1
  In  In52  1  0.67483650  0.82642803  0.38066203  1
  In  In53  1  0.66283312  0.84768642  0.87401172  1
  In  In54  1  0.16037555  -0.01052230  0.12997447  1
  In  In55  1  0.16646102  0.01975209  0.62627554  1
  In  In56  1  0.15256986  0.34398644  0.13265774  1
  In  In57  1  0.15731531  0.32023785  0.61624573  1
  In  In58  1  0.17837855  0.65108485  0.13678190  1
  In  In59  1  0.16528686  0.64936726  0.62066676  1
  In  In60  1  0.49580810  0.00955694  0.11968487  1
  In  In61  1  0.52034465  -0.01623151  0.64805181  1
  In  In62  1  0.50147611  0.33312818  0.11738644  1
  In  In63  1  0.49358587  0.34207378  0.62857579  1
  In  In64  1  0.50325595  0.65466646  0.12789037  1
  In  In65  1  0.49922752  0.66039393  0.61767547  1
  In  In66  1  0.84450880  -0.00013081  0.12529388  1
  In  In67  1  0.82280475  -0.00497415  0.61762137  1
  In  In68  1  0.83021582  0.34377277  0.12380150  1
  In  In69  1  0.84549893  0.32637789  0.63026113  1
  In  In70  1  0.83225567  0.66516775  0.12299897  1
  In  In71  1  0.83165514  0.68271102  0.62489916  1
  In  In72  1  0.82632557  0.17007509  0.00072225  1
  In  In73  1  0.67068922  -0.00284472  0.25734366  1
  In  In74  1  0.16738326  0.82597443  0.00369099  1
  In  In75  1  0.49681571  0.16394572  0.51215119  1
  In  In76  1  0.67180633  0.34321616  0.24029446  1
  In  In77  1  0.83499485  0.50281553  0.49929331  1
  In  In78  1  0.67104384  0.66793937  0.75430556  1
  In  In79  1  -0.00113714  0.00226453  0.74387457  1
  In  In80  1  0.33506525  0.66771592  0.75914898  1
  In  In81  1  0.32660218  -0.00204997  0.25316515  1
  In  In82  1  0.49977275  0.82934066  -0.00100486  1
  In  In83  1  0.32918645  0.33302365  0.74906432  1
  In  In84  1  0.16508336  0.16827235  -0.00113800  1
  In  In85  1  0.16366958  0.83306530  0.49149566  1
  Cu  Cu86  1  -0.00767697  0.00739089  0.50254040  1
  Cu  Cu87  1  0.16654744  0.82524031  0.74896135  1
  Cu  Cu88  1  0.66355811  0.00188490  -0.00745082  1
  Cu  Cu89  1  0.66317921  0.00070777  0.50662017  1
  Cu  Cu90  1  0.83146729  0.17105125  0.74620550  1
  Cu  Cu91  1  -0.00316067  0.66596587  0.49409380  1
  Cu  Cu92  1  0.00745080  0.33269683  0.49800682  1
  Cu  Cu93  1  0.16733880  0.16966685  0.25239393  1
  Cu  Cu94  1  0.33832292  0.65880402  0.49586385  1
  Cu  Cu95  1  0.83502372  0.83363467  0.75045239  1
  Cu  Cu96  1  0.50544987  0.17624041  0.24654930  1
  Cu  Cu97  1  0.33387367  -0.00329393  0.50571405  1
  Cu  Cu98  1  0.34186958  0.00569558  -0.00803389  1
  Cu  Cu99  1  -0.00318220  0.34354765  0.00000533  1
  Cu  Cu100  1  0.15888460  0.49831931  0.74999539  1
  Cu  Cu101  1  0.50018179  0.82288196  0.24980183  1
  Cu  Cu102  1  0.49517005  0.50107857  0.24707277  1
  Cu  Cu103  1  0.00037535  0.66354050  0.00440910  1
  Cu  Cu104  1  0.83372282  0.50254201  0.24352959  1
  Cu  Cu105  1  0.00279101  -0.00801529  0.00641544  1
  Cu  Cu106  1  0.16907533  0.49608731  0.25032821  1
  Cu  Cu107  1  0.83481538  0.50284050  0.75892180  1
  Cu  Cu108  1  0.67055488  0.33557195  0.49925468  1
  Cu  Cu109  1  0.82575999  0.82669511  0.25025769  1
  Cu  Cu110  1  0.15744432  0.82844702  0.25300837  1
  Cu  Cu111  1  0.33599848  0.33629211  0.49844015  1
  Cu  Cu112  1  0.66109277  0.66878343  0.49838483  1
  Cu  Cu113  1  0.32951658  0.33770904  0.00233502  1
  Cu  Cu114  1  0.50082350  0.49436987  0.75485477  1
  Se  Se115  1  0.07579532  0.08055905  0.06364619  1
  Se  Se116  1  0.08375558  0.08703063  0.55026024  1
  Se  Se117  1  0.08492266  0.42107113  0.05344337  1
  Se  Se118  1  0.08728472  0.41936901  0.55142609  1
  Se  Se119  1  0.07872420  0.74283784  0.06777690  1
  Se  Se120  1  0.07675050  0.74630606  0.55711482  1
  Se  Se121  1  0.42461608  0.09008033  0.04457729  1
  Se  Se122  1  0.41387204  0.06976978  0.57121712  1
  Se  Se123  1  0.41394121  0.42015419  0.05552060  1
  Se  Se124  1  0.42223695  0.41819456  0.55016990  1
  Se  Se125  1  0.40947383  0.74805308  0.06395436  1
  Se  Se126  1  0.41638116  0.74504086  0.55077246  1
  Se  Se127  1  0.73917622  0.07662414  0.06165569  1
  Se  Se128  1  0.74750674  0.08963831  0.55258324  1
  Se  Se129  1  0.73079994  0.38857956  0.05148863  1
  Se  Se130  1  0.74819759  0.41504308  0.56305832  1
  Se  Se131  1  0.76043864  0.75032304  0.04881521  1
  Se  Se132  1  0.74796226  0.75123331  0.54994738  1
  Se  Se133  1  0.25093271  0.25552055  0.06367410  1
  Se  Se134  1  0.25800144  0.24979276  0.55384946  1
  Se  Se135  1  0.24597954  0.58600210  0.05414860  1
  Se  Se136  1  0.24890256  0.57926853  0.54643809  1
  Se  Se137  1  0.25994920  0.93010511  0.05412522  1
  Se  Se138  1  0.24705744  0.91645776  0.56180306  1
  Se  Se139  1  0.57745319  0.25091945  0.04395783  1
  Se  Se140  1  0.59144983  0.25798687  0.56301632  1
  Se  Se141  1  0.58242717  0.59177262  0.04851724  1
  Se  Se142  1  0.58384332  0.57878990  0.55015812  1
  Se  Se143  1  0.59054520  0.92237629  0.06029546  1
  Se  Se144  1  0.57919807  0.91811286  0.55886369  1
  Se  Se145  1  0.92643382  0.25265458  0.05922226  1
  Se  Se146  1  0.91836309  0.25344986  0.55058912  1
  Se  Se147  1  0.91619989  0.57851847  0.05587295  1
  Se  Se148  1  0.92291159  0.58970940  0.56301950  1
  Se  Se149  1  0.91446642  0.91028606  0.05418304  1
  Se  Se150  1  0.91100512  0.91633826  0.54895996  1
  Se  Se151  1  0.08844393  0.24768560  0.44281997  1
  Se  Se152  1  0.07265516  0.25834868  0.93965306  1
  Se  Se153  1  0.08251355  0.57997506  0.44745403  1
  Se  Se154  1  0.08400875  0.58366152  0.94790737  1
  Se  Se155  1  0.06998373  0.92658675  0.43812159  1
  Se  Se156  1  0.08367498  0.92191371  0.94069055  1
  Se  Se157  1  0.41789278  0.25221102  0.44024004  1
  Se  Se158  1  0.40903827  0.25106965  0.94872860  1
  Se  Se159  1  0.42166502  0.57772538  0.44021367  1
  Se  Se160  1  0.40426190  0.60123102  0.95608710  1
  Se  Se161  1  0.41805755  0.91167381  0.45596391  1
  Se  Se162  1  0.42385663  0.92623489  0.93444500  1
  Se  Se163  1  0.75689437  0.25200776  0.45106516  1
  Se  Se164  1  0.74771541  0.25337268  0.93107755  1
  Se  Se165  1  0.74370342  0.58949805  0.43752554  1
  Se  Se166  1  0.75046270  0.58675858  0.95771254  1
  Se  Se167  1  0.74558636  0.92217719  0.44618721  1
  Se  Se168  1  0.75209977  0.91808049  0.94621237  1
  Se  Se169  1  0.25529541  0.08594142  0.45452972  1
  Se  Se170  1  0.25662154  0.08465884  0.93525296  1
  Se  Se171  1  0.25255952  0.41652493  0.44225993  1
  Se  Se172  1  0.24345939  0.42111123  0.95264582  1
  Se  Se173  1  0.25628204  0.74006638  0.43677625  1
  Se  Se174  1  0.26087066  0.74477652  0.94096969  1
  Se  Se175  1  0.58569265  0.07935326  0.44124072  1
  Se  Se176  1  0.58445777  0.08323315  0.93542986  1
  Se  Se177  1  0.58410941  0.41864222  0.45042279  1
  Se  Se178  1  0.55680796  0.44897030  0.94358825  1
  Se  Se179  1  0.57804386  0.75077023  0.44275175  1
  Se  Se180  1  0.59575863  0.74456648  0.94073122  1
  Se  Se181  1  0.91559749  0.09080339  0.44294867  1
  Se  Se182  1  0.92313599  0.07483883  0.94621031  1
  Se  Se183  1  0.92446894  0.41318997  0.43878785  1
  Se  Se184  1  0.91014973  0.42216099  0.94642553  1
  Se  Se185  1  0.90931385  0.75011991  0.44739689  1
  Se  Se186  1  0.92366142  0.75234814  0.94978737  1
  Se  Se187  1  0.25507756  0.25150539  0.30248415  1
  Se  Se188  1  0.24061708  0.24288720  0.81114789  1
  Se  Se189  1  0.25165648  0.58235230  0.30249790  1
  Se  Se190  1  0.24567882  0.57012819  0.81218551  1
  Se  Se191  1  0.23797688  0.90808346  0.31563400  1
  Se  Se192  1  0.25009470  0.90756715  0.80132543  1
  Se  Se193  1  0.58724275  0.25062128  0.30889072  1
  Se  Se194  1  0.56917620  0.25626176  0.80706772  1
  Se  Se195  1  0.58198802  0.58359504  0.29925239  1
  Se  Se196  1  0.58488810  0.57310037  0.81235675  1
  Se  Se197  1  0.57123654  0.90998670  0.31155184  1
  Se  Se198  1  0.59220053  0.91094923  0.79144575  1
  Se  Se199  1  0.92434659  0.25386306  0.29966514  1
  Se  Se200  1  0.91732147  0.25328702  0.79725229  1
  Se  Se201  1  0.91539371  0.58321050  0.30174196  1
  Se  Se202  1  0.91819901  0.58858035  0.80882905  1
  Se  Se203  1  0.90684793  0.91147686  0.30504694  1
  Se  Se204  1  0.91592292  0.91399149  0.81204239  1
  Se  Se205  1  0.08677492  0.08255462  0.30445835  1
  Se  Se206  1  0.08498581  0.09212361  0.80676112  1
  Se  Se207  1  0.08404197  0.41398976  0.30372338  1
  Se  Se208  1  0.07818837  0.41585104  0.80605226  1
  Se  Se209  1  0.07558342  0.74299811  0.30537227  1
  Se  Se210  1  0.08354979  0.74067496  0.79919249  1
  Se  Se211  1  0.42488395  0.09264940  0.30575141  1
  Se  Se212  1  0.39959594  0.06194922  0.80059592  1
  Se  Se213  1  0.41651699  0.41311796  0.29984668  1
  Se  Se214  1  0.41499318  0.42017809  0.81434259  1
  Se  Se215  1  0.41028199  0.74666825  0.30223418  1
  Se  Se216  1  0.43770693  0.75293865  0.80906227  1
  Se  Se217  1  0.76146735  0.09470144  0.30664954  1
  Se  Se218  1  0.75027573  0.08286082  0.79675877  1
  Se  Se219  1  0.75841274  0.42501926  0.31135836  1
  Se  Se220  1  0.74477306  0.42180126  0.80753564  1
  Se  Se221  1  0.73976757  0.74452584  0.30190757  1
  Se  Se222  1  0.76180507  0.75436897  0.81627692  1
  Se  Se223  1  0.24630525  0.09139949  0.18730663  1
  Se  Se224  1  0.24592400  0.08310156  0.70389413  1
  Se  Se225  1  0.25231931  0.41423317  0.19524006  1
  Se  Se226  1  0.24222115  0.42361210  0.68700096  1
  Se  Se227  1  0.24797774  0.75114076  0.20178356  1
  Se  Se228  1  0.24708806  0.74641244  0.68677999  1
  Se  Se229  1  0.58425634  0.09005191  0.19140286  1
  Se  Se230  1  0.57888092  0.09475091  0.70325180  1
  Se  Se231  1  0.58044567  0.43146655  0.18288187  1
  Se  Se232  1  0.58358875  0.41331665  0.69983462  1
  Se  Se233  1  0.58403336  0.74319316  0.19559275  1
  Se  Se234  1  0.57875806  0.74762765  0.68908683  1
  Se  Se235  1  0.91798765  0.06882654  0.20363088  1
  Se  Se236  1  0.91020029  0.09059300  0.68248604  1
  Se  Se237  1  0.91735818  0.41590508  0.19456919  1
  Se  Se238  1  0.91461388  0.41891756  0.70060806  1
  Se  Se239  1  0.91190459  0.74358916  0.19838271  1
  Se  Se240  1  0.91941965  0.75000368  0.69900514  1
  Se  Se241  1  0.08093168  0.25176474  0.20106342  1
  Se  Se242  1  0.08284524  0.25460930  0.69663407  1
  Se  Se243  1  0.08074825  0.58079670  0.20065562  1
  Se  Se244  1  0.07924908  0.58363663  0.69555108  1
  Se  Se245  1  0.07720035  0.91563126  0.20106982  1
  Se  Se246  1  0.09120666  0.90822204  0.68627618  1
  Se  Se247  1  0.42076191  0.25656934  0.19369939  1
  Se  Se248  1  0.42268806  0.24139548  0.69344824  1
  Se  Se249  1  0.40926498  0.58498439  0.19595428  1
  Se  Se250  1  0.41986320  0.57418152  0.69397848  1
  Se  Se251  1  0.42519980  0.91283579  0.19215742  1
  Se  Se252  1  0.40948736  0.91575592  0.70014047  1
  Se  Se253  1  0.76138048  0.24052708  0.19217390  1
  Se  Se254  1  0.74746511  0.25754215  0.69603865  1
  Se  Se255  1  0.74547214  0.57749446  0.18818038  1
  Se  Se256  1  0.75953701  0.57761327  0.69011022  1
  Se  Se257  1  0.74880751  0.90808870  0.18780891  1
  Se  Se258  1  0.75247378  0.91351303  0.69400173  1
