# generated using pymatgen
data_In86Cu29Se144
_symmetry_space_group_name_H-M   'P 1'
_cell_length_a   17.58680991
_cell_length_b   17.58870623
_cell_length_c   23.45307691
_cell_angle_alpha   90.00889841
_cell_angle_beta   89.99052891
_cell_angle_gamma   89.98916311
_symmetry_Int_Tables_number   1
_chemical_formula_structural   In86Cu29Se144
_chemical_formula_sum   'In86 Cu29 Se144'
_cell_volume   7254.72197356
_cell_formula_units_Z   1
loop_
 _symmetry_equiv_pos_site_id
 _symmetry_equiv_pos_as_xyz
  1  'x, y, z'
loop_
 _atom_site_type_symbol
 _atom_site_label
 _atom_site_symmetry_multiplicity
 _atom_site_fract_x
 _atom_site_fract_y
 _atom_site_fract_z
 _atom_site_occupancy
  In  In0  1  0.00460922  0.16740254  0.13298369  1
  In  In1  1  0.01536344  0.16632081  0.62405415  1
  In  In2  1  0.00019375  0.49174515  0.11547049  1
  In  In3  1  -0.01206815  0.50390538  0.62926898  1
  In  In4  1  0.01736976  0.83692647  0.12376663  1
  In  In5  1  -0.00336068  0.84259505  0.62013119  1
  In  In6  1  0.33019079  0.16658344  0.13032049  1
  In  In7  1  0.32967740  0.15998888  0.61113281  1
  In  In8  1  0.32280949  0.50712987  0.12959370  1
  In  In9  1  0.34239901  0.50489347  0.62415834  1
  In  In10  1  0.32617408  0.83658216  0.12930072  1
  In  In11  1  0.34000702  0.83341999  0.63165566  1
  In  In12  1  0.66991171  0.16599861  0.13665688  1
  In  In13  1  0.64715310  0.16938173  0.61905677  1
  In  In14  1  0.67225988  0.49611377  0.13402114  1
  In  In15  1  0.66584864  0.50233156  0.62053640  1
  In  In16  1  0.65920623  0.83704106  0.13581616  1
  In  In17  1  0.66945309  0.82206030  0.62416766  1
  In  In18  1  0.18598396  0.01783215  0.36094976  1
  In  In19  1  0.18476656  -0.01403144  0.89803965  1
  In  In20  1  0.15903652  0.32700015  0.36708308  1
  In  In21  1  0.14793945  0.34654798  0.89731568  1
  In  In22  1  0.17689476  0.65984930  0.37146406  1
  In  In23  1  0.18865932  0.65266277  0.89171550  1
  In  In24  1  0.49729611  0.00067248  0.37509797  1
  In  In25  1  0.49257316  -0.00728047  0.86364120  1
  In  In26  1  0.49858304  0.33370422  0.37280743  1
  In  In27  1  0.48806160  0.34018205  0.87514205  1
  In  In28  1  0.48667062  0.65002030  0.37230509  1
  In  In29  1  0.49761467  0.65918629  0.86029303  1
  In  In30  1  0.82422261  -0.00650542  0.36783327  1
  In  In31  1  0.82977561  0.00439202  0.87121398  1
  In  In32  1  0.84033146  0.34236873  0.37076039  1
  In  In33  1  0.85209868  0.33129258  0.87621067  1
  In  In34  1  0.82194751  0.67215846  0.38172527  1
  In  In35  1  0.81895148  0.65968921  0.87509728  1
  In  In36  1  0.01327346  0.17497858  0.36763151  1
  In  In37  1  0.01250623  0.18022629  0.87327975  1
  In  In38  1  0.00108065  0.48774282  0.37500044  1
  In  In39  1  0.00888253  0.48463726  0.88509534  1
  In  In40  1  -0.01279746  0.83560138  0.37553461  1
  In  In41  1  0.00702010  0.84541143  0.87654080  1
  In  In42  1  0.32958918  0.16447532  0.37767345  1
  In  In43  1  0.32362032  0.15631735  0.87471417  1
  In  In44  1  0.34648900  0.50807937  0.36892915  1
  In  In45  1  0.32276926  0.50551553  0.86993154  1
  In  In46  1  0.33558098  0.83352292  0.37170327  1
  In  In47  1  0.32778938  0.83076116  0.87251894  1
  In  In48  1  0.65461535  0.15772081  0.37021205  1
  In  In49  1  0.67309362  0.16308825  0.86913293  1
  In  In50  1  0.66475323  0.50058741  0.37445813  1
  In  In51  1  0.66336884  0.51333700  0.87562203  1
  In  In52  1  0.67074248  0.83821461  0.37139610  1
  In  In53  1  0.65797539  0.82421725  0.86334193  1
  In  In54  1  0.17050675  -0.00284935  0.12715972  1
  In  In55  1  0.16880943  0.01317980  0.62321812  1
  In  In56  1  0.16721111  0.33683622  0.12648132  1
  In  In57  1  0.17485889  0.32092228  0.62771930  1
  In  In58  1  0.18070028  0.66866244  0.11283592  1
  In  In59  1  0.17468141  0.66534283  0.63460234  1
  In  In60  1  0.49419855  0.00258212  0.13585000  1
  In  In61  1  0.49165544  0.01033661  0.62790934  1
  In  In62  1  0.50060461  0.33221181  0.13699458  1
  In  In63  1  0.49836909  0.33624120  0.61307340  1
  In  In64  1  0.49569010  0.67337031  0.13498484  1
  In  In65  1  0.49926859  0.66189695  0.62951922  1
  In  In66  1  0.82803831  0.00861381  0.13456362  1
  In  In67  1  0.83226523  -0.01684707  0.61703108  1
  In  In68  1  0.83599936  0.33843506  0.13328466  1
  In  In69  1  0.83376532  0.34647461  0.62272493  1
  In  In70  1  0.83345798  0.65449625  0.12570178  1
  In  In71  1  0.82052973  0.65525221  0.61541577  1
  In  In72  1  0.49882271  0.16051519  0.01436246  1
  In  In73  1  0.00278176  0.00611480  0.75247024  1
  In  In74  1  0.00213470  0.66677734  0.24363416  1
  In  In75  1  0.49051215  0.82767926  -0.00458174  1
  In  In76  1  0.83110370  0.16623754  0.48785931  1
  In  In77  1  0.00202738  0.66671173  0.75366113  1
  In  In78  1  0.83807733  0.82875696  -0.00090535  1
  In  In79  1  0.50015027  0.83377929  0.49603037  1
  In  In80  1  0.16661270  0.49391720  0.50496084  1
  In  In81  1  0.16522822  0.83521969  0.50007550  1
  In  In82  1  0.84184054  0.16860178  0.01015561  1
  In  In83  1  0.49537001  0.50173540  -0.00469574  1
  In  In84  1  0.33273976  0.33886176  0.75159072  1
  In  In85  1  0.66823738  0.33410896  0.74011048  1
  Cu  Cu86  1  0.00342490  0.00722097  0.00623046  1
  Cu  Cu87  1  -0.00611059  0.66431939  0.50078026  1
  Cu  Cu88  1  0.66583422  -0.00258337  0.49379593  1
  Cu  Cu89  1  0.67886494  0.33782019  0.00573596  1
  Cu  Cu90  1  0.33235913  0.32860712  0.00484979  1
  Cu  Cu91  1  0.82561918  0.82485661  0.74269415  1
  Cu  Cu92  1  0.83309187  0.16156317  0.75007343  1
  Cu  Cu93  1  0.50424763  0.84072190  0.74429722  1
  Cu  Cu94  1  0.50198946  0.82871826  0.25706395  1
  Cu  Cu95  1  0.65936890  0.34074525  0.49569560  1
  Cu  Cu96  1  0.16792480  0.83367776  0.24620182  1
  Cu  Cu97  1  0.17522837  0.83683467  0.75526478  1
  Cu  Cu98  1  0.66846242  0.65896070  0.00307109  1
  Cu  Cu99  1  0.17242951  0.49701060  0.24832625  1
  Cu  Cu100  1  -0.00173906  0.33076364  0.49490798  1
  Cu  Cu101  1  0.83295398  0.49565076  0.74872566  1
  Cu  Cu102  1  0.66600296  0.66417770  0.49960963  1
  Cu  Cu103  1  0.83129992  0.83748893  0.25065690  1
  Cu  Cu104  1  0.83645714  0.17228893  0.25578296  1
  Cu  Cu105  1  0.33107818  0.33328877  0.49501441  1
  Cu  Cu106  1  0.17065895  0.17022104  0.75056174  1
  Cu  Cu107  1  0.00303375  -0.00049846  0.49687748  1
  Cu  Cu108  1  0.65777751  -0.00522455  -0.00521100  1
  Cu  Cu109  1  0.83273417  0.50417178  0.25087055  1
  Cu  Cu110  1  0.49741689  0.16533895  0.25493427  1
  Cu  Cu111  1  0.49652612  0.16759882  0.74734445  1
  Cu  Cu112  1  0.00105781  0.66285146  0.00308190  1
  Cu  Cu113  1  0.17034371  0.16588866  0.24654366  1
  Cu  Cu114  1  0.50364117  0.49612067  0.25130231  1
  Se  Se115  1  0.08501556  0.08623140  0.06253324  1
  Se  Se116  1  0.08484727  0.08404146  0.54884565  1
  Se  Se117  1  0.10424972  0.42976200  0.05408934  1
  Se  Se118  1  0.07320374  0.40634302  0.56354665  1
  Se  Se119  1  0.08396471  0.74870508  0.05240583  1
  Se  Se120  1  0.07742866  0.73913027  0.56189036  1
  Se  Se121  1  0.40244633  0.06589151  0.06019272  1
  Se  Se122  1  0.43236815  0.09439718  0.55017237  1
  Se  Se123  1  0.41637182  0.40914548  0.06160334  1
  Se  Se124  1  0.41035613  0.41929116  0.54931237  1
  Se  Se125  1  0.40662511  0.73951196  0.05932180  1
  Se  Se126  1  0.41181883  0.74560484  0.55763984  1
  Se  Se127  1  0.73722673  0.07556830  0.05587177  1
  Se  Se128  1  0.74460986  0.08034106  0.55541396  1
  Se  Se129  1  0.75614900  0.42111974  0.06123765  1
  Se  Se130  1  0.74634042  0.41647927  0.55180537  1
  Se  Se131  1  0.74058743  0.74888259  0.06112852  1
  Se  Se132  1  0.75123664  0.75130988  0.54824105  1
  Se  Se133  1  0.25047909  0.24801173  0.05987924  1
  Se  Se134  1  0.24621947  0.25029641  0.54798311  1
  Se  Se135  1  0.25196040  0.57304406  0.04786506  1
  Se  Se136  1  0.25397379  0.59343929  0.55559452  1
  Se  Se137  1  0.24028587  0.90580634  0.05680517  1
  Se  Se138  1  0.25635987  0.92125717  0.56126929  1
  Se  Se139  1  0.59548840  0.25821669  0.06259776  1
  Se  Se140  1  0.57787969  0.25121047  0.54415516  1
  Se  Se141  1  0.58327851  0.58527460  0.06345632  1
  Se  Se142  1  0.58028715  0.58594241  0.55494402  1
  Se  Se143  1  0.58080439  0.91893452  0.05853489  1
  Se  Se144  1  0.58773051  0.92167402  0.55988703  1
  Se  Se145  1  0.93041132  0.26361670  0.06227521  1
  Se  Se146  1  0.91852627  0.24959435  0.55689073  1
  Se  Se147  1  0.91437984  0.58131553  0.05292350  1
  Se  Se148  1  0.91332681  0.57608809  0.55154301  1
  Se  Se149  1  0.91648157  0.92689728  0.06184607  1
  Se  Se150  1  0.91755426  0.91292353  0.54333402  1
  Se  Se151  1  0.08638898  0.25001406  0.44584571  1
  Se  Se152  1  0.08351297  0.24150371  0.95611715  1
  Se  Se153  1  0.07815811  0.58851409  0.44149465  1
  Se  Se154  1  0.08434423  0.58116484  0.94831347  1
  Se  Se155  1  0.08404090  0.92313741  0.43348662  1
  Se  Se156  1  0.08011242  0.91473184  0.95599250  1
  Se  Se157  1  0.41611410  0.25074747  0.44239332  1
  Se  Se158  1  0.41587940  0.25009956  0.94617188  1
  Se  Se159  1  0.41234788  0.57941620  0.45071143  1
  Se  Se160  1  0.40917956  0.59670844  0.93921595  1
  Se  Se161  1  0.40297775  0.92576242  0.44594373  1
  Se  Se162  1  0.40754007  0.92862061  0.94218535  1
  Se  Se163  1  0.73889105  0.25970552  0.43452552  1
  Se  Se164  1  0.74777781  0.25049845  0.94358000  1
  Se  Se165  1  0.74950364  0.57810521  0.44740651  1
  Se  Se166  1  0.75184971  0.57566183  0.95153694  1
  Se  Se167  1  0.75265651  0.91443989  0.44531298  1
  Se  Se168  1  0.74204683  0.91572081  0.93831375  1
  Se  Se169  1  0.24415725  0.08439393  0.44682756  1
  Se  Se170  1  0.24326048  0.09691635  0.95435476  1
  Se  Se171  1  0.25089674  0.41382654  0.43453449  1
  Se  Se172  1  0.26184314  0.41604332  0.94528617  1
  Se  Se173  1  0.25691861  0.74291496  0.44379922  1
  Se  Se174  1  0.24149819  0.76654494  0.94771933  1
  Se  Se175  1  0.57951086  0.08180354  0.44646637  1
  Se  Se176  1  0.58197275  0.08087087  0.93797744  1
  Se  Se177  1  0.57529642  0.42276973  0.44248909  1
  Se  Se178  1  0.59254027  0.40653448  0.94214067  1
  Se  Se179  1  0.58699128  0.74110627  0.43589098  1
  Se  Se180  1  0.58845331  0.73682161  0.94093634  1
  Se  Se181  1  0.92528065  0.07685710  0.43241087  1
  Se  Se182  1  0.92249511  0.07823362  0.94055552  1
  Se  Se183  1  0.91460457  0.41870759  0.44881252  1
  Se  Se184  1  0.91165636  0.41754468  0.95106427  1
  Se  Se185  1  0.91477952  0.75000129  0.44676426  1
  Se  Se186  1  0.92543218  0.73980578  0.93602606  1
  Se  Se187  1  0.25131803  0.24762173  0.30428609  1
  Se  Se188  1  0.24246067  0.25421077  0.81413484  1
  Se  Se189  1  0.25535861  0.58318048  0.29914774  1
  Se  Se190  1  0.24958651  0.59466624  0.80226277  1
  Se  Se191  1  0.25396043  0.91371884  0.30096851  1
  Se  Se192  1  0.24992096  0.92724570  0.80896254  1
  Se  Se193  1  0.58335082  0.25145984  0.30314312  1
  Se  Se194  1  0.57499381  0.24951527  0.80794143  1
  Se  Se195  1  0.58333038  0.58395120  0.30417555  1
  Se  Se196  1  0.59200937  0.58433503  0.79774698  1
  Se  Se197  1  0.58202369  0.91895874  0.30668057  1
  Se  Se198  1  0.58945211  0.92225486  0.79905869  1
  Se  Se199  1  0.92252905  0.25689237  0.30423277  1
  Se  Se200  1  0.91802687  0.24347873  0.80172073  1
  Se  Se201  1  0.91491342  0.58359198  0.31137069  1
  Se  Se202  1  0.91196760  0.57428534  0.81193733  1
  Se  Se203  1  0.91827002  0.91935536  0.30067245  1
  Se  Se204  1  0.90684854  0.90585785  0.80277878  1
  Se  Se205  1  0.08246130  0.08242432  0.29802674  1
  Se  Se206  1  0.09911189  0.08371003  0.81382385  1
  Se  Se207  1  0.08251500  0.41843818  0.29961246  1
  Se  Se208  1  0.08854649  0.41289898  0.81050722  1
  Se  Se209  1  0.08865750  0.75493363  0.30976176  1
  Se  Se210  1  0.09173756  0.75724067  0.81241302  1
  Se  Se211  1  0.41277993  0.08167403  0.30675055  1
  Se  Se212  1  0.41276079  0.08765129  0.80284637  1
  Se  Se213  1  0.41536850  0.41347066  0.30110144  1
  Se  Se214  1  0.42755299  0.43529489  0.80338895  1
  Se  Se215  1  0.41430450  0.74498640  0.30550364  1
  Se  Se216  1  0.42283924  0.76201709  0.80455171  1
  Se  Se217  1  0.74897751  0.08636855  0.30294156  1
  Se  Se218  1  0.74693561  0.07770071  0.79775782  1
  Se  Se219  1  0.75047136  0.41984281  0.30453694  1
  Se  Se220  1  0.75345109  0.41500226  0.81106695  1
  Se  Se221  1  0.75201802  0.75068085  0.30389011  1
  Se  Se222  1  0.74796277  0.74187126  0.80030423  1
  Se  Se223  1  0.25374014  0.07738337  0.19846834  1
  Se  Se224  1  0.25306380  0.09138989  0.69275061  1
  Se  Se225  1  0.25679757  0.41106041  0.19805373  1
  Se  Se226  1  0.24283012  0.42619798  0.68954094  1
  Se  Se227  1  0.24706509  0.74438383  0.19482533  1
  Se  Se228  1  0.25437876  0.75266252  0.69980089  1
  Se  Se229  1  0.58284227  0.08249867  0.20073354  1
  Se  Se230  1  0.58410353  0.08584147  0.69644823  1
  Se  Se231  1  0.58984644  0.41214237  0.20135422  1
  Se  Se232  1  0.57094285  0.42303131  0.68928274  1
  Se  Se233  1  0.58631547  0.74629483  0.20346936  1
  Se  Se234  1  0.58296526  0.74945070  0.69476047  1
  Se  Se235  1  0.91624561  0.08738512  0.19974419  1
  Se  Se236  1  0.91092736  0.08429106  0.68414804  1
  Se  Se237  1  0.92139712  0.42662314  0.19678601  1
  Se  Se238  1  0.91851706  0.41126082  0.69939470  1
  Se  Se239  1  0.91036768  0.76103055  0.18605817  1
  Se  Se240  1  0.91311891  0.74989355  0.68513518  1
  Se  Se241  1  0.08661521  0.25453940  0.19872633  1
  Se  Se242  1  0.08354829  0.25085683  0.69874719  1
  Se  Se243  1  0.09356334  0.57884170  0.18599395  1
  Se  Se244  1  0.08991944  0.57191076  0.69625527  1
  Se  Se245  1  0.08205106  0.92026349  0.19955803  1
  Se  Se246  1  0.09188447  0.91137940  0.69241343  1
  Se  Se247  1  0.41478454  0.24703554  0.19950217  1
  Se  Se248  1  0.41837056  0.24929933  0.68684327  1
  Se  Se249  1  0.41887444  0.57778328  0.19641800  1
  Se  Se250  1  0.40490326  0.59319435  0.69767642  1
  Se  Se251  1  0.41847732  0.90798438  0.19851726  1
  Se  Se252  1  0.41511869  0.92489265  0.69814448  1
  Se  Se253  1  0.75263544  0.25362126  0.19997337  1
  Se  Se254  1  0.75770887  0.23885955  0.68334012  1
  Se  Se255  1  0.74812630  0.58950493  0.20087130  1
  Se  Se256  1  0.75088333  0.57765008  0.69369423  1
  Se  Se257  1  0.74533212  0.92182594  0.19951940  1
  Se  Se258  1  0.74793150  0.91469524  0.69101993  1
