# generated using pymatgen
data_In86Cu29Se144
_symmetry_space_group_name_H-M   'P 1'
_cell_length_a   17.57599862
_cell_length_b   17.57571216
_cell_length_c   23.42612964
_cell_angle_alpha   90.00900327
_cell_angle_beta   90.01268176
_cell_angle_gamma   90.01241424
_symmetry_Int_Tables_number   1
_chemical_formula_structural   In86Cu29Se144
_chemical_formula_sum   'In86 Cu29 Se144'
_cell_volume   7236.58150067
_cell_formula_units_Z   1
loop_
 _symmetry_equiv_pos_site_id
 _symmetry_equiv_pos_as_xyz
  1  'x, y, z'
loop_
 _atom_site_type_symbol
 _atom_site_label
 _atom_site_symmetry_multiplicity
 _atom_site_fract_x
 _atom_site_fract_y
 _atom_site_fract_z
 _atom_site_occupancy
  In  In0  1  -0.01142448  0.15502356  0.11616001  1
  In  In1  1  -0.00564645  0.17818838  0.62642199  1
  In  In2  1  0.00642434  0.51373050  0.12465990  1
  In  In3  1  -0.00531655  0.51604446  0.62468848  1
  In  In4  1  -0.00371164  0.83190910  0.11993140  1
  In  In5  1  0.00104743  0.82222495  0.62261076  1
  In  In6  1  0.33954886  0.16734157  0.10773176  1
  In  In7  1  0.33419916  0.16861615  0.63114007  1
  In  In8  1  0.32750122  0.49062350  0.11693172  1
  In  In9  1  0.34523662  0.48204886  0.63333719  1
  In  In10  1  0.32327884  0.84678842  0.11675496  1
  In  In11  1  0.32808991  0.84229609  0.63043626  1
  In  In12  1  0.67287770  0.17901274  0.12030347  1
  In  In13  1  0.67051160  0.17024865  0.63432040  1
  In  In14  1  0.66318746  0.50157501  0.11504598  1
  In  In15  1  0.66465563  0.49833865  0.62479553  1
  In  In16  1  0.67587206  0.80929518  0.12094175  1
  In  In17  1  0.66420531  0.83827286  0.63853464  1
  In  In18  1  0.15365890  0.00522629  0.37106311  1
  In  In19  1  0.18724529  -0.01159486  0.90066694  1
  In  In20  1  0.17470517  0.32237837  0.36726312  1
  In  In21  1  0.18297239  0.32307361  0.88380654  1
  In  In22  1  0.16699744  0.68226681  0.37246181  1
  In  In23  1  0.16268970  0.67484153  0.88550321  1
  In  In24  1  0.49694634  0.00331254  0.37523686  1
  In  In25  1  0.50869922  0.00847931  0.87313311  1
  In  In26  1  0.51055816  0.33771080  0.36452359  1
  In  In27  1  0.50211448  0.33581258  0.86794975  1
  In  In28  1  0.49740328  0.64673596  0.37500087  1
  In  In29  1  0.51110331  0.64376110  0.87887510  1
  In  In30  1  0.84493345  -0.00578479  0.37378795  1
  In  In31  1  0.82566784  0.00992514  0.89322236  1
  In  In32  1  0.82469778  0.34115445  0.37738060  1
  In  In33  1  0.82385938  0.34087727  0.88466198  1
  In  In34  1  0.82203057  0.65436588  0.35956673  1
  In  In35  1  0.81304746  0.67775986  0.89179287  1
  In  In36  1  0.00144065  0.15368681  0.36774647  1
  In  In37  1  0.00620771  0.15398532  0.89984965  1
  In  In38  1  -0.01836655  0.49416051  0.36720901  1
  In  In39  1  -0.00598588  0.50598533  0.88653355  1
  In  In40  1  0.00431076  0.84414629  0.36417021  1
  In  In41  1  0.00967690  0.84152916  0.88788754  1
  In  In42  1  0.32100625  0.16533445  0.36658570  1
  In  In43  1  0.33876940  0.16654911  0.87529846  1
  In  In44  1  0.34837712  0.49088565  0.37889450  1
  In  In45  1  0.35187574  0.48462019  0.88407997  1
  In  In46  1  0.32530913  0.81812727  0.37776637  1
  In  In47  1  0.31909174  0.83653621  0.87419847  1
  In  In48  1  0.66409179  0.18597281  0.37099527  1
  In  In49  1  0.66437215  0.16533429  0.88081545  1
  In  In50  1  0.66826255  0.49963537  0.37217202  1
  In  In51  1  0.66898566  0.49588724  0.87055357  1
  In  In52  1  0.68293806  0.83199224  0.37059792  1
  In  In53  1  0.66581023  0.83651210  0.87367747  1
  In  In54  1  0.13967937  -0.01909606  0.09138826  1
  In  In55  1  0.17602055  -0.00204326  0.63185459  1
  In  In56  1  0.17627110  0.34249675  0.11965307  1
  In  In57  1  0.17818010  0.33361687  0.62872755  1
  In  In58  1  0.16097215  0.66357976  0.12202721  1
  In  In59  1  0.15648165  0.67298927  0.62556568  1
  In  In60  1  0.48513647  0.00983149  0.11103543  1
  In  In61  1  0.49614023  0.00499301  0.64196092  1
  In  In62  1  0.50013144  0.33575331  0.12037060  1
  In  In63  1  0.49380267  0.34791925  0.63839157  1
  In  In64  1  0.52143060  0.65908559  0.11910312  1
  In  In65  1  0.51391603  0.66118150  0.63041997  1
  In  In66  1  0.85228529  0.01192423  0.10812956  1
  In  In67  1  0.82228534  0.00559447  0.63359078  1
  In  In68  1  0.81515130  0.31910608  0.12124234  1
  In  In69  1  0.82596527  0.32713089  0.61956275  1
  In  In70  1  0.83129985  0.67013693  0.11643209  1
  In  In71  1  0.83132530  0.65742320  0.62363916  1
  In  In72  1  0.00374543  -0.00207632  0.76411037  1
  In  In73  1  0.16100664  0.50075475  0.50044096  1
  In  In74  1  0.50096747  0.82550915  0.51145569  1
  In  In75  1  -0.00341883  0.66962438  0.76134414  1
  In  In76  1  0.83888612  0.82529183  0.50060090  1
  In  In77  1  -0.00778243  0.33261596  0.24501785  1
  In  In78  1  0.32477604  0.00703293  0.23689193  1
  In  In79  1  0.49893584  0.82837350  -0.00218064  1
  In  In80  1  0.67715348  0.00011401  0.24076830  1
  In  In81  1  0.33640248  0.65986719  0.24958980  1
  In  In82  1  0.16307862  0.16924544  0.50744536  1
  In  In83  1  -0.00559353  0.33264676  0.75977285  1
  In  In84  1  0.33286246  0.66678033  0.75586186  1
  In  In85  1  0.49525953  0.17868789  0.50025359  1
  Cu  Cu86  1  0.66989182  0.01157184  0.50873032  1
  Cu  Cu87  1  0.16731722  0.16604395  0.23812592  1
  Cu  Cu88  1  0.16146032  0.83935283  0.24319034  1
  Cu  Cu89  1  0.32603294  0.65964951  0.50080335  1
  Cu  Cu90  1  0.00123707  -0.00441076  0.49532023  1
  Cu  Cu91  1  0.51025628  0.83064566  0.24230730  1
  Cu  Cu92  1  -0.00134919  0.34322106  0.00944468  1
  Cu  Cu93  1  0.17119095  0.50023673  0.24519745  1
  Cu  Cu94  1  0.82431372  0.83236860  0.76059736  1
  Cu  Cu95  1  0.84128154  0.82910299  0.24269914  1
  Cu  Cu96  1  -0.00673865  0.33397527  0.49998792  1
  Cu  Cu97  1  0.50485478  0.16718455  0.75635841  1
  Cu  Cu98  1  0.83128702  0.16628172  0.76381043  1
  Cu  Cu99  1  0.32959850  -0.00999439  0.50585656  1
  Cu  Cu100  1  0.66104979  0.33082030  -0.00333054  1
  Cu  Cu101  1  0.50007595  0.17721210  0.23801966  1
  Cu  Cu102  1  0.17676249  0.16581360  0.75809549  1
  Cu  Cu103  1  0.32998752  0.66836211  -0.00178934  1
  Cu  Cu104  1  0.17359802  0.49593967  0.76115470  1
  Cu  Cu105  1  0.66391816  -0.00377255  0.00093579  1
  Cu  Cu106  1  0.00289718  0.66662772  0.00291867  1
  Cu  Cu107  1  0.34192599  0.33712786  -0.00517685  1
  Cu  Cu108  1  0.82415439  0.49780396  0.74930958  1
  Cu  Cu109  1  0.66671683  0.34103792  0.49881225  1
  Cu  Cu110  1  0.82756989  0.50429185  0.24174878  1
  Cu  Cu111  1  0.49675967  0.83440219  0.75693639  1
  Cu  Cu112  1  -0.00298295  0.66912779  0.49423746  1
  Cu  Cu113  1  0.66349904  0.66206101  0.49697634  1
  Cu  Cu114  1  0.50839732  0.49484677  0.24607015  1
  Se  Se115  1  0.09625177  0.10802637  0.04907912  1
  Se  Se116  1  0.07302547  0.07422659  0.56423284  1
  Se  Se117  1  0.08654919  0.42652262  0.05717967  1
  Se  Se118  1  0.07339219  0.40834468  0.56466629  1
  Se  Se119  1  0.08803691  0.75248870  0.05285237  1
  Se  Se120  1  0.08144096  0.74880320  0.54809684  1
  Se  Se121  1  0.40947819  0.08006915  0.03508519  1
  Se  Se122  1  0.41280601  0.07435372  0.55954160  1
  Se  Se123  1  0.42264261  0.42236092  0.04939474  1
  Se  Se124  1  0.41997676  0.41221066  0.55589787  1
  Se  Se125  1  0.40983459  0.74180351  0.06439867  1
  Se  Se126  1  0.40440831  0.73719411  0.56742709  1
  Se  Se127  1  0.74455706  0.08345287  0.05394201  1
  Se  Se128  1  0.75460309  0.09284910  0.56030854  1
  Se  Se129  1  0.74652632  0.41104098  0.05117926  1
  Se  Se130  1  0.75278135  0.42132025  0.55412977  1
  Se  Se131  1  0.74961706  0.74352629  0.04105979  1
  Se  Se132  1  0.73664366  0.74735616  0.56028699  1
  Se  Se133  1  0.25321712  0.25913624  0.04782118  1
  Se  Se134  1  0.26474876  0.25921040  0.55445087  1
  Se  Se135  1  0.24867785  0.58494140  0.05504644  1
  Se  Se136  1  0.25060488  0.58249778  0.56813251  1
  Se  Se137  1  0.26179362  0.93080768  0.04183653  1
  Se  Se138  1  0.24080047  0.91064126  0.55571129  1
  Se  Se139  1  0.57853398  0.24706158  0.05157633  1
  Se  Se140  1  0.58953341  0.25899710  0.56194727  1
  Se  Se141  1  0.58334221  0.57977987  0.04119110  1
  Se  Se142  1  0.58131614  0.58086613  0.55295353  1
  Se  Se143  1  0.58775993  0.91570761  0.06360625  1
  Se  Se144  1  0.58707908  0.92907183  0.56424183  1
  Se  Se145  1  0.91364253  0.25300397  0.05419343  1
  Se  Se146  1  0.91256491  0.24574235  0.55091485  1
  Se  Se147  1  0.91733448  0.58193925  0.05218402  1
  Se  Se148  1  0.91433651  0.58677015  0.54850461  1
  Se  Se149  1  0.91379883  0.90793677  0.04706801  1
  Se  Se150  1  0.91985429  0.92362235  0.56261804  1
  Se  Se151  1  0.07593528  0.25584407  0.43974986  1
  Se  Se152  1  0.07892586  0.26383759  0.94993998  1
  Se  Se153  1  0.07548192  0.58582158  0.43369489  1
  Se  Se154  1  0.08789743  0.58196981  0.95064577  1
  Se  Se155  1  0.08457530  0.91476804  0.44204337  1
  Se  Se156  1  0.07311804  0.93557075  0.95808172  1
  Se  Se157  1  0.40878807  0.25498193  0.42945511  1
  Se  Se158  1  0.42347396  0.25269066  0.94135405  1
  Se  Se159  1  0.41493973  0.58041894  0.45185687  1
  Se  Se160  1  0.41702959  0.58384489  0.95146255  1
  Se  Se161  1  0.41184469  0.91420632  0.44409760  1
  Se  Se162  1  0.41584295  0.91976655  0.93670929  1
  Se  Se163  1  0.74710508  0.25300307  0.44728744  1
  Se  Se164  1  0.75042783  0.24550257  0.94978627  1
  Se  Se165  1  0.75059690  0.58551272  0.44164341  1
  Se  Se166  1  0.76880785  0.55588694  0.94075689  1
  Se  Se167  1  0.74472402  0.92453518  0.44839356  1
  Se  Se168  1  0.74570023  0.90963922  0.94978020  1
  Se  Se169  1  0.25303773  0.07541565  0.44448816  1
  Se  Se170  1  0.23363704  0.11385955  0.94360802  1
  Se  Se171  1  0.25037763  0.40818633  0.44229029  1
  Se  Se172  1  0.24968022  0.42241634  0.94986677  1
  Se  Se173  1  0.24419338  0.74835990  0.45348084  1
  Se  Se174  1  0.24756620  0.75828764  0.95206754  1
  Se  Se175  1  0.58743819  0.08203574  0.44310116  1
  Se  Se176  1  0.58153446  0.08321505  0.95160883  1
  Se  Se177  1  0.58241402  0.41779055  0.44073634  1
  Se  Se178  1  0.58337812  0.41599184  0.94084018  1
  Se  Se179  1  0.58781878  0.74853369  0.43770481  1
  Se  Se180  1  0.59209114  0.73865248  0.94309419  1
  Se  Se181  1  0.92002794  0.08170489  0.44393193  1
  Se  Se182  1  0.91422884  0.07912019  0.96340587  1
  Se  Se183  1  0.91261143  0.41997451  0.44704486  1
  Se  Se184  1  0.91291039  0.41899340  0.95204398  1
  Se  Se185  1  0.91877671  0.74483362  0.42853737  1
  Se  Se186  1  0.92400169  0.74660165  0.94384806  1
  Se  Se187  1  0.25191668  0.24790444  0.29094630  1
  Se  Se188  1  0.26007094  0.25571646  0.80410574  1
  Se  Se189  1  0.24628630  0.57468687  0.31564763  1
  Se  Se190  1  0.24697354  0.58066607  0.82137905  1
  Se  Se191  1  0.24757900  0.91188436  0.30667381  1
  Se  Se192  1  0.24212277  0.92689465  0.80999928  1
  Se  Se193  1  0.58754123  0.25469702  0.29189820  1
  Se  Se194  1  0.59149024  0.24871827  0.80640874  1
  Se  Se195  1  0.58470953  0.58279769  0.30142468  1
  Se  Se196  1  0.58582189  0.57681503  0.80032324  1
  Se  Se197  1  0.58138459  0.91409130  0.30701298  1
  Se  Se198  1  0.58490954  0.91921379  0.80445407  1
  Se  Se199  1  0.90896154  0.24590710  0.31102607  1
  Se  Se200  1  0.91639439  0.23945951  0.82444317  1
  Se  Se201  1  0.91804241  0.58311073  0.29311293  1
  Se  Se202  1  0.90374361  0.57613790  0.81187625  1
  Se  Se203  1  0.91725062  0.92069416  0.29493960  1
  Se  Se204  1  0.90641649  0.91046853  0.81948568  1
  Se  Se205  1  0.08524687  0.08307124  0.29296543  1
  Se  Se206  1  0.09155343  0.09301171  0.81810918  1
  Se  Se207  1  0.08987039  0.42018595  0.30663395  1
  Se  Se208  1  0.08647571  0.42084413  0.81856957  1
  Se  Se209  1  0.08338441  0.75278257  0.29867266  1
  Se  Se210  1  0.09153292  0.76454926  0.80974562  1
  Se  Se211  1  0.42404904  0.09155865  0.29954891  1
  Se  Se212  1  0.41763717  0.08197175  0.80411190  1
  Se  Se213  1  0.41828749  0.41698218  0.29920194  1
  Se  Se214  1  0.41608227  0.41806672  0.80076234  1
  Se  Se215  1  0.42662206  0.75616833  0.30725320  1
  Se  Se216  1  0.42410545  0.75218634  0.81959690  1
  Se  Se217  1  0.75177300  0.08533355  0.31391288  1
  Se  Se218  1  0.74950937  0.07850762  0.81332062  1
  Se  Se219  1  0.75145483  0.41972507  0.30092467  1
  Se  Se220  1  0.75026203  0.40565707  0.80154822  1
  Se  Se221  1  0.74958030  0.75084591  0.29417165  1
  Se  Se222  1  0.74265219  0.74207025  0.80720797  1
  Se  Se223  1  0.23777843  0.08712983  0.17152662  1
  Se  Se224  1  0.25455850  0.08267972  0.69950343  1
  Se  Se225  1  0.25604872  0.41627019  0.19671020  1
  Se  Se226  1  0.25143531  0.41403711  0.70308818  1
  Se  Se227  1  0.25011115  0.75813825  0.19115463  1
  Se  Se228  1  0.23837600  0.75605302  0.69774125  1
  Se  Se229  1  0.57444573  0.08370712  0.18459442  1
  Se  Se230  1  0.59001673  0.08401950  0.70237926  1
  Se  Se231  1  0.58896280  0.41453561  0.18840598  1
  Se  Se232  1  0.60185747  0.40628733  0.69725699  1
  Se  Se233  1  0.59063944  0.74042904  0.19615077  1
  Se  Se234  1  0.57998662  0.75220186  0.70180734  1
  Se  Se235  1  0.91281319  0.08249554  0.19327712  1
  Se  Se236  1  0.91521529  0.09187404  0.70072901  1
  Se  Se237  1  0.90752178  0.42204392  0.18197269  1
  Se  Se238  1  0.91407144  0.42411108  0.69097351  1
  Se  Se239  1  0.92036201  0.74282089  0.18933586  1
  Se  Se240  1  0.90469085  0.75684149  0.69588776  1
  Se  Se241  1  0.08525285  0.25122637  0.18284354  1
  Se  Se242  1  0.09225553  0.24403889  0.69841201  1
  Se  Se243  1  0.08732388  0.58827282  0.20023306  1
  Se  Se244  1  0.09206817  0.57603229  0.70102962  1
  Se  Se245  1  0.08447866  0.92115250  0.18360567  1
  Se  Se246  1  0.08156986  0.90971387  0.69221297  1
  Se  Se247  1  0.40955605  0.25060215  0.18440007  1
  Se  Se248  1  0.42066446  0.24650199  0.69834474  1
  Se  Se249  1  0.42532955  0.57541082  0.18617311  1
  Se  Se250  1  0.42508988  0.57756067  0.69812852  1
  Se  Se251  1  0.42533832  0.91100901  0.18840522  1
  Se  Se252  1  0.41157229  0.91526913  0.70317055  1
  Se  Se253  1  0.74909485  0.24257600  0.20102658  1
  Se  Se254  1  0.76089826  0.25004750  0.70073861  1
  Se  Se255  1  0.74640330  0.58563594  0.18503971  1
  Se  Se256  1  0.74648350  0.58591650  0.69474953  1
  Se  Se257  1  0.76099954  0.90756599  0.17992362  1
  Se  Se258  1  0.74882797  0.92116864  0.70496814  1
