# generated using pymatgen
data_In86Cu29Se144
_symmetry_space_group_name_H-M   'P 1'
_cell_length_a   17.60189679
_cell_length_b   17.60446639
_cell_length_c   23.45649410
_cell_angle_alpha   89.98865209
_cell_angle_beta   90.02393288
_cell_angle_gamma   90.00237261
_symmetry_Int_Tables_number   1
_chemical_formula_structural   In86Cu29Se144
_chemical_formula_sum   'In86 Cu29 Se144'
_cell_volume   7268.50996703
_cell_formula_units_Z   1
loop_
 _symmetry_equiv_pos_site_id
 _symmetry_equiv_pos_as_xyz
  1  'x, y, z'
loop_
 _atom_site_type_symbol
 _atom_site_label
 _atom_site_symmetry_multiplicity
 _atom_site_fract_x
 _atom_site_fract_y
 _atom_site_fract_z
 _atom_site_occupancy
  In  In0  1  -0.00621661  0.17362430  0.13356273  1
  In  In1  1  0.00030993  0.15986117  0.61282020  1
  In  In2  1  -0.00526699  0.50314026  0.12814042  1
  In  In3  1  -0.00108076  0.51725647  0.61894163  1
  In  In4  1  0.00938208  0.82041214  0.13901301  1
  In  In5  1  -0.01670412  0.81369563  0.60136184  1
  In  In6  1  0.31808541  0.15911755  0.12820212  1
  In  In7  1  0.31562969  0.16264945  0.61940825  1
  In  In8  1  0.33062611  0.52781296  0.12651852  1
  In  In9  1  0.33828588  0.48968416  0.61743697  1
  In  In10  1  0.33330154  0.82569844  0.12343683  1
  In  In11  1  0.33794667  0.83781751  0.62103962  1
  In  In12  1  0.67010652  0.15000769  0.12952069  1
  In  In13  1  0.67499918  0.16592043  0.61922014  1
  In  In14  1  0.68039764  0.49921230  0.12803756  1
  In  In15  1  0.68930255  0.52955840  0.60172551  1
  In  In16  1  0.66027885  0.83814268  0.13285890  1
  In  In17  1  0.66277576  0.81037352  0.59814230  1
  In  In18  1  0.16637035  -0.00214910  0.37339250  1
  In  In19  1  0.16939001  -0.01514616  0.87682149  1
  In  In20  1  0.14154927  0.33711180  0.38071016  1
  In  In21  1  0.17697233  0.34318512  0.87495563  1
  In  In22  1  0.17185739  0.67224296  0.37030173  1
  In  In23  1  0.16167838  0.67197992  0.87949548  1
  In  In24  1  0.49159886  -0.01683733  0.36863291  1
  In  In25  1  0.48653461  0.00029224  0.87300029  1
  In  In26  1  0.51105178  0.34089988  0.37681618  1
  In  In27  1  0.50053229  0.33401882  0.87277201  1
  In  In28  1  0.50242341  0.67402000  0.38353115  1
  In  In29  1  0.51406710  0.66523287  0.87513752  1
  In  In30  1  0.83478933  -0.00071550  0.36983584  1
  In  In31  1  0.84662791  0.00375364  0.87838446  1
  In  In32  1  0.85115737  0.32856456  0.39116601  1
  In  In33  1  0.83937469  0.33186330  0.87835963  1
  In  In34  1  0.83692753  0.66603715  0.38111152  1
  In  In35  1  0.82115653  0.66343138  0.86915200  1
  In  In36  1  0.00257848  0.16834292  0.37642067  1
  In  In37  1  -0.00385406  0.15896098  0.88078743  1
  In  In38  1  -0.00642784  0.49721814  0.37463051  1
  In  In39  1  -0.00751182  0.50740948  0.87576231  1
  In  In40  1  -0.00500243  0.83104811  0.37745273  1
  In  In41  1  0.01074390  0.83521852  0.87707184  1
  In  In42  1  0.33499972  0.15025612  0.37387147  1
  In  In43  1  0.34331669  0.16212759  0.87347701  1
  In  In44  1  0.32331092  0.51985654  0.37295508  1
  In  In45  1  0.32778519  0.50484505  0.88125224  1
  In  In46  1  0.33392414  0.83297761  0.37606645  1
  In  In47  1  0.32434902  0.83892091  0.87820067  1
  In  In48  1  0.68108062  0.16571591  0.37438686  1
  In  In49  1  0.67309495  0.17388138  0.87387857  1
  In  In50  1  0.66794920  0.51978917  0.39298853  1
  In  In51  1  0.66788769  0.51592594  0.87250009  1
  In  In52  1  0.66260739  0.82577511  0.38005209  1
  In  In53  1  0.67222350  0.81983455  0.87499112  1
  In  In54  1  0.17938746  -0.01595102  0.14021027  1
  In  In55  1  0.16654841  -0.00453733  0.62015989  1
  In  In56  1  0.14629430  0.33530515  0.12946215  1
  In  In57  1  0.17932127  0.33050885  0.61671886  1
  In  In58  1  0.16235185  0.66596804  0.12178263  1
  In  In59  1  0.14018873  0.66440500  0.61989619  1
  In  In60  1  0.50416883  -0.01750856  0.13035024  1
  In  In61  1  0.50326094  -0.01939247  0.62498772  1
  In  In62  1  0.50591765  0.33657149  0.12855804  1
  In  In63  1  0.48203104  0.35005704  0.61913078  1
  In  In64  1  0.48760464  0.68612770  0.14050252  1
  In  In65  1  0.50796648  0.67116771  0.61531062  1
  In  In66  1  0.82828610  0.00370149  0.13438912  1
  In  In67  1  0.83617920  0.00300330  0.61709934  1
  In  In68  1  0.84577282  0.34162832  0.12182327  1
  In  In69  1  0.84132691  0.32563875  0.61761440  1
  In  In70  1  0.84050563  0.65482047  0.13805723  1
  In  In71  1  0.83809804  0.66653572  0.61759502  1
  In  In72  1  0.67437029  -0.01142891  0.74657297  1
  In  In73  1  -0.00074504  0.33259667  0.75005736  1
  In  In74  1  0.50456093  0.16575176  -0.00237445  1
  In  In75  1  0.66678482  0.33860506  0.73372413  1
  In  In76  1  0.50506630  0.50594770  -0.00145739  1
  In  In77  1  0.00394846  -0.00785187  0.74420136  1
  In  In78  1  0.33071779  0.33460613  0.74079172  1
  In  In79  1  0.32762920  0.33044783  0.25105093  1
  In  In80  1  0.49959720  0.16750204  0.49695942  1
  In  In81  1  0.16494212  0.50052196  0.49712689  1
  In  In82  1  0.83549975  0.83136249  0.00773020  1
  In  In83  1  0.67756694  0.33665962  0.26217394  1
  In  In84  1  0.32708245  0.67111792  0.75367803  1
  In  In85  1  0.15596163  0.16640739  0.00305499  1
  Cu  Cu86  1  -0.00581901  0.34369837  0.00262673  1
  Cu  Cu87  1  0.16137609  0.50560323  0.24947381  1
  Cu  Cu88  1  0.66579407  0.33460053  0.49551981  1
  Cu  Cu89  1  0.50034683  0.50836424  0.74706849  1
  Cu  Cu90  1  0.83405600  0.50391792  0.25876386  1
  Cu  Cu91  1  0.83568678  0.16807732  0.25397389  1
  Cu  Cu92  1  0.50031974  0.82837553  0.25451919  1
  Cu  Cu93  1  0.49893852  0.15806178  0.74742376  1
  Cu  Cu94  1  -0.00434226  0.66530264  0.00458130  1
  Cu  Cu95  1  0.50427157  0.50966277  0.25991219  1
  Cu  Cu96  1  0.50378387  0.82758505  0.74181851  1
  Cu  Cu97  1  0.68100654  0.33137136  -0.00003433  1
  Cu  Cu98  1  0.33049361  -0.00200439  0.49644772  1
  Cu  Cu99  1  0.00621819  0.00499066  0.48997105  1
  Cu  Cu100  1  0.82630529  0.50541181  0.74635049  1
  Cu  Cu101  1  0.66776670  0.00144475  0.49773213  1
  Cu  Cu102  1  0.16664537  0.15962980  0.74333628  1
  Cu  Cu103  1  0.16534836  0.83255381  0.25391781  1
  Cu  Cu104  1  -0.00144100  0.00316650  0.00826051  1
  Cu  Cu105  1  0.83512963  0.82618493  0.73860332  1
  Cu  Cu106  1  0.32833413  0.34654744  0.00489115  1
  Cu  Cu107  1  0.16033977  0.16366183  0.25455189  1
  Cu  Cu108  1  0.33690219  -0.00473048  0.00280146  1
  Cu  Cu109  1  0.82854049  0.83044882  0.25732807  1
  Cu  Cu110  1  0.66735427  0.66592943  0.00152723  1
  Cu  Cu111  1  0.33379108  0.67134335  0.49810120  1
  Cu  Cu112  1  0.16386070  0.83161115  0.75029701  1
  Cu  Cu113  1  0.50002237  0.15469233  0.24943669  1
  Cu  Cu114  1  0.67188485  -0.00014578  0.00707578  1
  Se  Se115  1  0.08218866  0.07522101  0.07149981  1
  Se  Se116  1  0.09071662  0.08126475  0.54939682  1
  Se  Se117  1  0.07990880  0.42210467  0.05663584  1
  Se  Se118  1  0.07704528  0.41184868  0.56049715  1
  Se  Se119  1  0.07674908  0.75284850  0.05516314  1
  Se  Se120  1  0.09215728  0.75463965  0.54221941  1
  Se  Se121  1  0.41408476  0.08101984  0.06081671  1
  Se  Se122  1  0.41488043  0.07371473  0.55947975  1
  Se  Se123  1  0.41438592  0.41802203  0.06421708  1
  Se  Se124  1  0.40191098  0.40882287  0.53996881  1
  Se  Se125  1  0.42636528  0.75236745  0.05634710  1
  Se  Se126  1  0.41836686  0.75376640  0.55211717  1
  Se  Se127  1  0.75671480  0.08366162  0.05549887  1
  Se  Se128  1  0.75161721  0.08504271  0.54868660  1
  Se  Se129  1  0.75558033  0.41973405  0.05467862  1
  Se  Se130  1  0.74651845  0.40705973  0.55842479  1
  Se  Se131  1  0.74581516  0.74177095  0.06666798  1
  Se  Se132  1  0.78371044  0.76750446  0.54373251  1
  Se  Se133  1  0.25089916  0.25923115  0.06029669  1
  Se  Se134  1  0.25787173  0.25274223  0.54598327  1
  Se  Se135  1  0.24709211  0.58796473  0.05123044  1
  Se  Se136  1  0.25353183  0.59141572  0.56058973  1
  Se  Se137  1  0.25067108  0.91757577  0.05787546  1
  Se  Se138  1  0.25035577  0.91371130  0.55174995  1
  Se  Se139  1  0.59583969  0.25617645  0.05966970  1
  Se  Se140  1  0.58424298  0.26007963  0.56082268  1
  Se  Se141  1  0.58891370  0.58849242  0.06632771  1
  Se  Se142  1  0.56683077  0.56842151  0.55017396  1
  Se  Se143  1  0.58643762  0.91357499  0.05376138  1
  Se  Se144  1  0.58291693  0.91548206  0.54692991  1
  Se  Se145  1  0.92122394  0.24991968  0.05481302  1
  Se  Se146  1  0.91695314  0.24255749  0.54813881  1
  Se  Se147  1  0.91046315  0.58340405  0.05665454  1
  Se  Se148  1  0.90087446  0.56908400  0.54594093  1
  Se  Se149  1  0.92449158  0.91922209  0.06901379  1
  Se  Se150  1  0.92263718  0.92777861  0.54853704  1
  Se  Se151  1  0.07368754  0.25166301  0.45216861  1
  Se  Se152  1  0.07522081  0.26404340  0.93978648  1
  Se  Se153  1  0.07815606  0.59304177  0.43847097  1
  Se  Se154  1  0.07781447  0.58565632  0.94556939  1
  Se  Se155  1  0.08526024  0.91346848  0.44251287  1
  Se  Se156  1  0.07914426  0.92229461  0.95026034  1
  Se  Se157  1  0.41261035  0.25459404  0.43383303  1
  Se  Se158  1  0.40671186  0.26338886  0.94617483  1
  Se  Se159  1  0.41276469  0.58431816  0.44549258  1
  Se  Se160  1  0.41192190  0.59678871  0.94317502  1
  Se  Se161  1  0.41800315  0.91333335  0.44827687  1
  Se  Se162  1  0.41794339  0.91557446  0.94563229  1
  Se  Se163  1  0.75061119  0.24819417  0.44824924  1
  Se  Se164  1  0.75774019  0.24499186  0.94539777  1
  Se  Se165  1  0.77611307  0.57286560  0.45730986  1
  Se  Se166  1  0.75155381  0.58363631  0.94781685  1
  Se  Se167  1  0.74732129  0.92161971  0.43923635  1
  Se  Se168  1  0.74839415  0.92114079  0.94102202  1
  Se  Se169  1  0.24701936  0.08222848  0.44583124  1
  Se  Se170  1  0.25627849  0.08055410  0.94442238  1
  Se  Se171  1  0.25303907  0.41313137  0.43300634  1
  Se  Se172  1  0.24442977  0.42559310  0.95111786  1
  Se  Se173  1  0.24848535  0.75180258  0.44486920  1
  Se  Se174  1  0.24346511  0.75747992  0.94456479  1
  Se  Se175  1  0.58579272  0.07799318  0.43483263  1
  Se  Se176  1  0.59393825  0.07293358  0.93813453  1
  Se  Se177  1  0.58277221  0.42307798  0.44938840  1
  Se  Se178  1  0.59563405  0.40804542  0.94049302  1
  Se  Se179  1  0.59302312  0.74170664  0.45512849  1
  Se  Se180  1  0.58615422  0.75061607  0.94845294  1
  Se  Se181  1  0.91413656  0.08339171  0.44113461  1
  Se  Se182  1  0.91525264  0.08555432  0.95469804  1
  Se  Se183  1  0.92886970  0.41945479  0.45486764  1
  Se  Se184  1  0.91150238  0.42284244  0.94508865  1
  Se  Se185  1  0.89829132  0.76795786  0.44946696  1
  Se  Se186  1  0.91894611  0.74572238  0.94031126  1
  Se  Se187  1  0.24048303  0.24524540  0.31492644  1
  Se  Se188  1  0.24494035  0.24055352  0.80588300  1
  Se  Se189  1  0.24880579  0.59092955  0.29536431  1
  Se  Se190  1  0.23969092  0.57561319  0.80843372  1
  Se  Se191  1  0.25167516  0.91509376  0.30524543  1
  Se  Se192  1  0.24970811  0.91615110  0.80013837  1
  Se  Se193  1  0.57646805  0.23943706  0.30732245  1
  Se  Se194  1  0.57697849  0.24452197  0.80137737  1
  Se  Se195  1  0.58753473  0.58843768  0.31518596  1
  Se  Se196  1  0.58774985  0.58918983  0.79768224  1
  Se  Se197  1  0.58785766  0.91089830  0.30485204  1
  Se  Se198  1  0.57816463  0.90882022  0.80891300  1
  Se  Se199  1  0.91488824  0.25269222  0.30861330  1
  Se  Se200  1  0.91205992  0.23723849  0.80708061  1
  Se  Se201  1  0.91964650  0.58941247  0.30722678  1
  Se  Se202  1  0.91066302  0.58467914  0.80284970  1
  Se  Se203  1  0.91862359  0.91478383  0.30328931  1
  Se  Se204  1  0.90844630  0.90450980  0.80519845  1
  Se  Se205  1  0.07776191  0.07961037  0.30659374  1
  Se  Se206  1  0.09022168  0.08558994  0.80987840  1
  Se  Se207  1  0.07956859  0.42002901  0.30218029  1
  Se  Se208  1  0.08828836  0.42313850  0.80815089  1
  Se  Se209  1  0.07915266  0.75059779  0.30611066  1
  Se  Se210  1  0.08084866  0.74996541  0.80457423  1
  Se  Se211  1  0.41432996  0.07395759  0.30128369  1
  Se  Se212  1  0.41128588  0.07973758  0.79837394  1
  Se  Se213  1  0.41963123  0.42251395  0.30975495  1
  Se  Se214  1  0.42144357  0.42709669  0.80610081  1
  Se  Se215  1  0.41704052  0.74674377  0.30948076  1
  Se  Se216  1  0.42546648  0.75589291  0.80954704  1
  Se  Se217  1  0.74843476  0.08226511  0.29976365  1
  Se  Se218  1  0.75771283  0.08370838  0.80736429  1
  Se  Se219  1  0.75983055  0.42619891  0.32490357  1
  Se  Se220  1  0.75164464  0.41971160  0.80652289  1
  Se  Se221  1  0.74932725  0.74488992  0.31151142  1
  Se  Se222  1  0.74867947  0.75094563  0.79683999  1
  Se  Se223  1  0.25052953  0.08229588  0.20588991  1
  Se  Se224  1  0.24915983  0.07496933  0.69304443  1
  Se  Se225  1  0.24389683  0.42353665  0.18896815  1
  Se  Se226  1  0.23719204  0.42991460  0.69120213  1
  Se  Se227  1  0.24239290  0.75160995  0.19228592  1
  Se  Se228  1  0.24124380  0.75323085  0.68571830  1
  Se  Se229  1  0.58372453  0.07331900  0.19612338  1
  Se  Se230  1  0.58291655  0.08367791  0.68782706  1
  Se  Se231  1  0.58022983  0.42392779  0.20077602  1
  Se  Se232  1  0.57533641  0.43185034  0.68170176  1
  Se  Se233  1  0.59101535  0.74716272  0.20417220  1
  Se  Se234  1  0.58966375  0.75167663  0.68588862  1
  Se  Se235  1  0.91732737  0.08355729  0.20049470  1
  Se  Se236  1  0.91506843  0.08843468  0.69186935  1
  Se  Se237  1  0.91289713  0.42074458  0.20022063  1
  Se  Se238  1  0.90863369  0.42310443  0.69011685  1
  Se  Se239  1  0.91307868  0.74834508  0.20333179  1
  Se  Se240  1  0.92335373  0.74608932  0.68859675  1
  Se  Se241  1  0.07916900  0.25180204  0.20414836  1
  Se  Se242  1  0.09012764  0.24416106  0.68646352  1
  Se  Se243  1  0.07848645  0.58808002  0.19454918  1
  Se  Se244  1  0.07833641  0.58167182  0.69668311  1
  Se  Se245  1  0.07841023  0.91853265  0.20408962  1
  Se  Se246  1  0.08157569  0.89804209  0.68234356  1
  Se  Se247  1  0.42346229  0.23927194  0.18979873  1
  Se  Se248  1  0.42239475  0.23991555  0.68564917  1
  Se  Se249  1  0.41755550  0.58649567  0.20389146  1
  Se  Se250  1  0.41451788  0.58386092  0.68782115  1
  Se  Se251  1  0.41469543  0.90727481  0.19701342  1
  Se  Se252  1  0.41567190  0.91379186  0.69840487  1
  Se  Se253  1  0.75501293  0.24876082  0.19133065  1
  Se  Se254  1  0.76261264  0.23812688  0.69381509  1
  Se  Se255  1  0.74599075  0.58150996  0.20513498  1
  Se  Se256  1  0.74931322  0.59206100  0.69007294  1
  Se  Se257  1  0.74956668  0.91518113  0.20019686  1
  Se  Se258  1  0.75437271  0.90307118  0.67817132  1
