# generated using pymatgen
data_In86Cu29Se144
_symmetry_space_group_name_H-M   'P 1'
_cell_length_a   17.61157771
_cell_length_b   17.61246291
_cell_length_c   23.47009371
_cell_angle_alpha   89.99437409
_cell_angle_beta   89.99517239
_cell_angle_gamma   90.01015428
_symmetry_Int_Tables_number   1
_chemical_formula_structural   In86Cu29Se144
_chemical_formula_sum   'In86 Cu29 Se144'
_cell_volume   7280.02998600
_cell_formula_units_Z   1
loop_
 _symmetry_equiv_pos_site_id
 _symmetry_equiv_pos_as_xyz
  1  'x, y, z'
loop_
 _atom_site_type_symbol
 _atom_site_label
 _atom_site_symmetry_multiplicity
 _atom_site_fract_x
 _atom_site_fract_y
 _atom_site_fract_z
 _atom_site_occupancy
  In  In0  1  0.00495894  0.15335840  0.13198365  1
  In  In1  1  0.01081928  0.18378574  0.61395705  1
  In  In2  1  0.01959012  0.49722949  0.12927595  1
  In  In3  1  -0.01145821  0.49645409  0.61655941  1
  In  In4  1  0.00879830  0.82569127  0.13915148  1
  In  In5  1  0.01055094  0.81854006  0.62282578  1
  In  In6  1  0.33394460  0.17650276  0.12921750  1
  In  In7  1  0.33827198  0.18530714  0.60132269  1
  In  In8  1  0.33410956  0.49884347  0.13096400  1
  In  In9  1  0.34029072  0.48625988  0.60741681  1
  In  In10  1  0.33636493  0.83310246  0.14254501  1
  In  In11  1  0.31603720  0.81303710  0.59939096  1
  In  In12  1  0.67206113  0.18272138  0.13127792  1
  In  In13  1  0.66685218  0.16379598  0.62284446  1
  In  In14  1  0.64355564  0.50182198  0.12559312  1
  In  In15  1  0.65661416  0.48385233  0.62281250  1
  In  In16  1  0.65865938  0.82838747  0.12516580  1
  In  In17  1  0.66028144  0.84693623  0.62582775  1
  In  In18  1  0.17059599  0.00093684  0.37362581  1
  In  In19  1  0.17929222  0.00094604  0.87660233  1
  In  In20  1  0.19779794  0.32287163  0.40456439  1
  In  In21  1  0.16424269  0.33959089  0.87502908  1
  In  In22  1  0.17848226  0.66917751  0.37929789  1
  In  In23  1  0.17338969  0.62625271  0.87791271  1
  In  In24  1  0.48986177  0.00749931  0.37012409  1
  In  In25  1  0.50540066  0.00433974  0.86988604  1
  In  In26  1  0.49817381  0.33354708  0.37607223  1
  In  In27  1  0.50230853  0.32640061  0.87997240  1
  In  In28  1  0.47179233  0.68361361  0.40395317  1
  In  In29  1  0.48116717  0.66330207  0.86990226  1
  In  In30  1  0.84976975  0.00145019  0.37475802  1
  In  In31  1  0.82919461  0.01754903  0.87424715  1
  In  In32  1  0.81973348  0.34165897  0.37848938  1
  In  In33  1  0.83124303  0.32735574  0.86277727  1
  In  In34  1  0.83510748  0.64950345  0.37528648  1
  In  In35  1  0.83933226  0.66847138  0.87553059  1
  In  In36  1  0.01199610  0.15482561  0.38139726  1
  In  In37  1  -0.00068085  0.17596815  0.87298888  1
  In  In38  1  -0.00062718  0.50080627  0.37171233  1
  In  In39  1  0.02323309  0.49384011  0.87323781  1
  In  In40  1  0.01578042  0.84108927  0.36683771  1
  In  In41  1  0.00206965  0.82363567  0.87503081  1
  In  In42  1  0.34249592  0.16915668  0.37347656  1
  In  In43  1  0.32560836  0.17946903  0.88909138  1
  In  In44  1  0.33756216  0.50213093  0.38592771  1
  In  In45  1  0.32797746  0.50087830  0.87686628  1
  In  In46  1  0.32987705  0.83037875  0.37502637  1
  In  In47  1  0.34248439  0.82875233  0.87061639  1
  In  In48  1  0.64287148  0.18905728  0.38571444  1
  In  In49  1  0.66249615  0.16438330  0.87009734  1
  In  In50  1  0.66269007  0.49410054  0.37895750  1
  In  In51  1  0.66318106  0.48371390  0.86963691  1
  In  In52  1  0.65655427  0.82868298  0.37866445  1
  In  In53  1  0.64576889  0.83814271  0.86590061  1
  In  In54  1  0.16680970  0.00586055  0.13765612  1
  In  In55  1  0.17664811  0.00706267  0.61728990  1
  In  In56  1  0.17854674  0.34729757  0.12087953  1
  In  In57  1  0.16034293  0.33487324  0.61622426  1
  In  In58  1  0.17393000  0.65558979  0.13482283  1
  In  In59  1  0.17714457  0.65858849  0.60841550  1
  In  In60  1  0.47770642  0.01515860  0.14228859  1
  In  In61  1  0.49987498  0.00934831  0.61656683  1
  In  In62  1  0.49651760  0.33292342  0.13161548  1
  In  In63  1  0.50897529  0.34050379  0.61311524  1
  In  In64  1  0.49974502  0.65689993  0.12822424  1
  In  In65  1  0.46217067  0.63543998  0.58653827  1
  In  In66  1  0.83675402  0.00997157  0.13273828  1
  In  In67  1  0.81627540  -0.00112795  0.62517777  1
  In  In68  1  0.83160243  0.32401037  0.12963982  1
  In  In69  1  0.83295975  0.32904400  0.62298234  1
  In  In70  1  0.83631864  0.67544173  0.12910758  1
  In  In71  1  0.84720159  0.66316081  0.62465510  1
  In  In72  1  0.34390121  0.00211944  0.74151513  1
  In  In73  1  0.65675776  0.66791825  0.74146523  1
  In  In74  1  0.83801166  0.49917653  -0.00083914  1
  In  In75  1  0.00083628  0.00816961  0.74211638  1
  In  In76  1  0.00603823  0.66243763  0.75153322  1
  In  In77  1  0.33660726  0.34272079  0.73972524  1
  In  In78  1  0.65821341  0.65960068  0.25554711  1
  In  In79  1  0.67283461  0.00204914  0.25770615  1
  In  In80  1  0.83512684  0.84077473  -0.00803789  1
  In  In81  1  0.17172795  0.82773644  0.00958389  1
  In  In82  1  0.01129230  0.33643477  0.25760907  1
  In  In83  1  0.83641547  0.16888522  0.00309552  1
  In  In84  1  0.49571134  0.83746853  0.00093379  1
  In  In85  1  0.83574299  0.83406330  0.50333720  1
  Cu  Cu86  1  0.83123449  0.49900028  0.25226075  1
  Cu  Cu87  1  0.17332780  0.49828959  0.26061501  1
  Cu  Cu88  1  0.82978601  0.84366248  0.75540082  1
  Cu  Cu89  1  0.83322705  0.49198383  0.74572151  1
  Cu  Cu90  1  0.33131365  0.01156925  0.00729586  1
  Cu  Cu91  1  0.00047357  0.66853676  0.49455668  1
  Cu  Cu92  1  0.66218007  0.66082007  0.00034782  1
  Cu  Cu93  1  0.17593846  0.82285944  0.73916751  1
  Cu  Cu94  1  0.66087842  0.33777616  0.00302029  1
  Cu  Cu95  1  0.17330848  0.16978455  0.25832257  1
  Cu  Cu96  1  0.16888023  0.17330657  0.74166204  1
  Cu  Cu97  1  0.82816800  0.16932484  0.74369180  1
  Cu  Cu98  1  0.65616117  0.00542660  -0.00268403  1
  Cu  Cu99  1  0.49293190  0.83294481  0.73826022  1
  Cu  Cu100  1  0.32817745  0.66142323  0.00254483  1
  Cu  Cu101  1  0.49563920  0.50134264  0.25849382  1
  Cu  Cu102  1  0.33651550  0.33652501  0.00570156  1
  Cu  Cu103  1  0.67240347  0.32752016  0.50157954  1
  Cu  Cu104  1  0.33436926  -0.00280210  0.49281335  1
  Cu  Cu105  1  0.67165496  0.66031971  0.49952846  1
  Cu  Cu106  1  0.00846741  -0.00719185  0.01062930  1
  Cu  Cu107  1  0.83471591  0.16931139  0.25810332  1
  Cu  Cu108  1  0.66595466  0.00845017  0.49637986  1
  Cu  Cu109  1  0.00316317  0.00032828  0.50027136  1
  Cu  Cu110  1  0.83898845  0.82961216  0.25378804  1
  Cu  Cu111  1  0.50453415  0.16887407  0.74918744  1
  Cu  Cu112  1  -0.00948075  0.33916479  0.49454997  1
  Cu  Cu113  1  0.01031460  0.33382293  -0.00414836  1
  Cu  Cu114  1  0.16976972  0.82942324  0.25554213  1
  Se  Se115  1  0.08948531  0.08065707  0.05965437  1
  Se  Se116  1  0.08518107  0.08506229  0.55317984  1
  Se  Se117  1  0.08751865  0.42009741  0.05071924  1
  Se  Se118  1  0.07591500  0.41912619  0.54900384  1
  Se  Se119  1  0.07866414  0.73844004  0.06424539  1
  Se  Se120  1  0.08755873  0.74766859  0.54747730  1
  Se  Se121  1  0.41816605  0.09023325  0.05950265  1
  Se  Se122  1  0.41560040  0.08470385  0.54518400  1
  Se  Se123  1  0.41872485  0.41918058  0.06064175  1
  Se  Se124  1  0.38932198  0.36669086  0.54988978  1
  Se  Se125  1  0.40649476  0.74605880  0.06063047  1
  Se  Se126  1  0.43354481  0.76659572  0.54411047  1
  Se  Se127  1  0.74199551  0.07664746  0.05970604  1
  Se  Se128  1  0.75300291  0.08535468  0.55074801  1
  Se  Se129  1  0.74575258  0.41299977  0.06257838  1
  Se  Se130  1  0.75161511  0.41563754  0.55504607  1
  Se  Se131  1  0.74342243  0.74578608  0.05313683  1
  Se  Se132  1  0.74520301  0.74376838  0.56341894  1
  Se  Se133  1  0.24962175  0.25177237  0.05496384  1
  Se  Se134  1  0.22306812  0.23691493  0.54729312  1
  Se  Se135  1  0.24845395  0.57817753  0.05884772  1
  Se  Se136  1  0.25114985  0.56854929  0.54135867  1
  Se  Se137  1  0.26075087  0.92179379  0.06552363  1
  Se  Se138  1  0.24443984  0.91933805  0.54480453  1
  Se  Se139  1  0.58459867  0.25332982  0.06083968  1
  Se  Se140  1  0.58499696  0.24378480  0.55146740  1
  Se  Se141  1  0.57395003  0.58270060  0.05007487  1
  Se  Se142  1  0.58929903  0.57565672  0.55141912  1
  Se  Se143  1  0.58333930  0.92690270  0.06254672  1
  Se  Se144  1  0.58499477  0.92324970  0.55027760  1
  Se  Se145  1  0.93279171  0.25737720  0.06082894  1
  Se  Se146  1  0.91245500  0.25001575  0.54835587  1
  Se  Se147  1  0.92157709  0.58455403  0.06580343  1
  Se  Se148  1  0.91393503  0.58647364  0.54616086  1
  Se  Se149  1  0.92118461  0.91757194  0.06556719  1
  Se  Se150  1  0.92696405  0.92227001  0.56522438  1
  Se  Se151  1  0.07718088  0.25572214  0.44516661  1
  Se  Se152  1  0.08800602  0.24608106  0.94235596  1
  Se  Se153  1  0.08052369  0.58712956  0.43845285  1
  Se  Se154  1  0.07301515  0.58608684  0.94929741  1
  Se  Se155  1  0.08526989  0.91893649  0.44418990  1
  Se  Se156  1  0.08097108  0.91787763  0.94216620  1
  Se  Se157  1  0.40480180  0.26500826  0.44755423  1
  Se  Se158  1  0.42035607  0.25086004  0.95357435  1
  Se  Se159  1  0.43202529  0.56395046  0.45981734  1
  Se  Se160  1  0.41358998  0.58287502  0.94661095  1
  Se  Se161  1  0.41895980  0.91672658  0.43947645  1
  Se  Se162  1  0.40530068  0.93088166  0.94154345  1
  Se  Se163  1  0.75378492  0.24478650  0.44647639  1
  Se  Se164  1  0.74450781  0.25782739  0.94386426  1
  Se  Se165  1  0.75133793  0.57630017  0.44590499  1
  Se  Se166  1  0.74351828  0.58751608  0.93784616  1
  Se  Se167  1  0.74634004  0.92242402  0.43984317  1
  Se  Se168  1  0.73417358  0.92646403  0.93671945  1
  Se  Se169  1  0.25387567  0.08500476  0.44035455  1
  Se  Se170  1  0.24444622  0.08622816  0.95074455  1
  Se  Se171  1  0.22855407  0.45096985  0.45403680  1
  Se  Se172  1  0.25199191  0.41282397  0.94600360  1
  Se  Se173  1  0.25087092  0.75507567  0.45055705  1
  Se  Se174  1  0.25422023  0.74366659  0.93850229  1
  Se  Se175  1  0.57565033  0.08326352  0.44309698  1
  Se  Se176  1  0.57769382  0.08925756  0.94255325  1
  Se  Se177  1  0.58527276  0.40929354  0.44887609  1
  Se  Se178  1  0.58083871  0.41916984  0.94663666  1
  Se  Se179  1  0.58797798  0.74984763  0.45424205  1
  Se  Se180  1  0.58387174  0.74305678  0.93955146  1
  Se  Se181  1  0.91784899  0.08342664  0.45055178  1
  Se  Se182  1  0.93010455  0.07349947  0.94732486  1
  Se  Se183  1  0.91067456  0.42421074  0.44061881  1
  Se  Se184  1  0.91993842  0.40423864  0.93695695  1
  Se  Se185  1  0.92039436  0.75055640  0.43513037  1
  Se  Se186  1  0.92931261  0.73789755  0.95032287  1
  Se  Se187  1  0.24886098  0.25660306  0.31363505  1
  Se  Se188  1  0.25099837  0.24758886  0.80457273  1
  Se  Se189  1  0.25852630  0.58246589  0.31122229  1
  Se  Se190  1  0.26529260  0.58925976  0.80040224  1
  Se  Se191  1  0.25240114  0.91781593  0.30424722  1
  Se  Se192  1  0.24808886  0.91013753  0.80130839  1
  Se  Se193  1  0.58163534  0.25810116  0.30282452  1
  Se  Se194  1  0.58415422  0.25360188  0.80412915  1
  Se  Se195  1  0.56681630  0.58486668  0.32219150  1
  Se  Se196  1  0.57663655  0.57898352  0.80774909  1
  Se  Se197  1  0.57771899  0.90810990  0.30600476  1
  Se  Se198  1  0.57164786  0.91916401  0.79342563  1
  Se  Se199  1  0.91787829  0.24885812  0.31650364  1
  Se  Se200  1  0.91806906  0.24436375  0.79778782  1
  Se  Se201  1  0.91840706  0.58232586  0.29929600  1
  Se  Se202  1  0.91106005  0.57059159  0.80893619  1
  Se  Se203  1  0.92124476  0.91760618  0.30214666  1
  Se  Se204  1  0.91588915  0.91869878  0.81207738  1
  Se  Se205  1  0.08539355  0.08276632  0.30275812  1
  Se  Se206  1  0.09637331  0.08906415  0.80516341  1
  Se  Se207  1  0.10469500  0.41208753  0.32217187  1
  Se  Se208  1  0.08935068  0.41343177  0.79827828  1
  Se  Se209  1  0.08839709  0.74197380  0.30607131  1
  Se  Se210  1  0.09847761  0.75390603  0.80778114  1
  Se  Se211  1  0.42346148  0.09659128  0.29889130  1
  Se  Se212  1  0.41526067  0.09882562  0.81031944  1
  Se  Se213  1  0.41122499  0.41964254  0.31151680  1
  Se  Se214  1  0.42230280  0.41889151  0.81173074  1
  Se  Se215  1  0.41255899  0.73736585  0.31354261  1
  Se  Se216  1  0.41416041  0.74965767  0.79542765  1
  Se  Se217  1  0.75416070  0.09364259  0.32070063  1
  Se  Se218  1  0.74764002  0.08514772  0.79951474  1
  Se  Se219  1  0.74403757  0.41928713  0.30287684  1
  Se  Se220  1  0.74632232  0.41091474  0.79741387  1
  Se  Se221  1  0.75515227  0.75221630  0.31184148  1
  Se  Se222  1  0.75096484  0.75570601  0.80984532  1
  Se  Se223  1  0.25484356  0.08903642  0.19984379  1
  Se  Se224  1  0.25553086  0.09805710  0.68537052  1
  Se  Se225  1  0.25126210  0.41605620  0.20099679  1
  Se  Se226  1  0.24101101  0.42755779  0.68354688  1
  Se  Se227  1  0.25130052  0.74373016  0.20231019  1
  Se  Se228  1  0.25360863  0.73995871  0.68325576  1
  Se  Se229  1  0.58700357  0.09212282  0.19571977  1
  Se  Se230  1  0.58055378  0.08206518  0.69231510  1
  Se  Se231  1  0.57899332  0.41999756  0.20167952  1
  Se  Se232  1  0.56458733  0.42194566  0.69392289  1
  Se  Se233  1  0.57197794  0.75600505  0.19684688  1
  Se  Se234  1  0.56913999  0.75086518  0.67839825  1
  Se  Se235  1  0.91774390  0.08463305  0.20536509  1
  Se  Se236  1  0.91028464  0.09385552  0.68176842  1
  Se  Se237  1  0.91490371  0.41987357  0.19248432  1
  Se  Se238  1  0.91832989  0.41287184  0.69136166  1
  Se  Se239  1  0.92039937  0.74328599  0.20326510  1
  Se  Se240  1  0.91044636  0.76200795  0.69829070  1
  Se  Se241  1  0.09402485  0.24657087  0.19199754  1
  Se  Se242  1  0.08336985  0.25633847  0.69306250  1
  Se  Se243  1  0.08723443  0.57790764  0.20576941  1
  Se  Se244  1  0.08477418  0.58131130  0.68061242  1
  Se  Se245  1  0.08666024  0.91590661  0.20243914  1
  Se  Se246  1  0.09416302  0.91091525  0.68911471  1
  Se  Se247  1  0.40606175  0.26255400  0.20085956  1
  Se  Se248  1  0.42150197  0.24137256  0.68705626  1
  Se  Se249  1  0.41628751  0.58419887  0.19998324  1
  Se  Se250  1  0.42363655  0.56448051  0.67754091  1
  Se  Se251  1  0.41927500  0.91585605  0.20720727  1
  Se  Se252  1  0.41229778  0.90675187  0.67444148  1
  Se  Se253  1  0.75276993  0.25494755  0.20650472  1
  Se  Se254  1  0.74328906  0.25209905  0.69208138  1
  Se  Se255  1  0.75110174  0.57664394  0.18856933  1
  Se  Se256  1  0.75673574  0.57857266  0.68922153  1
  Se  Se257  1  0.75698031  0.90550367  0.19151108  1
  Se  Se258  1  0.74378595  0.91968284  0.70065213  1
