# generated using pymatgen
data_In86Cu29Se144
_symmetry_space_group_name_H-M   'P 1'
_cell_length_a   17.57612438
_cell_length_b   17.57096412
_cell_length_c   23.42949014
_cell_angle_alpha   90.00281612
_cell_angle_beta   89.98643817
_cell_angle_gamma   90.01386687
_symmetry_Int_Tables_number   1
_chemical_formula_structural   In86Cu29Se144
_chemical_formula_sum   'In86 Cu29 Se144'
_cell_volume   7235.71615238
_cell_formula_units_Z   1
loop_
 _symmetry_equiv_pos_site_id
 _symmetry_equiv_pos_as_xyz
  1  'x, y, z'
loop_
 _atom_site_type_symbol
 _atom_site_label
 _atom_site_symmetry_multiplicity
 _atom_site_fract_x
 _atom_site_fract_y
 _atom_site_fract_z
 _atom_site_occupancy
  In  In0  1  0.00196879  0.18020590  0.11422891  1
  In  In1  1  0.01334560  0.15634030  0.63542960  1
  In  In2  1  0.00296827  0.50146644  0.12996922  1
  In  In3  1  -0.00236306  0.50443095  0.63545140  1
  In  In4  1  -0.00592779  0.81920088  0.11625826  1
  In  In5  1  0.01649189  0.81601434  0.64947975  1
  In  In6  1  0.32565344  0.15270632  0.12379801  1
  In  In7  1  0.33323163  0.16668635  0.62628357  1
  In  In8  1  0.33763070  0.49204465  0.12031334  1
  In  In9  1  0.35075780  0.48675373  0.65055809  1
  In  In10  1  0.34170966  0.83909986  0.11540159  1
  In  In11  1  0.34330127  0.81763725  0.64417996  1
  In  In12  1  0.67381469  0.17742521  0.11888658  1
  In  In13  1  0.66206720  0.17817054  0.62061937  1
  In  In14  1  0.66000469  0.50737254  0.13075512  1
  In  In15  1  0.66953860  0.50037657  0.61778475  1
  In  In16  1  0.65652766  0.83191660  0.12409641  1
  In  In17  1  0.64935612  0.83272223  0.62350855  1
  In  In18  1  0.18330757  -0.00255901  0.37567794  1
  In  In19  1  0.16416664  -0.01645515  0.86393034  1
  In  In20  1  0.14758909  0.33172905  0.37790773  1
  In  In21  1  0.17259713  0.34124148  0.86278004  1
  In  In22  1  0.16624782  0.67127679  0.37337624  1
  In  In23  1  0.18835957  0.68248486  0.85057437  1
  In  In24  1  0.48933603  0.00525884  0.38114530  1
  In  In25  1  0.48981804  0.00874078  0.87968032  1
  In  In26  1  0.50406835  0.32784696  0.37711529  1
  In  In27  1  0.49225990  0.34494415  0.87980334  1
  In  In28  1  0.50507468  0.65665342  0.38680997  1
  In  In29  1  0.50730985  0.66948882  0.87371833  1
  In  In30  1  0.83652482  0.00816303  0.37450523  1
  In  In31  1  0.86912970  0.00002957  0.88172619  1
  In  In32  1  0.84177342  0.34505518  0.36843233  1
  In  In33  1  0.84590294  0.31985879  0.88159628  1
  In  In34  1  0.82174258  0.65425943  0.37190010  1
  In  In35  1  0.83743381  0.68550824  0.85539836  1
  In  In36  1  -0.00828211  0.17944226  0.38041421  1
  In  In37  1  0.00523344  0.16717347  0.87534519  1
  In  In38  1  -0.00698576  0.48659761  0.36927092  1
  In  In39  1  0.01031304  0.50203776  0.86423344  1
  In  In40  1  0.01482111  0.82383563  0.37677213  1
  In  In41  1  0.01939218  0.84828317  0.84956490  1
  In  In42  1  0.34235807  0.16119814  0.38202264  1
  In  In43  1  0.34148687  0.17553739  0.86822393  1
  In  In44  1  0.33556288  0.51064466  0.38165706  1
  In  In45  1  0.35692492  0.51765926  0.85244755  1
  In  In46  1  0.32646415  0.84237850  0.37757111  1
  In  In47  1  0.33392612  0.83964979  0.87136175  1
  In  In48  1  0.64852840  0.16661719  0.37057298  1
  In  In49  1  0.66686643  0.16649090  0.88272781  1
  In  In50  1  0.66495708  0.50127200  0.37527298  1
  In  In51  1  0.65374977  0.50612244  0.87246032  1
  In  In52  1  0.66477636  0.81969572  0.37525845  1
  In  In53  1  0.67231877  0.81907030  0.87470634  1
  In  In54  1  0.17940608  0.00447934  0.12365626  1
  In  In55  1  0.16479860  -0.00109109  0.63816556  1
  In  In56  1  0.16122892  0.33069447  0.12812572  1
  In  In57  1  0.18082206  0.33205410  0.63917262  1
  In  In58  1  0.15177938  0.66680131  0.11807709  1
  In  In59  1  0.17770888  0.65451250  0.64879041  1
  In  In60  1  0.49213015  -0.00744082  0.11717826  1
  In  In61  1  0.49094001  -0.00663889  0.62048511  1
  In  In62  1  0.50635864  0.34517000  0.11839706  1
  In  In63  1  0.49912726  0.33227311  0.61962284  1
  In  In64  1  0.50342629  0.67439016  0.11791137  1
  In  In65  1  0.49843175  0.66378680  0.62914422  1
  In  In66  1  0.82573578  0.00152283  0.11817666  1
  In  In67  1  0.84772154  -0.00201009  0.63022369  1
  In  In68  1  0.84093334  0.32606634  0.12654216  1
  In  In69  1  0.82630978  0.34349712  0.62402168  1
  In  In70  1  0.83968786  0.65652719  0.12985999  1
  In  In71  1  0.84501368  0.65534168  0.63468751  1
  In  In72  1  0.16742285  0.49830009  0.50677507  1
  In  In73  1  0.67026569  -0.00244583  0.75173035  1
  In  In74  1  0.83185894  0.83098903  0.50454698  1
  In  In75  1  0.83172458  0.83717030  -0.00300383  1
  In  In76  1  0.00158299  0.00065499  0.24635700  1
  In  In77  1  0.32819101  0.33195685  0.24706569  1
  In  In78  1  0.17111759  0.83066577  0.51921900  1
  In  In79  1  0.83001187  0.50035195  -0.00874641  1
  In  In80  1  0.82874305  0.17100212  0.50029346  1
  In  In81  1  0.17022705  0.16388972  -0.00555447  1
  In  In82  1  0.66219698  -0.00179663  0.24240478  1
  In  In83  1  0.17103379  0.49985812  -0.00575369  1
  In  In84  1  0.66466419  0.33692089  0.74679101  1
  In  In85  1  0.33009560  0.66770271  0.25559320  1
  Cu  Cu86  1  -0.00486878  0.65810739  0.50525277  1
  Cu  Cu87  1  0.33987780  0.66640137  0.51173974  1
  Cu  Cu88  1  0.16389801  0.16561299  0.24958932  1
  Cu  Cu89  1  0.50030240  0.83023979  0.75230780  1
  Cu  Cu90  1  0.16598919  0.82779797  0.24813231  1
  Cu  Cu91  1  0.66436942  0.33627581  -0.00016405  1
  Cu  Cu92  1  0.82854274  0.49089412  0.74943269  1
  Cu  Cu93  1  0.49355320  0.16642967  0.25184736  1
  Cu  Cu94  1  0.50306809  0.50342250  0.25215591  1
  Cu  Cu95  1  0.83182819  0.17799519  0.24523233  1
  Cu  Cu96  1  0.82868190  0.50110662  0.25016924  1
  Cu  Cu97  1  0.66109174  0.00249598  0.49987969  1
  Cu  Cu98  1  0.17346903  0.16786824  0.75251292  1
  Cu  Cu99  1  0.66133005  0.66437364  0.50116652  1
  Cu  Cu100  1  0.66118935  0.00088831  -0.00122032  1
  Cu  Cu101  1  0.33419755  0.33374849  0.50821114  1
  Cu  Cu102  1  0.84155138  0.82112046  0.25127932  1
  Cu  Cu103  1  0.84239629  0.16217216  0.75649095  1
  Cu  Cu104  1  0.49651253  0.83247209  0.24552917  1
  Cu  Cu105  1  0.00740288  0.67055463  -0.00926796  1
  Cu  Cu106  1  -0.00169584  0.33274150  0.50151142  1
  Cu  Cu107  1  0.33352973  -0.00348376  -0.00286229  1
  Cu  Cu108  1  0.66206528  0.66457388  -0.00117105  1
  Cu  Cu109  1  0.33461742  0.66929163  -0.01377277  1
  Cu  Cu110  1  0.33954939  0.33535289  -0.00654282  1
  Cu  Cu111  1  0.65993316  0.33715023  0.49538561  1
  Cu  Cu112  1  0.49698302  0.16869354  0.74809190  1
  Cu  Cu113  1  0.01192256  -0.00352054  0.51327620  1
  Cu  Cu114  1  0.33617266  0.00356540  0.50331748  1
  Se  Se115  1  0.07998749  0.07590639  0.05637295  1
  Se  Se116  1  0.09508786  0.08301445  0.56068572  1
  Se  Se117  1  0.07912937  0.41255593  0.05569201  1
  Se  Se118  1  0.07799573  0.40815667  0.56634344  1
  Se  Se119  1  0.08795103  0.75662689  0.04404558  1
  Se  Se120  1  0.08000609  0.73068522  0.56681745  1
  Se  Se121  1  0.41292696  0.08369739  0.05126984  1
  Se  Se122  1  0.42017171  0.08976674  0.55463783  1
  Se  Se123  1  0.42073051  0.42174523  0.04696144  1
  Se  Se124  1  0.41054635  0.42367182  0.56073715  1
  Se  Se125  1  0.41607299  0.74852808  0.04763489  1
  Se  Se126  1  0.41949132  0.75639680  0.56103524  1
  Se  Se127  1  0.74610022  0.08461090  0.05060642  1
  Se  Se128  1  0.74545685  0.07371894  0.56210792  1
  Se  Se129  1  0.74545222  0.41724050  0.06053755  1
  Se  Se130  1  0.74890595  0.41512521  0.54753300  1
  Se  Se131  1  0.74759043  0.74049552  0.05977111  1
  Se  Se132  1  0.74360697  0.74033620  0.56360136  1
  Se  Se133  1  0.25814457  0.25967636  0.05667514  1
  Se  Se134  1  0.24779171  0.25317381  0.55973447  1
  Se  Se135  1  0.26013578  0.59328629  0.05574577  1
  Se  Se136  1  0.25726272  0.58499469  0.56853485  1
  Se  Se137  1  0.24753020  0.91651453  0.05101961  1
  Se  Se138  1  0.26499856  0.92306629  0.56995757  1
  Se  Se139  1  0.58042013  0.25150077  0.05249601  1
  Se  Se140  1  0.57966081  0.25025660  0.54769564  1
  Se  Se141  1  0.58146332  0.58072525  0.05385371  1
  Se  Se142  1  0.57741833  0.58242222  0.55589897  1
  Se  Se143  1  0.58218936  0.91291203  0.05125095  1
  Se  Se144  1  0.57801456  0.91657511  0.55022709  1
  Se  Se145  1  0.91132575  0.25176263  0.04772148  1
  Se  Se146  1  0.92186577  0.25030018  0.56479293  1
  Se  Se147  1  0.92757623  0.58910325  0.05100301  1
  Se  Se148  1  0.91396604  0.57350962  0.55775084  1
  Se  Se149  1  0.92571471  0.92722216  0.05500579  1
  Se  Se150  1  0.93339041  0.90773187  0.56524058  1
  Se  Se151  1  0.08192482  0.24492079  0.45326085  1
  Se  Se152  1  0.08857739  0.26386522  0.93992627  1
  Se  Se153  1  0.07947453  0.58568845  0.44174522  1
  Se  Se154  1  0.09097612  0.59495974  0.93150806  1
  Se  Se155  1  0.08676229  0.91782883  0.44731094  1
  Se  Se156  1  0.07574546  0.91622149  0.93640162  1
  Se  Se157  1  0.41577745  0.25434965  0.44785811  1
  Se  Se158  1  0.42233789  0.24600055  0.94532540  1
  Se  Se159  1  0.41763848  0.58007066  0.45621559  1
  Se  Se160  1  0.41979842  0.58239739  0.93958062  1
  Se  Se161  1  0.41332304  0.91432005  0.44860222  1
  Se  Se162  1  0.41873388  0.91251171  0.94580367  1
  Se  Se163  1  0.74180886  0.25559474  0.43457922  1
  Se  Se164  1  0.74897547  0.25340853  0.94850681  1
  Se  Se165  1  0.74703700  0.58107946  0.44898559  1
  Se  Se166  1  0.74758296  0.59830953  0.93382450  1
  Se  Se167  1  0.74498645  0.92510909  0.43992824  1
  Se  Se168  1  0.74438854  0.92834310  0.93531184  1
  Se  Se169  1  0.25064429  0.08366275  0.44908638  1
  Se  Se170  1  0.25740793  0.07520018  0.93223371  1
  Se  Se171  1  0.25437606  0.40777129  0.44173075  1
  Se  Se172  1  0.26543447  0.41829940  0.93241865  1
  Se  Se173  1  0.25571807  0.74133413  0.44967301  1
  Se  Se174  1  0.24756008  0.75162320  0.93728902  1
  Se  Se175  1  0.57910393  0.08654058  0.44658256  1
  Se  Se176  1  0.57771881  0.08681284  0.94809524  1
  Se  Se177  1  0.57619889  0.42206016  0.44363808  1
  Se  Se178  1  0.58375616  0.42142358  0.94664060  1
  Se  Se179  1  0.58057370  0.75337563  0.45073830  1
  Se  Se180  1  0.58266250  0.75420342  0.94804196  1
  Se  Se181  1  0.92766354  0.07185226  0.45098083  1
  Se  Se182  1  0.91456108  0.10337049  0.94979582  1
  Se  Se183  1  0.91575825  0.41665485  0.44840003  1
  Se  Se184  1  0.93234261  0.41594857  0.94151130  1
  Se  Se185  1  0.92186662  0.74157044  0.44241741  1
  Se  Se186  1  0.92041414  0.74923261  0.93607050  1
  Se  Se187  1  0.24381091  0.24353217  0.31276475  1
  Se  Se188  1  0.25898683  0.25583970  0.79891101  1
  Se  Se189  1  0.23870450  0.57042708  0.30818236  1
  Se  Se190  1  0.23341486  0.55834613  0.80075500  1
  Se  Se191  1  0.24950709  0.91315603  0.29937370  1
  Se  Se192  1  0.24810230  0.90531544  0.79453995  1
  Se  Se193  1  0.57906327  0.25358125  0.29823492  1
  Se  Se194  1  0.57985631  0.24472214  0.80923807  1
  Se  Se195  1  0.58223358  0.58901636  0.30730378  1
  Se  Se196  1  0.58127142  0.58599502  0.79980281  1
  Se  Se197  1  0.57697077  0.91245144  0.30925518  1
  Se  Se198  1  0.57735342  0.91365561  0.81384628  1
  Se  Se199  1  0.91942707  0.25284407  0.30199849  1
  Se  Se200  1  0.92496813  0.25139484  0.80373910  1
  Se  Se201  1  0.91519017  0.58105625  0.30574737  1
  Se  Se202  1  0.90812059  0.57504507  0.80463385  1
  Se  Se203  1  0.91468812  0.90741856  0.31189496  1
  Se  Se204  1  0.89281698  0.89815096  0.80692845  1
  Se  Se205  1  0.08515123  0.08713311  0.31463684  1
  Se  Se206  1  0.08885136  0.08641016  0.80653509  1
  Se  Se207  1  0.08352172  0.41297665  0.30205933  1
  Se  Se208  1  0.07275951  0.40437199  0.79741928  1
  Se  Se209  1  0.08253107  0.74412697  0.29951300  1
  Se  Se210  1  0.06324295  0.72410642  0.80084212  1
  Se  Se211  1  0.41294669  0.08087992  0.30431624  1
  Se  Se212  1  0.41628348  0.08203785  0.80066822  1
  Se  Se213  1  0.41709332  0.42416423  0.30870819  1
  Se  Se214  1  0.42217624  0.40892258  0.79679731  1
  Se  Se215  1  0.42288798  0.75598555  0.31428380  1
  Se  Se216  1  0.41615884  0.74853850  0.80686628  1
  Se  Se217  1  0.75407707  0.09139552  0.30331501  1
  Se  Se218  1  0.75927873  0.08470177  0.81522200  1
  Se  Se219  1  0.74557382  0.41766487  0.30445452  1
  Se  Se220  1  0.75522105  0.41398180  0.81667926  1
  Se  Se221  1  0.74949299  0.74736280  0.30357280  1
  Se  Se222  1  0.73221112  0.74435712  0.79261594  1
  Se  Se223  1  0.25051208  0.08030561  0.20252530  1
  Se  Se224  1  0.25621927  0.08374171  0.69889945  1
  Se  Se225  1  0.23970826  0.42910575  0.19170285  1
  Se  Se226  1  0.22877880  0.44352885  0.70288917  1
  Se  Se227  1  0.24856591  0.75275701  0.18527000  1
  Se  Se228  1  0.22547003  0.77478659  0.70189964  1
  Se  Se229  1  0.57359238  0.09076336  0.18543444  1
  Se  Se230  1  0.58149832  0.08966409  0.68996693  1
  Se  Se231  1  0.58113633  0.41670533  0.19751679  1
  Se  Se232  1  0.57462281  0.42712355  0.69027833  1
  Se  Se233  1  0.58149739  0.74760403  0.19608957  1
  Se  Se234  1  0.58308069  0.74762649  0.69854422  1
  Se  Se235  1  0.90913388  0.09055103  0.18811715  1
  Se  Se236  1  0.92390519  0.07776832  0.70278974  1
  Se  Se237  1  0.91259334  0.42030736  0.19344041  1
  Se  Se238  1  0.91434497  0.40988256  0.69654681  1
  Se  Se239  1  0.92466083  0.74278181  0.19493724  1
  Se  Se240  1  0.90161158  0.75763248  0.70031428  1
  Se  Se241  1  0.08003881  0.24524780  0.19518831  1
  Se  Se242  1  0.08719945  0.25031883  0.70050167  1
  Se  Se243  1  0.08489519  0.58750194  0.19418195  1
  Se  Se244  1  0.06129428  0.60212139  0.70335705  1
  Se  Se245  1  0.08728267  0.90809884  0.18563236  1
  Se  Se246  1  0.06852702  0.93077919  0.70430853  1
  Se  Se247  1  0.41860265  0.24501408  0.18548278  1
  Se  Se248  1  0.41856856  0.25374948  0.69234289  1
  Se  Se249  1  0.41962669  0.58043073  0.19166874  1
  Se  Se250  1  0.39491003  0.61041283  0.69819144  1
  Se  Se251  1  0.41415642  0.91708095  0.19354616  1
  Se  Se252  1  0.42116287  0.92015892  0.70087976  1
  Se  Se253  1  0.74373034  0.25876498  0.19537014  1
  Se  Se254  1  0.75980111  0.23853090  0.69482474  1
  Se  Se255  1  0.74670892  0.58760162  0.19825047  1
  Se  Se256  1  0.74834013  0.57416201  0.69384175  1
  Se  Se257  1  0.76182391  0.90379890  0.19196736  1
  Se  Se258  1  0.75281027  0.90896316  0.68620135  1
