# generated using pymatgen
data_In86Cu29Se144
_symmetry_space_group_name_H-M   'P 1'
_cell_length_a   17.56982033
_cell_length_b   17.56941089
_cell_length_c   23.43122631
_cell_angle_alpha   89.98476879
_cell_angle_beta   90.01207995
_cell_angle_gamma   89.99600853
_symmetry_Int_Tables_number   1
_chemical_formula_structural   In86Cu29Se144
_chemical_formula_sum   'In86 Cu29 Se144'
_cell_volume   7233.01744300
_cell_formula_units_Z   1
loop_
 _symmetry_equiv_pos_site_id
 _symmetry_equiv_pos_as_xyz
  1  'x, y, z'
loop_
 _atom_site_type_symbol
 _atom_site_label
 _atom_site_symmetry_multiplicity
 _atom_site_fract_x
 _atom_site_fract_y
 _atom_site_fract_z
 _atom_site_occupancy
  In  In0  1  0.00132494  0.18002591  0.12615988  1
  In  In1  1  0.01964963  0.15452860  0.64366593  1
  In  In2  1  -0.00735701  0.51176792  0.13724633  1
  In  In3  1  -0.00308097  0.49204709  0.61911408  1
  In  In4  1  -0.01026531  0.82334549  0.11352723  1
  In  In5  1  0.00992690  0.84774886  0.62610493  1
  In  In6  1  0.33646439  0.16065347  0.12241754  1
  In  In7  1  0.33033169  0.16540453  0.62922531  1
  In  In8  1  0.34056095  0.50560804  0.13120800  1
  In  In9  1  0.32125051  0.47885274  0.60132990  1
  In  In10  1  0.32642613  0.81726019  0.10278621  1
  In  In11  1  0.34481493  0.82931769  0.62570755  1
  In  In12  1  0.66235047  0.17448352  0.10381841  1
  In  In13  1  0.65836617  0.15911100  0.62987109  1
  In  In14  1  0.68923678  0.50003565  0.12281823  1
  In  In15  1  0.66731756  0.50265062  0.62342871  1
  In  In16  1  0.66160309  0.82503274  0.11956471  1
  In  In17  1  0.65378834  0.84486593  0.63997271  1
  In  In18  1  0.18011147  -0.00012287  0.38704998  1
  In  In19  1  0.16077878  -0.00093977  0.86307350  1
  In  In20  1  0.15267996  0.35026000  0.39871674  1
  In  In21  1  0.15899205  0.31874462  0.85207786  1
  In  In22  1  0.15187072  0.63942229  0.35076823  1
  In  In23  1  0.17772729  0.68043582  0.87915832  1
  In  In24  1  0.47278299  0.01084777  0.39790376  1
  In  In25  1  0.50313258  -0.00307300  0.87110278  1
  In  In26  1  0.48417854  0.34306856  0.39865087  1
  In  In27  1  0.48654011  0.33158014  0.86689474  1
  In  In28  1  0.49954616  0.67135670  0.37266276  1
  In  In29  1  0.51185272  0.65801851  0.87522082  1
  In  In30  1  0.82523517  0.00643722  0.37426429  1
  In  In31  1  0.83397265  -0.00099630  0.87299651  1
  In  In32  1  0.85512544  0.33763157  0.37247891  1
  In  In33  1  0.83611664  0.32348101  0.88640589  1
  In  In34  1  0.82523448  0.65612062  0.36729619  1
  In  In35  1  0.82233587  0.67884768  0.88847508  1
  In  In36  1  -0.00462316  0.17991308  0.37810535  1
  In  In37  1  -0.00483880  0.16009292  0.86478252  1
  In  In38  1  -0.00024654  0.49352470  0.37782356  1
  In  In39  1  -0.00281116  0.48858301  0.87335163  1
  In  In40  1  0.01834525  0.82207035  0.37469678  1
  In  In41  1  -0.00805030  0.83961762  0.88392099  1
  In  In42  1  0.31296542  0.18873780  0.41353711  1
  In  In43  1  0.33655823  0.17253465  0.85945955  1
  In  In44  1  0.31770857  0.50831484  0.38802301  1
  In  In45  1  0.34133399  0.49481946  0.87059467  1
  In  In46  1  0.34062427  0.82867743  0.37948053  1
  In  In47  1  0.32399378  0.83893503  0.88641971  1
  In  In48  1  0.65339647  0.16282893  0.37720822  1
  In  In49  1  0.67949416  0.16090600  0.88140475  1
  In  In50  1  0.66028716  0.51133592  0.38117281  1
  In  In51  1  0.66245829  0.51092322  0.87195790  1
  In  In52  1  0.66188742  0.82400724  0.37031557  1
  In  In53  1  0.66825214  0.83088303  0.87462851  1
  In  In54  1  0.18402067  -0.00231478  0.12424411  1
  In  In55  1  0.16354659  0.01874276  0.63725391  1
  In  In56  1  0.15861070  0.32890041  0.13148588  1
  In  In57  1  0.16865742  0.32954462  0.62570045  1
  In  In58  1  0.16333519  0.66588415  0.12966283  1
  In  In59  1  0.18014881  0.66406706  0.61689715  1
  In  In60  1  0.50463964  0.00340308  0.11693032  1
  In  In61  1  0.49421130  -0.00049700  0.63134842  1
  In  In62  1  0.50623128  0.33200101  0.11886353  1
  In  In63  1  0.47907616  0.30493721  0.59803971  1
  In  In64  1  0.49677508  0.68011975  0.13492745  1
  In  In65  1  0.50030740  0.67167812  0.61942527  1
  In  In66  1  0.83028265  -0.00097667  0.11109308  1
  In  In67  1  0.83707481  -0.00130131  0.63602796  1
  In  In68  1  0.83884987  0.34513180  0.10857151  1
  In  In69  1  0.83792686  0.34684368  0.62664643  1
  In  In70  1  0.83479527  0.66418373  0.12506803  1
  In  In71  1  0.82808612  0.65259450  0.62407788  1
  In  In72  1  -0.00568064  0.66973742  0.74760430  1
  In  In73  1  0.17497634  0.83289324  0.49834929  1
  In  In74  1  0.16292238  0.15993367  -0.00797800  1
  In  In75  1  0.00208665  -0.00827472  0.25329389  1
  In  In76  1  0.32803469  0.34139216  0.26309909  1
  In  In77  1  0.34158502  -0.00112713  0.25787578  1
  In  In78  1  0.50082885  0.50149453  -0.00041196  1
  In  In79  1  0.34138968  0.66298131  0.74898763  1
  In  In80  1  0.83264784  0.83101367  0.50710217  1
  In  In81  1  0.83515384  0.17273252  0.50002512  1
  In  In82  1  0.66820922  0.33514687  0.24573591  1
  In  In83  1  0.16607922  0.50125799  0.00243044  1
  In  In84  1  0.66236709  0.33553590  0.74621617  1
  In  In85  1  0.65849795  -0.00743868  0.24462492  1
  Cu  Cu86  1  0.49480923  0.49252641  0.73885062  1
  Cu  Cu87  1  0.83718980  0.16998349  0.75735162  1
  Cu  Cu88  1  0.00509544  0.33099559  0.50493753  1
  Cu  Cu89  1  0.16648859  0.84266092  0.75223764  1
  Cu  Cu90  1  0.49658197  0.17410793  0.25412389  1
  Cu  Cu91  1  0.49893252  0.83938533  0.25113097  1
  Cu  Cu92  1  0.16801181  0.82497217  0.24335431  1
  Cu  Cu93  1  0.66216457  0.67256371  0.49674146  1
  Cu  Cu94  1  0.50012112  0.16186999  0.74479661  1
  Cu  Cu95  1  0.83552667  0.17180860  0.24242535  1
  Cu  Cu96  1  0.33177170  0.66456180  0.49259158  1
  Cu  Cu97  1  0.67010409  -0.00219678  -0.00822791  1
  Cu  Cu98  1  0.34219970  0.00062453  -0.00376090  1
  Cu  Cu99  1  0.00207240  0.00221415  -0.00847528  1
  Cu  Cu100  1  0.00177028  0.66167776  0.00610809  1
  Cu  Cu101  1  -0.00834339  0.33333741  -0.00087675  1
  Cu  Cu102  1  0.65897696  -0.00830967  0.50952548  1
  Cu  Cu103  1  0.16065742  0.17275881  0.25912875  1
  Cu  Cu104  1  0.83818525  0.49727219  0.24782029  1
  Cu  Cu105  1  0.83458491  0.83291673  0.75668852  1
  Cu  Cu106  1  0.67829253  0.34062900  0.50266689  1
  Cu  Cu107  1  0.84023078  0.82287748  0.24735790  1
  Cu  Cu108  1  0.16729295  0.49795697  0.74232925  1
  Cu  Cu109  1  0.32438645  0.33166549  -0.01071272  1
  Cu  Cu110  1  0.66929327  0.66459035  0.00144383  1
  Cu  Cu111  1  0.50158165  0.83050645  0.75189710  1
  Cu  Cu112  1  0.50658617  0.51275614  0.25367711  1
  Cu  Cu113  1  0.82922872  0.50427729  0.75142074  1
  Cu  Cu114  1  0.00013010  0.66111965  0.49539302  1
  Se  Se115  1  0.07764368  0.07548569  0.06255115  1
  Se  Se116  1  0.08266906  0.08559741  0.55962743  1
  Se  Se117  1  0.07371622  0.41066856  0.06077093  1
  Se  Se118  1  0.09035909  0.41840886  0.55368664  1
  Se  Se119  1  0.08932188  0.74671395  0.05422890  1
  Se  Se120  1  0.07519328  0.74349217  0.55801909  1
  Se  Se121  1  0.41932395  0.08813902  0.05049641  1
  Se  Se122  1  0.43019350  0.09663358  0.56424600  1
  Se  Se123  1  0.40151580  0.40895891  0.05457727  1
  Se  Se124  1  0.44286023  0.43296721  0.55130245  1
  Se  Se125  1  0.44191527  0.75938787  0.05221364  1
  Se  Se126  1  0.41176977  0.74702212  0.54913871  1
  Se  Se127  1  0.75136860  0.08614334  0.04492434  1
  Se  Se128  1  0.74875854  0.07413247  0.55939096  1
  Se  Se129  1  0.72148721  0.39317961  0.05306551  1
  Se  Se130  1  0.75819736  0.42598608  0.55489689  1
  Se  Se131  1  0.75452280  0.74805674  0.05490113  1
  Se  Se132  1  0.73679396  0.74784565  0.56570099  1
  Se  Se133  1  0.24851295  0.25422622  0.05669161  1
  Se  Se134  1  0.25762742  0.25413032  0.55806462  1
  Se  Se135  1  0.26079472  0.58839472  0.05854377  1
  Se  Se136  1  0.24490820  0.57933082  0.54176247  1
  Se  Se137  1  0.25138280  0.92088994  0.04588271  1
  Se  Se138  1  0.24745726  0.91806369  0.57160752  1
  Se  Se139  1  0.55741184  0.23937819  0.04441118  1
  Se  Se140  1  0.60232955  0.24844328  0.55305638  1
  Se  Se141  1  0.58888028  0.58766474  0.06489229  1
  Se  Se142  1  0.58554321  0.58669729  0.55404798  1
  Se  Se143  1  0.59008708  0.91889747  0.05262055  1
  Se  Se144  1  0.57420582  0.91051146  0.56094006  1
  Se  Se145  1  0.91411727  0.24229063  0.05083571  1
  Se  Se146  1  0.92338465  0.25252686  0.56582344  1
  Se  Se147  1  0.91677394  0.57733719  0.05612088  1
  Se  Se148  1  0.91725340  0.58302851  0.55365450  1
  Se  Se149  1  0.91915431  0.91798848  0.04661505  1
  Se  Se150  1  0.92363010  0.93018714  0.55653579  1
  Se  Se151  1  0.08419274  0.24066337  0.45384124  1
  Se  Se152  1  0.07667249  0.25872518  0.93763751  1
  Se  Se153  1  0.08618244  0.58333650  0.44104828  1
  Se  Se154  1  0.07811408  0.59021275  0.93694753  1
  Se  Se155  1  0.07339075  0.92246454  0.44623709  1
  Se  Se156  1  0.09049544  0.92046488  0.94161899  1
  Se  Se157  1  0.44409252  0.22408585  0.45491913  1
  Se  Se158  1  0.40933535  0.24878079  0.93893464  1
  Se  Se159  1  0.42213692  0.58397794  0.44280208  1
  Se  Se160  1  0.40657394  0.59037161  0.94181384  1
  Se  Se161  1  0.39614594  0.91560550  0.45681625  1
  Se  Se162  1  0.42434366  0.91497945  0.94475925  1
  Se  Se163  1  0.74675009  0.25923217  0.43334817  1
  Se  Se164  1  0.74094562  0.25576267  0.95176359  1
  Se  Se165  1  0.75105554  0.58921114  0.44859997  1
  Se  Se166  1  0.74845714  0.57681575  0.94812683  1
  Se  Se167  1  0.74177407  0.92114385  0.44375860  1
  Se  Se168  1  0.75500855  0.91247682  0.94211165  1
  Se  Se169  1  0.25179813  0.07479725  0.46311706  1
  Se  Se170  1  0.25999448  0.07872319  0.93425055  1
  Se  Se171  1  0.28245138  0.38617625  0.44312799  1
  Se  Se172  1  0.24248083  0.40933769  0.93123322  1
  Se  Se173  1  0.24251458  0.73478611  0.43065866  1
  Se  Se174  1  0.25417700  0.74788292  0.95601879  1
  Se  Se175  1  0.58471390  0.07831905  0.45112892  1
  Se  Se176  1  0.58354207  0.08098268  0.94155021  1
  Se  Se177  1  0.58940142  0.42010206  0.45043010  1
  Se  Se178  1  0.58099649  0.41180929  0.93323238  1
  Se  Se179  1  0.57854196  0.75659749  0.44538962  1
  Se  Se180  1  0.58715812  0.74487109  0.94458149  1
  Se  Se181  1  0.92181540  0.07552083  0.44104579  1
  Se  Se182  1  0.91750288  0.08633142  0.94086600  1
  Se  Se183  1  0.91949838  0.41459659  0.45289903  1
  Se  Se184  1  0.91180548  0.42255729  0.94844458  1
  Se  Se185  1  0.91906975  0.74465883  0.43977068  1
  Se  Se186  1  0.92008915  0.74887673  0.95275834  1
  Se  Se187  1  0.24451804  0.24440651  0.32150733  1
  Se  Se188  1  0.25535597  0.25167006  0.78883174  1
  Se  Se189  1  0.26883418  0.58249801  0.30095814  1
  Se  Se190  1  0.24061377  0.57781185  0.80756302  1
  Se  Se191  1  0.24092872  0.90635784  0.30812360  1
  Se  Se192  1  0.25836718  0.91576493  0.80568691  1
  Se  Se193  1  0.57406831  0.25863764  0.31267085  1
  Se  Se194  1  0.58112423  0.23975619  0.80800153  1
  Se  Se195  1  0.59248381  0.59416639  0.30495979  1
  Se  Se196  1  0.57457036  0.57469496  0.79632847  1
  Se  Se197  1  0.56803661  0.92369229  0.31724124  1
  Se  Se198  1  0.58819968  0.91301157  0.80341317  1
  Se  Se199  1  0.92077754  0.24990229  0.29795997  1
  Se  Se200  1  0.91641945  0.26064521  0.80632649  1
  Se  Se201  1  0.91933206  0.57756036  0.30574714  1
  Se  Se202  1  0.90818533  0.58523640  0.81339521  1
  Se  Se203  1  0.90836837  0.90409070  0.31495129  1
  Se  Se204  1  0.92181337  0.91623598  0.80531878  1
  Se  Se205  1  0.08901255  0.08249427  0.31646498  1
  Se  Se206  1  0.10158527  0.10512752  0.80202166  1
  Se  Se207  1  0.08775500  0.41036362  0.31315753  1
  Se  Se208  1  0.08001942  0.42107975  0.79744657  1
  Se  Se209  1  0.07877767  0.74444416  0.29334957  1
  Se  Se210  1  0.08699457  0.75673788  0.80858697  1
  Se  Se211  1  0.41547035  0.10070871  0.31773135  1
  Se  Se212  1  0.41964526  0.07826984  0.80044339  1
  Se  Se213  1  0.43099731  0.42627742  0.31332594  1
  Se  Se214  1  0.40969689  0.41358459  0.79428351  1
  Se  Se215  1  0.41504390  0.75379166  0.30238548  1
  Se  Se216  1  0.42098236  0.75306945  0.81495174  1
  Se  Se217  1  0.75020356  0.09527860  0.30111532  1
  Se  Se218  1  0.75103665  0.08381916  0.80408196  1
  Se  Se219  1  0.75511957  0.42120105  0.31176994  1
  Se  Se220  1  0.75364234  0.41816204  0.81090378  1
  Se  Se221  1  0.74951158  0.74967943  0.30171497  1
  Se  Se222  1  0.75155979  0.74514488  0.80541086  1
  Se  Se223  1  0.24435434  0.09489599  0.19990121  1
  Se  Se224  1  0.25226963  0.09129110  0.70598086  1
  Se  Se225  1  0.24318038  0.42272480  0.19312067  1
  Se  Se226  1  0.25536340  0.42023176  0.68986592  1
  Se  Se227  1  0.25832505  0.75284241  0.18806053  1
  Se  Se228  1  0.24263743  0.75514577  0.69466246  1
  Se  Se229  1  0.57716484  0.09824008  0.19023529  1
  Se  Se230  1  0.58766921  0.07270024  0.70136644  1
  Se  Se231  1  0.57663646  0.42993555  0.18840744  1
  Se  Se232  1  0.57178952  0.40996300  0.67819771  1
  Se  Se233  1  0.58896154  0.75739997  0.20184730  1
  Se  Se234  1  0.57937610  0.74181854  0.69817878  1
  Se  Se235  1  0.91300764  0.08099680  0.18906018  1
  Se  Se236  1  0.91823619  0.08244546  0.70414149  1
  Se  Se237  1  0.91288249  0.40867473  0.19191192  1
  Se  Se238  1  0.91751079  0.42584229  0.69936775  1
  Se  Se239  1  0.92488435  0.74338607  0.19308528  1
  Se  Se240  1  0.90741321  0.76073506  0.68454707  1
  Se  Se241  1  0.07732354  0.25266458  0.20427664  1
  Se  Se242  1  0.06546743  0.27495802  0.69431997  1
  Se  Se243  1  0.09591331  0.57299555  0.19823616  1
  Se  Se244  1  0.08946688  0.58467373  0.68674531  1
  Se  Se245  1  0.09038961  0.91023459  0.18483313  1
  Se  Se246  1  0.08020596  0.92604575  0.70205721  1
  Se  Se247  1  0.41542373  0.25274458  0.19296716  1
  Se  Se248  1  0.42393798  0.25252929  0.69212595  1
  Se  Se249  1  0.41776447  0.58998787  0.20049823  1
  Se  Se250  1  0.41232681  0.57267765  0.67902693  1
  Se  Se251  1  0.42061480  0.91599790  0.18627781  1
  Se  Se252  1  0.41476091  0.91158044  0.70074743  1
  Se  Se253  1  0.75126277  0.24437206  0.18131243  1
  Se  Se254  1  0.75923674  0.24398726  0.68983444  1
  Se  Se255  1  0.75384636  0.58400874  0.19896447  1
  Se  Se256  1  0.74352973  0.58438516  0.69890601  1
  Se  Se257  1  0.76181416  0.91004332  0.18944060  1
  Se  Se258  1  0.75112859  0.91786381  0.70271785  1
