# generated using pymatgen
data_In86Cu29Se144
_symmetry_space_group_name_H-M   'P 1'
_cell_length_a   17.57526788
_cell_length_b   17.57945576
_cell_length_c   23.44302156
_cell_angle_alpha   90.02095249
_cell_angle_beta   89.99908515
_cell_angle_gamma   90.01555851
_symmetry_Int_Tables_number   1
_chemical_formula_structural   In86Cu29Se144
_chemical_formula_sum   'In86 Cu29 Se144'
_cell_volume   7243.04061907
_cell_formula_units_Z   1
loop_
 _symmetry_equiv_pos_site_id
 _symmetry_equiv_pos_as_xyz
  1  'x, y, z'
loop_
 _atom_site_type_symbol
 _atom_site_label
 _atom_site_symmetry_multiplicity
 _atom_site_fract_x
 _atom_site_fract_y
 _atom_site_fract_z
 _atom_site_occupancy
  In  In0  1  0.00885484  0.16795899  0.12870067  1
  In  In1  1  -0.01733363  0.17809113  0.63382516  1
  In  In2  1  -0.00794505  0.50756399  0.13645970  1
  In  In3  1  -0.00406860  0.49689773  0.62366695  1
  In  In4  1  -0.01771633  0.83724107  0.12623031  1
  In  In5  1  0.00445188  0.84163892  0.61449223  1
  In  In6  1  0.34447828  0.15488472  0.13495320  1
  In  In7  1  0.32962349  0.17137190  0.63301334  1
  In  In8  1  0.33220567  0.48658799  0.12757932  1
  In  In9  1  0.33669485  0.48262216  0.61891122  1
  In  In10  1  0.35301382  0.82480117  0.12780647  1
  In  In11  1  0.34461986  0.84368261  0.61763621  1
  In  In12  1  0.65340171  0.17351076  0.12778080  1
  In  In13  1  0.66866155  0.15132617  0.62623298  1
  In  In14  1  0.67610447  0.50621586  0.12208403  1
  In  In15  1  0.66897528  0.48810143  0.60425174  1
  In  In16  1  0.66794245  0.83223215  0.13059588  1
  In  In17  1  0.67595258  0.84751692  0.61410007  1
  In  In18  1  0.16850026  -0.01461855  0.37393346  1
  In  In19  1  0.17135973  0.00596168  0.86612668  1
  In  In20  1  0.16727031  0.33368012  0.37282255  1
  In  In21  1  0.15616187  0.33136630  0.86111131  1
  In  In22  1  0.16246109  0.68728350  0.37195917  1
  In  In23  1  0.16533312  0.66073388  0.87523767  1
  In  In24  1  0.49338879  -0.00849429  0.36950583  1
  In  In25  1  0.50107742  0.00127321  0.87783096  1
  In  In26  1  0.50242609  0.34442862  0.37781247  1
  In  In27  1  0.49373878  0.33648064  0.88113244  1
  In  In28  1  0.51269648  0.66160052  0.37563211  1
  In  In29  1  0.50223970  0.66551509  0.88417939  1
  In  In30  1  0.81898315  0.00935469  0.37848818  1
  In  In31  1  0.82200860  -0.00429402  0.86037850  1
  In  In32  1  0.84364191  0.31662214  0.39867490  1
  In  In33  1  0.84525428  0.32943791  0.87328565  1
  In  In34  1  0.83283752  0.66762381  0.37280139  1
  In  In35  1  0.82625654  0.67009247  0.88287803  1
  In  In36  1  -0.01707164  0.17332940  0.37856672  1
  In  In37  1  -0.00735720  0.16785187  0.85800958  1
  In  In38  1  -0.01685926  0.48753006  0.37430899  1
  In  In39  1  -0.00635294  0.48557605  0.87343517  1
  In  In40  1  0.00749438  0.82529257  0.37853361  1
  In  In41  1  -0.01651210  0.82541871  0.87298188  1
  In  In42  1  0.33743523  0.16775513  0.36951384  1
  In  In43  1  0.33680298  0.17345839  0.87147511  1
  In  In44  1  0.34884762  0.49675881  0.37660422  1
  In  In45  1  0.33921307  0.49660956  0.87453368  1
  In  In46  1  0.32492799  0.84638576  0.38066191  1
  In  In47  1  0.33742234  0.84627971  0.87587709  1
  In  In48  1  0.69281642  0.16456374  0.37390180  1
  In  In49  1  0.66812814  0.14343959  0.87195839  1
  In  In50  1  0.65906639  0.49977267  0.38117075  1
  In  In51  1  0.66421019  0.50200468  0.88391006  1
  In  In52  1  0.66683406  0.83425128  0.37374162  1
  In  In53  1  0.65907797  0.84258963  0.88086567  1
  In  In54  1  0.16653741  0.00967894  0.12844141  1
  In  In55  1  0.16962728  -0.00369012  0.62762341  1
  In  In56  1  0.16532711  0.33533161  0.13705156  1
  In  In57  1  0.17104232  0.33674945  0.62899826  1
  In  In58  1  0.16611197  0.65808865  0.13431183  1
  In  In59  1  0.15717194  0.67120992  0.62055417  1
  In  In60  1  0.50600623  -0.00238194  0.12773246  1
  In  In61  1  0.50738758  0.00039619  0.63074217  1
  In  In62  1  0.49451348  0.32473048  0.11999651  1
  In  In63  1  0.48872411  0.33347403  0.62141176  1
  In  In64  1  0.51285299  0.67559458  0.12132208  1
  In  In65  1  0.50164102  0.66669537  0.61658564  1
  In  In66  1  0.83740413  -0.01204508  0.12677062  1
  In  In67  1  0.83522241  0.00152780  0.62101819  1
  In  In68  1  0.82626632  0.34603476  0.12873778  1
  In  In69  1  0.84374978  0.33511254  0.60995684  1
  In  In70  1  0.82914004  0.66544813  0.13275523  1
  In  In71  1  0.82782422  0.66603460  0.61428780  1
  In  In72  1  0.66876261  0.32673078  0.74435415  1
  In  In73  1  0.50777871  0.17058176  0.49895682  1
  In  In74  1  0.16608338  0.50430041  0.50055106  1
  In  In75  1  -0.00252240  0.66289582  0.74021544  1
  In  In76  1  -0.00096587  -0.00111098  0.25336572  1
  In  In77  1  0.33106183  0.66440085  0.75629127  1
  In  In78  1  0.33435565  0.66771977  0.25266601  1
  In  In79  1  0.82814348  0.16720101  -0.00406272  1
  In  In80  1  0.16996578  0.17036726  -0.00540728  1
  In  In81  1  0.16696351  0.83402207  0.00422822  1
  In  In82  1  0.66653858  0.67129164  0.74467484  1
  In  In83  1  0.16117492  0.16742345  0.50795394  1
  In  In84  1  0.66891573  0.33241728  0.25480753  1
  In  In85  1  0.16523114  0.49694062  -0.00628477  1
  Cu  Cu86  1  0.16679302  0.17011341  0.25347576  1
  Cu  Cu87  1  0.67022525  0.66557870  0.00654942  1
  Cu  Cu88  1  0.16561667  0.16137653  0.74463504  1
  Cu  Cu89  1  0.49674882  0.16512843  0.75206083  1
  Cu  Cu90  1  0.83091676  0.84430927  0.74509842  1
  Cu  Cu91  1  0.50428944  0.84630624  0.74950666  1
  Cu  Cu92  1  -0.00729779  -0.00339706  0.49678721  1
  Cu  Cu93  1  0.83284064  0.49532035  0.74479703  1
  Cu  Cu94  1  0.16151322  0.49895130  0.25630903  1
  Cu  Cu95  1  0.66605846  -0.00465079  0.00199849  1
  Cu  Cu96  1  0.34931409  -0.00367764  0.00470433  1
  Cu  Cu97  1  0.50240241  0.49783712  0.25193955  1
  Cu  Cu98  1  -0.00485487  0.33927749  0.00080012  1
  Cu  Cu99  1  0.83096260  0.83088174  0.25247507  1
  Cu  Cu100  1  0.00058843  0.67186894  0.49546245  1
  Cu  Cu101  1  0.83251896  0.49794272  0.25455843  1
  Cu  Cu102  1  -0.00669750  -0.00738710  -0.00681798  1
  Cu  Cu103  1  0.50010260  0.16327266  0.25083413  1
  Cu  Cu104  1  0.16915202  0.83597304  0.74707824  1
  Cu  Cu105  1  0.66353071  -0.00470222  0.49922300  1
  Cu  Cu106  1  0.33712003  0.32486517  0.00300929  1
  Cu  Cu107  1  -0.01487646  0.66636539  0.00837929  1
  Cu  Cu108  1  0.33825771  0.67000646  0.49210234  1
  Cu  Cu109  1  0.66165074  0.33574357  0.00166318  1
  Cu  Cu110  1  0.34119658  0.66370408  0.00142753  1
  Cu  Cu111  1  0.33267656  0.00251284  0.50142204  1
  Cu  Cu112  1  0.49539432  0.49399103  0.75090045  1
  Cu  Cu113  1  0.50364550  0.83571151  0.25097673  1
  Cu  Cu114  1  0.66523735  0.67352076  0.49339449  1
  Se  Se115  1  0.07424977  0.07511519  0.05082029  1
  Se  Se116  1  0.07152262  0.07344323  0.56159794  1
  Se  Se117  1  0.07893778  0.41374486  0.06184945  1
  Se  Se118  1  0.07870580  0.40707921  0.55523302  1
  Se  Se119  1  0.07714117  0.74084488  0.06276566  1
  Se  Se120  1  0.08636573  0.75430353  0.54756858  1
  Se  Se121  1  0.42509471  0.08551936  0.05839954  1
  Se  Se122  1  0.41242956  0.08408496  0.56062201  1
  Se  Se123  1  0.41535458  0.41608332  0.05352726  1
  Se  Se124  1  0.43086604  0.42537137  0.54757503  1
  Se  Se125  1  0.42452359  0.75047012  0.05011118  1
  Se  Se126  1  0.41892672  0.75211899  0.55065877  1
  Se  Se127  1  0.74490233  0.07840931  0.06198095  1
  Se  Se128  1  0.74829138  0.07989248  0.55019163  1
  Se  Se129  1  0.75001245  0.41664418  0.05136239  1
  Se  Se130  1  0.77607421  0.43207313  0.54254188  1
  Se  Se131  1  0.75178064  0.74997225  0.06101309  1
  Se  Se132  1  0.74974863  0.75444700  0.54828034  1
  Se  Se133  1  0.25339821  0.25229294  0.06540091  1
  Se  Se134  1  0.26098752  0.25910279  0.55635824  1
  Se  Se135  1  0.25512891  0.58712915  0.05793426  1
  Se  Se136  1  0.26132997  0.59376481  0.55932779  1
  Se  Se137  1  0.25982929  0.92310612  0.06298354  1
  Se  Se138  1  0.24841962  0.91790952  0.55340062  1
  Se  Se139  1  0.58042353  0.24675737  0.04989769  1
  Se  Se140  1  0.59427364  0.25610561  0.56441594  1
  Se  Se141  1  0.58311844  0.57992605  0.05480348  1
  Se  Se142  1  0.58739594  0.58675383  0.54935495  1
  Se  Se143  1  0.58549468  0.91225109  0.05823558  1
  Se  Se144  1  0.57397357  0.91862660  0.55261616  1
  Se  Se145  1  0.91966505  0.25335295  0.06048020  1
  Se  Se146  1  0.91786123  0.23830483  0.54712638  1
  Se  Se147  1  0.90899695  0.57806894  0.06193105  1
  Se  Se148  1  0.92515406  0.58847986  0.55487497  1
  Se  Se149  1  0.91042825  0.91295785  0.04819235  1
  Se  Se150  1  0.90852801  0.91178398  0.54907316  1
  Se  Se151  1  0.07688274  0.25703125  0.44383089  1
  Se  Se152  1  0.07021827  0.25592003  0.93950574  1
  Se  Se153  1  0.07822846  0.58876291  0.43488323  1
  Se  Se154  1  0.06609612  0.59169109  0.94377569  1
  Se  Se155  1  0.08276774  0.91651155  0.44747811  1
  Se  Se156  1  0.08148510  0.91811238  0.93584454  1
  Se  Se157  1  0.40997913  0.25605951  0.44323291  1
  Se  Se158  1  0.41884636  0.24244019  0.94794494  1
  Se  Se159  1  0.42348127  0.58453554  0.44478024  1
  Se  Se160  1  0.41776338  0.57640046  0.94633586  1
  Se  Se161  1  0.41743374  0.91980187  0.44864727  1
  Se  Se162  1  0.42632527  0.91055820  0.94885616  1
  Se  Se163  1  0.73143391  0.25628662  0.45323798  1
  Se  Se164  1  0.73799912  0.25748001  0.93561659  1
  Se  Se165  1  0.74796786  0.58745106  0.44258942  1
  Se  Se166  1  0.75115173  0.58167357  0.95066660  1
  Se  Se167  1  0.74951485  0.91417567  0.44583405  1
  Se  Se168  1  0.75361745  0.92245366  0.94269635  1
  Se  Se169  1  0.25203515  0.08192392  0.44180941  1
  Se  Se170  1  0.26175928  0.07143626  0.94500096  1
  Se  Se171  1  0.25742569  0.41300879  0.44317497  1
  Se  Se172  1  0.25309920  0.39891111  0.93972805  1
  Se  Se173  1  0.24874023  0.75328957  0.44672895  1
  Se  Se174  1  0.25762695  0.74216710  0.94148998  1
  Se  Se175  1  0.58857571  0.07724299  0.43561133  1
  Se  Se176  1  0.58440821  0.08194898  0.94961126  1
  Se  Se177  1  0.58283388  0.41478342  0.45190190  1
  Se  Se178  1  0.57758099  0.41968494  0.94857977  1
  Se  Se179  1  0.57874970  0.75755890  0.44441575  1
  Se  Se180  1  0.58954885  0.74767139  0.94813826  1
  Se  Se181  1  0.91039848  0.08347424  0.44721705  1
  Se  Se182  1  0.92044551  0.08049672  0.93494052  1
  Se  Se183  1  0.90560337  0.42683484  0.45666397  1
  Se  Se184  1  0.90833144  0.41934084  0.94877525  1
  Se  Se185  1  0.91280617  0.75231050  0.44416254  1
  Se  Se186  1  0.90989021  0.75287545  0.95112685  1
  Se  Se187  1  0.25264445  0.25337869  0.30459794  1
  Se  Se188  1  0.24586411  0.24488294  0.80226962  1
  Se  Se189  1  0.24529959  0.57815343  0.31568836  1
  Se  Se190  1  0.23726108  0.56727669  0.80709991  1
  Se  Se191  1  0.25347992  0.91769706  0.30119319  1
  Se  Se192  1  0.25361013  0.91590838  0.80233916  1
  Se  Se193  1  0.57884865  0.24034727  0.31495547  1
  Se  Se194  1  0.57963553  0.24502369  0.81184513  1
  Se  Se195  1  0.58833606  0.57970915  0.30248646  1
  Se  Se196  1  0.57733565  0.57852236  0.80633074  1
  Se  Se197  1  0.58801407  0.92000542  0.30285133  1
  Se  Se198  1  0.58854179  0.92469272  0.80566591  1
  Se  Se199  1  0.90556429  0.25693849  0.30989835  1
  Se  Se200  1  0.92033673  0.26272934  0.79484317  1
  Se  Se201  1  0.91812729  0.58349149  0.30510014  1
  Se  Se202  1  0.90433790  0.58232773  0.80685638  1
  Se  Se203  1  0.90924118  0.91190282  0.31480329  1
  Se  Se204  1  0.92137422  0.91677829  0.80096531  1
  Se  Se205  1  0.08646909  0.09128631  0.31594471  1
  Se  Se206  1  0.08137371  0.07961744  0.79868865  1
  Se  Se207  1  0.07786642  0.41413075  0.30803830  1
  Se  Se208  1  0.07577972  0.42056526  0.79878594  1
  Se  Se209  1  0.08153199  0.75733647  0.29803718  1
  Se  Se210  1  0.08918697  0.75281432  0.80574485  1
  Se  Se211  1  0.41389294  0.07951959  0.30203108  1
  Se  Se212  1  0.41581467  0.08108290  0.80789231  1
  Se  Se213  1  0.41831461  0.41273491  0.30110555  1
  Se  Se214  1  0.41474965  0.41024544  0.80415153  1
  Se  Se215  1  0.42243919  0.75730144  0.31348080  1
  Se  Se216  1  0.42966006  0.75750233  0.80821441  1
  Se  Se217  1  0.75058508  0.07965219  0.29644947  1
  Se  Se218  1  0.76991323  0.10625221  0.79977025  1
  Se  Se219  1  0.75730539  0.41715194  0.31800902  1
  Se  Se220  1  0.74984586  0.42334017  0.80880745  1
  Se  Se221  1  0.74561100  0.74742412  0.30405971  1
  Se  Se222  1  0.75532356  0.75983759  0.80662888  1
  Se  Se223  1  0.24804979  0.08395974  0.20076280  1
  Se  Se224  1  0.25353659  0.07776932  0.69665505  1
  Se  Se225  1  0.24947283  0.41907254  0.20356352  1
  Se  Se226  1  0.25930020  0.41479416  0.69541011  1
  Se  Se227  1  0.24576083  0.75938114  0.19240948  1
  Se  Se228  1  0.24885367  0.75344601  0.68884640  1
  Se  Se229  1  0.58634636  0.08249090  0.19850202  1
  Se  Se230  1  0.58499845  0.08370573  0.70212747  1
  Se  Se231  1  0.58073755  0.41785385  0.18837300  1
  Se  Se232  1  0.58257577  0.42549260  0.68811632  1
  Se  Se233  1  0.58538620  0.74749883  0.20040999  1
  Se  Se234  1  0.57759282  0.76298345  0.68661624  1
  Se  Se235  1  0.91169799  0.08970224  0.19154411  1
  Se  Se236  1  0.92979023  0.06576277  0.69162765  1
  Se  Se237  1  0.91544463  0.41357654  0.20074857  1
  Se  Se238  1  0.91398440  0.41277789  0.69100179  1
  Se  Se239  1  0.91653637  0.74930547  0.19942507  1
  Se  Se240  1  0.90643479  0.75767043  0.68628869  1
  Se  Se241  1  0.07951410  0.25151508  0.20228671  1
  Se  Se242  1  0.08664087  0.24921230  0.69241677  1
  Se  Se243  1  0.08063528  0.58501791  0.20452333  1
  Se  Se244  1  0.09621805  0.57134099  0.69107681  1
  Se  Se245  1  0.08655287  0.91116213  0.18892593  1
  Se  Se246  1  0.08144958  0.91218282  0.69312063  1
  Se  Se247  1  0.41905455  0.25175888  0.19851405  1
  Se  Se248  1  0.41892161  0.25270873  0.69807761  1
  Se  Se249  1  0.42323949  0.57909278  0.18942630  1
  Se  Se250  1  0.42189968  0.58130276  0.69115490  1
  Se  Se251  1  0.41891850  0.91734568  0.19750019  1
  Se  Se252  1  0.41384089  0.92213373  0.69630176  1
  Se  Se253  1  0.75702673  0.24230480  0.19217717  1
  Se  Se254  1  0.76104134  0.24578720  0.68267434  1
  Se  Se255  1  0.74688781  0.58001693  0.20151120  1
  Se  Se256  1  0.75007790  0.57305159  0.68580476  1
  Se  Se257  1  0.75126706  0.91732626  0.19893255  1
  Se  Se258  1  0.74500561  0.92492742  0.69265755  1
