# generated using pymatgen
data_In86Cu29Se144
_symmetry_space_group_name_H-M   'P 1'
_cell_length_a   17.57346301
_cell_length_b   17.57936632
_cell_length_c   23.43645560
_cell_angle_alpha   89.99300509
_cell_angle_beta   90.00404899
_cell_angle_gamma   89.98779514
_symmetry_Int_Tables_number   1
_chemical_formula_structural   In86Cu29Se144
_chemical_formula_sum   'In86 Cu29 Se144'
_cell_volume   7240.23205053
_cell_formula_units_Z   1
loop_
 _symmetry_equiv_pos_site_id
 _symmetry_equiv_pos_as_xyz
  1  'x, y, z'
loop_
 _atom_site_type_symbol
 _atom_site_label
 _atom_site_symmetry_multiplicity
 _atom_site_fract_x
 _atom_site_fract_y
 _atom_site_fract_z
 _atom_site_occupancy
  In  In0  1  -0.01458352  0.16326398  0.12168436  1
  In  In1  1  -0.00073424  0.16281977  0.62093348  1
  In  In2  1  0.01951961  0.50353565  0.12744852  1
  In  In3  1  0.00137908  0.49569909  0.62290959  1
  In  In4  1  0.00775442  0.82784641  0.12775650  1
  In  In5  1  0.00230362  0.83632304  0.64286587  1
  In  In6  1  0.33453729  0.16652451  0.13822329  1
  In  In7  1  0.32605264  0.16744899  0.61155804  1
  In  In8  1  0.32915829  0.49689220  0.12578630  1
  In  In9  1  0.31607947  0.48045375  0.60636956  1
  In  In10  1  0.34101536  0.83780646  0.11222179  1
  In  In11  1  0.33185811  0.84029332  0.63169426  1
  In  In12  1  0.67605308  0.15807381  0.13413354  1
  In  In13  1  0.66993206  0.16474830  0.61764662  1
  In  In14  1  0.65395479  0.49980664  0.13192767  1
  In  In15  1  0.65767058  0.49019183  0.61432418  1
  In  In16  1  0.66365736  0.84162104  0.12179696  1
  In  In17  1  0.67531121  0.83665454  0.62884739  1
  In  In18  1  0.17487361  0.01342787  0.36684516  1
  In  In19  1  0.15206808  -0.02145718  0.85497372  1
  In  In20  1  0.18134521  0.31808175  0.39691902  1
  In  In21  1  0.16823269  0.34770996  0.87437896  1
  In  In22  1  0.15676450  0.66267213  0.37075350  1
  In  In23  1  0.15158239  0.67984539  0.88831526  1
  In  In24  1  0.50935407  0.00996255  0.36443126  1
  In  In25  1  0.48778681  -0.01054041  0.86517078  1
  In  In26  1  0.49776835  0.32538777  0.37607348  1
  In  In27  1  0.50259729  0.34435320  0.87359516  1
  In  In28  1  0.49611096  0.66422463  0.37282789  1
  In  In29  1  0.47327712  0.69077481  0.90812543  1
  In  In30  1  0.83837171  0.00761442  0.36988164  1
  In  In31  1  0.84914709  0.01373647  0.86985376  1
  In  In32  1  0.83162481  0.33790866  0.38570472  1
  In  In33  1  0.83481907  0.31827989  0.87503547  1
  In  In34  1  0.83837512  0.64569939  0.37409923  1
  In  In35  1  0.83933317  0.65562627  0.87089598  1
  In  In36  1  0.00835657  0.16593346  0.38876628  1
  In  In37  1  -0.00793286  0.15543672  0.86707731  1
  In  In38  1  -0.00193869  0.49400612  0.38420711  1
  In  In39  1  0.01018772  0.51178101  0.86220300  1
  In  In40  1  0.00170101  0.83666056  0.36773450  1
  In  In41  1  0.01329129  0.83780376  0.86566919  1
  In  In42  1  0.33675295  0.17204450  0.37705147  1
  In  In43  1  0.34315301  0.16021213  0.87302845  1
  In  In44  1  0.35240248  0.47695191  0.39505623  1
  In  In45  1  0.31788898  0.52145441  0.89645663  1
  In  In46  1  0.32023223  0.84139926  0.37086505  1
  In  In47  1  0.31330802  0.84757811  0.89005849  1
  In  In48  1  0.66531688  0.16449736  0.37461659  1
  In  In49  1  0.68528590  0.16566317  0.87498333  1
  In  In50  1  0.68468084  0.48747296  0.38407730  1
  In  In51  1  0.65467410  0.50572281  0.87748108  1
  In  In52  1  0.65593267  0.83719025  0.36645554  1
  In  In53  1  0.65036971  0.83815253  0.87776272  1
  In  In54  1  0.17168531  -0.00360648  0.12743508  1
  In  In55  1  0.15683250  0.00949074  0.63618300  1
  In  In56  1  0.17028619  0.34679559  0.12941718  1
  In  In57  1  0.14109348  0.30855082  0.59003456  1
  In  In58  1  0.16554357  0.65714876  0.11871608  1
  In  In59  1  0.16618333  0.65942393  0.63034632  1
  In  In60  1  0.50154779  0.00030066  0.12575027  1
  In  In61  1  0.49760384  0.01255027  0.62803511  1
  In  In62  1  0.49437949  0.33670911  0.13882445  1
  In  In63  1  0.49607683  0.33227687  0.61160527  1
  In  In64  1  0.49004478  0.65743928  0.10839934  1
  In  In65  1  0.49645685  0.64427522  0.62644921  1
  In  In66  1  0.82923165  0.00243991  0.12923472  1
  In  In67  1  0.83342537  0.00507925  0.62826739  1
  In  In68  1  0.83719793  0.31766779  0.12879031  1
  In  In69  1  0.85762415  0.34522632  0.60305159  1
  In  In70  1  0.83957713  0.67688955  0.12886280  1
  In  In71  1  0.83915992  0.66714850  0.62603752  1
  In  In72  1  0.16350996  0.16528407  -0.00103372  1
  In  In73  1  0.49926961  0.82978818  0.49380877  1
  In  In74  1  0.66603775  0.66635588  0.75167479  1
  In  In75  1  0.66865730  0.67198367  0.24484652  1
  In  In76  1  0.83044037  0.83533772  0.00205656  1
  In  In77  1  0.32697093  0.67087955  0.75881822  1
  In  In78  1  0.50483284  0.16738326  0.00025345  1
  In  In79  1  0.83021644  0.83261421  0.50750477  1
  In  In80  1  0.67218667  0.32860269  0.74550221  1
  In  In81  1  0.82864279  0.49702438  -0.00684431  1
  In  In82  1  0.32955848  0.33240439  0.74241459  1
  In  In83  1  0.00612208  0.33245872  0.25794083  1
  In  In84  1  0.16534374  0.83150754  0.50901712  1
  In  In85  1  0.32736745  0.66719773  0.24545999  1
  Cu  Cu86  1  -0.00183894  0.66599055  0.00022534  1
  Cu  Cu87  1  0.83264562  0.84024215  0.75186526  1
  Cu  Cu88  1  0.00758894  0.00259023  0.50057463  1
  Cu  Cu89  1  0.83893521  0.83672884  0.24679408  1
  Cu  Cu90  1  0.16099933  0.16882488  0.25761368  1
  Cu  Cu91  1  0.66732128  0.00440246  0.00202330  1
  Cu  Cu92  1  0.49602183  0.16703249  0.25460745  1
  Cu  Cu93  1  0.50424331  0.49372522  0.25771358  1
  Cu  Cu94  1  0.83382425  0.49044445  0.74458539  1
  Cu  Cu95  1  0.82907994  0.16496796  0.25347228  1
  Cu  Cu96  1  0.15709687  0.49497090  0.74618478  1
  Cu  Cu97  1  0.16353476  0.84146345  0.24715309  1
  Cu  Cu98  1  0.48909246  0.50048173  0.75235699  1
  Cu  Cu99  1  0.84042150  0.16698465  0.74398616  1
  Cu  Cu100  1  0.50700871  0.15908907  0.74591580  1
  Cu  Cu101  1  0.33328528  0.01055696  0.49624257  1
  Cu  Cu102  1  0.49448471  0.84364495  0.24080874  1
  Cu  Cu103  1  0.32569157  -0.00171030  -0.00180451  1
  Cu  Cu104  1  0.50066836  0.83804408  0.74995250  1
  Cu  Cu105  1  0.66794265  0.33070351  0.00337361  1
  Cu  Cu106  1  0.33306505  0.34116226  0.00643167  1
  Cu  Cu107  1  0.00128861  0.33546081  0.00256686  1
  Cu  Cu108  1  0.66429505  0.32290099  0.49525548  1
  Cu  Cu109  1  0.17375748  0.50089671  0.25449542  1
  Cu  Cu110  1  0.16871385  0.17106040  0.74023928  1
  Cu  Cu111  1  0.66448192  0.00180807  0.49723271  1
  Cu  Cu112  1  0.33512903  0.66410563  0.50165664  1
  Cu  Cu113  1  -0.00987933  0.66043252  0.50137992  1
  Cu  Cu114  1  0.84056089  0.49272411  0.25814339  1
  Se  Se115  1  0.07573901  0.07570984  0.05878526  1
  Se  Se116  1  0.09290479  0.08386037  0.55379221  1
  Se  Se117  1  0.08710006  0.41673160  0.05377567  1
  Se  Se118  1  0.09306758  0.43482963  0.54860067  1
  Se  Se119  1  0.08353915  0.74708578  0.05370869  1
  Se  Se120  1  0.06773385  0.74271968  0.56294744  1
  Se  Se121  1  0.40468496  0.08315328  0.05661364  1
  Se  Se122  1  0.42178736  0.08641356  0.55081162  1
  Se  Se123  1  0.42166209  0.41495361  0.06228029  1
  Se  Se124  1  0.43834826  0.44211713  0.55378110  1
  Se  Se125  1  0.41512418  0.74865563  0.04456666  1
  Se  Se126  1  0.41024777  0.74674313  0.56258507  1
  Se  Se127  1  0.75150466  0.08495002  0.05591639  1
  Se  Se128  1  0.75366794  0.07701319  0.55168515  1
  Se  Se129  1  0.74875282  0.41070548  0.06411670  1
  Se  Se130  1  0.74478556  0.40902656  0.54922339  1
  Se  Se131  1  0.74130227  0.74019965  0.05936480  1
  Se  Se132  1  0.73652696  0.73742241  0.55869152  1
  Se  Se133  1  0.25606807  0.25288503  0.06207609  1
  Se  Se134  1  0.27637755  0.27997138  0.55217338  1
  Se  Se135  1  0.25968610  0.58420943  0.05504333  1
  Se  Se136  1  0.24398724  0.58904676  0.55342550  1
  Se  Se137  1  0.24255068  0.91460305  0.05106468  1
  Se  Se138  1  0.25684574  0.92944252  0.55894739  1
  Se  Se139  1  0.58881210  0.25330689  0.06650463  1
  Se  Se140  1  0.58055153  0.24263985  0.55062927  1
  Se  Se141  1  0.59288661  0.58152195  0.05509448  1
  Se  Se142  1  0.58571284  0.58788864  0.55240572  1
  Se  Se143  1  0.58054169  0.92179459  0.05190051  1
  Se  Se144  1  0.58692323  0.91870885  0.55763312  1
  Se  Se145  1  0.91473413  0.25055843  0.04924608  1
  Se  Se146  1  0.90810529  0.22930308  0.54912335  1
  Se  Se147  1  0.91933392  0.58332865  0.05969478  1
  Se  Se148  1  0.90922022  0.57776924  0.55625824  1
  Se  Se149  1  0.92216028  0.92049003  0.06156354  1
  Se  Se150  1  0.93081119  0.91892761  0.56114891  1
  Se  Se151  1  0.07640779  0.25676361  0.45853262  1
  Se  Se152  1  0.07791879  0.25670216  0.93717594  1
  Se  Se153  1  0.08046278  0.58817662  0.44627289  1
  Se  Se154  1  0.07847334  0.57706747  0.94761527  1
  Se  Se155  1  0.08561357  0.92051430  0.44019522  1
  Se  Se156  1  0.08735145  0.91496554  0.94078751  1
  Se  Se157  1  0.40458499  0.26246722  0.44862488  1
  Se  Se158  1  0.40995289  0.26137934  0.94355433  1
  Se  Se159  1  0.42283254  0.58686672  0.44828113  1
  Se  Se160  1  0.44642497  0.55430993  0.94128773  1
  Se  Se161  1  0.40991069  0.92492769  0.43724984  1
  Se  Se162  1  0.41840395  0.92013360  0.94791825  1
  Se  Se163  1  0.75174232  0.24061047  0.44521892  1
  Se  Se164  1  0.75237517  0.24873153  0.95113869  1
  Se  Se165  1  0.75113568  0.58668486  0.44837241  1
  Se  Se166  1  0.73917165  0.59752959  0.94300241  1
  Se  Se167  1  0.74346858  0.91772879  0.43912978  1
  Se  Se168  1  0.74777133  0.92761898  0.93765145  1
  Se  Se169  1  0.24555537  0.09064736  0.44454685  1
  Se  Se170  1  0.25023153  0.07756008  0.93528069  1
  Se  Se171  1  0.22972407  0.43989007  0.44723917  1
  Se  Se172  1  0.24390742  0.41849343  0.95337314  1
  Se  Se173  1  0.25437083  0.74451806  0.44214213  1
  Se  Se174  1  0.27603163  0.72109685  0.93772315  1
  Se  Se175  1  0.57853626  0.08321298  0.44464213  1
  Se  Se176  1  0.58736261  0.07777716  0.93511291  1
  Se  Se177  1  0.58504215  0.41106731  0.44237151  1
  Se  Se178  1  0.58745577  0.41229967  0.94801873  1
  Se  Se179  1  0.59502310  0.74032252  0.43909138  1
  Se  Se180  1  0.58863598  0.75512634  0.95394334  1
  Se  Se181  1  0.91673246  0.07750852  0.44759963  1
  Se  Se182  1  0.91630222  0.09136712  0.94782290  1
  Se  Se183  1  0.91648442  0.41515664  0.45383884  1
  Se  Se184  1  0.92540713  0.41304924  0.93546041  1
  Se  Se185  1  0.91994603  0.74931164  0.44070488  1
  Se  Se186  1  0.91945957  0.74551864  0.93929477  1
  Se  Se187  1  0.24459235  0.25236345  0.31006771  1
  Se  Se188  1  0.24458452  0.24322232  0.80996156  1
  Se  Se189  1  0.25803903  0.57596140  0.31688115  1
  Se  Se190  1  0.23569632  0.57323933  0.81005933  1
  Se  Se191  1  0.25023420  0.92401294  0.29727443  1
  Se  Se192  1  0.26665309  0.92040778  0.80242170  1
  Se  Se193  1  0.58342402  0.24840529  0.30542774  1
  Se  Se194  1  0.57928488  0.24239771  0.80979841  1
  Se  Se195  1  0.58782558  0.57869272  0.31053600  1
  Se  Se196  1  0.56687635  0.58590316  0.80910489  1
  Se  Se197  1  0.58355204  0.92066607  0.29411546  1
  Se  Se198  1  0.58746422  0.92144818  0.79949604  1
  Se  Se199  1  0.91220177  0.24336291  0.31405444  1
  Se  Se200  1  0.91998532  0.25159228  0.79989454  1
  Se  Se201  1  0.92916737  0.57630786  0.30469788  1
  Se  Se202  1  0.91422873  0.58106319  0.79464210  1
  Se  Se203  1  0.91887314  0.92157342  0.30195771  1
  Se  Se204  1  0.92133023  0.91985561  0.80328593  1
  Se  Se205  1  0.07315101  0.08718957  0.30741107  1
  Se  Se206  1  0.08832439  0.08899122  0.79876995  1
  Se  Se207  1  0.09829140  0.41805801  0.31692932  1
  Se  Se208  1  0.07718319  0.40812891  0.79982384  1
  Se  Se209  1  0.08681642  0.75347061  0.30137859  1
  Se  Se210  1  0.07858922  0.73521395  0.80376140  1
  Se  Se211  1  0.40882134  0.08317342  0.30463775  1
  Se  Se212  1  0.41559608  0.08256080  0.79711745  1
  Se  Se213  1  0.41478103  0.41341864  0.30748945  1
  Se  Se214  1  0.40520436  0.42382006  0.81216082  1
  Se  Se215  1  0.42069609  0.76173079  0.30486757  1
  Se  Se216  1  0.42546866  0.75723593  0.81321689  1
  Se  Se217  1  0.74371931  0.07862916  0.30303325  1
  Se  Se218  1  0.75611334  0.08545696  0.79953359  1
  Se  Se219  1  0.75428088  0.40908292  0.30608183  1
  Se  Se220  1  0.75268240  0.42241374  0.81245743  1
  Se  Se221  1  0.76181304  0.75488627  0.31009659  1
  Se  Se222  1  0.75438770  0.75871710  0.81323709  1
  Se  Se223  1  0.24211899  0.08633254  0.19937926  1
  Se  Se224  1  0.25846748  0.08990004  0.69120625  1
  Se  Se225  1  0.25657792  0.41621500  0.20226929  1
  Se  Se226  1  0.23227996  0.41374394  0.68451299  1
  Se  Se227  1  0.24310767  0.76048371  0.18548993  1
  Se  Se228  1  0.23814893  0.76047301  0.69625056  1
  Se  Se229  1  0.57734208  0.08547884  0.19614661  1
  Se  Se230  1  0.59608571  0.08244032  0.69320531  1
  Se  Se231  1  0.58912830  0.41095311  0.20519402  1
  Se  Se232  1  0.57101127  0.41892687  0.69459578  1
  Se  Se233  1  0.56904732  0.75229737  0.18506817  1
  Se  Se234  1  0.57188848  0.75254773  0.68785325  1
  Se  Se235  1  0.91402154  0.08473883  0.19840611  1
  Se  Se236  1  0.92555663  0.07870397  0.69570969  1
  Se  Se237  1  0.91920213  0.42049938  0.19011472  1
  Se  Se238  1  0.91848695  0.40932606  0.69152758  1
  Se  Se239  1  0.92400508  0.74840145  0.20034842  1
  Se  Se240  1  0.90989115  0.74958447  0.70033585  1
  Se  Se241  1  0.08667579  0.24366920  0.18792598  1
  Se  Se242  1  0.08711742  0.25187963  0.68370098  1
  Se  Se243  1  0.09217890  0.58604018  0.20104643  1
  Se  Se244  1  0.07561825  0.58336681  0.69585173  1
  Se  Se245  1  0.07767611  0.92348284  0.19514374  1
  Se  Se246  1  0.09156140  0.91584544  0.70460687  1
  Se  Se247  1  0.41070070  0.25376240  0.20597883  1
  Se  Se248  1  0.42703177  0.24349454  0.68820691  1
  Se  Se249  1  0.42869528  0.57732649  0.19529193  1
  Se  Se250  1  0.39989674  0.57137655  0.69236081  1
  Se  Se251  1  0.40639110  0.92259341  0.18915931  1
  Se  Se252  1  0.42016819  0.92184978  0.69495587  1
  Se  Se253  1  0.74833077  0.25229640  0.20197673  1
  Se  Se254  1  0.76474295  0.24960965  0.68225020  1
  Se  Se255  1  0.76358019  0.57409397  0.19358912  1
  Se  Se256  1  0.74768044  0.56998378  0.68896542  1
  Se  Se257  1  0.74783114  0.91343243  0.19505574  1
  Se  Se258  1  0.74990950  0.92211107  0.69777891  1
