# generated using pymatgen
data_In86Cu29Se144
_symmetry_space_group_name_H-M   'P 1'
_cell_length_a   17.58210101
_cell_length_b   17.58151349
_cell_length_c   23.43578890
_cell_angle_alpha   90.02018118
_cell_angle_beta   89.99008690
_cell_angle_gamma   90.00851851
_symmetry_Int_Tables_number   1
_chemical_formula_structural   In86Cu29Se144
_chemical_formula_sum   'In86 Cu29 Se144'
_cell_volume   7244.46916210
_cell_formula_units_Z   1
loop_
 _symmetry_equiv_pos_site_id
 _symmetry_equiv_pos_as_xyz
  1  'x, y, z'
loop_
 _atom_site_type_symbol
 _atom_site_label
 _atom_site_symmetry_multiplicity
 _atom_site_fract_x
 _atom_site_fract_y
 _atom_site_fract_z
 _atom_site_occupancy
  In  In0  1  -0.01068953  0.14952509  0.11769066  1
  In  In1  1  -0.00920354  0.16173080  0.63343143  1
  In  In2  1  0.01151866  0.49799419  0.12284615  1
  In  In3  1  -0.00787270  0.50525290  0.62857413  1
  In  In4  1  -0.00645418  0.83252399  0.12443629  1
  In  In5  1  0.00367694  0.83855756  0.62186353  1
  In  In6  1  0.33183372  0.16650973  0.11144795  1
  In  In7  1  0.34008362  0.15863353  0.63323034  1
  In  In8  1  0.33141527  0.51561335  0.12618030  1
  In  In9  1  0.33051296  0.49895415  0.64211568  1
  In  In10  1  0.31901899  0.82804549  0.12201514  1
  In  In11  1  0.32497089  0.84575990  0.63479342  1
  In  In12  1  0.65784511  0.16352394  0.11895746  1
  In  In13  1  0.67383275  0.16955317  0.63141719  1
  In  In14  1  0.65823313  0.49746306  0.12165844  1
  In  In15  1  0.67547240  0.48965166  0.63343673  1
  In  In16  1  0.69115555  0.83815682  0.12013072  1
  In  In17  1  0.68496541  0.82178679  0.64430648  1
  In  In18  1  0.14882853  -0.00470087  0.37374157  1
  In  In19  1  0.16603731  -0.00540307  0.87702754  1
  In  In20  1  0.17650728  0.33230159  0.37694789  1
  In  In21  1  0.16303189  0.32881789  0.86613478  1
  In  In22  1  0.17351254  0.68293248  0.37051255  1
  In  In23  1  0.16884611  0.66052385  0.88254850  1
  In  In24  1  0.51473798  -0.00036542  0.37707639  1
  In  In25  1  0.50916775  0.01397919  0.87135567  1
  In  In26  1  0.49471217  0.32457251  0.38187420  1
  In  In27  1  0.49149348  0.32455940  0.86892101  1
  In  In28  1  0.50013039  0.67275878  0.37006532  1
  In  In29  1  0.49747479  0.66768533  0.86898753  1
  In  In30  1  0.83409840  -0.00006923  0.38442071  1
  In  In31  1  0.83886396  -0.00783388  0.85999648  1
  In  In32  1  0.82882877  0.33512222  0.38837577  1
  In  In33  1  0.83190315  0.31608620  0.84743867  1
  In  In34  1  0.84393171  0.66169812  0.38206294  1
  In  In35  1  0.82944283  0.68209027  0.87360641  1
  In  In36  1  -0.00098945  0.15073371  0.37558481  1
  In  In37  1  0.00331975  0.16614899  0.86381552  1
  In  In38  1  -0.01413238  0.50221835  0.37712154  1
  In  In39  1  0.02077215  0.49427628  0.86977429  1
  In  In40  1  0.00173138  0.83639492  0.37901212  1
  In  In41  1  -0.00891829  0.84994390  0.89243660  1
  In  In42  1  0.33547437  0.17606795  0.38173611  1
  In  In43  1  0.33379807  0.16687749  0.87361024  1
  In  In44  1  0.32658376  0.50449647  0.37554575  1
  In  In45  1  0.31466941  0.49048700  0.85974870  1
  In  In46  1  0.33402973  0.82289170  0.37389737  1
  In  In47  1  0.32091384  0.82107788  0.87000147  1
  In  In48  1  0.67938684  0.15613705  0.38988771  1
  In  In49  1  0.66918003  0.15370627  0.86064389  1
  In  In50  1  0.67448395  0.51154121  0.37947234  1
  In  In51  1  0.66975682  0.50572864  0.86524564  1
  In  In52  1  0.66579681  0.84800986  0.37575931  1
  In  In53  1  0.67858717  0.83828970  0.86090078  1
  In  In54  1  0.13340520  -0.02858588  0.09014614  1
  In  In55  1  0.16520288  -0.00351334  0.63144594  1
  In  In56  1  0.16615017  0.33579500  0.10980520  1
  In  In57  1  0.17075347  0.33399427  0.64614761  1
  In  In58  1  0.16257617  0.66738594  0.12418302  1
  In  In59  1  0.15872571  0.67496763  0.63110670  1
  In  In60  1  0.50186653  0.01291220  0.12341886  1
  In  In61  1  0.49802233  0.00610229  0.62760081  1
  In  In62  1  0.50631787  0.32846272  0.11980848  1
  In  In63  1  0.51321655  0.31952404  0.63679870  1
  In  In64  1  0.49201879  0.65708896  0.12675150  1
  In  In65  1  0.49963761  0.67231777  0.63113209  1
  In  In66  1  0.84794642  -0.01436828  0.13879712  1
  In  In67  1  0.82967510  -0.00560848  0.63658974  1
  In  In68  1  0.82731029  0.33462180  0.12132175  1
  In  In69  1  0.83330697  0.33070755  0.63002166  1
  In  In70  1  0.83305586  0.69872803  0.12100179  1
  In  In71  1  0.83516205  0.66175846  0.61966223  1
  In  In72  1  0.16276104  0.50230974  0.50345391  1
  In  In73  1  0.33703687  0.33793714  0.25475785  1
  In  In74  1  0.50548781  0.49530897  0.50329034  1
  In  In75  1  0.66704222  0.67047622  0.24455290  1
  In  In76  1  0.00456430  0.33158376  0.25529430  1
  In  In77  1  0.49438432  0.50104658  0.00213828  1
  In  In78  1  0.50417912  0.84035251  0.49735388  1
  In  In79  1  0.15790403  0.16018344  0.51127155  1
  In  In80  1  0.83277874  0.15905757  -0.01424620  1
  In  In81  1  0.32855124  0.00371891  0.24259967  1
  In  In82  1  0.66378213  0.33184973  0.24387939  1
  In  In83  1  0.50371360  0.84013282  -0.00897502  1
  In  In84  1  0.00398882  0.66606593  0.75317840  1
  In  In85  1  0.84637681  0.50338737  -0.01675095  1
  Cu  Cu86  1  0.67640298  0.00113616  -0.00856738  1
  Cu  Cu87  1  0.49929577  0.83273285  0.24742983  1
  Cu  Cu88  1  0.66302772  0.33516064  -0.00666466  1
  Cu  Cu89  1  0.34507946  0.32522416  0.51224678  1
  Cu  Cu90  1  0.33698701  0.00837770  -0.00565748  1
  Cu  Cu91  1  0.33045254  0.66333708  -0.00259685  1
  Cu  Cu92  1  -0.00227398  0.32790877  0.50732890  1
  Cu  Cu93  1  0.49738906  0.50675436  0.75133029  1
  Cu  Cu94  1  0.16985127  0.51306509  0.24890955  1
  Cu  Cu95  1  0.00063608  0.67496381  0.50346216  1
  Cu  Cu96  1  -0.00012524  0.66676184  -0.00014064  1
  Cu  Cu97  1  0.67768722  0.66674520  0.50547750  1
  Cu  Cu98  1  0.33085338  0.67101240  0.50340231  1
  Cu  Cu99  1  0.67308726  0.32884389  0.51226281  1
  Cu  Cu100  1  0.17237816  0.15523931  0.75395570  1
  Cu  Cu101  1  0.66875411  0.00206805  0.50999835  1
  Cu  Cu102  1  0.00130070  0.32676057  -0.01130053  1
  Cu  Cu103  1  0.32829176  0.33351573  -0.01216150  1
  Cu  Cu104  1  0.83545753  0.50109235  0.74654693  1
  Cu  Cu105  1  0.15956917  0.15881509  0.23780172  1
  Cu  Cu106  1  0.15940730  0.83489619  0.24309254  1
  Cu  Cu107  1  0.50090412  0.84184957  0.75323696  1
  Cu  Cu108  1  0.83044444  0.15431101  0.25800283  1
  Cu  Cu109  1  0.49699985  0.17127674  0.75021819  1
  Cu  Cu110  1  0.83688590  0.83851800  0.25463280  1
  Cu  Cu111  1  0.15962137  0.83415520  0.75285530  1
  Cu  Cu112  1  0.50531145  0.16362460  0.25069967  1
  Cu  Cu113  1  0.32555224  0.00031639  0.50792803  1
  Cu  Cu114  1  0.83194647  0.50766021  0.24969275  1
  Se  Se115  1  0.09022155  0.09960337  0.04912933  1
  Se  Se116  1  0.06569021  0.06727080  0.56214024  1
  Se  Se117  1  0.07617731  0.41574190  0.04501064  1
  Se  Se118  1  0.08202871  0.40623798  0.56564566  1
  Se  Se119  1  0.08012654  0.75016754  0.05587040  1
  Se  Se120  1  0.08911764  0.75336347  0.55426813  1
  Se  Se121  1  0.42446475  0.08636281  0.04827632  1
  Se  Se122  1  0.41361411  0.08328598  0.55475970  1
  Se  Se123  1  0.40275407  0.40738108  0.05941439  1
  Se  Se124  1  0.41678487  0.41371179  0.56989132  1
  Se  Se125  1  0.41455804  0.74532105  0.05317943  1
  Se  Se126  1  0.41246369  0.75419327  0.55980134  1
  Se  Se127  1  0.75274053  0.07746412  0.05929113  1
  Se  Se128  1  0.75351664  0.08243701  0.56391975  1
  Se  Se129  1  0.74561892  0.41731864  0.04862250  1
  Se  Se130  1  0.75649757  0.41933777  0.55742415  1
  Se  Se131  1  0.74267428  0.74765565  0.04393062  1
  Se  Se132  1  0.75311083  0.75686507  0.55811645  1
  Se  Se133  1  0.24808852  0.24968215  0.04516261  1
  Se  Se134  1  0.25101680  0.25481952  0.56640903  1
  Se  Se135  1  0.24543756  0.58316275  0.05333230  1
  Se  Se136  1  0.25707777  0.58721377  0.56391711  1
  Se  Se137  1  0.26080325  0.92051637  0.04895580  1
  Se  Se138  1  0.24414396  0.91501856  0.55739792  1
  Se  Se139  1  0.58366722  0.24979998  0.04747722  1
  Se  Se140  1  0.58390432  0.24499908  0.55805302  1
  Se  Se141  1  0.59032558  0.59599260  0.05310415  1
  Se  Se142  1  0.59140491  0.58943537  0.56235208  1
  Se  Se143  1  0.59345390  0.92711581  0.05577050  1
  Se  Se144  1  0.59136892  0.91547317  0.56750831  1
  Se  Se145  1  0.91562366  0.25643352  0.05203077  1
  Se  Se146  1  0.91552826  0.24568034  0.56051041  1
  Se  Se147  1  0.91712701  0.58703519  0.06138269  1
  Se  Se148  1  0.92187030  0.58147859  0.55076832  1
  Se  Se149  1  0.91147587  0.91737318  0.05636823  1
  Se  Se150  1  0.89983731  0.90705571  0.56416562  1
  Se  Se151  1  0.08062022  0.25701099  0.44202030  1
  Se  Se152  1  0.08403077  0.24319873  0.93725057  1
  Se  Se153  1  0.07979722  0.59268830  0.43948132  1
  Se  Se154  1  0.08053570  0.57911632  0.94890573  1
  Se  Se155  1  0.08305179  0.91730496  0.44991117  1
  Se  Se156  1  0.09809142  0.90922328  0.95302408  1
  Se  Se157  1  0.42387124  0.24202594  0.45583420  1
  Se  Se158  1  0.41826201  0.24797747  0.94566278  1
  Se  Se159  1  0.41384250  0.59161281  0.44586129  1
  Se  Se160  1  0.40637683  0.58240783  0.93580669  1
  Se  Se161  1  0.40594757  0.92772780  0.43903279  1
  Se  Se162  1  0.41015890  0.92440523  0.93120124  1
  Se  Se163  1  0.75565260  0.24587552  0.45642383  1
  Se  Se164  1  0.74496514  0.25830387  0.93252133  1
  Se  Se165  1  0.75846887  0.58076779  0.45219873  1
  Se  Se166  1  0.74140454  0.59224846  0.94131720  1
  Se  Se167  1  0.74590171  0.91636872  0.45191501  1
  Se  Se168  1  0.75527082  0.91880052  0.93562007  1
  Se  Se169  1  0.24999374  0.08023664  0.44155571  1
  Se  Se170  1  0.24881955  0.08548393  0.94173226  1
  Se  Se171  1  0.26590967  0.40706588  0.45151097  1
  Se  Se172  1  0.24225987  0.41578529  0.93809990  1
  Se  Se173  1  0.25022016  0.75482376  0.44926438  1
  Se  Se174  1  0.24687269  0.75153411  0.95035264  1
  Se  Se175  1  0.58233147  0.08048300  0.45352947  1
  Se  Se176  1  0.59359937  0.08986753  0.94353386  1
  Se  Se177  1  0.59827112  0.40535596  0.44305159  1
  Se  Se178  1  0.58405154  0.41794719  0.93596175  1
  Se  Se179  1  0.59466389  0.74010374  0.44253740  1
  Se  Se180  1  0.59125503  0.74983781  0.93292331  1
  Se  Se181  1  0.90804826  0.09596334  0.44873191  1
  Se  Se182  1  0.92876693  0.07003507  0.93473647  1
  Se  Se183  1  0.91998463  0.41605640  0.45166554  1
  Se  Se184  1  0.91780505  0.39789584  0.92496117  1
  Se  Se185  1  0.91550496  0.75461015  0.44867747  1
  Se  Se186  1  0.91339843  0.74927377  0.95001280  1
  Se  Se187  1  0.24057154  0.23514743  0.30199683  1
  Se  Se188  1  0.25319206  0.24671168  0.80137441  1
  Se  Se189  1  0.25418183  0.59067190  0.30589698  1
  Se  Se190  1  0.25389833  0.60100585  0.80439493  1
  Se  Se191  1  0.24424161  0.91111635  0.30576466  1
  Se  Se192  1  0.24923581  0.91575386  0.80364092  1
  Se  Se193  1  0.58430125  0.24281860  0.31281620  1
  Se  Se194  1  0.58587307  0.25086147  0.80313854  1
  Se  Se195  1  0.58071048  0.57579688  0.30618411  1
  Se  Se196  1  0.58465413  0.58984216  0.80034805  1
  Se  Se197  1  0.58013296  0.91599008  0.30085831  1
  Se  Se198  1  0.58677037  0.92581722  0.80288089  1
  Se  Se199  1  0.90549241  0.24765952  0.31257785  1
  Se  Se200  1  0.91679797  0.22980241  0.78586777  1
  Se  Se201  1  0.91766006  0.58758655  0.30246705  1
  Se  Se202  1  0.91212608  0.57511056  0.81432692  1
  Se  Se203  1  0.91690432  0.92074221  0.31158344  1
  Se  Se204  1  0.91936535  0.89386099  0.80270589  1
  Se  Se205  1  0.08126533  0.08164279  0.29930147  1
  Se  Se206  1  0.08485913  0.07199376  0.80276461  1
  Se  Se207  1  0.09611712  0.42870700  0.31244057  1
  Se  Se208  1  0.07261814  0.40110337  0.79580238  1
  Se  Se209  1  0.08067394  0.75507111  0.30408276  1
  Se  Se210  1  0.08512842  0.75589676  0.81785320  1
  Se  Se211  1  0.41865894  0.08891396  0.31063815  1
  Se  Se212  1  0.41633796  0.08463786  0.80289152  1
  Se  Se213  1  0.42933299  0.42620619  0.31459600  1
  Se  Se214  1  0.41800991  0.41746017  0.80237508  1
  Se  Se215  1  0.41679505  0.74995834  0.29991466  1
  Se  Se216  1  0.41695546  0.75402111  0.80216670  1
  Se  Se217  1  0.74494919  0.07550496  0.31137575  1
  Se  Se218  1  0.77301619  0.09405813  0.79587670  1
  Se  Se219  1  0.75529562  0.42228073  0.30742173  1
  Se  Se220  1  0.74827247  0.41848038  0.79751556  1
  Se  Se221  1  0.75343619  0.75392136  0.31236701  1
  Se  Se222  1  0.74883005  0.74246646  0.79448529  1
  Se  Se223  1  0.24146983  0.08427364  0.17702720  1
  Se  Se224  1  0.25532752  0.07380977  0.69810528  1
  Se  Se225  1  0.24066638  0.41918668  0.19155582  1
  Se  Se226  1  0.25119151  0.41861902  0.71122764  1
  Se  Se227  1  0.24614405  0.74862527  0.19616948  1
  Se  Se228  1  0.24548095  0.75342706  0.69887948  1
  Se  Se229  1  0.58906553  0.08219206  0.19690783  1
  Se  Se230  1  0.58065469  0.08899000  0.69600904  1
  Se  Se231  1  0.56675478  0.42674171  0.19372631  1
  Se  Se232  1  0.57975916  0.42140950  0.69960811  1
  Se  Se233  1  0.57950464  0.76082480  0.18138548  1
  Se  Se234  1  0.58028451  0.75148822  0.70196504  1
  Se  Se235  1  0.92132898  0.08283613  0.20232968  1
  Se  Se236  1  0.89817553  0.09547356  0.70641602  1
  Se  Se237  1  0.91008641  0.41952814  0.19254601  1
  Se  Se238  1  0.92061443  0.41557318  0.69739805  1
  Se  Se239  1  0.91711226  0.75199839  0.20112111  1
  Se  Se240  1  0.91605601  0.74955165  0.68948983  1
  Se  Se241  1  0.08368893  0.24883322  0.18301971  1
  Se  Se242  1  0.08764093  0.23551051  0.69873168  1
  Se  Se243  1  0.07865764  0.58606670  0.19572636  1
  Se  Se244  1  0.09431918  0.57093465  0.69612634  1
  Se  Se245  1  0.08346797  0.92077224  0.18702639  1
  Se  Se246  1  0.07682277  0.91687894  0.69915867  1
  Se  Se247  1  0.42241640  0.24310090  0.19244345  1
  Se  Se248  1  0.40955233  0.25513852  0.69994386  1
  Se  Se249  1  0.41632435  0.58090300  0.20023205  1
  Se  Se250  1  0.41468909  0.59255465  0.69955406  1
  Se  Se251  1  0.42085512  0.91067432  0.18443598  1
  Se  Se252  1  0.41736671  0.92343336  0.69827631  1
  Se  Se253  1  0.75993409  0.23617991  0.19148171  1
  Se  Se254  1  0.73172327  0.27338267  0.69763292  1
  Se  Se255  1  0.75691711  0.58007836  0.18249408  1
  Se  Se256  1  0.75364715  0.58656493  0.69406149  1
  Se  Se257  1  0.74734645  0.91784651  0.20330688  1
  Se  Se258  1  0.73158544  0.93237219  0.70682260  1
