# generated using pymatgen
data_In86Cu29Se144
_symmetry_space_group_name_H-M   'P 1'
_cell_length_a   17.57002590
_cell_length_b   17.57014125
_cell_length_c   23.42986488
_cell_angle_alpha   89.97007390
_cell_angle_beta   89.96768301
_cell_angle_gamma   90.00684077
_symmetry_Int_Tables_number   1
_chemical_formula_structural   In86Cu29Se144
_chemical_formula_sum   'In86 Cu29 Se144'
_cell_volume   7232.98071396
_cell_formula_units_Z   1
loop_
 _symmetry_equiv_pos_site_id
 _symmetry_equiv_pos_as_xyz
  1  'x, y, z'
loop_
 _atom_site_type_symbol
 _atom_site_label
 _atom_site_symmetry_multiplicity
 _atom_site_fract_x
 _atom_site_fract_y
 _atom_site_fract_z
 _atom_site_occupancy
  In  In0  1  0.00470693  0.16424100  0.13509647  1
  In  In1  1  -0.00617314  0.15779992  0.62056870  1
  In  In2  1  -0.01132976  0.49011326  0.12577217  1
  In  In3  1  0.00463584  0.51872273  0.62976532  1
  In  In4  1  0.00717331  0.84440580  0.12497174  1
  In  In5  1  0.00115819  0.83293874  0.62341915  1
  In  In6  1  0.33366018  0.15793396  0.11674780  1
  In  In7  1  0.33451243  0.18018689  0.62774112  1
  In  In8  1  0.34392791  0.50828956  0.11665795  1
  In  In9  1  0.33300981  0.48917565  0.63615683  1
  In  In10  1  0.32694450  0.83660143  0.13293306  1
  In  In11  1  0.32533052  0.82537947  0.61791996  1
  In  In12  1  0.65994892  0.17385262  0.12246495  1
  In  In13  1  0.67291101  0.15717616  0.63263421  1
  In  In14  1  0.66614618  0.50550612  0.12417370  1
  In  In15  1  0.65535221  0.49267796  0.62369395  1
  In  In16  1  0.66231367  0.81440456  0.12541590  1
  In  In17  1  0.67411547  0.84043731  0.61630442  1
  In  In18  1  0.16673258  0.00009879  0.38082992  1
  In  In19  1  0.16265133  0.01948160  0.86546695  1
  In  In20  1  0.15193021  0.33536590  0.37715855  1
  In  In21  1  0.20925883  0.35288043  0.85325215  1
  In  In22  1  0.18313919  0.66641592  0.37513792  1
  In  In23  1  0.15867554  0.64997203  0.85962123  1
  In  In24  1  0.47942314  0.00001029  0.37207922  1
  In  In25  1  0.51243632  -0.00938569  0.87217195  1
  In  In26  1  0.51174973  0.33872618  0.37610857  1
  In  In27  1  0.49919006  0.33547894  0.88429660  1
  In  In28  1  0.49983162  0.66640425  0.37672898  1
  In  In29  1  0.46862536  0.66590888  0.86527873  1
  In  In30  1  0.84646247  -0.00867167  0.38132161  1
  In  In31  1  0.82925098  -0.00776177  0.86743948  1
  In  In32  1  0.83950407  0.32431374  0.38751243  1
  In  In33  1  0.82597690  0.33934775  0.86858855  1
  In  In34  1  0.82321969  0.67427359  0.38330658  1
  In  In35  1  0.85092046  0.67083686  0.87405726  1
  In  In36  1  0.00413182  0.16553525  0.38067772  1
  In  In37  1  0.02458266  0.16121860  0.86657570  1
  In  In38  1  -0.00048507  0.48564530  0.37708838  1
  In  In39  1  0.00567414  0.51987187  0.87534143  1
  In  In40  1  -0.00813517  0.84329429  0.38155444  1
  In  In41  1  -0.00525908  0.82349828  0.86842952  1
  In  In42  1  0.33462533  0.15045469  0.37496144  1
  In  In43  1  0.33121760  0.18225477  0.87870598  1
  In  In44  1  0.33342431  0.51638547  0.37335099  1
  In  In45  1  0.33524602  0.50337685  0.88468147  1
  In  In46  1  0.33243681  0.83264528  0.38025569  1
  In  In47  1  0.34377149  0.82072150  0.86964306  1
  In  In48  1  0.67072870  0.18019098  0.37863334  1
  In  In49  1  0.66097310  0.16299631  0.87101896  1
  In  In50  1  0.65732429  0.50891852  0.38483609  1
  In  In51  1  0.65998933  0.48454723  0.87225910  1
  In  In52  1  0.67541521  0.82421151  0.38175643  1
  In  In53  1  0.66355037  0.84591768  0.86971782  1
  In  In54  1  0.16871459  -0.00141011  0.13274870  1
  In  In55  1  0.16139147  -0.00573349  0.61996393  1
  In  In56  1  0.15341202  0.32869952  0.12337206  1
  In  In57  1  0.18178827  0.33421064  0.63038026  1
  In  In58  1  0.17734902  0.67718181  0.12650592  1
  In  In59  1  0.15756727  0.66780623  0.63642455  1
  In  In60  1  0.48594808  -0.00375580  0.11872777  1
  In  In61  1  0.51406978  -0.00013841  0.62738053  1
  In  In62  1  0.50042308  0.33652477  0.09248840  1
  In  In63  1  0.48786336  0.33949750  0.63581094  1
  In  In64  1  0.50369226  0.66407502  0.12938354  1
  In  In65  1  0.49110055  0.66039274  0.62082755  1
  In  In66  1  0.85055845  0.00022063  0.12729058  1
  In  In67  1  0.83341297  -0.00248062  0.62207701  1
  In  In68  1  0.83913362  0.34177438  0.12687638  1
  In  In69  1  0.82500022  0.32328347  0.62235382  1
  In  In70  1  0.81744795  0.65666525  0.12460920  1
  In  In71  1  0.84059021  0.67795537  0.61710335  1
  In  In72  1  -0.00183934  0.32917241  0.75012936  1
  In  In73  1  0.83127968  0.16376658  -0.00808216  1
  In  In74  1  0.67106335  -0.00709000  0.25834448  1
  In  In75  1  0.82867946  0.50117111  0.00127463  1
  In  In76  1  0.16997304  0.17349751  -0.00549727  1
  In  In77  1  0.50188066  0.16661658  0.50089985  1
  In  In78  1  0.33344631  0.00002190  0.74898254  1
  In  In79  1  0.16679354  0.50096950  0.50274081  1
  In  In80  1  0.50369390  0.83074493  -0.00667620  1
  In  In81  1  0.16687368  0.83469564  0.00229541  1
  In  In82  1  0.33086879  0.32951688  0.24042589  1
  In  In83  1  -0.00244827  0.66963822  0.25175563  1
  In  In84  1  0.66870451  0.34096982  0.24496392  1
  In  In85  1  0.66591425  0.66911224  0.74275199  1
  Cu  Cu86  1  -0.00007625  0.00053568  0.50174948  1
  Cu  Cu87  1  0.49453041  0.16238575  0.24157207  1
  Cu  Cu88  1  0.82829597  0.16182961  0.74514040  1
  Cu  Cu89  1  0.16922931  0.84099574  0.25532891  1
  Cu  Cu90  1  0.00056562  -0.00487244  -0.00100682  1
  Cu  Cu91  1  0.16585401  0.50217608  0.25166499  1
  Cu  Cu92  1  0.83725961  0.83490025  0.74187187  1
  Cu  Cu93  1  0.66502403  0.66409951  0.50438906  1
  Cu  Cu94  1  0.66884404  0.00200769  0.50049296  1
  Cu  Cu95  1  0.00145071  0.67140154  0.50262061  1
  Cu  Cu96  1  0.16645201  0.83247987  0.74398203  1
  Cu  Cu97  1  0.00093797  0.33389615  -0.00040253  1
  Cu  Cu98  1  0.83324060  0.50183636  0.75041229  1
  Cu  Cu99  1  0.83143824  0.82953928  0.25593077  1
  Cu  Cu100  1  0.49812055  0.17488410  0.75330988  1
  Cu  Cu101  1  0.33730315  0.33798626  0.50529786  1
  Cu  Cu102  1  0.66386562  0.66492623  -0.00285243  1
  Cu  Cu103  1  0.49549477  0.49498094  0.75347808  1
  Cu  Cu104  1  0.32953966  -0.00363457  0.50108126  1
  Cu  Cu105  1  0.33141291  0.66414993  0.00075660  1
  Cu  Cu106  1  0.66576343  0.33698590  0.50508722  1
  Cu  Cu107  1  0.82993523  0.49769733  0.25193342  1
  Cu  Cu108  1  0.49240615  0.82758669  0.25151756  1
  Cu  Cu109  1  0.33634420  0.66702340  0.50112403  1
  Cu  Cu110  1  0.49656132  0.50365838  0.24800415  1
  Cu  Cu111  1  0.16504006  0.16419559  0.25348728  1
  Cu  Cu112  1  -0.00201556  0.33086956  0.50385419  1
  Cu  Cu113  1  0.67299583  -0.00208819  -0.00646221  1
  Cu  Cu114  1  0.84621831  0.16841627  0.25699561  1
  Se  Se115  1  0.08004378  0.07900363  0.05789880  1
  Se  Se116  1  0.08557924  0.08488636  0.55179332  1
  Se  Se117  1  0.07862882  0.41923230  0.05526726  1
  Se  Se118  1  0.07802317  0.41142857  0.56496757  1
  Se  Se119  1  0.07454286  0.74291459  0.05891685  1
  Se  Se120  1  0.08857792  0.74697172  0.55801318  1
  Se  Se121  1  0.42585936  0.08941903  0.04825329  1
  Se  Se122  1  0.41046714  0.07786229  0.56178872  1
  Se  Se123  1  0.40679582  0.42256098  0.04105630  1
  Se  Se124  1  0.41731337  0.42097822  0.55908379  1
  Se  Se125  1  0.41023272  0.74977240  0.06015537  1
  Se  Se126  1  0.42041306  0.75296815  0.55115477  1
  Se  Se127  1  0.74832282  0.07472932  0.06084568  1
  Se  Se128  1  0.74977279  0.08556918  0.55479846  1
  Se  Se129  1  0.73986504  0.40440801  0.05750460  1
  Se  Se130  1  0.75069387  0.41929482  0.55765208  1
  Se  Se131  1  0.74828203  0.74541469  0.05153133  1
  Se  Se132  1  0.75222461  0.75272303  0.54831642  1
  Se  Se133  1  0.25661693  0.26255146  0.05801839  1
  Se  Se134  1  0.25174274  0.25287828  0.55294706  1
  Se  Se135  1  0.24507357  0.58668136  0.05588650  1
  Se  Se136  1  0.25617925  0.58735912  0.56420483  1
  Se  Se137  1  0.25901772  0.92824151  0.05763106  1
  Se  Se138  1  0.24426622  0.91193071  0.55113736  1
  Se  Se139  1  0.58895194  0.24145198  0.04330267  1
  Se  Se140  1  0.58446262  0.25521236  0.56623596  1
  Se  Se141  1  0.58205720  0.58552210  0.05487819  1
  Se  Se142  1  0.57949513  0.57994239  0.55428394  1
  Se  Se143  1  0.59367350  0.91918332  0.05841025  1
  Se  Se144  1  0.58189827  0.91925964  0.54985639  1
  Se  Se145  1  0.92343380  0.25007765  0.05834103  1
  Se  Se146  1  0.91285293  0.24596171  0.55432288  1
  Se  Se147  1  0.92171719  0.59149742  0.05787560  1
  Se  Se148  1  0.92013358  0.58388545  0.55325492  1
  Se  Se149  1  0.91709803  0.91386322  0.05257282  1
  Se  Se150  1  0.91688693  0.91407783  0.55385509  1
  Se  Se151  1  0.08560794  0.25022417  0.45169300  1
  Se  Se152  1  0.08244086  0.26433330  0.93476023  1
  Se  Se153  1  0.07805372  0.59038935  0.43873383  1
  Se  Se154  1  0.09039548  0.59054966  0.94643859  1
  Se  Se155  1  0.08393461  0.91551899  0.44914635  1
  Se  Se156  1  0.08351567  0.92359702  0.93514333  1
  Se  Se157  1  0.41140619  0.25705651  0.43872789  1
  Se  Se158  1  0.41856099  0.24691651  0.95085204  1
  Se  Se159  1  0.41841811  0.58129759  0.44820675  1
  Se  Se160  1  0.42471582  0.58717340  0.95183545  1
  Se  Se161  1  0.41750028  0.91612314  0.44950323  1
  Se  Se162  1  0.40913445  0.92161447  0.93961790  1
  Se  Se163  1  0.74844998  0.24887760  0.45579689  1
  Se  Se164  1  0.74172126  0.25988879  0.94045373  1
  Se  Se165  1  0.75149539  0.58102030  0.45123342  1
  Se  Se166  1  0.74465819  0.58829024  0.93349824  1
  Se  Se167  1  0.75175411  0.91753929  0.44607884  1
  Se  Se168  1  0.75412141  0.91163102  0.94292615  1
  Se  Se169  1  0.24965321  0.08583833  0.45034098  1
  Se  Se170  1  0.25733814  0.07396043  0.94209652  1
  Se  Se171  1  0.25754956  0.41303764  0.43886329  1
  Se  Se172  1  0.24449486  0.41861621  0.94594270  1
  Se  Se173  1  0.24884660  0.74970657  0.45095726  1
  Se  Se174  1  0.25328899  0.74496545  0.93979984  1
  Se  Se175  1  0.58776180  0.07634466  0.43553718  1
  Se  Se176  1  0.58519082  0.07801020  0.94360883  1
  Se  Se177  1  0.57932015  0.41817145  0.45263415  1
  Se  Se178  1  0.58295518  0.42169593  0.95117573  1
  Se  Se179  1  0.58365823  0.74729680  0.44702800  1
  Se  Se180  1  0.58725150  0.73947709  0.93020801  1
  Se  Se181  1  0.91606827  0.08560508  0.44874087  1
  Se  Se182  1  0.92885186  0.07869078  0.93529725  1
  Se  Se183  1  0.91604211  0.41837396  0.45290494  1
  Se  Se184  1  0.92094368  0.41364114  0.93841003  1
  Se  Se185  1  0.91583560  0.75158796  0.44767066  1
  Se  Se186  1  0.91821529  0.75522635  0.94730168  1
  Se  Se187  1  0.24643192  0.24687283  0.31167533  1
  Se  Se188  1  0.22184305  0.21956932  0.81006606  1
  Se  Se189  1  0.25288415  0.58700309  0.29748075  1
  Se  Se190  1  0.28547274  0.60959975  0.81480870  1
  Se  Se191  1  0.25361990  0.92093638  0.31098251  1
  Se  Se192  1  0.24296228  0.90887517  0.81047501  1
  Se  Se193  1  0.57583962  0.24200402  0.30125612  1
  Se  Se194  1  0.58086636  0.25651996  0.80920555  1
  Se  Se195  1  0.58085635  0.57991652  0.30638829  1
  Se  Se196  1  0.57705150  0.58195787  0.80816084  1
  Se  Se197  1  0.57325322  0.90629329  0.31382468  1
  Se  Se198  1  0.58046198  0.91260684  0.79515346  1
  Se  Se199  1  0.92286832  0.25475787  0.31222858  1
  Se  Se200  1  0.90828974  0.23633292  0.81139002  1
  Se  Se201  1  0.90993810  0.57838376  0.31337136  1
  Se  Se202  1  0.91906388  0.58519320  0.79956107  1
  Se  Se203  1  0.91752981  0.91583632  0.30201501  1
  Se  Se204  1  0.91900819  0.91490462  0.80076316  1
  Se  Se205  1  0.08392305  0.08186999  0.30980974  1
  Se  Se206  1  0.07057392  0.06940968  0.78860819  1
  Se  Se207  1  0.08224907  0.41667028  0.30095312  1
  Se  Se208  1  0.08450009  0.42012545  0.81119820  1
  Se  Se209  1  0.08870200  0.75631035  0.31363013  1
  Se  Se210  1  0.08333880  0.74849454  0.79909171  1
  Se  Se211  1  0.41046074  0.08153806  0.29518795  1
  Se  Se212  1  0.42079572  0.08944173  0.81280262  1
  Se  Se213  1  0.41926505  0.41810040  0.30691851  1
  Se  Se214  1  0.41463185  0.41697768  0.81389553  1
  Se  Se215  1  0.41142422  0.74681519  0.30961161  1
  Se  Se216  1  0.43470127  0.76957219  0.79245390  1
  Se  Se217  1  0.75826871  0.09192759  0.31344534  1
  Se  Se218  1  0.74624096  0.08066532  0.80370805  1
  Se  Se219  1  0.75249284  0.41885974  0.31716729  1
  Se  Se220  1  0.74589060  0.41713473  0.79649151  1
  Se  Se221  1  0.74626334  0.74470217  0.30406470  1
  Se  Se222  1  0.75821571  0.75455051  0.80546338  1
  Se  Se223  1  0.25087918  0.09056703  0.19421870  1
  Se  Se224  1  0.24493302  0.08741264  0.68732182  1
  Se  Se225  1  0.24237762  0.42521677  0.18545246  1
  Se  Se226  1  0.24631075  0.41586330  0.70690948  1
  Se  Se227  1  0.24977908  0.75271901  0.20399723  1
  Se  Se228  1  0.25387172  0.74859780  0.69630894  1
  Se  Se229  1  0.58365808  0.07934448  0.19134826  1
  Se  Se230  1  0.57946770  0.08741585  0.70171101  1
  Se  Se231  1  0.56799554  0.41819840  0.18495712  1
  Se  Se232  1  0.58272392  0.41464020  0.70098113  1
  Se  Se233  1  0.58210246  0.74614590  0.20210347  1
  Se  Se234  1  0.57952799  0.75663785  0.68136924  1
  Se  Se235  1  0.92284064  0.07956351  0.20298208  1
  Se  Se236  1  0.91374090  0.08011200  0.69386559  1
  Se  Se237  1  0.91650885  0.41299136  0.20397641  1
  Se  Se238  1  0.91157252  0.42062401  0.68787736  1
  Se  Se239  1  0.90753555  0.75399314  0.18754795  1
  Se  Se240  1  0.92099236  0.74659208  0.69424783  1
  Se  Se241  1  0.08305578  0.25219970  0.20222231  1
  Se  Se242  1  0.08566323  0.24312772  0.68730035  1
  Se  Se243  1  0.08465742  0.58018659  0.18886436  1
  Se  Se244  1  0.09596863  0.57029251  0.70510519  1
  Se  Se245  1  0.08218317  0.91984708  0.20130490  1
  Se  Se246  1  0.08205755  0.91681486  0.69388700  1
  Se  Se247  1  0.42900566  0.25078752  0.17931867  1
  Se  Se248  1  0.40727278  0.25574227  0.70560797  1
  Se  Se249  1  0.41177395  0.58670462  0.19581845  1
  Se  Se250  1  0.41790676  0.58075327  0.69710865  1
  Se  Se251  1  0.41782882  0.91716974  0.19703750  1
  Se  Se252  1  0.41738466  0.91286938  0.68432416  1
  Se  Se253  1  0.76184679  0.24012748  0.19322247  1
  Se  Se254  1  0.74531187  0.25237683  0.69970298  1
  Se  Se255  1  0.74344364  0.57967551  0.20127503  1
  Se  Se256  1  0.75747440  0.57938703  0.68440438  1
  Se  Se257  1  0.75475940  0.90820394  0.18940707  1
  Se  Se258  1  0.74881588  0.91738918  0.69315447  1
