# generated using pymatgen
data_In86Cu29Se144
_symmetry_space_group_name_H-M   'P 1'
_cell_length_a   17.57719606
_cell_length_b   17.57638436
_cell_length_c   23.43959521
_cell_angle_alpha   90.00953661
_cell_angle_beta   89.99892582
_cell_angle_gamma   90.02199994
_symmetry_Int_Tables_number   1
_chemical_formula_structural   In86Cu29Se144
_chemical_formula_sum   'In86 Cu29 Se144'
_cell_volume   7241.51121189
_cell_formula_units_Z   1
loop_
 _symmetry_equiv_pos_site_id
 _symmetry_equiv_pos_as_xyz
  1  'x, y, z'
loop_
 _atom_site_type_symbol
 _atom_site_label
 _atom_site_symmetry_multiplicity
 _atom_site_fract_x
 _atom_site_fract_y
 _atom_site_fract_z
 _atom_site_occupancy
  In  In0  1  -0.01357801  0.16596243  0.12552250  1
  In  In1  1  0.00531895  0.15337101  0.62954814  1
  In  In2  1  -0.00129542  0.49951737  0.11690763  1
  In  In3  1  0.00484573  0.51447705  0.60975494  1
  In  In4  1  0.01405664  0.82920202  0.12761418  1
  In  In5  1  0.00717023  0.84056532  0.61353440  1
  In  In6  1  0.33563066  0.15155682  0.12536799  1
  In  In7  1  0.32191523  0.16870830  0.62187974  1
  In  In8  1  0.34244568  0.50892220  0.12166466  1
  In  In9  1  0.34046177  0.51133852  0.62530355  1
  In  In10  1  0.32873220  0.83789323  0.13197977  1
  In  In11  1  0.32780048  0.82756093  0.61788718  1
  In  In12  1  0.66855876  0.16339218  0.12222882  1
  In  In13  1  0.66553955  0.17017726  0.63524333  1
  In  In14  1  0.66308387  0.49858561  0.12440274  1
  In  In15  1  0.67415872  0.49139466  0.62619882  1
  In  In16  1  0.66243893  0.83632124  0.13029853  1
  In  In17  1  0.67577816  0.84044958  0.61626408  1
  In  In18  1  0.16486607  -0.00613286  0.37709779  1
  In  In19  1  0.15134583  -0.00177872  0.87328624  1
  In  In20  1  0.16381784  0.34251760  0.38954684  1
  In  In21  1  0.17843901  0.33776814  0.87485451  1
  In  In22  1  0.17155633  0.66116528  0.38129686  1
  In  In23  1  0.17451362  0.66429931  0.87851286  1
  In  In24  1  0.48960501  -0.00372920  0.36732243  1
  In  In25  1  0.52582730  -0.00530460  0.87723000  1
  In  In26  1  0.50334361  0.32265643  0.37264820  1
  In  In27  1  0.51126756  0.31973912  0.88502645  1
  In  In28  1  0.51175822  0.67671199  0.36579983  1
  In  In29  1  0.48747639  0.67775794  0.87702526  1
  In  In30  1  0.82262446  -0.00934821  0.36515605  1
  In  In31  1  0.83860752  0.00536090  0.87366992  1
  In  In32  1  0.82485388  0.34278555  0.37448065  1
  In  In33  1  0.82282281  0.34220085  0.87989869  1
  In  In34  1  0.82394718  0.67447018  0.38115283  1
  In  In35  1  0.82385442  0.65495588  0.87984185  1
  In  In36  1  0.01221335  0.16620191  0.37633555  1
  In  In37  1  0.00002570  0.14746356  0.87133197  1
  In  In38  1  -0.00512625  0.51061479  0.38738158  1
  In  In39  1  0.00046652  0.50195123  0.87917717  1
  In  In40  1  -0.01474843  0.83837510  0.38671517  1
  In  In41  1  0.00017354  0.84993645  0.87264159  1
  In  In42  1  0.33554754  0.15332752  0.37785607  1
  In  In43  1  0.33652443  0.17513132  0.87806650  1
  In  In44  1  0.31809046  0.50539438  0.37496755  1
  In  In45  1  0.33121842  0.50809784  0.88179751  1
  In  In46  1  0.33493467  0.83232389  0.37515609  1
  In  In47  1  0.34355212  0.81520285  0.87221687  1
  In  In48  1  0.66867550  0.16662169  0.36571678  1
  In  In49  1  0.66662220  0.16807055  0.87787318  1
  In  In50  1  0.66521548  0.50083494  0.36768882  1
  In  In51  1  0.67725338  0.49406217  0.88521072  1
  In  In52  1  0.66327650  0.83471653  0.37506027  1
  In  In53  1  0.65635722  0.84347075  0.87345948  1
  In  In54  1  0.17593679  -0.00981527  0.13357450  1
  In  In55  1  0.16496974  -0.00472014  0.61979434  1
  In  In56  1  0.15357438  0.33803397  0.12415795  1
  In  In57  1  0.16874061  0.33046722  0.61397318  1
  In  In58  1  0.17323380  0.67442658  0.12306859  1
  In  In59  1  0.17373539  0.67733111  0.61360341  1
  In  In60  1  0.49876632  -0.00065994  0.12533273  1
  In  In61  1  0.51703921  -0.00077795  0.62700173  1
  In  In62  1  0.51080567  0.34475409  0.11686949  1
  In  In63  1  0.50824890  0.34153723  0.63085689  1
  In  In64  1  0.50980973  0.65558804  0.13504322  1
  In  In65  1  0.48660029  0.66796878  0.62884965  1
  In  In66  1  0.82356917  0.00804245  0.13275016  1
  In  In67  1  0.83971448  -0.00039920  0.62918905  1
  In  In68  1  0.82413695  0.31804299  0.11722564  1
  In  In69  1  0.81985022  0.34114550  0.62283396  1
  In  In70  1  0.82728622  0.65376983  0.12076297  1
  In  In71  1  0.83905780  0.67074755  0.60641457  1
  In  In72  1  -0.00514849  0.33164921  0.25560192  1
  In  In73  1  0.33405237  0.33127739  0.25402865  1
  In  In74  1  0.49562073  0.16481980  0.50506456  1
  In  In75  1  0.16663656  0.16964239  -0.00263564  1
  In  In76  1  0.00297089  0.67512324  0.73579714  1
  In  In77  1  0.83532866  0.16988543  0.49948434  1
  In  In78  1  0.66383318  0.67117755  0.75364399  1
  In  In79  1  0.50239476  0.83157899  0.00306689  1
  In  In80  1  -0.00530984  0.33088412  0.74084947  1
  In  In81  1  0.49928236  0.49852316  0.50204562  1
  In  In82  1  0.83671176  0.83168731  -0.00075247  1
  In  In83  1  0.33669135  -0.00727548  0.74827118  1
  In  In84  1  0.33910985  0.33071026  0.75411577  1
  In  In85  1  -0.00384132  0.67156002  0.25896721  1
  Cu  Cu86  1  0.33129735  0.66587281  0.00274872  1
  Cu  Cu87  1  0.83102900  0.83099330  0.25431549  1
  Cu  Cu88  1  0.49939915  0.50376221  0.24539429  1
  Cu  Cu89  1  0.17600068  0.50077414  0.75328918  1
  Cu  Cu90  1  0.50656972  0.16333414  0.75634649  1
  Cu  Cu91  1  0.16533604  0.83454195  0.74087692  1
  Cu  Cu92  1  0.82992712  0.50332579  0.75175522  1
  Cu  Cu93  1  0.16856462  0.15729860  0.25553762  1
  Cu  Cu94  1  0.82819904  0.16042529  0.24461333  1
  Cu  Cu95  1  0.66100601  0.66937026  0.49589969  1
  Cu  Cu96  1  0.00005468  0.00079101  0.50073519  1
  Cu  Cu97  1  0.33691028  0.66890881  0.49759896  1
  Cu  Cu98  1  0.33437806  -0.00599509  0.00521267  1
  Cu  Cu99  1  0.32784422  -0.00923825  0.49679923  1
  Cu  Cu100  1  0.82841114  0.84596892  0.74773802  1
  Cu  Cu101  1  0.49751106  0.83664266  0.25064645  1
  Cu  Cu102  1  0.16574091  0.50554547  0.25130699  1
  Cu  Cu103  1  0.50362894  0.50007942  0.75300312  1
  Cu  Cu104  1  0.00595120  0.66536379  0.00038601  1
  Cu  Cu105  1  0.66890688  0.33103728  0.00256530  1
  Cu  Cu106  1  0.66864353  -0.00169694  0.49550890  1
  Cu  Cu107  1  0.82413325  0.49551209  0.24543867  1
  Cu  Cu108  1  0.50505430  0.16705631  0.24562395  1
  Cu  Cu109  1  0.00096022  0.33341261  0.50058950  1
  Cu  Cu110  1  0.00134655  -0.00087440  0.00098413  1
  Cu  Cu111  1  0.33483518  0.33895009  0.00020315  1
  Cu  Cu112  1  -0.00332706  0.33887439  -0.00270226  1
  Cu  Cu113  1  0.16881964  0.83812345  0.25395679  1
  Cu  Cu114  1  0.82831623  0.16915145  0.75311727  1
  Se  Se115  1  0.08307371  0.07955120  0.06226057  1
  Se  Se116  1  0.08455672  0.08451038  0.55226761  1
  Se  Se117  1  0.08487260  0.41920748  0.04858801  1
  Se  Se118  1  0.08589424  0.41880031  0.55074251  1
  Se  Se119  1  0.08732044  0.75125526  0.05191359  1
  Se  Se120  1  0.05840859  0.72617413  0.55707413  1
  Se  Se121  1  0.41917486  0.08069089  0.05185672  1
  Se  Se122  1  0.40671240  0.06811983  0.56236792  1
  Se  Se123  1  0.41866062  0.42257783  0.05249158  1
  Se  Se124  1  0.40974797  0.40564057  0.56122992  1
  Se  Se125  1  0.41258251  0.74426956  0.06496005  1
  Se  Se126  1  0.42070460  0.75054031  0.55157993  1
  Se  Se127  1  0.76341738  0.09121217  0.05548193  1
  Se  Se128  1  0.74195942  0.08199242  0.55899519  1
  Se  Se129  1  0.75077006  0.41673310  0.05614039  1
  Se  Se130  1  0.74910627  0.42115646  0.54843900  1
  Se  Se131  1  0.74166043  0.74725895  0.05841610  1
  Se  Se132  1  0.74918100  0.75406199  0.54494656  1
  Se  Se133  1  0.25583837  0.25742438  0.06250099  1
  Se  Se134  1  0.25242587  0.24791113  0.54767398  1
  Se  Se135  1  0.24692150  0.58173255  0.05599733  1
  Se  Se136  1  0.25649987  0.58383207  0.55256081  1
  Se  Se137  1  0.24824745  0.91263087  0.05591697  1
  Se  Se138  1  0.24265742  0.90917145  0.55066470  1
  Se  Se139  1  0.58323586  0.24738304  0.05402950  1
  Se  Se140  1  0.59085352  0.25657655  0.55905885  1
  Se  Se141  1  0.57508237  0.57814230  0.05716199  1
  Se  Se142  1  0.58859621  0.59025334  0.56322213  1
  Se  Se143  1  0.59532510  0.92721905  0.05440956  1
  Se  Se144  1  0.58283157  0.91756710  0.54925959  1
  Se  Se145  1  0.91986493  0.24898501  0.04947480  1
  Se  Se146  1  0.92426220  0.25535747  0.56530205  1
  Se  Se147  1  0.91721930  0.58451007  0.04998472  1
  Se  Se148  1  0.89531589  0.56216572  0.54706732  1
  Se  Se149  1  0.92346605  0.91918990  0.06391328  1
  Se  Se150  1  0.91125986  0.92051605  0.55237760  1
  Se  Se151  1  0.08412095  0.24725121  0.45042296  1
  Se  Se152  1  0.07489301  0.25739050  0.93494292  1
  Se  Se153  1  0.09577362  0.57365934  0.44935079  1
  Se  Se154  1  0.08833894  0.58204899  0.94476278  1
  Se  Se155  1  0.08227030  0.91397546  0.44892179  1
  Se  Se156  1  0.08498315  0.91434283  0.95002652  1
  Se  Se157  1  0.40780439  0.25576927  0.44328851  1
  Se  Se158  1  0.41563478  0.24850862  0.95229577  1
  Se  Se159  1  0.41801547  0.58971619  0.43667523  1
  Se  Se160  1  0.41895458  0.58793809  0.94882707  1
  Se  Se161  1  0.41958556  0.91628903  0.44427610  1
  Se  Se162  1  0.41390557  0.92045709  0.93842695  1
  Se  Se163  1  0.73878038  0.25442187  0.44248107  1
  Se  Se164  1  0.75256108  0.24888232  0.94750631  1
  Se  Se165  1  0.73984127  0.58232933  0.44183212  1
  Se  Se166  1  0.74960050  0.58306673  0.95530735  1
  Se  Se167  1  0.75276432  0.91413259  0.44396720  1
  Se  Se168  1  0.74597144  0.92344527  0.94223721  1
  Se  Se169  1  0.24733013  0.07960478  0.44658786  1
  Se  Se170  1  0.25566715  0.07310715  0.94011711  1
  Se  Se171  1  0.25839518  0.41872897  0.45001200  1
  Se  Se172  1  0.24863807  0.42038151  0.94848659  1
  Se  Se173  1  0.25106060  0.75252573  0.44611217  1
  Se  Se174  1  0.25385223  0.75217612  0.94663349  1
  Se  Se175  1  0.58593155  0.08077537  0.43891683  1
  Se  Se176  1  0.57380134  0.09567497  0.94604539  1
  Se  Se177  1  0.58706683  0.40911956  0.44092537  1
  Se  Se178  1  0.58467505  0.41507015  0.94955628  1
  Se  Se179  1  0.57765850  0.75481046  0.44563678  1
  Se  Se180  1  0.59415519  0.74230153  0.94286287  1
  Se  Se181  1  0.91820723  0.07625124  0.43752408  1
  Se  Se182  1  0.91820051  0.08275559  0.94894352  1
  Se  Se183  1  0.91598000  0.41052990  0.44450851  1
  Se  Se184  1  0.91271883  0.42303452  0.94521649  1
  Se  Se185  1  0.92853318  0.72920283  0.44628256  1
  Se  Se186  1  0.92728039  0.74262719  0.93567323  1
  Se  Se187  1  0.23916427  0.24720666  0.31488063  1
  Se  Se188  1  0.24012433  0.23751345  0.80434165  1
  Se  Se189  1  0.24913255  0.59083237  0.30107786  1
  Se  Se190  1  0.25602474  0.58653966  0.80558576  1
  Se  Se191  1  0.25459022  0.92035141  0.30678070  1
  Se  Se192  1  0.24380269  0.90632854  0.81002425  1
  Se  Se193  1  0.58594020  0.25212154  0.29860064  1
  Se  Se194  1  0.58792153  0.25326399  0.80492348  1
  Se  Se195  1  0.58577116  0.58551749  0.29847390  1
  Se  Se196  1  0.58075517  0.57904376  0.81686151  1
  Se  Se197  1  0.58348783  0.91887734  0.30405376  1
  Se  Se198  1  0.57459454  0.90751900  0.79713655  1
  Se  Se199  1  0.90396950  0.23778977  0.31226364  1
  Se  Se200  1  0.91174458  0.24898180  0.81217890  1
  Se  Se201  1  0.90389129  0.57295355  0.30865983  1
  Se  Se202  1  0.91681500  0.58511883  0.80401061  1
  Se  Se203  1  0.91961597  0.91233491  0.30412542  1
  Se  Se204  1  0.91793201  0.92394009  0.80035404  1
  Se  Se205  1  0.08082645  0.07631152  0.30602707  1
  Se  Se206  1  0.08607952  0.08190169  0.79853634  1
  Se  Se207  1  0.08558933  0.42593568  0.31128355  1
  Se  Se208  1  0.08740588  0.42076415  0.80501394  1
  Se  Se209  1  0.08878546  0.75955773  0.31617837  1
  Se  Se210  1  0.08730736  0.75643304  0.80695643  1
  Se  Se211  1  0.41661044  0.08925481  0.29940624  1
  Se  Se212  1  0.42140358  0.08500967  0.81262202  1
  Se  Se213  1  0.42334216  0.42625033  0.31156655  1
  Se  Se214  1  0.42585401  0.41962972  0.81640232  1
  Se  Se215  1  0.41483039  0.75081886  0.30270934  1
  Se  Se216  1  0.42327201  0.74981428  0.79485222  1
  Se  Se217  1  0.74346889  0.07732817  0.29793376  1
  Se  Se218  1  0.74838159  0.08402346  0.80781051  1
  Se  Se219  1  0.74231252  0.41057393  0.29851663  1
  Se  Se220  1  0.74745371  0.42030228  0.80399495  1
  Se  Se221  1  0.74574272  0.74861689  0.30585087  1
  Se  Se222  1  0.76111378  0.76029292  0.81189385  1
  Se  Se223  1  0.25429541  0.08043692  0.20016491  1
  Se  Se224  1  0.24362750  0.08459270  0.69371628  1
  Se  Se225  1  0.24321037  0.42053248  0.19222068  1
  Se  Se226  1  0.24995958  0.41794339  0.69062609  1
  Se  Se227  1  0.24741936  0.75089681  0.19972319  1
  Se  Se228  1  0.24976433  0.74828768  0.69270305  1
  Se  Se229  1  0.58536705  0.08071202  0.19234519  1
  Se  Se230  1  0.58918500  0.08024901  0.70218013  1
  Se  Se231  1  0.58280580  0.41576271  0.19701490  1
  Se  Se232  1  0.58998974  0.41975364  0.70123871  1
  Se  Se233  1  0.58261439  0.75243228  0.19912872  1
  Se  Se234  1  0.58340116  0.75640343  0.68563856  1
  Se  Se235  1  0.92097941  0.07927445  0.19973836  1
  Se  Se236  1  0.91376902  0.08707064  0.70020392  1
  Se  Se237  1  0.91056139  0.41774767  0.18836735  1
  Se  Se238  1  0.91267171  0.43236294  0.68659587  1
  Se  Se239  1  0.90786279  0.75217178  0.18922747  1
  Se  Se240  1  0.90316743  0.76338848  0.68513342  1
  Se  Se241  1  0.08905675  0.24005094  0.19604022  1
  Se  Se242  1  0.09604234  0.24485690  0.69127043  1
  Se  Se243  1  0.08086195  0.58194607  0.19203850  1
  Se  Se244  1  0.09655859  0.57643152  0.68867779  1
  Se  Se245  1  0.08163177  0.91712872  0.20052160  1
  Se  Se246  1  0.07980611  0.91768453  0.69123929  1
  Se  Se247  1  0.42184634  0.24841260  0.18686003  1
  Se  Se248  1  0.42624983  0.23789841  0.69133961  1
  Se  Se249  1  0.40901109  0.58779403  0.20071330  1
  Se  Se250  1  0.41699322  0.58238768  0.70321651  1
  Se  Se251  1  0.41547949  0.92125611  0.19658748  1
  Se  Se252  1  0.42378218  0.90756669  0.68517980  1
  Se  Se253  1  0.74671582  0.24901747  0.19536143  1
  Se  Se254  1  0.75181540  0.25677195  0.69831722  1
  Se  Se255  1  0.74411989  0.58452210  0.19530247  1
  Se  Se256  1  0.75829991  0.58998311  0.68953102  1
  Se  Se257  1  0.74938188  0.91477246  0.19845697  1
  Se  Se258  1  0.74326222  0.92449662  0.69313307  1
