# generated using pymatgen
data_In86Cu29Se144
_symmetry_space_group_name_H-M   'P 1'
_cell_length_a   17.58194911
_cell_length_b   17.58349091
_cell_length_c   23.45091349
_cell_angle_alpha   90.00818806
_cell_angle_beta   89.99805100
_cell_angle_gamma   90.00847183
_symmetry_Int_Tables_number   1
_chemical_formula_structural   In86Cu29Se144
_chemical_formula_sum   'In86 Cu29 Se144'
_cell_volume   7249.89763950
_cell_formula_units_Z   1
loop_
 _symmetry_equiv_pos_site_id
 _symmetry_equiv_pos_as_xyz
  1  'x, y, z'
loop_
 _atom_site_type_symbol
 _atom_site_label
 _atom_site_symmetry_multiplicity
 _atom_site_fract_x
 _atom_site_fract_y
 _atom_site_fract_z
 _atom_site_occupancy
  In  In0  1  -0.01148647  0.17858127  0.12811461  1
  In  In1  1  0.00102933  0.17215420  0.60917786  1
  In  In2  1  -0.00169548  0.50648459  0.12901907  1
  In  In3  1  -0.00368075  0.51200432  0.62575042  1
  In  In4  1  -0.01352872  0.81693143  0.10582103  1
  In  In5  1  0.00049149  0.81544501  0.62491641  1
  In  In6  1  0.32979639  0.15696428  0.13112240  1
  In  In7  1  0.33624207  0.15648064  0.61783086  1
  In  In8  1  0.35335706  0.50389269  0.12328581  1
  In  In9  1  0.34599030  0.49819073  0.62433266  1
  In  In10  1  0.32172736  0.82430108  0.11460455  1
  In  In11  1  0.33078906  0.83627791  0.63119590  1
  In  In12  1  0.67563385  0.15335097  0.13536719  1
  In  In13  1  0.66718530  0.16784643  0.62156104  1
  In  In14  1  0.65582710  0.52141408  0.14540790  1
  In  In15  1  0.66613949  0.50274382  0.62650093  1
  In  In16  1  0.66903801  0.83103491  0.11913426  1
  In  In17  1  0.67296430  0.82938726  0.63648868  1
  In  In18  1  0.15978777  0.00232396  0.38539040  1
  In  In19  1  0.16606236  -0.02003469  0.87372020  1
  In  In20  1  0.15478467  0.32714370  0.37829208  1
  In  In21  1  0.16135811  0.33178040  0.87148708  1
  In  In22  1  0.17040704  0.66864883  0.36929518  1
  In  In23  1  0.16934196  0.67883295  0.87303032  1
  In  In24  1  0.51455857  -0.00054323  0.37265803  1
  In  In25  1  0.49143829  -0.01063961  0.86490487  1
  In  In26  1  0.51104543  0.32757226  0.38399740  1
  In  In27  1  0.51753095  0.33151487  0.87258679  1
  In  In28  1  0.50287078  0.66333843  0.37479527  1
  In  In29  1  0.50407808  0.66973326  0.87724313  1
  In  In30  1  0.82902363  0.01099091  0.37681039  1
  In  In31  1  0.82362877  0.00576898  0.87901816  1
  In  In32  1  0.81692569  0.35213570  0.39310738  1
  In  In33  1  0.81258093  0.34362100  0.87809245  1
  In  In34  1  0.81726044  0.64394856  0.34622285  1
  In  In35  1  0.83327358  0.66994585  0.87098702  1
  In  In36  1  -0.00663366  0.17726220  0.39401403  1
  In  In37  1  -0.00545543  0.15591942  0.87240731  1
  In  In38  1  -0.04608488  0.50755186  0.37793531  1
  In  In39  1  -0.01465260  0.52510452  0.87588283  1
  In  In40  1  0.00607180  0.82917834  0.37616862  1
  In  In41  1  0.00048590  0.81803560  0.88851714  1
  In  In42  1  0.32858827  0.17206555  0.38453115  1
  In  In43  1  0.34939490  0.16113209  0.86991185  1
  In  In44  1  0.33367136  0.51848683  0.37839705  1
  In  In45  1  0.33854068  0.51997148  0.87036630  1
  In  In46  1  0.33192668  0.81635741  0.37363014  1
  In  In47  1  0.33903497  0.82974114  0.87514832  1
  In  In48  1  0.66670603  0.16943053  0.37662463  1
  In  In49  1  0.67404063  0.17554597  0.86844980  1
  In  In50  1  0.67327763  0.49852879  0.37441266  1
  In  In51  1  0.66729032  0.49497271  0.86758874  1
  In  In52  1  0.66439131  0.82714351  0.36685301  1
  In  In53  1  0.66131900  0.83059988  0.87624418  1
  In  In54  1  0.17289827  -0.00772577  0.12754318  1
  In  In55  1  0.17683579  0.00305050  0.61847564  1
  In  In56  1  0.15090859  0.33464103  0.13131219  1
  In  In57  1  0.17520853  0.33079870  0.61816496  1
  In  In58  1  0.15948857  0.68121668  0.13159698  1
  In  In59  1  0.15999903  0.67499882  0.62770991  1
  In  In60  1  0.51406687  -0.00066861  0.12513431  1
  In  In61  1  0.49889357  -0.00168252  0.62935328  1
  In  In62  1  0.50556757  0.35308426  0.12550592  1
  In  In63  1  0.51608108  0.34965266  0.61346520  1
  In  In64  1  0.50322680  0.66687446  0.12286365  1
  In  In65  1  0.51053552  0.65491006  0.63492424  1
  In  In66  1  0.82494039  -0.00927460  0.11589722  1
  In  In67  1  0.82204689  0.00570513  0.62840825  1
  In  In68  1  0.82900316  0.32458573  0.12535344  1
  In  In69  1  0.82801861  0.32711169  0.61755962  1
  In  In70  1  0.82587252  0.67375965  0.12945495  1
  In  In71  1  0.83126779  0.65982965  0.63387614  1
  In  In72  1  0.82328887  0.50954892  0.00377787  1
  In  In73  1  0.17317247  0.50732654  -0.00954089  1
  In  In74  1  -0.00185500  -0.00635049  0.74749762  1
  In  In75  1  0.51029502  0.16394981  -0.00021159  1
  In  In76  1  0.16338390  0.49851001  0.49558541  1
  In  In77  1  -0.00627239  0.33759829  0.26041448  1
  In  In78  1  -0.00197435  -0.00119880  0.25708751  1
  In  In79  1  0.16586883  0.16202415  0.00994245  1
  In  In80  1  0.33607474  -0.00334486  0.24775535  1
  In  In81  1  -0.00212149  0.33666382  0.74060527  1
  In  In82  1  0.50311401  0.82822947  0.49489013  1
  In  In83  1  0.33793649  0.33268784  0.73563616  1
  In  In84  1  0.83529002  0.82641270  0.50571074  1
  In  In85  1  0.33706410  0.33941086  0.25856486  1
  Cu  Cu86  1  0.33892000  0.66731194  -0.00098096  1
  Cu  Cu87  1  -0.00603757  0.00008725  -0.00445980  1
  Cu  Cu88  1  0.83087294  0.17473644  0.74799062  1
  Cu  Cu89  1  0.33917004  0.32804942  0.50142114  1
  Cu  Cu90  1  -0.00461465  0.66543593  0.49900747  1
  Cu  Cu91  1  -0.00778531  0.33396932  0.00120962  1
  Cu  Cu92  1  0.17137824  0.50107502  0.25318279  1
  Cu  Cu93  1  0.15574885  0.51235053  0.75118567  1
  Cu  Cu94  1  0.33663150  0.33829199  0.00486928  1
  Cu  Cu95  1  0.50040988  0.50081087  0.74837960  1
  Cu  Cu96  1  0.66548425  0.33440979  0.50097438  1
  Cu  Cu97  1  0.82977077  0.83521305  0.23915872  1
  Cu  Cu98  1  0.66738297  -0.00347641  -0.00176628  1
  Cu  Cu99  1  0.66725412  0.00292235  0.50078406  1
  Cu  Cu100  1  0.17104598  0.82807625  0.75346768  1
  Cu  Cu101  1  0.33612886  -0.00662635  0.50437638  1
  Cu  Cu102  1  0.17899514  0.15838392  0.74263079  1
  Cu  Cu103  1  0.82712358  0.16602016  0.25433035  1
  Cu  Cu104  1  0.16533109  0.83354772  0.24843729  1
  Cu  Cu105  1  0.50083840  0.82854817  0.75394482  1
  Cu  Cu106  1  0.83171571  0.83380561  0.75328198  1
  Cu  Cu107  1  0.00237232  -0.00518556  0.49911235  1
  Cu  Cu108  1  0.50497459  0.82710459  0.24670293  1
  Cu  Cu109  1  0.50649114  0.50831864  0.25099831  1
  Cu  Cu110  1  0.66839640  0.33373451  -0.00067079  1
  Cu  Cu111  1  0.33238537  -0.00471689  -0.00554295  1
  Cu  Cu112  1  0.50189293  0.17430795  0.25382493  1
  Cu  Cu113  1  0.50783981  0.16033367  0.74423657  1
  Cu  Cu114  1  0.33408555  0.67015464  0.50099573  1
  Se  Se115  1  0.06898329  0.07404781  0.06528838  1
  Se  Se116  1  0.08660623  0.07928696  0.55173067  1
  Se  Se117  1  0.07812248  0.41627600  0.05364519  1
  Se  Se118  1  0.07602145  0.41324132  0.56065329  1
  Se  Se119  1  0.09818882  0.75749122  0.05061047  1
  Se  Se120  1  0.08350613  0.74695189  0.54881449  1
  Se  Se121  1  0.40956632  0.07684206  0.05654615  1
  Se  Se122  1  0.42507943  0.07557118  0.55194442  1
  Se  Se123  1  0.42587579  0.42285744  0.04845107  1
  Se  Se124  1  0.41826789  0.42048489  0.54830141  1
  Se  Se125  1  0.42039176  0.75164003  0.05341132  1
  Se  Se126  1  0.41689809  0.74560463  0.56283123  1
  Se  Se127  1  0.74580412  0.08516713  0.05247317  1
  Se  Se128  1  0.75359785  0.08594005  0.55178624  1
  Se  Se129  1  0.73982199  0.41560640  0.06458568  1
  Se  Se130  1  0.74708707  0.41936831  0.55475339  1
  Se  Se131  1  0.75886801  0.75365184  0.05269154  1
  Se  Se132  1  0.73954490  0.73997564  0.56081018  1
  Se  Se133  1  0.25685385  0.26136237  0.06502851  1
  Se  Se134  1  0.25396901  0.24474573  0.55185561  1
  Se  Se135  1  0.25670255  0.58855318  0.06118862  1
  Se  Se136  1  0.25322901  0.58599430  0.55947150  1
  Se  Se137  1  0.24527470  0.91858952  0.04967872  1
  Se  Se138  1  0.25178233  0.90798697  0.55357698  1
  Se  Se139  1  0.59173244  0.25447823  0.06472068  1
  Se  Se140  1  0.58203789  0.24680574  0.55103880  1
  Se  Se141  1  0.58607670  0.57688561  0.05991297  1
  Se  Se142  1  0.56997151  0.57127372  0.55766888  1
  Se  Se143  1  0.58208108  0.91569178  0.05115259  1
  Se  Se144  1  0.59293940  0.91522731  0.55931353  1
  Se  Se145  1  0.90973372  0.24781267  0.05107597  1
  Se  Se146  1  0.91671201  0.25574668  0.54718598  1
  Se  Se147  1  0.92391938  0.59316934  0.05812628  1
  Se  Se148  1  0.91123348  0.58777283  0.55526949  1
  Se  Se149  1  0.91023659  0.91477256  0.04626158  1
  Se  Se150  1  0.92271763  0.92231330  0.56571884  1
  Se  Se151  1  0.09715518  0.24211796  0.45515072  1
  Se  Se152  1  0.07680844  0.25233584  0.94449767  1
  Se  Se153  1  0.07224988  0.58558640  0.43472138  1
  Se  Se154  1  0.07469834  0.60039376  0.94533743  1
  Se  Se155  1  0.08429055  0.90806306  0.44929428  1
  Se  Se156  1  0.08125754  0.91559510  0.94814622  1
  Se  Se157  1  0.42346368  0.24456538  0.44904388  1
  Se  Se158  1  0.41416695  0.25587071  0.94347952  1
  Se  Se159  1  0.42085586  0.58850692  0.45012255  1
  Se  Se160  1  0.42145693  0.58214618  0.94715816  1
  Se  Se161  1  0.41136033  0.91993401  0.43538766  1
  Se  Se162  1  0.42051045  0.91578600  0.94435326  1
  Se  Se163  1  0.74858368  0.24605862  0.45018916  1
  Se  Se164  1  0.75035709  0.24720657  0.94800676  1
  Se  Se165  1  0.77102158  0.57696672  0.43637441  1
  Se  Se166  1  0.73533283  0.59177069  0.93879685  1
  Se  Se167  1  0.74405778  0.91646919  0.44235127  1
  Se  Se168  1  0.74939219  0.91304688  0.94423389  1
  Se  Se169  1  0.25364425  0.07824934  0.44913158  1
  Se  Se170  1  0.25375641  0.08214787  0.93844069  1
  Se  Se171  1  0.26066547  0.40875153  0.43818033  1
  Se  Se172  1  0.26131856  0.40801210  0.93512713  1
  Se  Se173  1  0.24621131  0.74674394  0.44680366  1
  Se  Se174  1  0.25426169  0.75024055  0.94612912  1
  Se  Se175  1  0.58338200  0.08414786  0.44618967  1
  Se  Se176  1  0.58993445  0.07539434  0.93319319  1
  Se  Se177  1  0.58690764  0.42231257  0.44678018  1
  Se  Se178  1  0.58766995  0.41676829  0.94442747  1
  Se  Se179  1  0.60063161  0.73770569  0.44422924  1
  Se  Se180  1  0.56829475  0.76485651  0.94699364  1
  Se  Se181  1  0.91385271  0.07787807  0.45142112  1
  Se  Se182  1  0.91200085  0.08769399  0.94665795  1
  Se  Se183  1  0.94185879  0.39276186  0.44305175  1
  Se  Se184  1  0.91793342  0.41787218  0.94115572  1
  Se  Se185  1  0.91376100  0.74109422  0.43594115  1
  Se  Se186  1  0.90278331  0.74733338  0.94979760  1
  Se  Se187  1  0.24238761  0.24430341  0.30740153  1
  Se  Se188  1  0.24961830  0.24495468  0.80492184  1
  Se  Se189  1  0.25677428  0.58794922  0.30053229  1
  Se  Se190  1  0.24481840  0.58892991  0.80401934  1
  Se  Se191  1  0.24264416  0.91332141  0.31109982  1
  Se  Se192  1  0.25604933  0.91358732  0.80338432  1
  Se  Se193  1  0.58712132  0.25533267  0.30603649  1
  Se  Se194  1  0.58515904  0.24853732  0.79762221  1
  Se  Se195  1  0.59147242  0.58734706  0.30664142  1
  Se  Se196  1  0.58017101  0.58281827  0.80577360  1
  Se  Se197  1  0.58443163  0.91465841  0.29963009  1
  Se  Se198  1  0.58707559  0.91612212  0.80149155  1
  Se  Se199  1  0.90496629  0.24384683  0.31684957  1
  Se  Se200  1  0.91302164  0.25089110  0.80984024  1
  Se  Se201  1  0.93709064  0.59645610  0.29305901  1
  Se  Se202  1  0.89851863  0.57668373  0.79929907  1
  Se  Se203  1  0.90260582  0.90694956  0.31134005  1
  Se  Se204  1  0.91355186  0.91143835  0.81486280  1
  Se  Se205  1  0.07972246  0.09306393  0.31805851  1
  Se  Se206  1  0.09493848  0.08547155  0.80538475  1
  Se  Se207  1  0.08680001  0.43096599  0.31531759  1
  Se  Se208  1  0.08077204  0.42750527  0.81014633  1
  Se  Se209  1  0.08293851  0.75001689  0.30238757  1
  Se  Se210  1  0.07746765  0.75429642  0.80587094  1
  Se  Se211  1  0.41910252  0.09204228  0.31074013  1
  Se  Se212  1  0.41819995  0.08083190  0.79483409  1
  Se  Se213  1  0.42827526  0.42920590  0.31562078  1
  Se  Se214  1  0.41926942  0.41639482  0.80768405  1
  Se  Se215  1  0.42254732  0.74771926  0.30417979  1
  Se  Se216  1  0.41587091  0.74405954  0.80492294  1
  Se  Se217  1  0.74230042  0.08057587  0.30470903  1
  Se  Se218  1  0.75349696  0.08608607  0.80167176  1
  Se  Se219  1  0.75980119  0.41721950  0.30673308  1
  Se  Se220  1  0.74343205  0.40935296  0.79731210  1
  Se  Se221  1  0.74573266  0.75186670  0.29339966  1
  Se  Se222  1  0.74569801  0.75171704  0.80479456  1
  Se  Se223  1  0.23350061  0.09089034  0.20145917  1
  Se  Se224  1  0.26158433  0.07441418  0.69254952  1
  Se  Se225  1  0.24728899  0.42205370  0.18928171  1
  Se  Se226  1  0.23625354  0.42984550  0.69150284  1
  Se  Se227  1  0.25568144  0.75301327  0.19817208  1
  Se  Se228  1  0.25186019  0.74543620  0.69701688  1
  Se  Se229  1  0.57883913  0.08346057  0.20151388  1
  Se  Se230  1  0.59271163  0.07751336  0.69196781  1
  Se  Se231  1  0.58649285  0.41500916  0.20432274  1
  Se  Se232  1  0.58387032  0.41559212  0.69704815  1
  Se  Se233  1  0.58927621  0.74814196  0.19102417  1
  Se  Se234  1  0.58576093  0.74685759  0.70097427  1
  Se  Se235  1  0.90701499  0.08600462  0.19325230  1
  Se  Se236  1  0.91771798  0.09713844  0.69033523  1
  Se  Se237  1  0.90886644  0.42043879  0.19186552  1
  Se  Se238  1  0.90343741  0.42520895  0.68788536  1
  Se  Se239  1  0.92160327  0.75426321  0.19271430  1
  Se  Se240  1  0.91388214  0.75050635  0.69862318  1
  Se  Se241  1  0.08470886  0.24009742  0.20212039  1
  Se  Se242  1  0.09416408  0.24004870  0.68891000  1
  Se  Se243  1  0.09010697  0.58089389  0.19461548  1
  Se  Se244  1  0.07453752  0.59443053  0.69644149  1
  Se  Se245  1  0.07981020  0.90935882  0.19009967  1
  Se  Se246  1  0.09250650  0.90726095  0.68892558  1
  Se  Se247  1  0.42122762  0.24844996  0.19018998  1
  Se  Se248  1  0.43175377  0.24354625  0.68099589  1
  Se  Se249  1  0.41987770  0.58813605  0.19772998  1
  Se  Se250  1  0.41114605  0.58299417  0.70003423  1
  Se  Se251  1  0.42242000  0.90681799  0.18641277  1
  Se  Se252  1  0.41988950  0.91339482  0.69826085  1
  Se  Se253  1  0.74689825  0.25124217  0.19970321  1
  Se  Se254  1  0.74680816  0.25321186  0.69225730  1
  Se  Se255  1  0.76602853  0.57992704  0.20188074  1
  Se  Se256  1  0.73159028  0.59572460  0.69793603  1
  Se  Se257  1  0.74407662  0.92089931  0.19155087  1
  Se  Se258  1  0.75162351  0.92109441  0.70123267  1
