# generated using pymatgen
data_In86Cu29Se144
_symmetry_space_group_name_H-M   'P 1'
_cell_length_a   17.57734731
_cell_length_b   17.57708792
_cell_length_c   23.43572869
_cell_angle_alpha   89.97138768
_cell_angle_beta   90.00252193
_cell_angle_gamma   90.02005822
_symmetry_Int_Tables_number   1
_chemical_formula_structural   In86Cu29Se144
_chemical_formula_sum   'In86 Cu29 Se144'
_cell_volume   7240.66807865
_cell_formula_units_Z   1
loop_
 _symmetry_equiv_pos_site_id
 _symmetry_equiv_pos_as_xyz
  1  'x, y, z'
loop_
 _atom_site_type_symbol
 _atom_site_label
 _atom_site_symmetry_multiplicity
 _atom_site_fract_x
 _atom_site_fract_y
 _atom_site_fract_z
 _atom_site_occupancy
  In  In0  1  -0.00544480  0.16709986  0.11813243  1
  In  In1  1  0.00582714  0.16163247  0.63630775  1
  In  In2  1  -0.00253750  0.49899693  0.11746528  1
  In  In3  1  0.00270865  0.49412733  0.62225235  1
  In  In4  1  0.01453410  0.83651119  0.12306105  1
  In  In5  1  0.01941240  0.81212558  0.65624442  1
  In  In6  1  0.31888080  0.16822200  0.12237986  1
  In  In7  1  0.33730353  0.15667134  0.62614203  1
  In  In8  1  0.33986453  0.50104101  0.12177188  1
  In  In9  1  0.34075360  0.51149463  0.61888329  1
  In  In10  1  0.34427410  0.82125514  0.13166246  1
  In  In11  1  0.34045952  0.82538967  0.63212921  1
  In  In12  1  0.67472500  0.16252605  0.13124775  1
  In  In13  1  0.65784664  0.17201573  0.61742466  1
  In  In14  1  0.67018791  0.50390151  0.13711632  1
  In  In15  1  0.66674418  0.49261388  0.60713938  1
  In  In16  1  0.65588733  0.83962567  0.13010997  1
  In  In17  1  0.65973378  0.84070842  0.61832191  1
  In  In18  1  0.16321281  -0.00217293  0.36752421  1
  In  In19  1  0.17544362  0.00413475  0.87078445  1
  In  In20  1  0.16903151  0.34056180  0.37981780  1
  In  In21  1  0.15639228  0.34666419  0.88098975  1
  In  In22  1  0.17209343  0.64868403  0.37074211  1
  In  In23  1  0.15853991  0.66086810  0.86562512  1
  In  In24  1  0.49634193  -0.00249527  0.37209413  1
  In  In25  1  0.48001756  -0.00245050  0.87344365  1
  In  In26  1  0.51387633  0.32499163  0.38496304  1
  In  In27  1  0.51211396  0.33874622  0.87554023  1
  In  In28  1  0.49841439  0.66808815  0.37609165  1
  In  In29  1  0.49279518  0.67424019  0.88230374  1
  In  In30  1  0.83491201  0.00475802  0.36785323  1
  In  In31  1  0.84810805  0.00213501  0.87883341  1
  In  In32  1  0.81743728  0.35696725  0.38432450  1
  In  In33  1  0.83679401  0.32610829  0.88415255  1
  In  In34  1  0.81802562  0.65618865  0.36577199  1
  In  In35  1  0.83550244  0.65666247  0.87463024  1
  In  In36  1  0.00405989  0.16523388  0.37410142  1
  In  In37  1  0.00030303  0.17163193  0.87816481  1
  In  In38  1  0.00257836  0.49279562  0.38567192  1
  In  In39  1  -0.00220986  0.49722760  0.87187359  1
  In  In40  1  -0.01193559  0.83596655  0.37501093  1
  In  In41  1  0.01333515  0.84396764  0.85189619  1
  In  In42  1  0.34698873  0.17056584  0.37313432  1
  In  In43  1  0.33094378  0.14590851  0.87217977  1
  In  In44  1  0.32819231  0.51297007  0.37705882  1
  In  In45  1  0.32729875  0.50946948  0.87874277  1
  In  In46  1  0.33825939  0.84006717  0.36861143  1
  In  In47  1  0.33530663  0.83937632  0.86776744  1
  In  In48  1  0.65673110  0.15234164  0.36200981  1
  In  In49  1  0.66623784  0.18098583  0.87947307  1
  In  In50  1  0.66366180  0.49661671  0.37400536  1
  In  In51  1  0.66803301  0.50030683  0.88684398  1
  In  In52  1  0.65556576  0.82379221  0.36620436  1
  In  In53  1  0.66136585  0.82048158  0.88167347  1
  In  In54  1  0.15996431  0.00499564  0.12916898  1
  In  In55  1  0.17498809  -0.01362114  0.64618003  1
  In  In56  1  0.16757961  0.33266046  0.11488113  1
  In  In57  1  0.15150197  0.33616254  0.62605952  1
  In  In58  1  0.18095635  0.66466822  0.12563866  1
  In  In59  1  0.17529165  0.65841728  0.63272903  1
  In  In60  1  0.50684693  -0.00841508  0.13077961  1
  In  In61  1  0.49726269  -0.00504013  0.61763183  1
  In  In62  1  0.50148686  0.35051814  0.12795610  1
  In  In63  1  0.50101045  0.33294575  0.61039801  1
  In  In64  1  0.50010518  0.66423105  0.13007433  1
  In  In65  1  0.49545408  0.66027542  0.61781668  1
  In  In66  1  0.82787700  0.00904795  0.12715694  1
  In  In67  1  0.84078416  0.00030022  0.62826800  1
  In  In68  1  0.82981442  0.33375154  0.12528180  1
  In  In69  1  0.83629552  0.34228039  0.61970763  1
  In  In70  1  0.83026990  0.65031207  0.12688357  1
  In  In71  1  0.84665553  0.65921849  0.62659532  1
  In  In72  1  0.66782999  0.33422898  0.74441515  1
  In  In73  1  0.16990415  0.82812754  0.51265797  1
  In  In74  1  0.17024549  0.17278291  0.50337246  1
  In  In75  1  0.49530109  0.16641139  -0.00248874  1
  In  In76  1  0.83301732  0.83177868  0.50402309  1
  In  In77  1  -0.00599387  0.33553993  0.25588502  1
  In  In78  1  0.83151610  0.16981182  0.50454360  1
  In  In79  1  0.33637303  0.33668715  0.25002946  1
  In  In80  1  0.00130281  0.67232600  0.24862021  1
  In  In81  1  0.67113971  0.66442425  0.75424298  1
  In  In82  1  0.67281812  -0.00255343  0.74376516  1
  In  In83  1  0.83706461  0.82618664  -0.00644118  1
  In  In84  1  0.17143858  0.83227813  -0.00848469  1
  In  In85  1  0.33191855  0.33124712  0.74364802  1
  Cu  Cu86  1  -0.00285730  0.33801856  -0.00113179  1
  Cu  Cu87  1  0.50117806  0.50426951  0.25435192  1
  Cu  Cu88  1  0.66412343  0.00168255  0.00735389  1
  Cu  Cu89  1  0.83772147  0.49727801  0.74900492  1
  Cu  Cu90  1  0.33542323  0.34268786  0.49669938  1
  Cu  Cu91  1  0.49340244  0.50728825  0.74585814  1
  Cu  Cu92  1  0.00130800  0.65814616  -0.00794560  1
  Cu  Cu93  1  -0.00399991  0.65467863  0.50122129  1
  Cu  Cu94  1  0.34139510  0.00472486  0.49784089  1
  Cu  Cu95  1  0.00018749  0.00863319  0.00090993  1
  Cu  Cu96  1  0.66455492  0.66441180  0.49118042  1
  Cu  Cu97  1  0.65884384  -0.00246286  0.49061217  1
  Cu  Cu98  1  0.83373675  0.84296172  0.24767386  1
  Cu  Cu99  1  0.49879031  0.83226521  0.25095995  1
  Cu  Cu100  1  0.66597789  0.33946544  0.00700482  1
  Cu  Cu101  1  0.16192754  0.50226576  0.75331766  1
  Cu  Cu102  1  0.17058138  0.83727768  0.24797765  1
  Cu  Cu103  1  0.33084161  -0.00795520  -0.00191334  1
  Cu  Cu104  1  0.83350994  0.16854893  0.24697682  1
  Cu  Cu105  1  0.00466601  -0.00335453  0.50926022  1
  Cu  Cu106  1  0.83925367  0.16928929  0.75612946  1
  Cu  Cu107  1  0.66300685  0.66124024  0.00707108  1
  Cu  Cu108  1  0.33910397  0.66024889  0.00284535  1
  Cu  Cu109  1  0.33036300  0.33390842  -0.00149093  1
  Cu  Cu110  1  0.16576817  0.16990501  0.75449456  1
  Cu  Cu111  1  0.50068974  0.16398079  0.25090080  1
  Cu  Cu112  1  0.33375061  0.67349744  0.50054528  1
  Cu  Cu113  1  0.16247325  0.16185366  0.24794509  1
  Cu  Cu114  1  0.49891958  0.83317107  0.75047049  1
  Se  Se115  1  0.08762579  0.08696600  0.05444897  1
  Se  Se116  1  0.09078174  0.07419141  0.56561122  1
  Se  Se117  1  0.08428494  0.41966377  0.05037073  1
  Se  Se118  1  0.09030583  0.42109275  0.55071376  1
  Se  Se119  1  0.08129476  0.73890566  0.05272384  1
  Se  Se120  1  0.06991749  0.73913981  0.56318951  1
  Se  Se121  1  0.40972255  0.07467185  0.05977671  1
  Se  Se122  1  0.42259694  0.08972400  0.55092087  1
  Se  Se123  1  0.41656939  0.41397474  0.05138696  1
  Se  Se124  1  0.41918349  0.42576271  0.55018668  1
  Se  Se125  1  0.42002565  0.74594614  0.05603034  1
  Se  Se126  1  0.41791778  0.75529938  0.55388721  1
  Se  Se127  1  0.74999283  0.08782670  0.05298919  1
  Se  Se128  1  0.74056495  0.06792601  0.55735642  1
  Se  Se129  1  0.74775630  0.42331096  0.06105191  1
  Se  Se130  1  0.74263188  0.39748991  0.54686496  1
  Se  Se131  1  0.74648048  0.74763579  0.06182291  1
  Se  Se132  1  0.74212671  0.73652767  0.56069289  1
  Se  Se133  1  0.24661388  0.24627483  0.04630028  1
  Se  Se134  1  0.26144795  0.26248079  0.56338884  1
  Se  Se135  1  0.25072370  0.57924598  0.05262373  1
  Se  Se136  1  0.24897420  0.58921333  0.55248210  1
  Se  Se137  1  0.25304099  0.91460304  0.06321698  1
  Se  Se138  1  0.26055903  0.92840171  0.56135447  1
  Se  Se139  1  0.58351663  0.25259650  0.06208824  1
  Se  Se140  1  0.59459920  0.25978563  0.54540248  1
  Se  Se141  1  0.58366388  0.57831697  0.06355008  1
  Se  Se142  1  0.58111561  0.58361696  0.54831647  1
  Se  Se143  1  0.57899416  0.91442833  0.05274023  1
  Se  Se144  1  0.57748029  0.91315737  0.54559911  1
  Se  Se145  1  0.91336608  0.25561983  0.05408163  1
  Se  Se146  1  0.93156182  0.24973099  0.56176057  1
  Se  Se147  1  0.91485268  0.58460457  0.05025348  1
  Se  Se148  1  0.91117145  0.57192242  0.55287491  1
  Se  Se149  1  0.92233719  0.92022843  0.05702915  1
  Se  Se150  1  0.92972797  0.90990780  0.56648883  1
  Se  Se151  1  0.07415808  0.25818410  0.44519375  1
  Se  Se152  1  0.08276834  0.25364121  0.94794479  1
  Se  Se153  1  0.08781179  0.58314816  0.44697399  1
  Se  Se154  1  0.08770464  0.57734930  0.93987173  1
  Se  Se155  1  0.08096499  0.91657754  0.44554271  1
  Se  Se156  1  0.07420931  0.92372835  0.93962339  1
  Se  Se157  1  0.41541768  0.25079526  0.44900370  1
  Se  Se158  1  0.40798170  0.25564160  0.93397162  1
  Se  Se159  1  0.41561767  0.58764196  0.44735106  1
  Se  Se160  1  0.42258954  0.57694162  0.94778006  1
  Se  Se161  1  0.41645171  0.91475577  0.44428306  1
  Se  Se162  1  0.41509644  0.90844713  0.94707363  1
  Se  Se163  1  0.74414261  0.24056011  0.43222777  1
  Se  Se164  1  0.74664647  0.25250389  0.95398095  1
  Se  Se165  1  0.75116624  0.57938165  0.44458057  1
  Se  Se166  1  0.75178160  0.58797811  0.95022614  1
  Se  Se167  1  0.74755434  0.91871120  0.43671852  1
  Se  Se168  1  0.74259221  0.92415524  0.94187794  1
  Se  Se169  1  0.25296821  0.07857118  0.43956502  1
  Se  Se170  1  0.24812850  0.08008521  0.94968923  1
  Se  Se171  1  0.24949426  0.42447257  0.44654237  1
  Se  Se172  1  0.24938371  0.42144921  0.94649917  1
  Se  Se173  1  0.25069692  0.74867236  0.43864034  1
  Se  Se174  1  0.25993710  0.73675811  0.93717990  1
  Se  Se175  1  0.57718486  0.08480966  0.44087448  1
  Se  Se176  1  0.58613367  0.07491478  0.93815518  1
  Se  Se177  1  0.57791725  0.42590659  0.44744155  1
  Se  Se178  1  0.58021618  0.41874846  0.95261429  1
  Se  Se179  1  0.58128157  0.75385157  0.44563209  1
  Se  Se180  1  0.58060695  0.74703796  0.95463583  1
  Se  Se181  1  0.92470142  0.07338584  0.44720526  1
  Se  Se182  1  0.91458972  0.09215752  0.95021150  1
  Se  Se183  1  0.92143041  0.40745265  0.45060502  1
  Se  Se184  1  0.91324257  0.42231041  0.94559207  1
  Se  Se185  1  0.91698614  0.73677523  0.44081281  1
  Se  Se186  1  0.93453992  0.74887957  0.93108448  1
  Se  Se187  1  0.24103997  0.24386984  0.30859555  1
  Se  Se188  1  0.24659916  0.25080470  0.81446108  1
  Se  Se189  1  0.25508793  0.58203102  0.29650718  1
  Se  Se190  1  0.25328649  0.58321312  0.80059661  1
  Se  Se191  1  0.25298848  0.92220605  0.30106618  1
  Se  Se192  1  0.24458846  0.91345250  0.80239643  1
  Se  Se193  1  0.58079660  0.25278758  0.30178682  1
  Se  Se194  1  0.57466845  0.24197592  0.80224536  1
  Se  Se195  1  0.58434107  0.58850919  0.30724845  1
  Se  Se196  1  0.57733567  0.57547148  0.81197632  1
  Se  Se197  1  0.58258285  0.91941847  0.30179846  1
  Se  Se198  1  0.58240977  0.91091048  0.81002421  1
  Se  Se199  1  0.90374573  0.24582138  0.31556259  1
  Se  Se200  1  0.91799163  0.25651818  0.80804868  1
  Se  Se201  1  0.92110858  0.57614279  0.30987378  1
  Se  Se202  1  0.91844899  0.58365132  0.80135992  1
  Se  Se203  1  0.92093647  0.92153952  0.30113560  1
  Se  Se204  1  0.90507249  0.91644379  0.80273676  1
  Se  Se205  1  0.07678500  0.08143329  0.30199249  1
  Se  Se206  1  0.08289262  0.08753067  0.80967765  1
  Se  Se207  1  0.09290090  0.42616433  0.30646531  1
  Se  Se208  1  0.07954611  0.41386210  0.80119148  1
  Se  Se209  1  0.09177310  0.75973050  0.31313624  1
  Se  Se210  1  0.09136697  0.74978213  0.79347190  1
  Se  Se211  1  0.41377786  0.08179552  0.30133541  1
  Se  Se212  1  0.41823922  0.08322483  0.79859782  1
  Se  Se213  1  0.42368388  0.41994947  0.31567545  1
  Se  Se214  1  0.42079247  0.42088060  0.80719934  1
  Se  Se215  1  0.41534588  0.74804779  0.30397344  1
  Se  Se216  1  0.41830077  0.74765529  0.80420810  1
  Se  Se217  1  0.75037602  0.07859252  0.29606443  1
  Se  Se218  1  0.75175951  0.09162699  0.81206700  1
  Se  Se219  1  0.75261561  0.42521787  0.30193647  1
  Se  Se220  1  0.75272837  0.42190886  0.81068052  1
  Se  Se221  1  0.75403639  0.75605079  0.30058061  1
  Se  Se222  1  0.75941088  0.75912157  0.81077464  1
  Se  Se223  1  0.25118645  0.08248886  0.19660949  1
  Se  Se224  1  0.25215906  0.08938469  0.70112268  1
  Se  Se225  1  0.24325046  0.41954015  0.18893584  1
  Se  Se226  1  0.24435255  0.42783523  0.68827299  1
  Se  Se227  1  0.25148494  0.74794119  0.19954122  1
  Se  Se228  1  0.22818065  0.77216188  0.68993218  1
  Se  Se229  1  0.58484166  0.08221274  0.19602360  1
  Se  Se230  1  0.57923397  0.08747025  0.68907952  1
  Se  Se231  1  0.58376760  0.41736430  0.20354537  1
  Se  Se232  1  0.57465713  0.42651011  0.68764035  1
  Se  Se233  1  0.58344261  0.74859319  0.19844693  1
  Se  Se234  1  0.58073229  0.75286383  0.69157200  1
  Se  Se235  1  0.91894960  0.08725418  0.19309369  1
  Se  Se236  1  0.91586454  0.08159466  0.70112965  1
  Se  Se237  1  0.91066727  0.42725577  0.19347410  1
  Se  Se238  1  0.91838113  0.41319114  0.69444999  1
  Se  Se239  1  0.91073123  0.76082751  0.18536357  1
  Se  Se240  1  0.90752825  0.74260842  0.70288651  1
  Se  Se241  1  0.08599881  0.24924568  0.19103220  1
  Se  Se242  1  0.08296192  0.25354712  0.70186327  1
  Se  Se243  1  0.08660809  0.57948403  0.18825100  1
  Se  Se244  1  0.07922401  0.58074186  0.69389416  1
  Se  Se245  1  0.08145501  0.91844539  0.19908519  1
  Se  Se246  1  0.06027264  0.93751910  0.70239284  1
  Se  Se247  1  0.42251114  0.24320652  0.18732499  1
  Se  Se248  1  0.42986844  0.24648009  0.68821852  1
  Se  Se249  1  0.41423834  0.58003215  0.19753609  1
  Se  Se250  1  0.41189170  0.59350471  0.69535368  1
  Se  Se251  1  0.41503110  0.91711940  0.19787054  1
  Se  Se252  1  0.42102407  0.91914997  0.69445169  1
  Se  Se253  1  0.74892110  0.25491887  0.19795526  1
  Se  Se254  1  0.75936393  0.23943105  0.68839827  1
  Se  Se255  1  0.75082531  0.58923958  0.20552051  1
  Se  Se256  1  0.74819395  0.56784346  0.68911875  1
  Se  Se257  1  0.74736632  0.92141199  0.19297499  1
  Se  Se258  1  0.76026079  0.89941063  0.68958608  1
