# generated using pymatgen
data_In86Cu29Se144
_symmetry_space_group_name_H-M   'P 1'
_cell_length_a   17.58052558
_cell_length_b   17.58122830
_cell_length_c   23.44455531
_cell_angle_alpha   90.00089850
_cell_angle_beta   90.01083345
_cell_angle_gamma   90.00633135
_symmetry_Int_Tables_number   1
_chemical_formula_structural   In86Cu29Se144
_chemical_formula_sum   'In86 Cu29 Se144'
_cell_volume   7246.41257582
_cell_formula_units_Z   1
loop_
 _symmetry_equiv_pos_site_id
 _symmetry_equiv_pos_as_xyz
  1  'x, y, z'
loop_
 _atom_site_type_symbol
 _atom_site_label
 _atom_site_symmetry_multiplicity
 _atom_site_fract_x
 _atom_site_fract_y
 _atom_site_fract_z
 _atom_site_occupancy
  In  In0  1  -0.00885230  0.16840903  0.12666442  1
  In  In1  1  -0.00879228  0.15456136  0.62339334  1
  In  In2  1  -0.00343140  0.49357921  0.10958974  1
  In  In3  1  0.01455750  0.49821488  0.62751833  1
  In  In4  1  0.01807731  0.82603505  0.12882620  1
  In  In5  1  0.00281607  0.83229197  0.62328072  1
  In  In6  1  0.32341684  0.15660895  0.12772939  1
  In  In7  1  0.31777687  0.18260190  0.64298321  1
  In  In8  1  0.35279072  0.52081348  0.10316919  1
  In  In9  1  0.33457620  0.50006337  0.62253082  1
  In  In10  1  0.32558691  0.83892900  0.13555173  1
  In  In11  1  0.33508673  0.84143921  0.61957670  1
  In  In12  1  0.68596655  0.16874353  0.12245439  1
  In  In13  1  0.67557963  0.16865124  0.62517492  1
  In  In14  1  0.66299041  0.50461250  0.13259870  1
  In  In15  1  0.65090436  0.50235151  0.62238031  1
  In  In16  1  0.65419710  0.82565511  0.13092645  1
  In  In17  1  0.66631754  0.82837078  0.60608372  1
  In  In18  1  0.16461612  -0.00544907  0.37940637  1
  In  In19  1  0.16037420  0.00117804  0.86360261  1
  In  In20  1  0.16533592  0.33474116  0.38535811  1
  In  In21  1  0.17535527  0.32571766  0.87034421  1
  In  In22  1  0.17553319  0.66066226  0.37972611  1
  In  In23  1  0.16743521  0.68032769  0.88317910  1
  In  In24  1  0.48242241  -0.00508005  0.37321886  1
  In  In25  1  0.49571745  0.01520245  0.86606193  1
  In  In26  1  0.51662459  0.33537302  0.37150389  1
  In  In27  1  0.50657173  0.33775364  0.86283778  1
  In  In28  1  0.49849876  0.66881220  0.37913910  1
  In  In29  1  0.49310909  0.65227041  0.88340111  1
  In  In30  1  0.84331614  -0.00690221  0.37993686  1
  In  In31  1  0.85031766  -0.00176247  0.87496962  1
  In  In32  1  0.81936669  0.33258958  0.37632073  1
  In  In33  1  0.83017381  0.34728179  0.88408993  1
  In  In34  1  0.83689532  0.67146553  0.37110098  1
  In  In35  1  0.83500151  0.64944579  0.88128985  1
  In  In36  1  0.01286959  0.15776951  0.38537765  1
  In  In37  1  0.00748748  0.15322786  0.87281463  1
  In  In38  1  0.00630038  0.50815777  0.37472824  1
  In  In39  1  -0.01051814  0.50837898  0.88102204  1
  In  In40  1  -0.01091799  0.84123302  0.38088732  1
  In  In41  1  0.01200692  0.84726896  0.86743106  1
  In  In42  1  0.33171661  0.15235340  0.37665590  1
  In  In43  1  0.32283707  0.16615921  0.84974770  1
  In  In44  1  0.32381265  0.51242133  0.37869008  1
  In  In45  1  0.34007731  0.49779448  0.88479603  1
  In  In46  1  0.33357236  0.82987883  0.38003107  1
  In  In47  1  0.31757234  0.82923411  0.87696012  1
  In  In48  1  0.66761443  0.18215914  0.37556294  1
  In  In49  1  0.66676426  0.19415400  0.87217351  1
  In  In50  1  0.66239420  0.49061075  0.36775151  1
  In  In51  1  0.67948404  0.49065220  0.88636709  1
  In  In52  1  0.67658001  0.81822584  0.39014372  1
  In  In53  1  0.65976856  0.82654837  0.87639692  1
  In  In54  1  0.17315971  -0.00971823  0.13350783  1
  In  In55  1  0.16783678  0.00248766  0.62460308  1
  In  In56  1  0.15484724  0.34533401  0.11962005  1
  In  In57  1  0.17637854  0.34254815  0.62065333  1
  In  In58  1  0.17599195  0.67257874  0.11274796  1
  In  In59  1  0.15947291  0.65772682  0.62096889  1
  In  In60  1  0.49136188  -0.01372072  0.12901429  1
  In  In61  1  0.49329715  -0.00832343  0.62223559  1
  In  In62  1  0.49964370  0.35559636  0.12298052  1
  In  In63  1  0.48775687  0.33977172  0.63534956  1
  In  In64  1  0.50747143  0.65573784  0.13979201  1
  In  In65  1  0.50367799  0.66122054  0.60954956  1
  In  In66  1  0.83818541  0.01776602  0.12480000  1
  In  In67  1  0.83732984  0.00019063  0.61953791  1
  In  In68  1  0.83112401  0.33151286  0.12205090  1
  In  In69  1  0.83433301  0.31860248  0.62869947  1
  In  In70  1  0.82249420  0.65334661  0.12562476  1
  In  In71  1  0.83080875  0.68078469  0.62175141  1
  In  In72  1  0.83733338  0.49964523  0.49407724  1
  In  In73  1  0.66342823  -0.00118624  0.25119546  1
  In  In74  1  0.49668116  0.82564001  -0.00052032  1
  In  In75  1  0.50177064  0.17243160  -0.01141307  1
  In  In76  1  0.16528277  0.17174957  -0.00815713  1
  In  In77  1  0.00300195  0.32791520  0.75166167  1
  In  In78  1  0.83989438  0.83084610  0.01120206  1
  In  In79  1  0.33225541  0.66992409  0.75566513  1
  In  In80  1  0.49751860  0.16497454  0.49924396  1
  In  In81  1  -0.00322823  0.66624439  0.24795505  1
  In  In82  1  0.67326542  0.66652396  0.74999736  1
  In  In83  1  0.33341902  0.33215712  0.24376454  1
  In  In84  1  -0.00383528  0.33190733  0.24235866  1
  In  In85  1  0.67106099  0.00557794  0.73826523  1
  Cu  Cu86  1  0.67770482  0.00159901  0.00053321  1
  Cu  Cu87  1  0.00228952  0.32801484  0.50862883  1
  Cu  Cu88  1  0.84490954  0.83280899  0.74709949  1
  Cu  Cu89  1  0.49445313  0.50438615  0.25105273  1
  Cu  Cu90  1  0.66491403  0.33934026  0.00248211  1
  Cu  Cu91  1  0.00280251  0.67417930  -0.00101997  1
  Cu  Cu92  1  0.33095933  -0.00192636  -0.00036549  1
  Cu  Cu93  1  0.33296521  0.33268585  -0.00730783  1
  Cu  Cu94  1  0.82859754  0.16838314  0.75085650  1
  Cu  Cu95  1  0.16356686  0.83605148  0.74726400  1
  Cu  Cu96  1  0.49324602  0.82745788  0.25634876  1
  Cu  Cu97  1  0.32382219  0.00177764  0.50139478  1
  Cu  Cu98  1  0.33207133  0.66873974  0.50100590  1
  Cu  Cu99  1  0.16823405  0.50034297  0.74724796  1
  Cu  Cu100  1  0.16724169  0.83238864  0.25562087  1
  Cu  Cu101  1  0.66846745  0.00275094  0.49905983  1
  Cu  Cu102  1  0.66672135  0.33585287  0.49893988  1
  Cu  Cu103  1  0.16691787  0.50470533  0.24515935  1
  Cu  Cu104  1  0.83102825  0.49714600  0.75752700  1
  Cu  Cu105  1  -0.00027597  -0.00472793  0.50287774  1
  Cu  Cu106  1  0.82982274  0.83632318  0.25573766  1
  Cu  Cu107  1  0.33992514  0.33671433  0.50409974  1
  Cu  Cu108  1  0.50303308  0.83102550  0.74428659  1
  Cu  Cu109  1  0.50110822  0.49868042  0.75186301  1
  Cu  Cu110  1  0.00505294  0.66756691  0.49780417  1
  Cu  Cu111  1  0.01193731  0.00064869  -0.00364860  1
  Cu  Cu112  1  0.83775909  0.16903774  0.25078708  1
  Cu  Cu113  1  0.50359717  0.16754936  0.25216750  1
  Cu  Cu114  1  0.16776090  0.15469924  0.25620946  1
  Se  Se115  1  0.08761616  0.08069861  0.06189451  1
  Se  Se116  1  0.08182302  0.08201696  0.55439518  1
  Se  Se117  1  0.07764443  0.41049059  0.04208429  1
  Se  Se118  1  0.08660433  0.41914631  0.55203705  1
  Se  Se119  1  0.08975644  0.75832435  0.04782519  1
  Se  Se120  1  0.08666158  0.74998318  0.55333513  1
  Se  Se121  1  0.41570148  0.07918105  0.05512982  1
  Se  Se122  1  0.40381984  0.08423622  0.56118071  1
  Se  Se123  1  0.42013776  0.41611170  0.04236181  1
  Se  Se124  1  0.42392206  0.42014184  0.55559239  1
  Se  Se125  1  0.41791590  0.74969614  0.07366547  1
  Se  Se126  1  0.41581978  0.75269304  0.55326940  1
  Se  Se127  1  0.76035681  0.08947785  0.04748611  1
  Se  Se128  1  0.75015536  0.08450042  0.55422252  1
  Se  Se129  1  0.74393546  0.41978840  0.06127649  1
  Se  Se130  1  0.75095364  0.41195362  0.56074635  1
  Se  Se131  1  0.73636984  0.74418071  0.05842909  1
  Se  Se132  1  0.74800093  0.74034787  0.54404139  1
  Se  Se133  1  0.25791696  0.25662010  0.05822222  1
  Se  Se134  1  0.25719254  0.25112750  0.55586927  1
  Se  Se135  1  0.22548497  0.55651151  0.05708304  1
  Se  Se136  1  0.25095946  0.58180780  0.55460233  1
  Se  Se137  1  0.25202317  0.91692794  0.05711079  1
  Se  Se138  1  0.24246502  0.91394045  0.55251917  1
  Se  Se139  1  0.58593664  0.25416580  0.06084130  1
  Se  Se140  1  0.58440191  0.25717254  0.56025598  1
  Se  Se141  1  0.56643458  0.56940775  0.06333883  1
  Se  Se142  1  0.59662048  0.58879307  0.54513312  1
  Se  Se143  1  0.59103723  0.92437565  0.05602357  1
  Se  Se144  1  0.58035974  0.92198763  0.54955998  1
  Se  Se145  1  0.92567044  0.25791933  0.05752405  1
  Se  Se146  1  0.91342187  0.24466842  0.55461479  1
  Se  Se147  1  0.91765178  0.59451299  0.05342162  1
  Se  Se148  1  0.92510690  0.58616299  0.55956797  1
  Se  Se149  1  0.93287167  0.92697662  0.06334536  1
  Se  Se150  1  0.91424283  0.90999670  0.55340621  1
  Se  Se151  1  0.08834840  0.24771488  0.45325193  1
  Se  Se152  1  0.07042647  0.26082144  0.93746688  1
  Se  Se153  1  0.08800779  0.57968824  0.44826878  1
  Se  Se154  1  0.08196862  0.58932427  0.94380904  1
  Se  Se155  1  0.08241057  0.91151278  0.44890426  1
  Se  Se156  1  0.09451952  0.91892791  0.94274999  1
  Se  Se157  1  0.41194601  0.25812001  0.43574476  1
  Se  Se158  1  0.40322802  0.25019103  0.92850104  1
  Se  Se159  1  0.41498940  0.58316369  0.44797169  1
  Se  Se160  1  0.39785675  0.59724582  0.95424771  1
  Se  Se161  1  0.41115036  0.91905780  0.45065495  1
  Se  Se162  1  0.41618435  0.92489304  0.93809143  1
  Se  Se163  1  0.75185843  0.24786343  0.45235137  1
  Se  Se164  1  0.74958767  0.25528837  0.94998625  1
  Se  Se165  1  0.74564732  0.58483769  0.43490338  1
  Se  Se166  1  0.74631901  0.58623477  0.95275664  1
  Se  Se167  1  0.75360412  0.91792926  0.44811679  1
  Se  Se168  1  0.75088341  0.91513990  0.94037482  1
  Se  Se169  1  0.24225245  0.08618913  0.44804699  1
  Se  Se170  1  0.25876653  0.08123623  0.93562587  1
  Se  Se171  1  0.25471597  0.41719160  0.44746852  1
  Se  Se172  1  0.24463741  0.41343637  0.94275644  1
  Se  Se173  1  0.24622964  0.75132010  0.44949677  1
  Se  Se174  1  0.26497070  0.74079243  0.95342405  1
  Se  Se175  1  0.58710328  0.07741808  0.43511792  1
  Se  Se176  1  0.59762519  0.07745960  0.93662074  1
  Se  Se177  1  0.58335232  0.41905776  0.44706895  1
  Se  Se178  1  0.57797678  0.41186430  0.94268999  1
  Se  Se179  1  0.56393255  0.76613725  0.44721469  1
  Se  Se180  1  0.59306884  0.73267466  0.94689956  1
  Se  Se181  1  0.91759782  0.08210102  0.44930828  1
  Se  Se182  1  0.92279428  0.08257384  0.94795886  1
  Se  Se183  1  0.92976546  0.40459008  0.43860960  1
  Se  Se184  1  0.91100333  0.42787449  0.95191805  1
  Se  Se185  1  0.91534993  0.74617449  0.44634990  1
  Se  Se186  1  0.92286565  0.75438456  0.93694262  1
  Se  Se187  1  0.24417790  0.24626414  0.31000772  1
  Se  Se188  1  0.23629070  0.25145913  0.78860882  1
  Se  Se189  1  0.24859881  0.58614116  0.30064813  1
  Se  Se190  1  0.24395789  0.57803914  0.81340064  1
  Se  Se191  1  0.25049492  0.91455376  0.31052694  1
  Se  Se192  1  0.25040624  0.91355295  0.80259555  1
  Se  Se193  1  0.58985389  0.25275589  0.29757081  1
  Se  Se194  1  0.56423064  0.23051500  0.80074042  1
  Se  Se195  1  0.57751984  0.58327210  0.30814373  1
  Se  Se196  1  0.58335753  0.57767404  0.81159839  1
  Se  Se197  1  0.57934117  0.90886459  0.31401200  1
  Se  Se198  1  0.58325814  0.91321536  0.80399074  1
  Se  Se199  1  0.91870405  0.24513457  0.31422152  1
  Se  Se200  1  0.90797611  0.24608642  0.81409769  1
  Se  Se201  1  0.90806551  0.57015071  0.30431014  1
  Se  Se202  1  0.91607876  0.58523328  0.80256472  1
  Se  Se203  1  0.91849489  0.91888423  0.30207181  1
  Se  Se204  1  0.92301929  0.92262179  0.79782540  1
  Se  Se205  1  0.08037369  0.07619240  0.30821364  1
  Se  Se206  1  0.08771271  0.09108324  0.79563888  1
  Se  Se207  1  0.09160382  0.41982083  0.30449381  1
  Se  Se208  1  0.08529764  0.42567501  0.81087268  1
  Se  Se209  1  0.08392971  0.75172300  0.31397721  1
  Se  Se210  1  0.08773413  0.75012740  0.80509025  1
  Se  Se211  1  0.41622222  0.08543378  0.30067184  1
  Se  Se212  1  0.40657561  0.07260764  0.79252464  1
  Se  Se213  1  0.41646050  0.41959656  0.31122405  1
  Se  Se214  1  0.41130101  0.42264666  0.80540136  1
  Se  Se215  1  0.40853863  0.74373274  0.30800929  1
  Se  Se216  1  0.42927715  0.75742032  0.81355147  1
  Se  Se217  1  0.75513466  0.08865200  0.31111520  1
  Se  Se218  1  0.75226293  0.08545286  0.81379069  1
  Se  Se219  1  0.75172405  0.41262357  0.30176622  1
  Se  Se220  1  0.74592455  0.41277465  0.80622454  1
  Se  Se221  1  0.74702976  0.75189494  0.30563493  1
  Se  Se222  1  0.76314636  0.75811172  0.81094549  1
  Se  Se223  1  0.25512874  0.07498035  0.20298546  1
  Se  Se224  1  0.26315282  0.06620142  0.69490855  1
  Se  Se225  1  0.24757640  0.42461000  0.18466758  1
  Se  Se226  1  0.25480930  0.42055342  0.69539113  1
  Se  Se227  1  0.24109723  0.74673228  0.19616405  1
  Se  Se228  1  0.24507781  0.75313070  0.68883465  1
  Se  Se229  1  0.57896274  0.08860383  0.18489316  1
  Se  Se230  1  0.57232703  0.09137457  0.68566131  1
  Se  Se231  1  0.57928991  0.41772521  0.20195041  1
  Se  Se232  1  0.58534962  0.41748298  0.69782482  1
  Se  Se233  1  0.58335844  0.74754169  0.20688231  1
  Se  Se234  1  0.58223104  0.75134681  0.68599146  1
  Se  Se235  1  0.92211141  0.08306131  0.20168338  1
  Se  Se236  1  0.90697667  0.08149254  0.69702569  1
  Se  Se237  1  0.90951883  0.42930522  0.18962088  1
  Se  Se238  1  0.91151081  0.42148063  0.69210043  1
  Se  Se239  1  0.90613804  0.75866459  0.18852392  1
  Se  Se240  1  0.92221382  0.74523137  0.69365398  1
  Se  Se241  1  0.09798157  0.24022478  0.19210833  1
  Se  Se242  1  0.08530701  0.24811225  0.68153715  1
  Se  Se243  1  0.08211664  0.57815061  0.18399530  1
  Se  Se244  1  0.08251761  0.58647359  0.70024147  1
  Se  Se245  1  0.08260991  0.91526426  0.20233906  1
  Se  Se246  1  0.08137664  0.91852417  0.69240844  1
  Se  Se247  1  0.42651601  0.24239752  0.18383580  1
  Se  Se248  1  0.41719888  0.25194118  0.70433753  1
  Se  Se249  1  0.40406848  0.57938160  0.19697711  1
  Se  Se250  1  0.42697806  0.58631657  0.69277855  1
  Se  Se251  1  0.41307478  0.91701790  0.20556843  1
  Se  Se252  1  0.41526236  0.91317275  0.69637709  1
  Se  Se253  1  0.75366224  0.25136352  0.19802894  1
  Se  Se254  1  0.74383562  0.25319332  0.70154085  1
  Se  Se255  1  0.74236881  0.58942326  0.20248762  1
  Se  Se256  1  0.75863779  0.57421805  0.68786457  1
  Se  Se257  1  0.75620619  0.91411027  0.18718573  1
  Se  Se258  1  0.75346624  0.90095102  0.68650937  1
