# generated using pymatgen
data_In86Cu29Se144
_symmetry_space_group_name_H-M   'P 1'
_cell_length_a   17.57525669
_cell_length_b   17.57721723
_cell_length_c   23.44182027
_cell_angle_alpha   90.00814147
_cell_angle_beta   89.97835017
_cell_angle_gamma   89.99913291
_symmetry_Int_Tables_number   1
_chemical_formula_structural   In86Cu29Se144
_chemical_formula_sum   'In86 Cu29 Se144'
_cell_volume   7241.74274688
_cell_formula_units_Z   1
loop_
 _symmetry_equiv_pos_site_id
 _symmetry_equiv_pos_as_xyz
  1  'x, y, z'
loop_
 _atom_site_type_symbol
 _atom_site_label
 _atom_site_symmetry_multiplicity
 _atom_site_fract_x
 _atom_site_fract_y
 _atom_site_fract_z
 _atom_site_occupancy
  In  In0  1  0.00658739  0.15997340  0.13490428  1
  In  In1  1  -0.02576038  0.16511091  0.62672413  1
  In  In2  1  -0.00945075  0.49305335  0.12842185  1
  In  In3  1  -0.00162012  0.51189368  0.62173336  1
  In  In4  1  0.01537738  0.83846030  0.12600718  1
  In  In5  1  0.00781080  0.82929921  0.62801907  1
  In  In6  1  0.33558708  0.16966317  0.12908484  1
  In  In7  1  0.33110330  0.15322146  0.62315409  1
  In  In8  1  0.36814942  0.46867202  0.15452618  1
  In  In9  1  0.34707100  0.49850476  0.62416125  1
  In  In10  1  0.34570199  0.82275104  0.13334115  1
  In  In11  1  0.33394123  0.83305744  0.62237633  1
  In  In12  1  0.66501019  0.17658163  0.12698362  1
  In  In13  1  0.67219323  0.17821727  0.62006868  1
  In  In14  1  0.64470945  0.49937532  0.12897986  1
  In  In15  1  0.66186494  0.50089414  0.62557479  1
  In  In16  1  0.64624719  0.84507573  0.12534545  1
  In  In17  1  0.64835977  0.83167662  0.62210562  1
  In  In18  1  0.17012800  -0.00238739  0.37519627  1
  In  In19  1  0.17668940  0.00380236  0.87284095  1
  In  In20  1  0.16432948  0.33079680  0.36759563  1
  In  In21  1  0.16045266  0.32544259  0.88082396  1
  In  In22  1  0.18773158  0.66821523  0.37878732  1
  In  In23  1  0.17751302  0.66986772  0.85557596  1
  In  In24  1  0.49117817  0.00926312  0.37792808  1
  In  In25  1  0.49071418  0.00997050  0.88480258  1
  In  In26  1  0.50370143  0.33337247  0.36574591  1
  In  In27  1  0.50871034  0.32388008  0.88116663  1
  In  In28  1  0.49966191  0.66901386  0.38431347  1
  In  In29  1  0.50060813  0.66664958  0.87104673  1
  In  In30  1  0.85078725  0.00344846  0.37584737  1
  In  In31  1  0.82862872  -0.00917549  0.86759135  1
  In  In32  1  0.83224317  0.33454642  0.38261695  1
  In  In33  1  0.83329844  0.33985393  0.86999902  1
  In  In34  1  0.82190952  0.65038991  0.38583143  1
  In  In35  1  0.83017538  0.66722613  0.85816043  1
  In  In36  1  -0.00010069  0.16608882  0.37761335  1
  In  In37  1  0.01147180  0.16933866  0.87705341  1
  In  In38  1  -0.00326286  0.48794398  0.38237171  1
  In  In39  1  -0.00447748  0.49875369  0.86681344  1
  In  In40  1  0.00492975  0.85365373  0.37964834  1
  In  In41  1  0.00536001  0.83528610  0.86325924  1
  In  In42  1  0.35435740  0.17636462  0.35625942  1
  In  In43  1  0.34008904  0.15957414  0.88383772  1
  In  In44  1  0.34748321  0.50555554  0.35807387  1
  In  In45  1  0.33686822  0.51249904  0.87171828  1
  In  In46  1  0.33799388  0.83454181  0.37763408  1
  In  In47  1  0.34043852  0.83493492  0.87109325  1
  In  In48  1  0.64995783  0.18310548  0.38153875  1
  In  In49  1  0.64882737  0.16137016  0.87059794  1
  In  In50  1  0.67003957  0.49683612  0.38398728  1
  In  In51  1  0.65986277  0.49271087  0.86672166  1
  In  In52  1  0.65647129  0.82219630  0.38471249  1
  In  In53  1  0.66586408  0.82777219  0.87066611  1
  In  In54  1  0.16446005  0.00896166  0.13011775  1
  In  In55  1  0.17787604  -0.00746306  0.63194341  1
  In  In56  1  0.18029638  0.31782162  0.13657565  1
  In  In57  1  0.16444392  0.33457769  0.61976560  1
  In  In58  1  0.18227174  0.67769256  0.12120014  1
  In  In59  1  0.15371470  0.67296751  0.63140897  1
  In  In60  1  0.49592877  -0.00688207  0.12107449  1
  In  In61  1  0.49199155  -0.00855185  0.61843913  1
  In  In62  1  0.50501977  0.32760918  0.12782794  1
  In  In63  1  0.50995692  0.34837023  0.61411583  1
  In  In64  1  0.48688852  0.65411420  0.11658269  1
  In  In65  1  0.49871760  0.66354499  0.62741351  1
  In  In66  1  0.83276767  0.01360763  0.13197675  1
  In  In67  1  0.83506288  0.02203159  0.62825402  1
  In  In68  1  0.83097168  0.33416133  0.13721653  1
  In  In69  1  0.81820784  0.31558644  0.61159147  1
  In  In70  1  0.82889020  0.65547109  0.12076831  1
  In  In71  1  0.83670288  0.65980007  0.62723339  1
  In  In72  1  0.82643596  0.49648068  -0.01098722  1
  In  In73  1  0.66450988  0.00062491  0.74804432  1
  In  In74  1  0.17083363  0.50275583  0.50109713  1
  In  In75  1  0.83294991  0.83559417  0.50161673  1
  In  In76  1  0.33534121  0.33508052  0.74428050  1
  In  In77  1  0.17608108  0.49759730  0.00206777  1
  In  In78  1  0.66328029  0.66290775  0.26153562  1
  In  In79  1  0.82142741  0.16645596  0.00281113  1
  In  In80  1  -0.00223550  0.33392864  0.74560128  1
  In  In81  1  0.00524829  0.67271196  0.25294680  1
  In  In82  1  0.82422394  0.83638916  -0.00784985  1
  In  In83  1  0.17334823  0.83798776  -0.00908872  1
  In  In84  1  0.66564609  0.00651879  0.24960964  1
  In  In85  1  0.16859093  0.16359881  0.49464226  1
  Cu  Cu86  1  0.17372828  0.84288686  0.25083060  1
  Cu  Cu87  1  0.83176780  0.48962152  0.25731304  1
  Cu  Cu88  1  0.33895387  0.67084842  0.49980670  1
  Cu  Cu89  1  0.83526399  0.83321911  0.74316345  1
  Cu  Cu90  1  0.49697034  0.16768894  0.75088921  1
  Cu  Cu91  1  0.32792016  0.00285125  0.00407621  1
  Cu  Cu92  1  0.66661688  0.00497020  0.50362283  1
  Cu  Cu93  1  0.83649260  0.17000804  0.25776954  1
  Cu  Cu94  1  0.00575234  0.00705104  0.50218659  1
  Cu  Cu95  1  -0.00803257  0.00633705  0.00522350  1
  Cu  Cu96  1  0.84097538  0.83226547  0.25316519  1
  Cu  Cu97  1  0.00111216  0.67344865  0.50398789  1
  Cu  Cu98  1  0.16797175  0.16087761  0.75142075  1
  Cu  Cu99  1  0.00500889  0.66301654  -0.01310775  1
  Cu  Cu100  1  0.65962693  0.33728645  0.00107780  1
  Cu  Cu101  1  0.49166141  0.83174077  0.74661548  1
  Cu  Cu102  1  0.15902155  0.50785745  0.25657376  1
  Cu  Cu103  1  0.50376384  0.50130733  0.74662495  1
  Cu  Cu104  1  0.16544544  0.83316544  0.74726033  1
  Cu  Cu105  1  0.34516637  0.66066791  0.00132705  1
  Cu  Cu106  1  0.66175264  0.33319367  0.49778106  1
  Cu  Cu107  1  0.33917728  0.33171104  0.01029885  1
  Cu  Cu108  1  0.33914811  -0.00123159  0.49847580  1
  Cu  Cu109  1  0.16434015  0.16139428  0.25297040  1
  Cu  Cu110  1  0.83043944  0.49882977  0.74470474  1
  Cu  Cu111  1  0.00902694  0.32201227  0.00717893  1
  Cu  Cu112  1  0.33980887  0.33339577  0.48743590  1
  Cu  Cu113  1  0.49685318  0.82994788  0.25362746  1
  Cu  Cu114  1  0.65610781  0.67368923  -0.00304430  1
  Se  Se115  1  0.08039255  0.08400445  0.05731397  1
  Se  Se116  1  0.08493589  0.08325708  0.56647517  1
  Se  Se117  1  0.08345107  0.41015321  0.06428988  1
  Se  Se118  1  0.07306882  0.41243190  0.55323682  1
  Se  Se119  1  0.07943437  0.74312648  0.04997666  1
  Se  Se120  1  0.08820769  0.75525184  0.55251127  1
  Se  Se121  1  0.41315537  0.08387284  0.05794759  1
  Se  Se122  1  0.41952905  0.08608331  0.55065677  1
  Se  Se123  1  0.42309205  0.41794696  0.05970745  1
  Se  Se124  1  0.41487447  0.41860364  0.54639404  1
  Se  Se125  1  0.42004116  0.75514811  0.05199987  1
  Se  Se126  1  0.42172748  0.75147296  0.55638549  1
  Se  Se127  1  0.73439854  0.07106421  0.06002972  1
  Se  Se128  1  0.75222944  0.08914518  0.55212950  1
  Se  Se129  1  0.74618330  0.41298286  0.06034272  1
  Se  Se130  1  0.74304333  0.41658969  0.55409397  1
  Se  Se131  1  0.74035175  0.74557023  0.05970634  1
  Se  Se132  1  0.74516681  0.74676895  0.56163485  1
  Se  Se133  1  0.25003792  0.24754578  0.05550389  1
  Se  Se134  1  0.26140122  0.25820852  0.55355967  1
  Se  Se135  1  0.26663656  0.58237432  0.06353338  1
  Se  Se136  1  0.25717288  0.59313273  0.56236035  1
  Se  Se137  1  0.25386224  0.91665432  0.06442824  1
  Se  Se138  1  0.25271631  0.92037020  0.55335599  1
  Se  Se139  1  0.58210913  0.24758946  0.05227654  1
  Se  Se140  1  0.57884782  0.24738695  0.55107461  1
  Se  Se141  1  0.58242155  0.58206492  0.05059206  1
  Se  Se142  1  0.55847100  0.56137665  0.56103819  1
  Se  Se143  1  0.57621477  0.91544956  0.04745521  1
  Se  Se144  1  0.58077400  0.91705250  0.54817703  1
  Se  Se145  1  0.91688102  0.25188757  0.06373275  1
  Se  Se146  1  0.92646814  0.25629407  0.55046700  1
  Se  Se147  1  0.92558351  0.58539324  0.04860788  1
  Se  Se148  1  0.91487335  0.58717659  0.54932003  1
  Se  Se149  1  0.91620443  0.91896195  0.06130331  1
  Se  Se150  1  0.92216918  0.92632809  0.56173233  1
  Se  Se151  1  0.07796891  0.26249457  0.44571751  1
  Se  Se152  1  0.09139082  0.23945561  0.95428849  1
  Se  Se153  1  0.07973153  0.59429817  0.43919566  1
  Se  Se154  1  0.08894567  0.58320362  0.93265253  1
  Se  Se155  1  0.09118311  0.92244566  0.45276523  1
  Se  Se156  1  0.07035991  0.92606155  0.94177802  1
  Se  Se157  1  0.42285492  0.24733169  0.43795944  1
  Se  Se158  1  0.41827712  0.24985355  0.94939194  1
  Se  Se159  1  0.40897957  0.57929760  0.44318148  1
  Se  Se160  1  0.42514586  0.57934552  0.94406044  1
  Se  Se161  1  0.42433315  0.91379517  0.44697765  1
  Se  Se162  1  0.40740526  0.91882938  0.94708220  1
  Se  Se163  1  0.74847501  0.24739338  0.44878558  1
  Se  Se164  1  0.74140262  0.26047057  0.93876751  1
  Se  Se165  1  0.72690391  0.59504132  0.45594780  1
  Se  Se166  1  0.74115790  0.59700839  0.93606890  1
  Se  Se167  1  0.74483976  0.92644341  0.43877018  1
  Se  Se168  1  0.73167832  0.93128849  0.94082261  1
  Se  Se169  1  0.26722943  0.08433076  0.43568576  1
  Se  Se170  1  0.24502950  0.08528972  0.94983485  1
  Se  Se171  1  0.25497255  0.41597389  0.43398916  1
  Se  Se172  1  0.26465190  0.40637137  0.94002960  1
  Se  Se173  1  0.25318894  0.75664470  0.45107443  1
  Se  Se174  1  0.25876220  0.73484104  0.94029821  1
  Se  Se175  1  0.58187676  0.08328470  0.44610615  1
  Se  Se176  1  0.57839057  0.09159196  0.94925218  1
  Se  Se177  1  0.57637368  0.41273026  0.44327822  1
  Se  Se178  1  0.58173157  0.42280547  0.94508862  1
  Se  Se179  1  0.59295961  0.73331532  0.45598881  1
  Se  Se180  1  0.57697837  0.75665329  0.94127800  1
  Se  Se181  1  0.91868611  0.08748595  0.45135365  1
  Se  Se182  1  0.91333381  0.07956454  0.94006485  1
  Se  Se183  1  0.89507973  0.43649432  0.44910763  1
  Se  Se184  1  0.93254426  0.40305271  0.94426943  1
  Se  Se185  1  0.92267672  0.74732805  0.43713555  1
  Se  Se186  1  0.91978553  0.74505491  0.93420538  1
  Se  Se187  1  0.24829656  0.24933035  0.30082718  1
  Se  Se188  1  0.24805701  0.24514594  0.80919319  1
  Se  Se189  1  0.25174559  0.58968650  0.29979605  1
  Se  Se190  1  0.25342764  0.57477991  0.79576390  1
  Se  Se191  1  0.25872407  0.92055088  0.30706324  1
  Se  Se192  1  0.24863250  0.91201600  0.80554446  1
  Se  Se193  1  0.58398482  0.24658053  0.29749709  1
  Se  Se194  1  0.58202596  0.25337066  0.79976289  1
  Se  Se195  1  0.57186015  0.57048262  0.31325539  1
  Se  Se196  1  0.58618982  0.58631946  0.80117246  1
  Se  Se197  1  0.58308514  0.90843894  0.31027539  1
  Se  Se198  1  0.57020106  0.91516171  0.80833521  1
  Se  Se199  1  0.91781038  0.25375029  0.31221433  1
  Se  Se200  1  0.91357601  0.24181241  0.80928188  1
  Se  Se201  1  0.91096034  0.58203552  0.30905729  1
  Se  Se202  1  0.91791903  0.58093452  0.79654005  1
  Se  Se203  1  0.92317969  0.91970754  0.30170334  1
  Se  Se204  1  0.91556338  0.91637319  0.79886725  1
  Se  Se205  1  0.08260230  0.08121738  0.31045691  1
  Se  Se206  1  0.08414882  0.08091879  0.80726112  1
  Se  Se207  1  0.07783702  0.42011187  0.30560541  1
  Se  Se208  1  0.09509624  0.41759000  0.80666039  1
  Se  Se209  1  0.09399455  0.76212161  0.31351453  1
  Se  Se210  1  0.07938300  0.74539741  0.79577206  1
  Se  Se211  1  0.41715878  0.07092649  0.29566971  1
  Se  Se212  1  0.41600640  0.08493873  0.80621984  1
  Se  Se213  1  0.40437394  0.39846237  0.29665455  1
  Se  Se214  1  0.42611410  0.41805751  0.80898930  1
  Se  Se215  1  0.41884454  0.74600864  0.31051434  1
  Se  Se216  1  0.41247174  0.74500757  0.80175804  1
  Se  Se217  1  0.75392808  0.08919052  0.31619747  1
  Se  Se218  1  0.75445254  0.09353340  0.80609866  1
  Se  Se219  1  0.74520265  0.41279659  0.31139514  1
  Se  Se220  1  0.74966841  0.41476950  0.79969405  1
  Se  Se221  1  0.76126023  0.75666736  0.31442086  1
  Se  Se222  1  0.74602485  0.75487259  0.79537402  1
  Se  Se223  1  0.25241194  0.08405226  0.19821946  1
  Se  Se224  1  0.25682029  0.08016158  0.70101587  1
  Se  Se225  1  0.23794407  0.42765128  0.19610707  1
  Se  Se226  1  0.24139850  0.42441206  0.68768190  1
  Se  Se227  1  0.25173028  0.75056107  0.20093894  1
  Se  Se228  1  0.24921015  0.75189576  0.69249444  1
  Se  Se229  1  0.57258166  0.09066938  0.19014597  1
  Se  Se230  1  0.57524879  0.08841629  0.68630620  1
  Se  Se231  1  0.59465130  0.40130099  0.19866653  1
  Se  Se232  1  0.58470665  0.41178624  0.69685171  1
  Se  Se233  1  0.57741559  0.74844308  0.19367437  1
  Se  Se234  1  0.57988459  0.74930331  0.69778075  1
  Se  Se235  1  0.91767182  0.08321328  0.20424205  1
  Se  Se236  1  0.92353891  0.07714794  0.70528757  1
  Se  Se237  1  0.92074962  0.41241016  0.20397827  1
  Se  Se238  1  0.90802540  0.41825684  0.68276571  1
  Se  Se239  1  0.91066803  0.75346708  0.18524140  1
  Se  Se240  1  0.91924400  0.74732105  0.69278801  1
  Se  Se241  1  0.08102222  0.25051726  0.20224095  1
  Se  Se242  1  0.09092420  0.23947091  0.68858724  1
  Se  Se243  1  0.08843296  0.58467525  0.18530258  1
  Se  Se244  1  0.08428811  0.57529892  0.69569668  1
  Se  Se245  1  0.08418339  0.92159343  0.19957293  1
  Se  Se246  1  0.08188589  0.91954766  0.69692303  1
  Se  Se247  1  0.39981717  0.27076963  0.19432456  1
  Se  Se248  1  0.42371836  0.24602335  0.68344729  1
  Se  Se249  1  0.41893553  0.59146021  0.20088450  1
  Se  Se250  1  0.41401611  0.58304960  0.69952717  1
  Se  Se251  1  0.41958590  0.91697282  0.19843166  1
  Se  Se252  1  0.41199208  0.91948098  0.69431897  1
  Se  Se253  1  0.75028155  0.24565715  0.20126569  1
  Se  Se254  1  0.75785683  0.24303706  0.69507624  1
  Se  Se255  1  0.75455574  0.57321536  0.19621508  1
  Se  Se256  1  0.74589710  0.58452807  0.69475155  1
  Se  Se257  1  0.75501945  0.90672707  0.19201322  1
  Se  Se258  1  0.75325580  0.91255311  0.68315222  1
