# generated using pymatgen
data_In86Cu29Se144
_symmetry_space_group_name_H-M   'P 1'
_cell_length_a   17.59666139
_cell_length_b   17.59473527
_cell_length_c   23.45006675
_cell_angle_alpha   90.00628865
_cell_angle_beta   89.97714945
_cell_angle_gamma   90.00596091
_symmetry_Int_Tables_number   1
_chemical_formula_structural   In86Cu29Se144
_chemical_formula_sum   'In86 Cu29 Se144'
_cell_volume   7260.34164891
_cell_formula_units_Z   1
loop_
 _symmetry_equiv_pos_site_id
 _symmetry_equiv_pos_as_xyz
  1  'x, y, z'
loop_
 _atom_site_type_symbol
 _atom_site_label
 _atom_site_symmetry_multiplicity
 _atom_site_fract_x
 _atom_site_fract_y
 _atom_site_fract_z
 _atom_site_occupancy
  In  In0  1  0.02230458  0.15419118  0.14538479  1
  In  In1  1  0.01754278  0.16771897  0.61483251  1
  In  In2  1  0.00344409  0.49012001  0.13497084  1
  In  In3  1  -0.01279348  0.50154604  0.62547121  1
  In  In4  1  0.00310234  0.83468291  0.12608940  1
  In  In5  1  0.00091467  0.83662279  0.61784251  1
  In  In6  1  0.30920656  0.16379451  0.12627464  1
  In  In7  1  0.32123932  0.17420886  0.63065012  1
  In  In8  1  0.34062176  0.51249829  0.11654896  1
  In  In9  1  0.34201347  0.49195168  0.63068963  1
  In  In10  1  0.31539699  0.84465142  0.13980054  1
  In  In11  1  0.33582681  0.83117860  0.63729229  1
  In  In12  1  0.67474178  0.16189476  0.13560848  1
  In  In13  1  0.66992347  0.17101923  0.62061788  1
  In  In14  1  0.65400237  0.51496763  0.14214255  1
  In  In15  1  0.67961908  0.51522593  0.61459127  1
  In  In16  1  0.68263812  0.81570870  0.13375050  1
  In  In17  1  0.66675579  0.81928529  0.61988026  1
  In  In18  1  0.17176936  0.00573003  0.35978257  1
  In  In19  1  0.17384635  -0.00949375  0.88708803  1
  In  In20  1  0.15387506  0.33001151  0.37324898  1
  In  In21  1  0.16597247  0.33180510  0.87783415  1
  In  In22  1  0.16112392  0.67138117  0.35280051  1
  In  In23  1  0.18029843  0.65433048  0.89307825  1
  In  In24  1  0.49956514  -0.00358982  0.36771204  1
  In  In25  1  0.49499818  0.01044321  0.87594018  1
  In  In26  1  0.51260291  0.33779710  0.37543222  1
  In  In27  1  0.49517161  0.35585586  0.87929670  1
  In  In28  1  0.49211905  0.65708964  0.37160999  1
  In  In29  1  0.49348130  0.65776220  0.87120502  1
  In  In30  1  0.82139133  -0.01545294  0.36990095  1
  In  In31  1  0.82762080  -0.01001168  0.88101582  1
  In  In32  1  0.83753987  0.35000846  0.36808894  1
  In  In33  1  0.84100356  0.32820609  0.87155177  1
  In  In34  1  0.83414178  0.66593397  0.36789879  1
  In  In35  1  0.83779300  0.67425082  0.87638032  1
  In  In36  1  0.01196597  0.17226194  0.36516093  1
  In  In37  1  0.00717081  0.18299721  0.87448442  1
  In  In38  1  -0.01255614  0.49591172  0.35626192  1
  In  In39  1  0.01282958  0.50179096  0.87481850  1
  In  In40  1  -0.00665413  0.81357262  0.35179504  1
  In  In41  1  0.00089563  0.83434775  0.88756135  1
  In  In42  1  0.32670106  0.15464158  0.37311544  1
  In  In43  1  0.31946338  0.15622554  0.87077488  1
  In  In44  1  0.33228769  0.51397577  0.37692061  1
  In  In45  1  0.32651947  0.50532729  0.87285647  1
  In  In46  1  0.32790956  0.83383133  0.36297801  1
  In  In47  1  0.32905441  0.82297597  0.87354711  1
  In  In48  1  0.65930624  0.16361344  0.36863698  1
  In  In49  1  0.67088660  0.16492339  0.87632384  1
  In  In50  1  0.66826622  0.50273610  0.37324120  1
  In  In51  1  0.65565599  0.50203949  0.87857577  1
  In  In52  1  0.68146960  0.84171712  0.36918474  1
  In  In53  1  0.68164932  0.82365651  0.88230235  1
  In  In54  1  0.16256600  -0.00102624  0.13043596  1
  In  In55  1  0.16360655  0.00659650  0.62369219  1
  In  In56  1  0.15664128  0.32658573  0.11882814  1
  In  In57  1  0.17643476  0.32936885  0.63060399  1
  In  In58  1  0.16720632  0.66783658  0.12551465  1
  In  In59  1  0.16853763  0.67103489  0.62990641  1
  In  In60  1  0.49968729  -0.00193708  0.13434771  1
  In  In61  1  0.49484634  -0.01064247  0.62640889  1
  In  In62  1  0.49369162  0.34984497  0.12111022  1
  In  In63  1  0.48492720  0.33758519  0.62645399  1
  In  In64  1  0.50572544  0.66124398  0.12680475  1
  In  In65  1  0.51300723  0.66186211  0.63043531  1
  In  In66  1  0.84998532  -0.01399080  0.13813634  1
  In  In67  1  0.84004293  -0.00877095  0.61209544  1
  In  In68  1  0.84270071  0.33471134  0.14094930  1
  In  In69  1  0.83137867  0.35501495  0.62478282  1
  In  In70  1  0.81916405  0.66750933  0.13505170  1
  In  In71  1  0.82554794  0.65216247  0.61547830  1
  In  In72  1  0.00210708  0.00003359  0.74422263  1
  In  In73  1  0.83330582  0.16608212  0.49101191  1
  In  In74  1  0.65942009  0.34208996  0.75708279  1
  In  In75  1  0.16367709  0.83548553  0.48695321  1
  In  In76  1  0.15999428  0.50140885  0.49814074  1
  In  In77  1  0.50537635  0.83297883  0.49610434  1
  In  In78  1  0.49858767  0.17032536  -0.00384595  1
  In  In79  1  0.49519956  0.16622392  0.49118071  1
  In  In80  1  0.65940071  -0.00168091  0.74992955  1
  In  In81  1  0.00418021  0.66398539  0.75151315  1
  In  In82  1  0.49842074  0.82648743  0.00343308  1
  In  In83  1  0.33130823  0.33060911  0.24516668  1
  In  In84  1  0.84318220  0.16628950  0.00311395  1
  In  In85  1  0.83299009  0.50290995  0.00672230  1
  Cu  Cu86  1  -0.00423402  0.33414892  0.49256018  1
  Cu  Cu87  1  0.67346759  0.66580555  0.49503673  1
  Cu  Cu88  1  0.83130609  0.82606298  0.74823296  1
  Cu  Cu89  1  0.83031689  0.17171753  0.25889696  1
  Cu  Cu90  1  0.17506275  0.82718536  0.76052150  1
  Cu  Cu91  1  -0.00283853  -0.00681615  0.49058105  1
  Cu  Cu92  1  0.50259780  0.82598509  0.24957282  1
  Cu  Cu93  1  0.49802379  0.83216192  0.75273547  1
  Cu  Cu94  1  0.32858139  0.34133083  0.00015935  1
  Cu  Cu95  1  0.66422182  0.34219541  0.49611830  1
  Cu  Cu96  1  0.32444959  0.00268264  0.49905921  1
  Cu  Cu97  1  0.49768788  0.50489941  0.74971034  1
  Cu  Cu98  1  0.17020722  0.50159156  0.24623687  1
  Cu  Cu99  1  0.48817390  0.17174673  0.75124755  1
  Cu  Cu100  1  0.82882405  0.83223168  0.24669639  1
  Cu  Cu101  1  0.32883635  0.33366362  0.50658259  1
  Cu  Cu102  1  0.67550651  -0.01262348  0.00901378  1
  Cu  Cu103  1  0.00740521  0.33232811  0.00501909  1
  Cu  Cu104  1  0.32889052  -0.00092251  0.00663946  1
  Cu  Cu105  1  0.83956184  0.17071426  0.74537875  1
  Cu  Cu106  1  -0.00502340  0.66526825  0.48715268  1
  Cu  Cu107  1  -0.00084988  0.67059788  0.00542859  1
  Cu  Cu108  1  0.33744599  0.66726815  0.49957562  1
  Cu  Cu109  1  0.66645378  0.33975107  0.00819078  1
  Cu  Cu110  1  0.50429860  0.49867919  0.24876436  1
  Cu  Cu111  1  0.16793289  0.16579654  0.75015293  1
  Cu  Cu112  1  0.49862512  0.16669574  0.24933932  1
  Cu  Cu113  1  0.32949325  0.66970114  0.00145368  1
  Cu  Cu114  1  0.00319264  0.00388545  0.01082638  1
  Se  Se115  1  0.08707027  0.08973880  0.05908615  1
  Se  Se116  1  0.08233183  0.07239463  0.54570802  1
  Se  Se117  1  0.08398373  0.42452386  0.05521934  1
  Se  Se118  1  0.07561550  0.40842903  0.55911817  1
  Se  Se119  1  0.08569350  0.75305669  0.05623246  1
  Se  Se120  1  0.07923347  0.73880501  0.55070418  1
  Se  Se121  1  0.41404331  0.08047690  0.06087008  1
  Se  Se122  1  0.40924931  0.07910306  0.55888473  1
  Se  Se123  1  0.41768616  0.42445955  0.04614453  1
  Se  Se124  1  0.41618094  0.42002333  0.55049980  1
  Se  Se125  1  0.40533155  0.74725747  0.06706841  1
  Se  Se126  1  0.41415005  0.74860915  0.56052349  1
  Se  Se127  1  0.75439779  0.07498924  0.06315468  1
  Se  Se128  1  0.74199340  0.07673564  0.55306452  1
  Se  Se129  1  0.75078180  0.41022581  0.06920013  1
  Se  Se130  1  0.75294651  0.42211114  0.54688592  1
  Se  Se131  1  0.74903677  0.74048303  0.05478161  1
  Se  Se132  1  0.75547577  0.74955586  0.54938389  1
  Se  Se133  1  0.24891988  0.25271953  0.05093308  1
  Se  Se134  1  0.24438878  0.24656544  0.55288391  1
  Se  Se135  1  0.24416964  0.58373421  0.05167992  1
  Se  Se136  1  0.25351006  0.58867601  0.55823283  1
  Se  Se137  1  0.24515013  0.91627268  0.05888709  1
  Se  Se138  1  0.25398847  0.91335218  0.55921809  1
  Se  Se139  1  0.58973996  0.25016534  0.06295673  1
  Se  Se140  1  0.58442345  0.25913579  0.55513641  1
  Se  Se141  1  0.58787743  0.57993656  0.05820056  1
  Se  Se142  1  0.58390677  0.58890383  0.55000198  1
  Se  Se143  1  0.58779833  0.91441989  0.06585271  1
  Se  Se144  1  0.59289950  0.92484560  0.55765108  1
  Se  Se145  1  0.92763238  0.25352950  0.06683321  1
  Se  Se146  1  0.91697023  0.25530521  0.55726648  1
  Se  Se147  1  0.92385776  0.58929212  0.06758384  1
  Se  Se148  1  0.92038116  0.58195910  0.54764745  1
  Se  Se149  1  0.91689014  0.91653653  0.05511934  1
  Se  Se150  1  0.91801818  0.90687386  0.54302975  1
  Se  Se151  1  0.08152280  0.24690439  0.44712627  1
  Se  Se152  1  0.08866095  0.24659381  0.95181174  1
  Se  Se153  1  0.08179457  0.59027782  0.42958489  1
  Se  Se154  1  0.07856093  0.58267025  0.95293207  1
  Se  Se155  1  0.07531605  0.91918601  0.42479922  1
  Se  Se156  1  0.08305488  0.91750803  0.95463547  1
  Se  Se157  1  0.40415770  0.26024022  0.43614542  1
  Se  Se158  1  0.40626353  0.25798184  0.93756506  1
  Se  Se159  1  0.42027989  0.58025982  0.45074434  1
  Se  Se160  1  0.41017605  0.58612162  0.94502182  1
  Se  Se161  1  0.40567761  0.92090004  0.44111170  1
  Se  Se162  1  0.41156162  0.92386438  0.94454855  1
  Se  Se163  1  0.74011628  0.25824302  0.43651109  1
  Se  Se164  1  0.74435292  0.25874098  0.94673335  1
  Se  Se165  1  0.75653589  0.58301247  0.44088184  1
  Se  Se166  1  0.74629081  0.58932906  0.94260062  1
  Se  Se167  1  0.75031156  0.91341838  0.44962885  1
  Se  Se168  1  0.75806949  0.90635911  0.95463858  1
  Se  Se169  1  0.24035150  0.08058241  0.44362301  1
  Se  Se170  1  0.24891061  0.08558789  0.95215227  1
  Se  Se171  1  0.25311619  0.41051480  0.43907777  1
  Se  Se172  1  0.24594048  0.42177321  0.94360085  1
  Se  Se173  1  0.25563178  0.73811877  0.43588026  1
  Se  Se174  1  0.24761159  0.75991385  0.95287168  1
  Se  Se175  1  0.58881086  0.07069500  0.44259996  1
  Se  Se176  1  0.59830697  0.07046535  0.94842032  1
  Se  Se177  1  0.57986079  0.42721841  0.44648494  1
  Se  Se178  1  0.58339617  0.42009366  0.95353146  1
  Se  Se179  1  0.59118812  0.74319332  0.43454843  1
  Se  Se180  1  0.58606484  0.73883053  0.94177091  1
  Se  Se181  1  0.92152137  0.07760063  0.43042978  1
  Se  Se182  1  0.92917200  0.07556666  0.93805103  1
  Se  Se183  1  0.92095772  0.42478368  0.44066534  1
  Se  Se184  1  0.92146085  0.40823077  0.94583832  1
  Se  Se185  1  0.91714826  0.75457973  0.43611632  1
  Se  Se186  1  0.91401930  0.75098651  0.95160354  1
  Se  Se187  1  0.24161459  0.24302073  0.30566363  1
  Se  Se188  1  0.24856462  0.25069387  0.80497267  1
  Se  Se189  1  0.25575242  0.58279293  0.29877396  1
  Se  Se190  1  0.24319502  0.59191644  0.80758533  1
  Se  Se191  1  0.25779413  0.92311144  0.29524217  1
  Se  Se192  1  0.25274266  0.91952788  0.80972850  1
  Se  Se193  1  0.58013454  0.25157898  0.30172411  1
  Se  Se194  1  0.57118969  0.24348558  0.81510071  1
  Se  Se195  1  0.58337514  0.58455430  0.30340794  1
  Se  Se196  1  0.58549838  0.58378818  0.80260666  1
  Se  Se197  1  0.58386610  0.91198771  0.30321112  1
  Se  Se198  1  0.57846205  0.90815671  0.81707207  1
  Se  Se199  1  0.91753163  0.25570427  0.30677195  1
  Se  Se200  1  0.92223069  0.25121814  0.79948358  1
  Se  Se201  1  0.94267888  0.61421931  0.30220467  1
  Se  Se202  1  0.91138557  0.57637206  0.81038230  1
  Se  Se203  1  0.91246391  0.91653397  0.29881673  1
  Se  Se204  1  0.91184781  0.90925440  0.80624683  1
  Se  Se205  1  0.07736768  0.07989778  0.29554371  1
  Se  Se206  1  0.08890281  0.08328264  0.81080919  1
  Se  Se207  1  0.08822267  0.41746046  0.29984779  1
  Se  Se208  1  0.07188443  0.40188098  0.80985843  1
  Se  Se209  1  0.11063954  0.77914150  0.28978056  1
  Se  Se210  1  0.08692525  0.75353565  0.81732980  1
  Se  Se211  1  0.41655964  0.08423295  0.30373856  1
  Se  Se212  1  0.41181617  0.08104337  0.80297428  1
  Se  Se213  1  0.41840905  0.42119021  0.30885942  1
  Se  Se214  1  0.41385951  0.42237504  0.80333332  1
  Se  Se215  1  0.41644255  0.74608680  0.30345800  1
  Se  Se216  1  0.41508011  0.74699151  0.80434657  1
  Se  Se217  1  0.74712431  0.08122758  0.30502243  1
  Se  Se218  1  0.76204689  0.08763028  0.80509423  1
  Se  Se219  1  0.73901707  0.41302541  0.30285559  1
  Se  Se220  1  0.75689995  0.42605735  0.81323631  1
  Se  Se221  1  0.74659280  0.74663625  0.29978154  1
  Se  Se222  1  0.74938797  0.74545337  0.80327436  1
  Se  Se223  1  0.25418203  0.07328720  0.19990656  1
  Se  Se224  1  0.24820874  0.07832511  0.69620606  1
  Se  Se225  1  0.24878863  0.42314048  0.18290158  1
  Se  Se226  1  0.24772314  0.42196188  0.69514194  1
  Se  Se227  1  0.25548923  0.73681242  0.19846603  1
  Se  Se228  1  0.25276896  0.74451005  0.70178796  1
  Se  Se229  1  0.58505607  0.08142728  0.20000196  1
  Se  Se230  1  0.57293662  0.09610488  0.69008459  1
  Se  Se231  1  0.58124485  0.40797448  0.19775083  1
  Se  Se232  1  0.57895458  0.42622259  0.68677654  1
  Se  Se233  1  0.58656957  0.74237436  0.19794242  1
  Se  Se234  1  0.58585092  0.75504653  0.69812287  1
  Se  Se235  1  0.91055316  0.09179917  0.20022313  1
  Se  Se236  1  0.91159309  0.08945515  0.68204234  1
  Se  Se237  1  0.91559619  0.42436985  0.20849023  1
  Se  Se238  1  0.91877540  0.41532032  0.69837543  1
  Se  Se239  1  0.91411408  0.75186473  0.19277841  1
  Se  Se240  1  0.91571274  0.75233311  0.68654883  1
  Se  Se241  1  0.08121300  0.26592122  0.20081310  1
  Se  Se242  1  0.08432597  0.24501505  0.69323813  1
  Se  Se243  1  0.08426701  0.58511119  0.19596491  1
  Se  Se244  1  0.09117006  0.57206220  0.69090252  1
  Se  Se245  1  0.06208287  0.93368573  0.19548051  1
  Se  Se246  1  0.09588155  0.90103973  0.69327675  1
  Se  Se247  1  0.42148835  0.24111619  0.18280422  1
  Se  Se248  1  0.40804568  0.25581690  0.69727513  1
  Se  Se249  1  0.41905317  0.58020248  0.19541513  1
  Se  Se250  1  0.41651922  0.58889126  0.69435126  1
  Se  Se251  1  0.41859293  0.91348545  0.20082293  1
  Se  Se252  1  0.41593800  0.92033666  0.70314624  1
  Se  Se253  1  0.74879807  0.25287664  0.20208240  1
  Se  Se254  1  0.75042310  0.25065489  0.69381144  1
  Se  Se255  1  0.76316545  0.56627874  0.20364208  1
  Se  Se256  1  0.75151721  0.58345755  0.69459749  1
  Se  Se257  1  0.74329047  0.92065587  0.19762746  1
  Se  Se258  1  0.75660588  0.91396110  0.68963798  1
