# generated using pymatgen
data_In86Cu29Se144
_symmetry_space_group_name_H-M   'P 1'
_cell_length_a   17.64717389
_cell_length_b   17.64244598
_cell_length_c   23.51966185
_cell_angle_alpha   89.96285559
_cell_angle_beta   90.05518449
_cell_angle_gamma   90.03519307
_symmetry_Int_Tables_number   1
_chemical_formula_structural   In86Cu29Se144
_chemical_formula_sum   'In86 Cu29 Se144'
_cell_volume   7322.58902582
_cell_formula_units_Z   1
loop_
 _symmetry_equiv_pos_site_id
 _symmetry_equiv_pos_as_xyz
  1  'x, y, z'
loop_
 _atom_site_type_symbol
 _atom_site_label
 _atom_site_symmetry_multiplicity
 _atom_site_fract_x
 _atom_site_fract_y
 _atom_site_fract_z
 _atom_site_occupancy
  In  In0  1  -0.01647213  0.18464920  0.14280483  1
  In  In1  1  -0.00249053  0.17167218  0.60953353  1
  In  In2  1  0.04177120  0.47054584  0.17202571  1
  In  In3  1  0.01091889  0.50630669  0.61932356  1
  In  In4  1  0.00825466  0.82364363  0.13909814  1
  In  In5  1  0.00027360  0.82632962  0.61415347  1
  In  In6  1  0.34553123  0.17704575  0.12128141  1
  In  In7  1  0.33489933  0.16809159  0.62265808  1
  In  In8  1  0.33847143  0.49620773  0.11993102  1
  In  In9  1  0.33671410  0.49118298  0.63154496  1
  In  In10  1  0.33043676  0.82414571  0.12327434  1
  In  In11  1  0.32325911  0.83401578  0.62839950  1
  In  In12  1  0.66838263  0.17075153  0.11884158  1
  In  In13  1  0.67543707  0.17630203  0.61882235  1
  In  In14  1  0.65745538  0.50532070  0.12090380  1
  In  In15  1  0.65352028  0.49096367  0.62050387  1
  In  In16  1  0.66293289  0.84184076  0.12135585  1
  In  In17  1  0.67020232  0.82414311  0.62089340  1
  In  In18  1  0.15594359  0.01226817  0.38519764  1
  In  In19  1  0.16645521  -0.00929396  0.87558033  1
  In  In20  1  0.15794512  0.33253351  0.35783214  1
  In  In21  1  0.18436471  0.32831272  0.88120754  1
  In  In22  1  0.17847808  0.67519520  0.36985989  1
  In  In23  1  0.16207711  0.65464561  0.87111098  1
  In  In24  1  0.50851636  0.00218597  0.37605439  1
  In  In25  1  0.49042265  0.01324137  0.87804028  1
  In  In26  1  0.48580013  0.34720149  0.37952832  1
  In  In27  1  0.49664086  0.33237447  0.87512047  1
  In  In28  1  0.46760707  0.66659213  0.37406614  1
  In  In29  1  0.48403829  0.67697412  0.88286466  1
  In  In30  1  0.83681854  -0.00001311  0.38149480  1
  In  In31  1  0.84471832  0.00898230  0.87388944  1
  In  In32  1  0.86793560  0.31279932  0.39925696  1
  In  In33  1  0.81903494  0.33701622  0.87298891  1
  In  In34  1  0.84619465  0.65333427  0.38635714  1
  In  In35  1  0.84272824  0.65405188  0.87154103  1
  In  In36  1  0.00304964  0.16963975  0.36849336  1
  In  In37  1  -0.00312035  0.16329846  0.88385056  1
  In  In38  1  -0.00315577  0.48656992  0.36375083  1
  In  In39  1  -0.00201712  0.50808004  0.87576027  1
  In  In40  1  0.00238914  0.83368033  0.37931529  1
  In  In41  1  0.01131675  0.82326981  0.87560162  1
  In  In42  1  0.32347006  0.17741416  0.38247389  1
  In  In43  1  0.34965298  0.18362658  0.86001542  1
  In  In44  1  0.32961258  0.50884356  0.36434709  1
  In  In45  1  0.33006486  0.49891884  0.87646935  1
  In  In46  1  0.32912390  0.81129596  0.37145914  1
  In  In47  1  0.33324336  0.84062807  0.86909960  1
  In  In48  1  0.67055151  0.16825718  0.38163253  1
  In  In49  1  0.65358893  0.17875409  0.87839784  1
  In  In50  1  0.66459516  0.50049902  0.38204579  1
  In  In51  1  0.66479518  0.48469890  0.86950784  1
  In  In52  1  0.66463337  0.84310005  0.37780584  1
  In  In53  1  0.66240469  0.81922388  0.87133998  1
  In  In54  1  0.16090234  -0.01023022  0.13056543  1
  In  In55  1  0.17328850  0.00885367  0.61719928  1
  In  In56  1  0.16729351  0.33799385  0.12432814  1
  In  In57  1  0.17568011  0.33914986  0.62099643  1
  In  In58  1  0.20540994  0.61961425  0.18019592  1
  In  In59  1  0.16238057  0.66439652  0.62762183  1
  In  In60  1  0.50016181  0.00297590  0.11321132  1
  In  In61  1  0.48166716  -0.00019925  0.62646482  1
  In  In62  1  0.49280700  0.33023348  0.11768391  1
  In  In63  1  0.50031703  0.33396161  0.62726782  1
  In  In64  1  0.49005277  0.65979772  0.11588692  1
  In  In65  1  0.49365308  0.65390212  0.62491024  1
  In  In66  1  0.83306322  0.01239131  0.13249286  1
  In  In67  1  0.84083133  0.00421373  0.61482819  1
  In  In68  1  0.85032330  0.33109527  0.12873120  1
  In  In69  1  0.82407986  0.32492377  0.61500127  1
  In  In70  1  0.84390658  0.66110191  0.13040316  1
  In  In71  1  0.84328508  0.67073078  0.61232632  1
  In  In72  1  0.16666712  0.49259954  0.49472454  1
  In  In73  1  0.49786740  0.83446052  0.50073328  1
  In  In74  1  0.16723200  0.16813498  0.00498984  1
  In  In75  1  0.66413719  0.65871399  0.74292561  1
  In  In76  1  0.33404732  -0.00190204  0.24877707  1
  In  In77  1  0.83033354  0.49538245  -0.00049774  1
  In  In78  1  0.66606878  0.00215379  0.74545029  1
  In  In79  1  0.00367137  -0.00286893  0.74659398  1
  In  In80  1  0.82437314  0.83671629  0.00243870  1
  In  In81  1  0.00508235  0.33627647  0.74567306  1
  In  In82  1  0.16510194  0.82986171  0.00465673  1
  In  In83  1  0.66769197  0.00292071  0.25904021  1
  In  In84  1  0.67190898  0.33255814  0.25443743  1
  In  In85  1  0.66463762  0.66953425  0.24836053  1
  Cu  Cu86  1  0.83425752  0.49569323  0.26175597  1
  Cu  Cu87  1  0.82946628  0.17544276  0.74569389  1
  Cu  Cu88  1  0.84332744  0.82467061  0.73967323  1
  Cu  Cu89  1  0.66533742  0.00083396  -0.00118423  1
  Cu  Cu90  1  -0.01145192  0.00579343  0.00911216  1
  Cu  Cu91  1  0.00292271  0.66254087  0.00452829  1
  Cu  Cu92  1  0.32465447  0.66194428  0.00545751  1
  Cu  Cu93  1  0.16257747  0.83880732  0.25804892  1
  Cu  Cu94  1  0.83889393  0.50136616  0.74643848  1
  Cu  Cu95  1  0.65709470  0.66648700  -0.00177929  1
  Cu  Cu96  1  0.49584024  0.50207693  0.24974422  1
  Cu  Cu97  1  0.17351100  0.49842017  0.75026282  1
  Cu  Cu98  1  0.66550210  0.66976584  0.50004490  1
  Cu  Cu99  1  0.01007257  0.66515016  0.49640447  1
  Cu  Cu100  1  0.66869015  0.00482380  0.49929898  1
  Cu  Cu101  1  0.49541389  0.49887527  0.75205172  1
  Cu  Cu102  1  0.33677707  0.33312468  0.50151987  1
  Cu  Cu103  1  0.49963052  0.17136520  0.24769212  1
  Cu  Cu104  1  0.83459241  0.83319286  0.26161414  1
  Cu  Cu105  1  0.49136069  0.83670970  0.75241561  1
  Cu  Cu106  1  0.49648219  0.17007717  0.75031274  1
  Cu  Cu107  1  0.17170621  0.16418007  0.25454911  1
  Cu  Cu108  1  0.16758151  0.82615587  0.74990005  1
  Cu  Cu109  1  0.33699831  0.00821137  -0.00727786  1
  Cu  Cu110  1  0.33419038  0.00168552  0.50069683  1
  Cu  Cu111  1  0.66199820  0.33752007  0.49958335  1
  Cu  Cu112  1  0.17455773  0.16317611  0.74627244  1
  Cu  Cu113  1  0.00339108  -0.00324649  0.49601014  1
  Cu  Cu114  1  0.66261569  0.32869800  -0.00298509  1
  Se  Se115  1  0.07803359  0.07879210  0.06494716  1
  Se  Se116  1  0.08329868  0.08318086  0.54988933  1
  Se  Se117  1  0.06230126  0.41423281  0.07177503  1
  Se  Se118  1  0.07386186  0.40225916  0.55277027  1
  Se  Se119  1  0.08166893  0.74054337  0.06521195  1
  Se  Se120  1  0.09257510  0.74675326  0.55142166  1
  Se  Se121  1  0.41678711  0.08974894  0.04988279  1
  Se  Se122  1  0.41829901  0.08589790  0.55163479  1
  Se  Se123  1  0.43475657  0.43147098  0.05245820  1
  Se  Se124  1  0.41694178  0.41645386  0.55739178  1
  Se  Se125  1  0.41194242  0.75124366  0.04951511  1
  Se  Se126  1  0.40975962  0.74502569  0.56015359  1
  Se  Se127  1  0.74861142  0.07782231  0.05647915  1
  Se  Se128  1  0.75328664  0.08739121  0.55219209  1
  Se  Se129  1  0.74135798  0.40538425  0.06220242  1
  Se  Se130  1  0.74605576  0.42020413  0.55300266  1
  Se  Se131  1  0.74216622  0.73673514  0.06149025  1
  Se  Se132  1  0.75269993  0.75316959  0.54839126  1
  Se  Se133  1  0.26169795  0.26343897  0.05354159  1
  Se  Se134  1  0.25123942  0.25096768  0.55345587  1
  Se  Se135  1  0.24591702  0.59711432  0.07361667  1
  Se  Se136  1  0.25138161  0.57736211  0.56153776  1
  Se  Se137  1  0.25804828  0.92901862  0.05522529  1
  Se  Se138  1  0.25209930  0.91663935  0.55332120  1
  Se  Se139  1  0.58003371  0.24675739  0.05273880  1
  Se  Se140  1  0.58210149  0.25317320  0.55573978  1
  Se  Se141  1  0.57659848  0.57892837  0.04810024  1
  Se  Se142  1  0.58243518  0.58689544  0.55392753  1
  Se  Se143  1  0.58195200  0.91498146  0.04801332  1
  Se  Se144  1  0.58899515  0.92608723  0.56203324  1
  Se  Se145  1  0.91663181  0.24494736  0.05660855  1
  Se  Se146  1  0.91198070  0.25237343  0.54629236  1
  Se  Se147  1  0.92157537  0.57907183  0.05988220  1
  Se  Se148  1  0.92544375  0.58164480  0.54884229  1
  Se  Se149  1  0.91885215  0.91380162  0.06633624  1
  Se  Se150  1  0.91825264  0.91511737  0.55007230  1
  Se  Se151  1  0.08876971  0.25390129  0.43368253  1
  Se  Se152  1  0.07723761  0.25889468  0.94410587  1
  Se  Se153  1  0.08349464  0.58476380  0.43196771  1
  Se  Se154  1  0.08321358  0.58187940  0.94753824  1
  Se  Se155  1  0.08998931  0.91116415  0.44899339  1
  Se  Se156  1  0.06827955  0.92550884  0.94820290  1
  Se  Se157  1  0.42011058  0.24949596  0.44696469  1
  Se  Se158  1  0.41758294  0.24560650  0.94276490  1
  Se  Se159  1  0.41059286  0.57137056  0.44332903  1
  Se  Se160  1  0.40925077  0.58512618  0.94745043  1
  Se  Se161  1  0.40916344  0.92127307  0.43710229  1
  Se  Se162  1  0.41466083  0.91773590  0.94133250  1
  Se  Se163  1  0.74829078  0.25517244  0.44880651  1
  Se  Se164  1  0.74999398  0.24905584  0.94475660  1
  Se  Se165  1  0.74773409  0.58361748  0.44944840  1
  Se  Se166  1  0.74019733  0.58929267  0.93804426  1
  Se  Se167  1  0.74870557  0.91798283  0.44780949  1
  Se  Se168  1  0.74206117  0.92442870  0.93311046  1
  Se  Se169  1  0.24987243  0.08690793  0.44978094  1
  Se  Se170  1  0.25134878  0.08395385  0.93518282  1
  Se  Se171  1  0.25702762  0.40587728  0.43409276  1
  Se  Se172  1  0.23994753  0.42886867  0.94689029  1
  Se  Se173  1  0.25801382  0.73869548  0.44861494  1
  Se  Se174  1  0.25160993  0.74479831  0.93917754  1
  Se  Se175  1  0.58323220  0.08557249  0.44693370  1
  Se  Se176  1  0.58301111  0.08466639  0.94492040  1
  Se  Se177  1  0.57713336  0.42005165  0.44757635  1
  Se  Se178  1  0.58356501  0.41505757  0.94384012  1
  Se  Se179  1  0.58201168  0.74256574  0.43707370  1
  Se  Se180  1  0.57888632  0.75468353  0.94650752  1
  Se  Se181  1  0.92517439  0.08503830  0.44267203  1
  Se  Se182  1  0.90906365  0.08779224  0.95299586  1
  Se  Se183  1  0.91247024  0.43685468  0.44553469  1
  Se  Se184  1  0.92019716  0.40777420  0.93790099  1
  Se  Se185  1  0.92053971  0.74965350  0.44902787  1
  Se  Se186  1  0.91988923  0.74295443  0.94623176  1
  Se  Se187  1  0.25711851  0.25062670  0.30095110  1
  Se  Se188  1  0.24881202  0.25405514  0.79894017  1
  Se  Se189  1  0.24756349  0.58914357  0.29551850  1
  Se  Se190  1  0.25413728  0.58433079  0.80336431  1
  Se  Se191  1  0.24557027  0.91830848  0.31658786  1
  Se  Se192  1  0.24422374  0.91772479  0.80101834  1
  Se  Se193  1  0.57558277  0.24750768  0.31329517  1
  Se  Se194  1  0.58083074  0.25411031  0.80185448  1
  Se  Se195  1  0.57581772  0.58139597  0.31037186  1
  Se  Se196  1  0.57531692  0.58221798  0.81201530  1
  Se  Se197  1  0.57013705  0.90491599  0.30259166  1
  Se  Se198  1  0.57827346  0.91303180  0.80845625  1
  Se  Se199  1  0.91812691  0.25841813  0.30613332  1
  Se  Se200  1  0.91540596  0.24586079  0.80832106  1
  Se  Se201  1  0.91845788  0.58708065  0.30461309  1
  Se  Se202  1  0.92353442  0.58332742  0.79749232  1
  Se  Se203  1  0.91712747  0.91776532  0.31199431  1
  Se  Se204  1  0.91319523  0.90464649  0.80776081  1
  Se  Se205  1  0.08645795  0.08029624  0.30290262  1
  Se  Se206  1  0.08891150  0.09171111  0.80843462  1
  Se  Se207  1  0.09496595  0.43315337  0.29111455  1
  Se  Se208  1  0.09066574  0.42047752  0.81158891  1
  Se  Se209  1  0.08165325  0.75082131  0.30832041  1
  Se  Se210  1  0.08260731  0.74370516  0.80224899  1
  Se  Se211  1  0.42131998  0.09028179  0.30965981  1
  Se  Se212  1  0.41427441  0.07960653  0.79761479  1
  Se  Se213  1  0.41148902  0.41791456  0.30066207  1
  Se  Se214  1  0.41379684  0.41644223  0.80755038  1
  Se  Se215  1  0.42124019  0.75791817  0.29699059  1
  Se  Se216  1  0.41109916  0.74911622  0.80358116  1
  Se  Se217  1  0.76130661  0.09510490  0.30964912  1
  Se  Se218  1  0.75440130  0.09169121  0.80745102  1
  Se  Se219  1  0.75665969  0.41529226  0.32108058  1
  Se  Se220  1  0.75232285  0.41853810  0.79600560  1
  Se  Se221  1  0.75308014  0.75041472  0.31684737  1
  Se  Se222  1  0.76078628  0.74949749  0.80234967  1
  Se  Se223  1  0.24882840  0.09097112  0.18637757  1
  Se  Se224  1  0.25474594  0.08026013  0.69216458  1
  Se  Se225  1  0.25047222  0.42243834  0.19009593  1
  Se  Se226  1  0.25105432  0.40942836  0.69904622  1
  Se  Se227  1  0.24576532  0.76262854  0.19966129  1
  Se  Se228  1  0.24978456  0.74299040  0.69645778  1
  Se  Se229  1  0.57867623  0.08785477  0.19121580  1
  Se  Se230  1  0.57604061  0.09165987  0.68703191  1
  Se  Se231  1  0.57975749  0.42125909  0.19387004  1
  Se  Se232  1  0.58080309  0.41795633  0.69894175  1
  Se  Se233  1  0.57676331  0.75327015  0.18440422  1
  Se  Se234  1  0.57237605  0.75868329  0.69153570  1
  Se  Se235  1  0.92813991  0.07314037  0.20035026  1
  Se  Se236  1  0.91316078  0.09358058  0.69088558  1
  Se  Se237  1  0.91381978  0.41075554  0.20779156  1
  Se  Se238  1  0.91360263  0.41997564  0.68319527  1
  Se  Se239  1  0.90977113  0.75070071  0.20179355  1
  Se  Se240  1  0.92527109  0.74311591  0.68767296  1
  Se  Se241  1  0.09428294  0.24823444  0.19656490  1
  Se  Se242  1  0.08931272  0.23954056  0.68678833  1
  Se  Se243  1  0.05983270  0.61260005  0.19052889  1
  Se  Se244  1  0.08546843  0.57712121  0.69759968  1
  Se  Se245  1  0.07861405  0.92012609  0.20477012  1
  Se  Se246  1  0.09105194  0.90826248  0.68668852  1
  Se  Se247  1  0.41802718  0.25696521  0.19670785  1
  Se  Se248  1  0.41399427  0.25122843  0.69383136  1
  Se  Se249  1  0.41702105  0.58401186  0.19253552  1
  Se  Se250  1  0.41313820  0.58278704  0.69956258  1
  Se  Se251  1  0.42325854  0.91451982  0.18513896  1
  Se  Se252  1  0.40795602  0.91645227  0.69729070  1
  Se  Se253  1  0.75656665  0.24143520  0.19295136  1
  Se  Se254  1  0.74577757  0.25783562  0.69482299  1
  Se  Se255  1  0.75537149  0.56881994  0.19540910  1
  Se  Se256  1  0.75884014  0.57767261  0.68233407  1
  Se  Se257  1  0.75479606  0.90797632  0.19703539  1
  Se  Se258  1  0.76095861  0.91027567  0.68817559  1
