# generated using pymatgen
data_In86Cu29Se144
_symmetry_space_group_name_H-M   'P 1'
_cell_length_a   17.57454302
_cell_length_b   17.57593481
_cell_length_c   23.43248004
_cell_angle_alpha   90.01162454
_cell_angle_beta   90.01132251
_cell_angle_gamma   89.96878886
_symmetry_Int_Tables_number   1
_chemical_formula_structural   In86Cu29Se144
_chemical_formula_sum   'In86 Cu29 Se144'
_cell_volume   7238.03448702
_cell_formula_units_Z   1
loop_
 _symmetry_equiv_pos_site_id
 _symmetry_equiv_pos_as_xyz
  1  'x, y, z'
loop_
 _atom_site_type_symbol
 _atom_site_label
 _atom_site_symmetry_multiplicity
 _atom_site_fract_x
 _atom_site_fract_y
 _atom_site_fract_z
 _atom_site_occupancy
  In  In0  1  0.01238725  0.17669036  0.12050660  1
  In  In1  1  -0.01638184  0.16002712  0.61865289  1
  In  In2  1  -0.01478534  0.48746787  0.11602519  1
  In  In3  1  0.01815558  0.50361090  0.62824654  1
  In  In4  1  -0.00107612  0.83082371  0.13169859  1
  In  In5  1  0.00024880  0.83595180  0.62251167  1
  In  In6  1  0.32445099  0.15859895  0.12678790  1
  In  In7  1  0.32831688  0.15498675  0.60585878  1
  In  In8  1  0.34222682  0.50334501  0.11882212  1
  In  In9  1  0.33100713  0.51247188  0.62271228  1
  In  In10  1  0.33925991  0.83260090  0.15574693  1
  In  In11  1  0.34354494  0.85192731  0.59575872  1
  In  In12  1  0.68029479  0.17864434  0.11628001  1
  In  In13  1  0.66351749  0.16243338  0.62498854  1
  In  In14  1  0.66635628  0.49637268  0.12559127  1
  In  In15  1  0.65561462  0.48797344  0.63530375  1
  In  In16  1  0.64912783  0.83301294  0.13591095  1
  In  In17  1  0.67975528  0.84201851  0.61561258  1
  In  In18  1  0.18408252  -0.00504057  0.38416662  1
  In  In19  1  0.16158975  0.01112096  0.87274391  1
  In  In20  1  0.16361676  0.33672542  0.37626847  1
  In  In21  1  0.16982473  0.33387961  0.88524629  1
  In  In22  1  0.17332254  0.66572580  0.37402715  1
  In  In23  1  0.15853147  0.66994167  0.87513271  1
  In  In24  1  0.48638889  0.00700316  0.38765047  1
  In  In25  1  0.51255513  -0.00026941  0.87024892  1
  In  In26  1  0.50276514  0.31804601  0.37155491  1
  In  In27  1  0.50631584  0.32694809  0.88027857  1
  In  In28  1  0.51034974  0.68506116  0.35907378  1
  In  In29  1  0.49457352  0.66780447  0.87723937  1
  In  In30  1  0.83841657  -0.00225210  0.38257784  1
  In  In31  1  0.84041583  0.00891257  0.86897189  1
  In  In32  1  0.82550036  0.32403364  0.36781024  1
  In  In33  1  0.82219767  0.33978234  0.87934431  1
  In  In34  1  0.82864830  0.68222214  0.36989680  1
  In  In35  1  0.83420487  0.65177746  0.87562093  1
  In  In36  1  -0.00384110  0.17200218  0.37996743  1
  In  In37  1  0.00369320  0.16398939  0.87698161  1
  In  In38  1  0.01514937  0.49758480  0.37321309  1
  In  In39  1  -0.00346894  0.50192843  0.87840472  1
  In  In40  1  -0.00128297  0.83850299  0.38152097  1
  In  In41  1  0.00384122  0.83377876  0.86241009  1
  In  In42  1  0.33644059  0.15826098  0.38332107  1
  In  In43  1  0.32661422  0.16934994  0.88413381  1
  In  In44  1  0.31987124  0.50341643  0.37207751  1
  In  In45  1  0.34126207  0.49360871  0.89133282  1
  In  In46  1  0.33408447  0.83687899  0.37480394  1
  In  In47  1  0.33646704  0.82598567  0.87081821  1
  In  In48  1  0.66330012  0.16723880  0.37707132  1
  In  In49  1  0.66446393  0.16819431  0.87435106  1
  In  In50  1  0.66144882  0.49814103  0.36471094  1
  In  In51  1  0.67123164  0.49354427  0.88018792  1
  In  In52  1  0.67209234  0.82929079  0.38181044  1
  In  In53  1  0.65852733  0.84668707  0.86803628  1
  In  In54  1  0.17078712  0.01349975  0.13680413  1
  In  In55  1  0.15621336  -0.00840064  0.61269403  1
  In  In56  1  0.15161626  0.32017934  0.12338196  1
  In  In57  1  0.16839859  0.33670108  0.61671521  1
  In  In58  1  0.18226797  0.66362245  0.13088993  1
  In  In59  1  0.16747509  0.66927401  0.61648808  1
  In  In60  1  0.48887464  0.00307893  0.12685791  1
  In  In61  1  0.50611126  0.00627249  0.61664935  1
  In  In62  1  0.51112538  0.33945000  0.11947532  1
  In  In63  1  0.51320426  0.32653442  0.63111288  1
  In  In64  1  0.50603281  0.66328014  0.13510217  1
  In  In65  1  0.49314983  0.66766964  0.62433207  1
  In  In66  1  0.82054393  0.00468070  0.12482988  1
  In  In67  1  0.83258843  0.00100393  0.62454484  1
  In  In68  1  0.83495143  0.33217784  0.12582622  1
  In  In69  1  0.82898970  0.31890444  0.62635046  1
  In  In70  1  0.83857062  0.64980123  0.12648613  1
  In  In71  1  0.83189780  0.68457811  0.62305252  1
  In  In72  1  0.83679085  0.50248808  0.50308215  1
  In  In73  1  0.00462534  -0.00087967  0.26019354  1
  In  In74  1  0.66235080  -0.00224958  0.25530101  1
  In  In75  1  0.16686570  0.83843537  0.01572338  1
  In  In76  1  0.49348810  0.49996062  0.50299636  1
  In  In77  1  0.33967114  0.33069800  0.75775628  1
  In  In78  1  0.33419968  -0.00233549  0.73644030  1
  In  In79  1  0.49783587  0.83468000  0.00113292  1
  In  In80  1  0.33292291  0.67135559  0.74277820  1
  In  In81  1  0.67179592  0.67058869  0.75021207  1
  In  In82  1  0.33407985  0.33143141  0.24984216  1
  In  In83  1  0.83214298  0.82744078  0.00503524  1
  In  In84  1  -0.00109609  0.66327749  0.25473202  1
  In  In85  1  -0.00595759  0.33446354  0.75416256  1
  Cu  Cu86  1  0.00451518  0.67254515  0.49479091  1
  Cu  Cu87  1  0.16798984  0.83594329  0.73949916  1
  Cu  Cu88  1  0.66596048  0.65822571  0.00539456  1
  Cu  Cu89  1  0.66811230  0.00202767  0.50003107  1
  Cu  Cu90  1  0.84259852  0.16941197  0.24731285  1
  Cu  Cu91  1  0.66618128  0.66970109  0.49556404  1
  Cu  Cu92  1  0.33201082  0.33040911  0.00821432  1
  Cu  Cu93  1  0.82973716  0.49413074  0.24563918  1
  Cu  Cu94  1  0.50710057  0.16782181  0.25197471  1
  Cu  Cu95  1  0.33267776  0.33271153  0.49339239  1
  Cu  Cu96  1  0.33007710  0.00489747  0.00462428  1
  Cu  Cu97  1  0.81944123  0.16115599  0.74852163  1
  Cu  Cu98  1  0.16153897  0.49280327  0.24629487  1
  Cu  Cu99  1  0.49734257  0.50279334  0.24373897  1
  Cu  Cu100  1  0.33026794  0.66731318  0.49279988  1
  Cu  Cu101  1  0.83801889  0.50297468  0.75639886  1
  Cu  Cu102  1  0.49808426  0.16231346  0.74863515  1
  Cu  Cu103  1  -0.00215213  0.33024619  -0.00147410  1
  Cu  Cu104  1  0.83790062  0.83803586  0.74375353  1
  Cu  Cu105  1  0.00085379  0.33596982  0.50156603  1
  Cu  Cu106  1  0.00347379  0.00602606  0.00011389  1
  Cu  Cu107  1  0.33601614  0.66817625  0.00644384  1
  Cu  Cu108  1  0.66662532  0.33160940  0.00058166  1
  Cu  Cu109  1  0.15302520  0.16276648  0.74647426  1
  Cu  Cu110  1  0.17327527  0.50833022  0.75124413  1
  Cu  Cu111  1  0.00048751  0.65599763  -0.00263092  1
  Cu  Cu112  1  0.66412662  0.32293949  0.49966333  1
  Cu  Cu113  1  -0.00137345  0.00531343  0.50045492  1
  Cu  Cu114  1  0.66802155  0.01152861  -0.00455573  1
  Se  Se115  1  0.09024095  0.07993217  0.05782908  1
  Se  Se116  1  0.08053629  0.09195272  0.55249987  1
  Se  Se117  1  0.08165849  0.41237663  0.05325518  1
  Se  Se118  1  0.08459189  0.42280717  0.55093871  1
  Se  Se119  1  0.07342504  0.73612950  0.06231119  1
  Se  Se120  1  0.08485097  0.75630239  0.55149148  1
  Se  Se121  1  0.41644166  0.08816274  0.05464750  1
  Se  Se122  1  0.41577069  0.07295385  0.54480777  1
  Se  Se123  1  0.42122255  0.41653926  0.05192563  1
  Se  Se124  1  0.40805177  0.40555890  0.56392968  1
  Se  Se125  1  0.40925098  0.75300735  0.06733198  1
  Se  Se126  1  0.42023022  0.74244314  0.54717394  1
  Se  Se127  1  0.75738634  0.08828581  0.04792143  1
  Se  Se128  1  0.75074243  0.08530020  0.55545068  1
  Se  Se129  1  0.74983124  0.41394680  0.05666261  1
  Se  Se130  1  0.73977265  0.41084843  0.55805972  1
  Se  Se131  1  0.73781701  0.74432408  0.06672955  1
  Se  Se132  1  0.75433204  0.75258168  0.54506542  1
  Se  Se133  1  0.24713898  0.24586339  0.05803331  1
  Se  Se134  1  0.24687180  0.25187077  0.54819645  1
  Se  Se135  1  0.24901834  0.58259971  0.05333628  1
  Se  Se136  1  0.24917147  0.58254895  0.54833757  1
  Se  Se137  1  0.26622276  0.92005195  0.07126612  1
  Se  Se138  1  0.24352554  0.92451095  0.53972926  1
  Se  Se139  1  0.58146020  0.24592248  0.05061782  1
  Se  Se140  1  0.57847677  0.24421114  0.55425121  1
  Se  Se141  1  0.57822947  0.58189105  0.05985171  1
  Se  Se142  1  0.59455313  0.58643729  0.55979167  1
  Se  Se143  1  0.59196382  0.92824115  0.05724320  1
  Se  Se144  1  0.58487716  0.91494937  0.55008754  1
  Se  Se145  1  0.91648715  0.24817873  0.05543533  1
  Se  Se146  1  0.91178274  0.25343226  0.55001075  1
  Se  Se147  1  0.90979431  0.57761430  0.04699399  1
  Se  Se148  1  0.92840333  0.59380475  0.56067386  1
  Se  Se149  1  0.92486482  0.92403332  0.06014187  1
  Se  Se150  1  0.91622071  0.91956726  0.55466978  1
  Se  Se151  1  0.08360087  0.25360560  0.44706096  1
  Se  Se152  1  0.08369815  0.24677890  0.94683812  1
  Se  Se153  1  0.08594457  0.58574208  0.44351975  1
  Se  Se154  1  0.08957435  0.57885513  0.94455880  1
  Se  Se155  1  0.08203652  0.92261016  0.44668054  1
  Se  Se156  1  0.07900241  0.91705533  0.94298145  1
  Se  Se157  1  0.42122197  0.24956312  0.44666097  1
  Se  Se158  1  0.41346623  0.25192490  0.94760341  1
  Se  Se159  1  0.41514527  0.58790820  0.43477257  1
  Se  Se160  1  0.42217678  0.58838707  0.95220301  1
  Se  Se161  1  0.41418054  0.91078036  0.45080311  1
  Se  Se162  1  0.40603762  0.92501794  0.93975810  1
  Se  Se163  1  0.75220070  0.24701608  0.44515608  1
  Se  Se164  1  0.74859347  0.24735453  0.94551002  1
  Se  Se165  1  0.74351143  0.58380854  0.43861503  1
  Se  Se166  1  0.75122689  0.58063575  0.94917817  1
  Se  Se167  1  0.75224765  0.91654508  0.44868995  1
  Se  Se168  1  0.74690778  0.92044651  0.94224722  1
  Se  Se169  1  0.24840181  0.08896234  0.45504648  1
  Se  Se170  1  0.24316772  0.08107726  0.94840060  1
  Se  Se171  1  0.24848491  0.41932745  0.44533991  1
  Se  Se172  1  0.24899103  0.41678663  0.95478189  1
  Se  Se173  1  0.24579660  0.75402919  0.44422150  1
  Se  Se174  1  0.25395892  0.74968467  0.94728062  1
  Se  Se175  1  0.58427652  0.08611375  0.44769208  1
  Se  Se176  1  0.57688738  0.08731407  0.94397219  1
  Se  Se177  1  0.58685793  0.41109649  0.44240217  1
  Se  Se178  1  0.58271016  0.41682918  0.94845343  1
  Se  Se179  1  0.57724221  0.74950706  0.44543248  1
  Se  Se180  1  0.59571111  0.74614310  0.94282478  1
  Se  Se181  1  0.91340904  0.08884453  0.44876806  1
  Se  Se182  1  0.91686228  0.08382643  0.94561211  1
  Se  Se183  1  0.91978906  0.41311151  0.43844472  1
  Se  Se184  1  0.91613318  0.41514333  0.94430446  1
  Se  Se185  1  0.91374920  0.74997930  0.44464375  1
  Se  Se186  1  0.92664898  0.74645100  0.93959287  1
  Se  Se187  1  0.24920783  0.24381348  0.31245264  1
  Se  Se188  1  0.23556261  0.24060160  0.80675764  1
  Se  Se189  1  0.24204761  0.58017727  0.29763251  1
  Se  Se190  1  0.25602915  0.58061551  0.81465522  1
  Se  Se191  1  0.26035712  0.92822741  0.30500477  1
  Se  Se192  1  0.24469335  0.91200099  0.80651791  1
  Se  Se193  1  0.59409272  0.25131839  0.30041196  1
  Se  Se194  1  0.57836629  0.24737778  0.80363134  1
  Se  Se195  1  0.58270479  0.58465523  0.29760722  1
  Se  Se196  1  0.58310443  0.58265198  0.81191240  1
  Se  Se197  1  0.57588677  0.91725794  0.32129924  1
  Se  Se198  1  0.57519860  0.91490841  0.79519040  1
  Se  Se199  1  0.92288773  0.25255583  0.30293103  1
  Se  Se200  1  0.90236589  0.24163565  0.80927293  1
  Se  Se201  1  0.90584687  0.57135932  0.31288011  1
  Se  Se202  1  0.92554047  0.58660909  0.80306004  1
  Se  Se203  1  0.90447707  0.90590059  0.30672696  1
  Se  Se204  1  0.91891127  0.92100108  0.80100624  1
  Se  Se205  1  0.09278521  0.08770291  0.31847207  1
  Se  Se206  1  0.07274225  0.07949409  0.80061602  1
  Se  Se207  1  0.08083062  0.40904075  0.29961282  1
  Se  Se208  1  0.09510867  0.42202272  0.80843735  1
  Se  Se209  1  0.08582867  0.75883974  0.30991944  1
  Se  Se210  1  0.09099868  0.75041371  0.79757769  1
  Se  Se211  1  0.42278172  0.08995513  0.30783390  1
  Se  Se212  1  0.41084170  0.08823273  0.80817281  1
  Se  Se213  1  0.42429594  0.42339563  0.31081551  1
  Se  Se214  1  0.42584558  0.42632626  0.81312325  1
  Se  Se215  1  0.39091180  0.73186466  0.30746569  1
  Se  Se216  1  0.43178646  0.76041502  0.80009569  1
  Se  Se217  1  0.76224455  0.08821873  0.30807432  1
  Se  Se218  1  0.74031730  0.07724155  0.80521939  1
  Se  Se219  1  0.74619775  0.41201058  0.30089037  1
  Se  Se220  1  0.74989570  0.41950142  0.80305479  1
  Se  Se221  1  0.73367023  0.74524928  0.30247865  1
  Se  Se222  1  0.76312021  0.76052969  0.81243122  1
  Se  Se223  1  0.26930425  0.07088461  0.20541703  1
  Se  Se224  1  0.23758604  0.09032167  0.68529902  1
  Se  Se225  1  0.24609686  0.41773844  0.18504120  1
  Se  Se226  1  0.24911732  0.42158894  0.69364278  1
  Se  Se227  1  0.23666950  0.75347177  0.20544267  1
  Se  Se228  1  0.25514756  0.76614542  0.67860202  1
  Se  Se229  1  0.58691248  0.09188456  0.18726609  1
  Se  Se230  1  0.58146751  0.07908214  0.69522559  1
  Se  Se231  1  0.58336496  0.41540610  0.19726625  1
  Se  Se232  1  0.57702136  0.41141199  0.70611636  1
  Se  Se233  1  0.56736721  0.75846308  0.20584919  1
  Se  Se234  1  0.58662734  0.75464588  0.68365095  1
  Se  Se235  1  0.91703334  0.08248078  0.18962739  1
  Se  Se236  1  0.91203006  0.08532893  0.69696019  1
  Se  Se237  1  0.91920855  0.41258542  0.19710525  1
  Se  Se238  1  0.91070911  0.42460358  0.68732758  1
  Se  Se239  1  0.90436050  0.75262156  0.19539522  1
  Se  Se240  1  0.92127215  0.75069693  0.69519498  1
  Se  Se241  1  0.09139433  0.23616185  0.20125693  1
  Se  Se242  1  0.08154049  0.25098710  0.68702052  1
  Se  Se243  1  0.07962316  0.57425773  0.18638480  1
  Se  Se244  1  0.09357552  0.59200952  0.69624401  1
  Se  Se245  1  0.09196667  0.90852971  0.19597387  1
  Se  Se246  1  0.08133660  0.92198780  0.69264565  1
  Se  Se247  1  0.42679585  0.24589571  0.18845434  1
  Se  Se248  1  0.41163014  0.23572073  0.68787042  1
  Se  Se249  1  0.40803873  0.58486489  0.19647708  1
  Se  Se250  1  0.42889036  0.57050335  0.69691488  1
  Se  Se251  1  0.44181276  0.91306296  0.20455687  1
  Se  Se252  1  0.42495112  0.90565917  0.68237750  1
  Se  Se253  1  0.75245795  0.24954623  0.19659560  1
  Se  Se254  1  0.74047299  0.25028257  0.69718587  1
  Se  Se255  1  0.74741562  0.58171156  0.19618282  1
  Se  Se256  1  0.76014602  0.57746677  0.68808945  1
  Se  Se257  1  0.75545876  0.90819547  0.19493332  1
  Se  Se258  1  0.74898178  0.91868338  0.69494964  1
