# generated using pymatgen
data_In86Cu29Se144
_symmetry_space_group_name_H-M   'P 1'
_cell_length_a   17.57845851
_cell_length_b   17.57867218
_cell_length_c   23.43471984
_cell_angle_alpha   90.00247034
_cell_angle_beta   90.01319728
_cell_angle_gamma   89.98117322
_symmetry_Int_Tables_number   1
_chemical_formula_structural   In86Cu29Se144
_chemical_formula_sum   'In86 Cu29 Se144'
_cell_volume   7241.46750019
_cell_formula_units_Z   1
loop_
 _symmetry_equiv_pos_site_id
 _symmetry_equiv_pos_as_xyz
  1  'x, y, z'
loop_
 _atom_site_type_symbol
 _atom_site_label
 _atom_site_symmetry_multiplicity
 _atom_site_fract_x
 _atom_site_fract_y
 _atom_site_fract_z
 _atom_site_occupancy
  In  In0  1  -0.00968486  0.16876463  0.12508236  1
  In  In1  1  0.00453036  0.16563650  0.62639652  1
  In  In2  1  -0.00222053  0.48778374  0.12817015  1
  In  In3  1  -0.01558226  0.49458141  0.62018768  1
  In  In4  1  0.02030639  0.83523117  0.12505531  1
  In  In5  1  0.01781594  0.83987765  0.62124016  1
  In  In6  1  0.32745428  0.16496712  0.13676577  1
  In  In7  1  0.33472730  0.16038522  0.61623884  1
  In  In8  1  0.35071833  0.48812818  0.13302032  1
  In  In9  1  0.34660549  0.48951916  0.63155382  1
  In  In10  1  0.32037769  0.84336856  0.13721062  1
  In  In11  1  0.33275419  0.83474371  0.62333611  1
  In  In12  1  0.67627451  0.15711369  0.12374649  1
  In  In13  1  0.65940003  0.17395562  0.61468764  1
  In  In14  1  0.66708829  0.51297967  0.13100916  1
  In  In15  1  0.64749210  0.47092212  0.60311652  1
  In  In16  1  0.65135906  0.82800514  0.13054534  1
  In  In17  1  0.66622224  0.85173705  0.62434603  1
  In  In18  1  0.17112157  0.00639226  0.38234394  1
  In  In19  1  0.17015093  0.00127646  0.87088662  1
  In  In20  1  0.17070598  0.30935103  0.37417650  1
  In  In21  1  0.16841927  0.33707316  0.86110261  1
  In  In22  1  0.18645842  0.66996238  0.37236456  1
  In  In23  1  0.18621223  0.66914877  0.87575929  1
  In  In24  1  0.47303221  0.01899068  0.39925515  1
  In  In25  1  0.49828675  0.00026948  0.86201655  1
  In  In26  1  0.49585149  0.34210024  0.38619672  1
  In  In27  1  0.50361207  0.33469562  0.86899927  1
  In  In28  1  0.49638770  0.66677082  0.38131435  1
  In  In29  1  0.48163321  0.66932982  0.87456085  1
  In  In30  1  0.84445118  0.00240684  0.37442917  1
  In  In31  1  0.84360851  0.01566436  0.86491568  1
  In  In32  1  0.82830309  0.33605730  0.39245543  1
  In  In33  1  0.82392381  0.32237809  0.86488519  1
  In  In34  1  0.81637519  0.67071209  0.36648091  1
  In  In35  1  0.83339369  0.66082289  0.87482880  1
  In  In36  1  0.00817573  0.15464627  0.38873217  1
  In  In37  1  -0.00343002  0.16187749  0.86563659  1
  In  In38  1  -0.00471346  0.49246683  0.37647308  1
  In  In39  1  0.00738838  0.49760969  0.86907972  1
  In  In40  1  -0.00735537  0.86832150  0.37102178  1
  In  In41  1  0.00692792  0.85289677  0.87164204  1
  In  In42  1  0.32622927  0.16530335  0.37393157  1
  In  In43  1  0.33491208  0.16730819  0.86589580  1
  In  In44  1  0.34450270  0.50715287  0.36980704  1
  In  In45  1  0.33784841  0.50120551  0.86979857  1
  In  In46  1  0.33429794  0.83757686  0.38302126  1
  In  In47  1  0.33365311  0.83566111  0.87066320  1
  In  In48  1  0.66663511  0.17433018  0.39333500  1
  In  In49  1  0.67075376  0.17727478  0.86459880  1
  In  In50  1  0.65793820  0.49987037  0.38902447  1
  In  In51  1  0.66668546  0.48090795  0.87188099  1
  In  In52  1  0.65733094  0.82188366  0.37111091  1
  In  In53  1  0.65200492  0.83686662  0.86889111  1
  In  In54  1  0.18485662  -0.01246436  0.13798585  1
  In  In55  1  0.17123622  -0.00316225  0.62342380  1
  In  In56  1  0.17196034  0.33258053  0.12857004  1
  In  In57  1  0.18307707  0.31872808  0.63341752  1
  In  In58  1  0.16807850  0.68477672  0.12579651  1
  In  In59  1  0.17219236  0.68535390  0.61998054  1
  In  In60  1  0.49372084  -0.00898420  0.12920017  1
  In  In61  1  0.48923861  0.00580733  0.61275729  1
  In  In62  1  0.48315373  0.33751254  0.12388080  1
  In  In63  1  0.49755923  0.32783217  0.61818624  1
  In  In64  1  0.50707780  0.66074672  0.13550611  1
  In  In65  1  0.49557651  0.65410172  0.61989850  1
  In  In66  1  0.83462383  0.01714014  0.12410706  1
  In  In67  1  0.82510611  0.01493798  0.63170501  1
  In  In68  1  0.84236979  0.32634260  0.12597194  1
  In  In69  1  0.83065350  0.32996950  0.62146648  1
  In  In70  1  0.82568229  0.65681910  0.13576025  1
  In  In71  1  0.83414837  0.65199311  0.62196885  1
  In  In72  1  0.17445248  0.50450690  -0.00481740  1
  In  In73  1  0.83106469  0.83562398  0.49281504  1
  In  In74  1  0.83196779  0.83956403  0.00226298  1
  In  In75  1  0.66553688  -0.01188163  0.25647427  1
  In  In76  1  0.17042970  0.16503982  0.00188776  1
  In  In77  1  0.66203594  0.33673360  0.26620784  1
  In  In78  1  0.83473625  0.49461236  0.00824888  1
  In  In79  1  0.16709362  0.49736185  0.49895168  1
  In  In80  1  0.66425149  0.66693352  0.75093471  1
  In  In81  1  -0.00046451  0.33024889  0.25179991  1
  In  In82  1  0.49467064  0.83265395  0.00061562  1
  In  In83  1  0.00091480  0.67375671  0.24875531  1
  In  In84  1  0.00381465  0.66671847  0.74399351  1
  In  In85  1  0.49712388  0.16648860  0.00190232  1
  Cu  Cu86  1  0.17280291  0.83838301  0.74625931  1
  Cu  Cu87  1  0.00266834  0.67816946  0.00357462  1
  Cu  Cu88  1  0.50016194  0.49553943  0.74382992  1
  Cu  Cu89  1  0.49693225  0.16470401  0.73934252  1
  Cu  Cu90  1  0.17345460  0.49974910  0.24896118  1
  Cu  Cu91  1  0.50327849  0.50088237  0.25837766  1
  Cu  Cu92  1  -0.00191471  0.32706308  -0.00490584  1
  Cu  Cu93  1  0.33744114  0.66536583  0.49993565  1
  Cu  Cu94  1  0.49191819  0.15968985  0.25469363  1
  Cu  Cu95  1  0.67291749  0.00731614  -0.00636163  1
  Cu  Cu96  1  0.82525615  0.48701366  0.74166551  1
  Cu  Cu97  1  0.33154012  0.33104759  0.50134703  1
  Cu  Cu98  1  0.00739481  0.00662743  -0.00562424  1
  Cu  Cu99  1  0.16926570  0.16311929  0.74525292  1
  Cu  Cu100  1  0.83834784  0.84074888  0.74553046  1
  Cu  Cu101  1  0.16789957  0.83696364  0.25705492  1
  Cu  Cu102  1  0.00024218  0.00367580  0.50369003  1
  Cu  Cu103  1  0.66795750  0.66640004  0.49777743  1
  Cu  Cu104  1  0.65982917  0.00062416  0.50241519  1
  Cu  Cu105  1  0.83339690  0.16870194  0.74280188  1
  Cu  Cu106  1  0.83647511  0.16784220  0.25680681  1
  Cu  Cu107  1  0.66040103  0.65729537  0.00710999  1
  Cu  Cu108  1  0.16661540  0.50009198  0.74596090  1
  Cu  Cu109  1  0.49711911  0.84100946  0.74396751  1
  Cu  Cu110  1  -0.00111349  0.67287811  0.49444281  1
  Cu  Cu111  1  0.00255594  0.32702497  0.50367024  1
  Cu  Cu112  1  0.33514839  0.66849594  0.00329598  1
  Cu  Cu113  1  0.49145131  0.83168510  0.26009626  1
  Cu  Cu114  1  0.66185903  0.33114959  -0.00664850  1
  Se  Se115  1  0.08198440  0.07859745  0.06422031  1
  Se  Se116  1  0.08704711  0.08365335  0.55656071  1
  Se  Se117  1  0.07931905  0.40855884  0.05298407  1
  Se  Se118  1  0.08460884  0.40723837  0.56376742  1
  Se  Se119  1  0.09374612  0.75946160  0.04779713  1
  Se  Se120  1  0.08395652  0.75318202  0.54663968  1
  Se  Se121  1  0.40843953  0.07671619  0.06236016  1
  Se  Se122  1  0.39234425  0.06753009  0.53959846  1
  Se  Se123  1  0.41681800  0.42108160  0.04905194  1
  Se  Se124  1  0.41573964  0.41742825  0.55064306  1
  Se  Se125  1  0.41248772  0.74635767  0.06816078  1
  Se  Se126  1  0.41812083  0.74777425  0.55669777  1
  Se  Se127  1  0.75677814  0.08920055  0.04639941  1
  Se  Se128  1  0.74688281  0.08230232  0.55345338  1
  Se  Se129  1  0.73879851  0.40496074  0.06339749  1
  Se  Se130  1  0.77652740  0.44011944  0.55887837  1
  Se  Se131  1  0.74250832  0.74267608  0.06034326  1
  Se  Se132  1  0.74595615  0.74675403  0.56048874  1
  Se  Se133  1  0.26213681  0.25756042  0.05806713  1
  Se  Se134  1  0.24693324  0.24675100  0.55059387  1
  Se  Se135  1  0.25586799  0.58844569  0.06531952  1
  Se  Se136  1  0.25710786  0.58397362  0.56146318  1
  Se  Se137  1  0.25214128  0.91578197  0.05728311  1
  Se  Se138  1  0.22825358  0.89216824  0.55781875  1
  Se  Se139  1  0.59035133  0.25443080  0.06366300  1
  Se  Se140  1  0.59576846  0.27196423  0.54494920  1
  Se  Se141  1  0.57536738  0.57675175  0.05842635  1
  Se  Se142  1  0.58232508  0.58118044  0.54829062  1
  Se  Se143  1  0.59324299  0.92721180  0.05449110  1
  Se  Se144  1  0.57672431  0.91372838  0.55092230  1
  Se  Se145  1  0.91346130  0.24715670  0.04961316  1
  Se  Se146  1  0.91820782  0.24431004  0.55673014  1
  Se  Se147  1  0.92778287  0.59325704  0.06175949  1
  Se  Se148  1  0.92015845  0.58652638  0.54712764  1
  Se  Se149  1  0.92776254  0.92701612  0.05869605  1
  Se  Se150  1  0.91517771  0.92158634  0.56143932  1
  Se  Se151  1  0.08917097  0.24544287  0.45259178  1
  Se  Se152  1  0.08376681  0.25386778  0.93573838  1
  Se  Se153  1  0.08148463  0.59099707  0.43584868  1
  Se  Se154  1  0.07598706  0.59579114  0.93919703  1
  Se  Se155  1  0.08158584  0.92048416  0.44866367  1
  Se  Se156  1  0.09141277  0.92059064  0.94569077  1
  Se  Se157  1  0.41142005  0.24891224  0.44349862  1
  Se  Se158  1  0.41156781  0.25503959  0.93929330  1
  Se  Se159  1  0.41894891  0.57619190  0.45015532  1
  Se  Se160  1  0.41177753  0.58299633  0.94670224  1
  Se  Se161  1  0.43044568  0.89959485  0.45358286  1
  Se  Se162  1  0.41429549  0.92837427  0.94070846  1
  Se  Se163  1  0.76230205  0.24150361  0.45878563  1
  Se  Se164  1  0.74847139  0.24918166  0.94313375  1
  Se  Se165  1  0.75434501  0.58704622  0.44482058  1
  Se  Se166  1  0.74338062  0.58334629  0.94442006  1
  Se  Se167  1  0.73744560  0.92572303  0.43593273  1
  Se  Se168  1  0.74594409  0.92181440  0.93300926  1
  Se  Se169  1  0.26608615  0.07539748  0.45209054  1
  Se  Se170  1  0.26200933  0.07943231  0.94143530  1
  Se  Se171  1  0.25507130  0.41088924  0.43547088  1
  Se  Se172  1  0.25586561  0.40706213  0.93817046  1
  Se  Se173  1  0.25069765  0.74887057  0.45110458  1
  Se  Se174  1  0.25830623  0.75466983  0.94711595  1
  Se  Se175  1  0.57699157  0.09186419  0.45629441  1
  Se  Se176  1  0.58599543  0.08176953  0.93559393  1
  Se  Se177  1  0.60164645  0.39342546  0.45401599  1
  Se  Se178  1  0.57817508  0.41678614  0.94538503  1
  Se  Se179  1  0.58194861  0.75049984  0.44925492  1
  Se  Se180  1  0.58863322  0.73925450  0.94232960  1
  Se  Se181  1  0.90970986  0.08289038  0.45339728  1
  Se  Se182  1  0.92004375  0.08723870  0.94352329  1
  Se  Se183  1  0.92330455  0.41727737  0.45346557  1
  Se  Se184  1  0.91923770  0.41258369  0.93747695  1
  Se  Se185  1  0.92212399  0.75015972  0.43003947  1
  Se  Se186  1  0.92143885  0.74948929  0.93844193  1
  Se  Se187  1  0.25079102  0.24447265  0.29798996  1
  Se  Se188  1  0.25200923  0.24983176  0.79768082  1
  Se  Se189  1  0.25677023  0.58406235  0.30029626  1
  Se  Se190  1  0.24944582  0.58152228  0.80173553  1
  Se  Se191  1  0.25057209  0.91779977  0.31285739  1
  Se  Se192  1  0.25530133  0.92135842  0.80157543  1
  Se  Se193  1  0.57257583  0.23740440  0.31587759  1
  Se  Se194  1  0.57722486  0.24804494  0.79740246  1
  Se  Se195  1  0.58409735  0.58197629  0.31483367  1
  Se  Se196  1  0.57474936  0.57547325  0.81106187  1
  Se  Se197  1  0.56382021  0.92067127  0.31974020  1
  Se  Se198  1  0.58638459  0.92155771  0.79417138  1
  Se  Se199  1  0.91283584  0.24755222  0.31943859  1
  Se  Se200  1  0.91771733  0.25067594  0.79873523  1
  Se  Se201  1  0.91423902  0.57994558  0.30712824  1
  Se  Se202  1  0.90518838  0.57243512  0.80010391  1
  Se  Se203  1  0.89787269  0.91514277  0.29583707  1
  Se  Se204  1  0.92138163  0.92275360  0.79977639  1
  Se  Se205  1  0.07096684  0.06981395  0.31419606  1
  Se  Se206  1  0.08648137  0.08159380  0.80180080  1
  Se  Se207  1  0.09500866  0.42088305  0.31001542  1
  Se  Se208  1  0.07886021  0.41688280  0.79510764  1
  Se  Se209  1  0.08494202  0.75847118  0.31642165  1
  Se  Se210  1  0.09207034  0.75516335  0.80768192  1
  Se  Se211  1  0.41149069  0.07579010  0.30840873  1
  Se  Se212  1  0.41455164  0.08374984  0.79605874  1
  Se  Se213  1  0.42029419  0.41125853  0.30590356  1
  Se  Se214  1  0.41659504  0.41492721  0.80112173  1
  Se  Se215  1  0.40974222  0.74621409  0.31268378  1
  Se  Se216  1  0.41783736  0.75554003  0.79986412  1
  Se  Se217  1  0.74566897  0.09313663  0.31292150  1
  Se  Se218  1  0.74876328  0.08640198  0.79867982  1
  Se  Se219  1  0.75799797  0.42552815  0.31781221  1
  Se  Se220  1  0.74129090  0.40616975  0.79624852  1
  Se  Se221  1  0.75275248  0.76647582  0.29900824  1
  Se  Se222  1  0.76107293  0.75972810  0.80774780  1
  Se  Se223  1  0.24686032  0.08518576  0.20532548  1
  Se  Se224  1  0.25359907  0.08203195  0.69094141  1
  Se  Se225  1  0.25428612  0.41325847  0.19680988  1
  Se  Se226  1  0.25463064  0.41532652  0.69818307  1
  Se  Se227  1  0.24889547  0.74846018  0.20483223  1
  Se  Se228  1  0.25432186  0.74908969  0.69764213  1
  Se  Se229  1  0.57887268  0.08687625  0.19394521  1
  Se  Se230  1  0.57822809  0.08506693  0.68106066  1
  Se  Se231  1  0.57826444  0.41869939  0.19456313  1
  Se  Se232  1  0.58083661  0.41051722  0.69025395  1
  Se  Se233  1  0.57923545  0.75097676  0.20671774  1
  Se  Se234  1  0.57891933  0.75619563  0.68717473  1
  Se  Se235  1  0.91691331  0.08637798  0.20016352  1
  Se  Se236  1  0.92252960  0.08284275  0.69748881  1
  Se  Se237  1  0.90093575  0.42514582  0.19989331  1
  Se  Se238  1  0.91810505  0.40874805  0.69444842  1
  Se  Se239  1  0.91277793  0.76076767  0.18480921  1
  Se  Se240  1  0.91115420  0.75645496  0.68431243  1
  Se  Se241  1  0.08963070  0.24009973  0.19330586  1
  Se  Se242  1  0.08369161  0.25045002  0.69758462  1
  Se  Se243  1  0.09017552  0.57647911  0.18843217  1
  Se  Se244  1  0.09023498  0.57798502  0.68077790  1
  Se  Se245  1  0.08361624  0.91834970  0.20219221  1
  Se  Se246  1  0.08398392  0.92085244  0.69815888  1
  Se  Se247  1  0.41946414  0.24872897  0.19770286  1
  Se  Se248  1  0.41220939  0.24763866  0.68626157  1
  Se  Se249  1  0.41843402  0.58186402  0.20234089  1
  Se  Se250  1  0.41669118  0.58638959  0.69868990  1
  Se  Se251  1  0.41443440  0.91807734  0.20349767  1
  Se  Se252  1  0.41484692  0.92300632  0.68903748  1
  Se  Se253  1  0.75210187  0.24685180  0.19840429  1
  Se  Se254  1  0.74596287  0.24735453  0.68924408  1
  Se  Se255  1  0.74298337  0.58464678  0.20688028  1
  Se  Se256  1  0.74330645  0.57264722  0.68800826  1
  Se  Se257  1  0.75269247  0.91483007  0.18296248  1
  Se  Se258  1  0.74834483  0.92288670  0.69839371  1
