# generated using pymatgen
data_In86Cu29Se144
_symmetry_space_group_name_H-M   'P 1'
_cell_length_a   17.57392896
_cell_length_b   17.57626762
_cell_length_c   23.44218642
_cell_angle_alpha   89.99736825
_cell_angle_beta   90.01046338
_cell_angle_gamma   89.99996283
_symmetry_Int_Tables_number   1
_chemical_formula_structural   In86Cu29Se144
_chemical_formula_sum   'In86 Cu29 Se144'
_cell_volume   7240.91801964
_cell_formula_units_Z   1
loop_
 _symmetry_equiv_pos_site_id
 _symmetry_equiv_pos_as_xyz
  1  'x, y, z'
loop_
 _atom_site_type_symbol
 _atom_site_label
 _atom_site_symmetry_multiplicity
 _atom_site_fract_x
 _atom_site_fract_y
 _atom_site_fract_z
 _atom_site_occupancy
  In  In0  1  -0.00211105  0.16801839  0.12557203  1
  In  In1  1  0.00002513  0.17947189  0.62288319  1
  In  In2  1  -0.00814605  0.48834659  0.12249427  1
  In  In3  1  -0.00682093  0.48889307  0.61470990  1
  In  In4  1  -0.00285622  0.85963263  0.12808772  1
  In  In5  1  -0.00832451  0.83462319  0.62913813  1
  In  In6  1  0.33118063  0.17239409  0.12697499  1
  In  In7  1  0.34845069  0.15832547  0.62534621  1
  In  In8  1  0.32796385  0.51338221  0.13761651  1
  In  In9  1  0.33439921  0.49825811  0.62208697  1
  In  In10  1  0.31495773  0.83771632  0.14397879  1
  In  In11  1  0.33624005  0.81407441  0.62750744  1
  In  In12  1  0.65788983  0.16127580  0.12187146  1
  In  In13  1  0.65902362  0.16228297  0.61607605  1
  In  In14  1  0.66586112  0.48939301  0.12582509  1
  In  In15  1  0.67336116  0.50408179  0.61797529  1
  In  In16  1  0.67843405  0.83606739  0.12281951  1
  In  In17  1  0.65895422  0.84600333  0.63377709  1
  In  In18  1  0.17310824  0.00361404  0.35954268  1
  In  In19  1  0.17618046  0.00893823  0.88058924  1
  In  In20  1  0.17822023  0.34605747  0.36385749  1
  In  In21  1  0.18088369  0.32555009  0.88288558  1
  In  In22  1  0.16895496  0.65085351  0.37742765  1
  In  In23  1  0.16129000  0.65448403  0.87429261  1
  In  In24  1  0.50343594  0.00195951  0.37201460  1
  In  In25  1  0.51086624  -0.00215124  0.87493130  1
  In  In26  1  0.49004279  0.33806819  0.38667962  1
  In  In27  1  0.48587951  0.33456248  0.87405891  1
  In  In28  1  0.49592152  0.66716498  0.38326642  1
  In  In29  1  0.50030281  0.66790794  0.86181916  1
  In  In30  1  0.84293082  0.02329257  0.35560583  1
  In  In31  1  0.82870306  0.00256421  0.88179400  1
  In  In32  1  0.83944679  0.32191555  0.37892159  1
  In  In33  1  0.83915824  0.32960608  0.88337045  1
  In  In34  1  0.82227830  0.66523326  0.37604963  1
  In  In35  1  0.82666814  0.66973375  0.88350597  1
  In  In36  1  -0.00748036  0.16889513  0.36103113  1
  In  In37  1  0.00362953  0.16318901  0.88504254  1
  In  In38  1  0.00969519  0.49315496  0.37715749  1
  In  In39  1  0.00495400  0.49830961  0.88575733  1
  In  In40  1  -0.00584826  0.84378049  0.37061771  1
  In  In41  1  -0.00455765  0.82192218  0.88000128  1
  In  In42  1  0.33961927  0.17395629  0.36791896  1
  In  In43  1  0.32430854  0.18088510  0.88650660  1
  In  In44  1  0.33517449  0.49549301  0.37662801  1
  In  In45  1  0.32858047  0.49303731  0.86782450  1
  In  In46  1  0.34351723  0.84376017  0.36511017  1
  In  In47  1  0.34173931  0.83500110  0.87136933  1
  In  In48  1  0.67646206  0.16238006  0.38111412  1
  In  In49  1  0.67420402  0.15987643  0.88080458  1
  In  In50  1  0.66300382  0.49138857  0.39406542  1
  In  In51  1  0.66735070  0.51202718  0.87159028  1
  In  In52  1  0.65462762  0.83963026  0.37746019  1
  In  In53  1  0.68011015  0.84373304  0.85717816  1
  In  In54  1  0.15101397  0.01143480  0.13671286  1
  In  In55  1  0.17050269  -0.00127300  0.62703682  1
  In  In56  1  0.16606550  0.33531582  0.12468372  1
  In  In57  1  0.16349279  0.34394796  0.62597377  1
  In  In58  1  0.17909576  0.66978612  0.12470977  1
  In  In59  1  0.18303398  0.66190130  0.62910523  1
  In  In60  1  0.48698162  0.00877451  0.13363548  1
  In  In61  1  0.51540756  0.00815132  0.61557611  1
  In  In62  1  0.50464573  0.32388598  0.13069493  1
  In  In63  1  0.49349216  0.32065002  0.61225006  1
  In  In64  1  0.47900628  0.66277385  0.12815872  1
  In  In65  1  0.49951709  0.66561562  0.62143841  1
  In  In66  1  0.83183001  0.00761491  0.12308358  1
  In  In67  1  0.81655061  -0.00491584  0.62619230  1
  In  In68  1  0.83595127  0.33461980  0.12414686  1
  In  In69  1  0.81927803  0.32398793  0.60493449  1
  In  In70  1  0.82801235  0.66524750  0.11761390  1
  In  In71  1  0.83461696  0.65489400  0.62906176  1
  In  In72  1  0.00096174  0.00028081  0.76091280  1
  In  In73  1  0.17092658  0.82813181  0.50261199  1
  In  In74  1  0.66602962  0.32948539  0.25365969  1
  In  In75  1  0.00650336  0.67223100  0.24938982  1
  In  In76  1  0.65775811  0.66992474  0.26154648  1
  In  In77  1  0.33820186  0.00129882  0.75343952  1
  In  In78  1  0.82944122  0.83287615  0.50004749  1
  In  In79  1  0.50254165  0.83208313  -0.00344723  1
  In  In80  1  0.16998233  0.17006169  0.49121164  1
  In  In81  1  0.16234358  0.83391859  0.00470110  1
  In  In82  1  0.50172924  0.49700386  0.00011113  1
  In  In83  1  0.66212039  0.33378065  0.74006267  1
  In  In84  1  -0.00149595  0.66597938  0.75057503  1
  In  In85  1  0.00389360  0.33624838  0.74689009  1
  Cu  Cu86  1  0.17363031  0.50129338  0.74864727  1
  Cu  Cu87  1  0.83225639  0.49884875  0.24981073  1
  Cu  Cu88  1  0.66730836  0.66620168  -0.00283636  1
  Cu  Cu89  1  0.66851682  0.00013976  0.49610605  1
  Cu  Cu90  1  0.50217136  0.83334148  0.25133856  1
  Cu  Cu91  1  0.50368984  0.16655037  0.74587569  1
  Cu  Cu92  1  0.33324426  0.66398258  0.00126017  1
  Cu  Cu93  1  0.83285494  0.15748730  0.75332038  1
  Cu  Cu94  1  0.83564217  0.84857729  0.24457472  1
  Cu  Cu95  1  0.83115888  0.49860750  0.74825469  1
  Cu  Cu96  1  -0.00284978  0.33241496  0.49449541  1
  Cu  Cu97  1  0.00165631  0.33464037  0.00520087  1
  Cu  Cu98  1  -0.00761248  0.00493120  0.00572965  1
  Cu  Cu99  1  0.33116259  0.01347477  0.00827701  1
  Cu  Cu100  1  0.66475420  0.66577413  0.50183413  1
  Cu  Cu101  1  0.16311331  0.17028576  0.24493908  1
  Cu  Cu102  1  0.33436583  0.33561539  0.00423614  1
  Cu  Cu103  1  0.32787332  0.33299920  0.49537462  1
  Cu  Cu104  1  0.16698061  0.49487877  0.25116197  1
  Cu  Cu105  1  -0.00271194  0.66092798  0.00277615  1
  Cu  Cu106  1  0.66669055  0.00123097  -0.00097702  1
  Cu  Cu107  1  0.67153640  0.33084088  0.00266929  1
  Cu  Cu108  1  0.33565718  0.65933070  0.50109026  1
  Cu  Cu109  1  -0.00094248  0.00859177  0.48916352  1
  Cu  Cu110  1  0.49227273  0.50453172  0.74309287  1
  Cu  Cu111  1  0.34849162  -0.00350169  0.49659079  1
  Cu  Cu112  1  0.49679192  0.83087618  0.74533521  1
  Cu  Cu113  1  0.00142099  0.65975214  0.50202985  1
  Cu  Cu114  1  0.49624415  0.16586006  0.25210612  1
  Se  Se115  1  0.08304541  0.08442939  0.05529794  1
  Se  Se116  1  0.08114332  0.07917303  0.55567743  1
  Se  Se117  1  0.08657256  0.42069496  0.05383798  1
  Se  Se118  1  0.08379435  0.41197502  0.54838634  1
  Se  Se119  1  0.07135483  0.74502161  0.06561213  1
  Se  Se120  1  0.07516211  0.74235403  0.56374978  1
  Se  Se121  1  0.42053256  0.09289629  0.05762053  1
  Se  Se122  1  0.42568489  0.08675384  0.54864457  1
  Se  Se123  1  0.41364105  0.41508742  0.06575244  1
  Se  Se124  1  0.41229879  0.41389879  0.55116178  1
  Se  Se125  1  0.40305426  0.75543047  0.05952399  1
  Se  Se126  1  0.41759693  0.74906851  0.55000338  1
  Se  Se127  1  0.74777962  0.08677723  0.05237924  1
  Se  Se128  1  0.75197402  0.08145748  0.55198149  1
  Se  Se129  1  0.75141743  0.41811548  0.05481256  1
  Se  Se130  1  0.75992882  0.43104561  0.54754729  1
  Se  Se131  1  0.74955863  0.75225402  0.04917030  1
  Se  Se132  1  0.74422131  0.74515865  0.56391125  1
  Se  Se133  1  0.24849616  0.25147897  0.05515694  1
  Se  Se134  1  0.25478489  0.25125118  0.56136715  1
  Se  Se135  1  0.25280334  0.57999628  0.05522721  1
  Se  Se136  1  0.24706337  0.57926956  0.55225651  1
  Se  Se137  1  0.25200973  0.92530685  0.06311911  1
  Se  Se138  1  0.26436561  0.92281497  0.55873294  1
  Se  Se139  1  0.58173105  0.25246206  0.05353488  1
  Se  Se140  1  0.60189534  0.26481093  0.55035714  1
  Se  Se141  1  0.58637595  0.59316978  0.06190262  1
  Se  Se142  1  0.58037132  0.58099742  0.55269427  1
  Se  Se143  1  0.58359239  0.92427062  0.06091719  1
  Se  Se144  1  0.58851308  0.91279663  0.54995958  1
  Se  Se145  1  0.91569115  0.25025341  0.05447775  1
  Se  Se146  1  0.91765960  0.24427151  0.54648947  1
  Se  Se147  1  0.91241402  0.57781763  0.05535560  1
  Se  Se148  1  0.91184056  0.58120718  0.55286403  1
  Se  Se149  1  0.90816626  0.91634927  0.05189188  1
  Se  Se150  1  0.92479164  0.92778665  0.55486068  1
  Se  Se151  1  0.07999248  0.25741631  0.43109458  1
  Se  Se152  1  0.08412443  0.25407780  0.94773777  1
  Se  Se153  1  0.08551679  0.57749429  0.44969337  1
  Se  Se154  1  0.08843605  0.58255422  0.95310432  1
  Se  Se155  1  0.08577397  0.92421021  0.44023853  1
  Se  Se156  1  0.07384339  0.92627233  0.94229120  1
  Se  Se157  1  0.41124333  0.24195427  0.45003699  1
  Se  Se158  1  0.42077247  0.25328316  0.95229104  1
  Se  Se159  1  0.41876656  0.57490805  0.44846013  1
  Se  Se160  1  0.41536759  0.58986755  0.93850792  1
  Se  Se161  1  0.42614193  0.91107854  0.44170142  1
  Se  Se162  1  0.40617253  0.93026713  0.94573000  1
  Se  Se163  1  0.74656165  0.25575629  0.44816020  1
  Se  Se164  1  0.75362328  0.24657482  0.94845739  1
  Se  Se165  1  0.75194636  0.58473299  0.45051601  1
  Se  Se166  1  0.75016969  0.57598262  0.94950999  1
  Se  Se167  1  0.75432696  0.92684627  0.43417695  1
  Se  Se168  1  0.74244500  0.91242933  0.94378801  1
  Se  Se169  1  0.25980992  0.07177450  0.43890053  1
  Se  Se170  1  0.24507104  0.09268713  0.95427984  1
  Se  Se171  1  0.24404830  0.41881584  0.44635506  1
  Se  Se172  1  0.25524574  0.42157626  0.94783811  1
  Se  Se173  1  0.26001730  0.74399689  0.43888651  1
  Se  Se174  1  0.25492333  0.74776170  0.94071978  1
  Se  Se175  1  0.58267884  0.08326627  0.44454863  1
  Se  Se176  1  0.58098099  0.08410663  0.94729924  1
  Se  Se177  1  0.58227054  0.40452191  0.45779501  1
  Se  Se178  1  0.59274912  0.40863800  0.93773816  1
  Se  Se179  1  0.58500303  0.75079984  0.44772186  1
  Se  Se180  1  0.58964186  0.74419958  0.93444452  1
  Se  Se181  1  0.91585101  0.09082672  0.43772428  1
  Se  Se182  1  0.91085550  0.08732149  0.94915142  1
  Se  Se183  1  0.91541892  0.41913363  0.44243221  1
  Se  Se184  1  0.91695272  0.41728446  0.95034850  1
  Se  Se185  1  0.92601394  0.74323666  0.44100271  1
  Se  Se186  1  0.91451965  0.74761109  0.95236531  1
  Se  Se187  1  0.24924145  0.24879705  0.30045986  1
  Se  Se188  1  0.26294425  0.25933533  0.80628988  1
  Se  Se189  1  0.25110390  0.57724108  0.30461928  1
  Se  Se190  1  0.25212470  0.58786022  0.80289215  1
  Se  Se191  1  0.24737657  0.90898639  0.29824207  1
  Se  Se192  1  0.24062035  0.91214070  0.80936408  1
  Se  Se193  1  0.57391403  0.24495795  0.31545618  1
  Se  Se194  1  0.58097433  0.24714226  0.80972451  1
  Se  Se195  1  0.57874839  0.57010638  0.31820216  1
  Se  Se196  1  0.58191439  0.57960690  0.79725097  1
  Se  Se197  1  0.58646128  0.91935292  0.30047245  1
  Se  Se198  1  0.57870854  0.91759320  0.79795731  1
  Se  Se199  1  0.90742612  0.25369431  0.29681868  1
  Se  Se200  1  0.91500231  0.24136465  0.80781899  1
  Se  Se201  1  0.91201836  0.58277312  0.30841059  1
  Se  Se202  1  0.91339073  0.57193191  0.81160071  1
  Se  Se203  1  0.92490977  0.92649878  0.29652961  1
  Se  Se204  1  0.90832704  0.90632114  0.81268153  1
  Se  Se205  1  0.08149322  0.08434851  0.29794917  1
  Se  Se206  1  0.09595712  0.09672884  0.80898325  1
  Se  Se207  1  0.07672234  0.41319797  0.29894715  1
  Se  Se208  1  0.09198307  0.42317201  0.81057394  1
  Se  Se209  1  0.09256110  0.75554836  0.31566356  1
  Se  Se210  1  0.09108599  0.75725489  0.80824481  1
  Se  Se211  1  0.41292430  0.07829096  0.30320410  1
  Se  Se212  1  0.42416707  0.09393947  0.81351405  1
  Se  Se213  1  0.40669050  0.40122922  0.30987288  1
  Se  Se214  1  0.41682465  0.41707593  0.79885105  1
  Se  Se215  1  0.42409860  0.74645300  0.30599955  1
  Se  Se216  1  0.41087521  0.75016443  0.79785866  1
  Se  Se217  1  0.73485403  0.08384313  0.29852535  1
  Se  Se218  1  0.74769330  0.07773500  0.80614769  1
  Se  Se219  1  0.75117484  0.42519326  0.31365402  1
  Se  Se220  1  0.75492044  0.41360221  0.80860936  1
  Se  Se221  1  0.75919452  0.76681381  0.30709204  1
  Se  Se222  1  0.74050808  0.72907073  0.80694703  1
  Se  Se223  1  0.25134572  0.08588983  0.19611388  1
  Se  Se224  1  0.24597228  0.09176155  0.69397695  1
  Se  Se225  1  0.25107973  0.41382277  0.19614951  1
  Se  Se226  1  0.25327255  0.41571766  0.69471928  1
  Se  Se227  1  0.26128710  0.72743509  0.20368645  1
  Se  Se228  1  0.24018840  0.75871667  0.69821522  1
  Se  Se229  1  0.58119227  0.08494639  0.19805937  1
  Se  Se230  1  0.58826827  0.08370313  0.69418338  1
  Se  Se231  1  0.57338425  0.42563838  0.19890359  1
  Se  Se232  1  0.57174965  0.42359899  0.68202802  1
  Se  Se233  1  0.57813332  0.75404260  0.18694341  1
  Se  Se234  1  0.58112308  0.74767462  0.69289058  1
  Se  Se235  1  0.93264151  0.06725845  0.19028471  1
  Se  Se236  1  0.91702263  0.08558419  0.68965780  1
  Se  Se237  1  0.91426801  0.41404591  0.19867006  1
  Se  Se238  1  0.90200707  0.41254572  0.68671566  1
  Se  Se239  1  0.90875678  0.75580270  0.18882692  1
  Se  Se240  1  0.90178265  0.75787723  0.69767830  1
  Se  Se241  1  0.07991052  0.25486150  0.19299554  1
  Se  Se242  1  0.09708798  0.24075403  0.69491438  1
  Se  Se243  1  0.08759930  0.57560374  0.18845391  1
  Se  Se244  1  0.08254086  0.57072194  0.68826689  1
  Se  Se245  1  0.10729727  0.89279205  0.19378817  1
  Se  Se246  1  0.08846336  0.91026355  0.69419838  1
  Se  Se247  1  0.41483361  0.25182260  0.19955274  1
  Se  Se248  1  0.42034382  0.25024676  0.69378599  1
  Se  Se249  1  0.42660511  0.57616087  0.20518627  1
  Se  Se250  1  0.40953632  0.58917428  0.69069590  1
  Se  Se251  1  0.41457154  0.91587605  0.20046735  1
  Se  Se252  1  0.42283497  0.91768094  0.68426598  1
  Se  Se253  1  0.75178358  0.24270116  0.18969365  1
  Se  Se254  1  0.75893614  0.24008279  0.68957239  1
  Se  Se255  1  0.74899989  0.58203086  0.19553059  1
  Se  Se256  1  0.74507307  0.58080473  0.69790898  1
  Se  Se257  1  0.74576366  0.92578003  0.19365463  1
  Se  Se258  1  0.75349512  0.91316243  0.70192364  1
