# generated using pymatgen
data_In86Cu29Se144
_symmetry_space_group_name_H-M   'P 1'
_cell_length_a   17.57926500
_cell_length_b   17.58397817
_cell_length_c   23.43930540
_cell_angle_alpha   90.00544279
_cell_angle_beta   89.99811014
_cell_angle_gamma   90.02378882
_symmetry_Int_Tables_number   1
_chemical_formula_structural   In86Cu29Se144
_chemical_formula_sum   'In86 Cu29 Se144'
_cell_volume   7245.40300273
_cell_formula_units_Z   1
loop_
 _symmetry_equiv_pos_site_id
 _symmetry_equiv_pos_as_xyz
  1  'x, y, z'
loop_
 _atom_site_type_symbol
 _atom_site_label
 _atom_site_symmetry_multiplicity
 _atom_site_fract_x
 _atom_site_fract_y
 _atom_site_fract_z
 _atom_site_occupancy
  In  In0  1  0.01169206  0.14898565  0.11997613  1
  In  In1  1  0.00017503  0.15538034  0.62476019  1
  In  In2  1  0.01108832  0.51153362  0.11891336  1
  In  In3  1  0.00731906  0.50681259  0.61891083  1
  In  In4  1  0.00281461  0.83168604  0.13136422  1
  In  In5  1  -0.00163137  0.83147976  0.62946550  1
  In  In6  1  0.33035825  0.16680579  0.12763260  1
  In  In7  1  0.33891212  0.17350267  0.61974216  1
  In  In8  1  0.32918870  0.49097069  0.12664979  1
  In  In9  1  0.32239490  0.50122409  0.62492525  1
  In  In10  1  0.35307560  0.82641776  0.13893412  1
  In  In11  1  0.34139057  0.82248396  0.61524639  1
  In  In12  1  0.65061224  0.16909828  0.12339079  1
  In  In13  1  0.65090104  0.16656275  0.62514363  1
  In  In14  1  0.67308493  0.51218389  0.12032184  1
  In  In15  1  0.67562152  0.48539990  0.61903391  1
  In  In16  1  0.64531239  0.84422877  0.14455257  1
  In  In17  1  0.66152035  0.84456479  0.62473242  1
  In  In18  1  0.17798110  0.00737382  0.36863096  1
  In  In19  1  0.16504182  0.01150251  0.87879145  1
  In  In20  1  0.17192004  0.33259122  0.38101911  1
  In  In21  1  0.18062309  0.32195859  0.88030804  1
  In  In22  1  0.16102893  0.65537170  0.35946842  1
  In  In23  1  0.15267780  0.66837499  0.87680633  1
  In  In24  1  0.49914392  0.00225328  0.37180547  1
  In  In25  1  0.50565862  -0.00405286  0.88450785  1
  In  In26  1  0.48385288  0.33962063  0.37335136  1
  In  In27  1  0.48208458  0.34316358  0.87862575  1
  In  In28  1  0.50218130  0.67179393  0.35805163  1
  In  In29  1  0.49979072  0.66532705  0.88669801  1
  In  In30  1  0.82631185  -0.00749746  0.36660035  1
  In  In31  1  0.83422311  0.00233165  0.86885374  1
  In  In32  1  0.84803703  0.33696272  0.38081207  1
  In  In33  1  0.84176208  0.34307818  0.87733991  1
  In  In34  1  0.83308691  0.66588029  0.37226262  1
  In  In35  1  0.83822787  0.65602952  0.87735411  1
  In  In36  1  0.01472334  0.16953028  0.37743730  1
  In  In37  1  0.01721597  0.15786704  0.87724835  1
  In  In38  1  0.00560638  0.51240417  0.38383068  1
  In  In39  1  -0.00483432  0.50775612  0.88194613  1
  In  In40  1  -0.00344777  0.82868184  0.36922937  1
  In  In41  1  0.00184082  0.83168989  0.86799444  1
  In  In42  1  0.33133607  0.16951416  0.37605157  1
  In  In43  1  0.32008920  0.17870567  0.88204771  1
  In  In44  1  0.32133191  0.49178454  0.35549051  1
  In  In45  1  0.34286358  0.48596800  0.88195775  1
  In  In46  1  0.34755111  0.84081171  0.35913425  1
  In  In47  1  0.34053482  0.84271576  0.88441935  1
  In  In48  1  0.66786477  0.15057058  0.37487702  1
  In  In49  1  0.66574711  0.15208588  0.87550851  1
  In  In50  1  0.66505060  0.51030403  0.37419058  1
  In  In51  1  0.66030456  0.50635170  0.88320335  1
  In  In52  1  0.64934646  0.82737274  0.36052767  1
  In  In53  1  0.65355947  0.83907237  0.88136431  1
  In  In54  1  0.16294160  0.00851051  0.12798651  1
  In  In55  1  0.15525594  0.00061817  0.62330827  1
  In  In56  1  0.17857317  0.34482677  0.12278052  1
  In  In57  1  0.17387325  0.33710244  0.62273330  1
  In  In58  1  0.18335453  0.64038439  0.14562014  1
  In  In59  1  0.16595012  0.65384162  0.61916051  1
  In  In60  1  0.49510908  0.00101616  0.13164579  1
  In  In61  1  0.49851677  0.00678197  0.62086971  1
  In  In62  1  0.48577526  0.32165362  0.11855911  1
  In  In63  1  0.50606428  0.31919708  0.62637236  1
  In  In64  1  0.50145205  0.66726966  0.12663146  1
  In  In65  1  0.48689586  0.67015081  0.61703392  1
  In  In66  1  0.84044598  -0.00810721  0.13010804  1
  In  In67  1  0.83184362  -0.00628018  0.63120722  1
  In  In68  1  0.82403646  0.34090468  0.11927445  1
  In  In69  1  0.82336094  0.34959774  0.61916276  1
  In  In70  1  0.83710478  0.66231639  0.13260321  1
  In  In71  1  0.84315760  0.66300101  0.62174976  1
  In  In72  1  0.66101036  0.33249742  0.24868391  1
  In  In73  1  0.66243089  0.32993178  0.74682348  1
  In  In74  1  0.00488052  0.32742591  0.75378741  1
  In  In75  1  0.00510197  0.33425777  0.25221253  1
  In  In76  1  0.83397155  0.17247295  -0.00620212  1
  In  In77  1  0.17298068  0.83328867  0.00682286  1
  In  In78  1  0.17210664  0.83121422  0.49675489  1
  In  In79  1  0.66413551  0.66873389  0.76118845  1
  In  In80  1  0.32879177  0.66240987  0.74892992  1
  In  In81  1  0.83265844  0.83024550  0.01346300  1
  In  In82  1  0.49940983  0.50208736  0.49457263  1
  In  In83  1  0.83045935  0.82800234  0.48910037  1
  In  In84  1  0.83111595  0.17146243  0.50393511  1
  In  In85  1  0.32838897  0.00336718  0.75300825  1
  Cu  Cu86  1  0.33652571  0.00626759  0.49151330  1
  Cu  Cu87  1  0.16271840  0.49805056  0.74850723  1
  Cu  Cu88  1  0.33148477  0.66068772  0.01199376  1
  Cu  Cu89  1  0.49328703  0.16351080  0.24890601  1
  Cu  Cu90  1  0.65117495  -0.00149426  0.49961439  1
  Cu  Cu91  1  0.00112939  0.33803894  -0.00154635  1
  Cu  Cu92  1  0.83390802  0.16025248  0.74934361  1
  Cu  Cu93  1  0.49671473  0.49858318  0.24356874  1
  Cu  Cu94  1  0.00932162  0.34149816  0.50126102  1
  Cu  Cu95  1  0.15912045  0.83290348  0.74852208  1
  Cu  Cu96  1  0.83504424  0.15605261  0.24629163  1
  Cu  Cu97  1  0.33213254  0.33154132  0.00280309  1
  Cu  Cu98  1  0.65882247  0.34148200  0.00273750  1
  Cu  Cu99  1  0.83859661  0.50169359  0.25180957  1
  Cu  Cu100  1  0.83347473  0.83382368  0.74828615  1
  Cu  Cu101  1  0.66409638  0.66934719  0.00439440  1
  Cu  Cu102  1  0.33238540  0.33443177  0.49731469  1
  Cu  Cu103  1  0.33647422  0.66956480  0.48750946  1
  Cu  Cu104  1  0.49659078  0.16185459  0.74980397  1
  Cu  Cu105  1  0.00389679  0.66555046  0.00709635  1
  Cu  Cu106  1  0.83681496  0.50531793  0.75118189  1
  Cu  Cu107  1  0.66598430  0.66988170  0.49052436  1
  Cu  Cu108  1  -0.00029291  0.00272833  0.49733321  1
  Cu  Cu109  1  0.16486742  0.83901263  0.25013921  1
  Cu  Cu110  1  0.34189597  0.00125140  0.00700353  1
  Cu  Cu111  1  0.66554091  0.00089056  0.00756639  1
  Cu  Cu112  1  0.50185613  0.83816762  0.75455162  1
  Cu  Cu113  1  0.16916725  0.16503957  0.25212935  1
  Cu  Cu114  1  0.83349638  0.83200205  0.25094982  1
  Se  Se115  1  0.09663931  0.08297638  0.04637581  1
  Se  Se116  1  0.08370957  0.08532892  0.54916740  1
  Se  Se117  1  0.08518281  0.41757411  0.05454326  1
  Se  Se118  1  0.09420941  0.42343372  0.55465227  1
  Se  Se119  1  0.08806364  0.73996347  0.06718811  1
  Se  Se120  1  0.07733101  0.74550343  0.55648558  1
  Se  Se121  1  0.42118552  0.08849212  0.06019781  1
  Se  Se122  1  0.41773632  0.08733315  0.55082307  1
  Se  Se123  1  0.41565353  0.41827648  0.05309404  1
  Se  Se124  1  0.41372658  0.41266046  0.55972394  1
  Se  Se125  1  0.41649366  0.74954773  0.05672206  1
  Se  Se126  1  0.42205078  0.75239626  0.53924473  1
  Se  Se127  1  0.75138427  0.08231535  0.06215200  1
  Se  Se128  1  0.74178232  0.07173734  0.55842158  1
  Se  Se129  1  0.74864236  0.42396925  0.04875423  1
  Se  Se130  1  0.74763767  0.41553104  0.54014817  1
  Se  Se131  1  0.73712931  0.74731130  0.07088948  1
  Se  Se132  1  0.74123131  0.74599388  0.55898095  1
  Se  Se133  1  0.24814697  0.24844621  0.05636376  1
  Se  Se134  1  0.24999031  0.25094508  0.55186203  1
  Se  Se135  1  0.24395695  0.57620517  0.05748357  1
  Se  Se136  1  0.25973033  0.58900335  0.54882618  1
  Se  Se137  1  0.26385234  0.91929403  0.06834513  1
  Se  Se138  1  0.26030810  0.92658522  0.55766544  1
  Se  Se139  1  0.57889880  0.25007702  0.04948895  1
  Se  Se140  1  0.59452197  0.25877509  0.55246094  1
  Se  Se141  1  0.57869327  0.58242996  0.05314012  1
  Se  Se142  1  0.59141390  0.59016750  0.55809059  1
  Se  Se143  1  0.58186209  0.91882712  0.06159649  1
  Se  Se144  1  0.57205597  0.91204109  0.55351949  1
  Se  Se145  1  0.92435999  0.25588795  0.06070962  1
  Se  Se146  1  0.92633156  0.26245949  0.56209059  1
  Se  Se147  1  0.91214669  0.58494120  0.05576074  1
  Se  Se148  1  0.90548406  0.56853525  0.55415804  1
  Se  Se149  1  0.93322450  0.92470790  0.05571300  1
  Se  Se150  1  0.91881711  0.91930312  0.55386334  1
  Se  Se151  1  0.08727582  0.25133996  0.45053088  1
  Se  Se152  1  0.08223144  0.25200196  0.94627994  1
  Se  Se153  1  0.10194723  0.58782252  0.44603586  1
  Se  Se154  1  0.08552984  0.58272797  0.95126629  1
  Se  Se155  1  0.07935600  0.92155458  0.43778039  1
  Se  Se156  1  0.08133485  0.91502950  0.94203503  1
  Se  Se157  1  0.41709439  0.25099131  0.44608547  1
  Se  Se158  1  0.41637141  0.24822877  0.94850419  1
  Se  Se159  1  0.41338559  0.58516977  0.42785630  1
  Se  Se160  1  0.41198412  0.58231454  0.94957176  1
  Se  Se161  1  0.41511731  0.91754999  0.44055140  1
  Se  Se162  1  0.42456910  0.91460229  0.95612091  1
  Se  Se163  1  0.74524490  0.25421219  0.43667588  1
  Se  Se164  1  0.73776224  0.26329470  0.93734570  1
  Se  Se165  1  0.75222655  0.58470938  0.44408945  1
  Se  Se166  1  0.74784250  0.58844241  0.94841249  1
  Se  Se167  1  0.73361628  0.92030359  0.43902951  1
  Se  Se168  1  0.74866859  0.92336245  0.94716839  1
  Se  Se169  1  0.24538734  0.08818069  0.44627195  1
  Se  Se170  1  0.25656885  0.07797640  0.94957612  1
  Se  Se171  1  0.25740814  0.42386384  0.44239531  1
  Se  Se172  1  0.24790970  0.41627592  0.94965528  1
  Se  Se173  1  0.25807784  0.75155717  0.42827516  1
  Se  Se174  1  0.25908401  0.73940684  0.94266299  1
  Se  Se175  1  0.57548279  0.08746823  0.44645132  1
  Se  Se176  1  0.58440734  0.08503762  0.95267776  1
  Se  Se177  1  0.58905037  0.40957419  0.43675591  1
  Se  Se178  1  0.57482151  0.41990098  0.94532059  1
  Se  Se179  1  0.57875512  0.74678010  0.43711216  1
  Se  Se180  1  0.58053091  0.75378967  0.95211428  1
  Se  Se181  1  0.91421586  0.07901466  0.43844235  1
  Se  Se182  1  0.92319722  0.07371538  0.94337993  1
  Se  Se183  1  0.92362172  0.42229265  0.44892974  1
  Se  Se184  1  0.91369069  0.42320651  0.95163010  1
  Se  Se185  1  0.93095490  0.73641716  0.44466809  1
  Se  Se186  1  0.92394745  0.74616233  0.94629363  1
  Se  Se187  1  0.24736156  0.25209561  0.30661426  1
  Se  Se188  1  0.24564520  0.24385544  0.80159354  1
  Se  Se189  1  0.26549673  0.59992457  0.29453369  1
  Se  Se190  1  0.24166561  0.57682787  0.81300974  1
  Se  Se191  1  0.25263346  0.92211242  0.29865068  1
  Se  Se192  1  0.24222388  0.90481021  0.81155717  1
  Se  Se193  1  0.57485158  0.24263403  0.31097631  1
  Se  Se194  1  0.57641990  0.24312836  0.81194745  1
  Se  Se195  1  0.58417591  0.57649033  0.29752900  1
  Se  Se196  1  0.56739617  0.57506608  0.80888619  1
  Se  Se197  1  0.58773033  0.93173080  0.29996785  1
  Se  Se198  1  0.58416731  0.92242818  0.80624312  1
  Se  Se199  1  0.91062987  0.23841426  0.30778528  1
  Se  Se200  1  0.90881784  0.23870588  0.81293142  1
  Se  Se201  1  0.92095371  0.58194234  0.30787338  1
  Se  Se202  1  0.92269851  0.58611077  0.80335040  1
  Se  Se203  1  0.91900960  0.91719625  0.30193075  1
  Se  Se204  1  0.91713499  0.91659107  0.80317323  1
  Se  Se205  1  0.08174617  0.08328985  0.30392919  1
  Se  Se206  1  0.08490255  0.07743082  0.80181787  1
  Se  Se207  1  0.08995968  0.42440213  0.31270859  1
  Se  Se208  1  0.08770678  0.42115692  0.81550208  1
  Se  Se209  1  0.08144317  0.75162897  0.29955240  1
  Se  Se210  1  0.07919825  0.74399161  0.79946413  1
  Se  Se211  1  0.40986338  0.08444849  0.30585892  1
  Se  Se212  1  0.41995819  0.08646023  0.81621591  1
  Se  Se213  1  0.41438816  0.41070888  0.29295578  1
  Se  Se214  1  0.40894081  0.41419330  0.80034615  1
  Se  Se215  1  0.42306207  0.75522374  0.28923083  1
  Se  Se216  1  0.41975203  0.75526308  0.81064399  1
  Se  Se217  1  0.74641433  0.07870167  0.29856112  1
  Se  Se218  1  0.74589510  0.07935260  0.80052143  1
  Se  Se219  1  0.75891209  0.41697532  0.30882905  1
  Se  Se220  1  0.75248169  0.42501223  0.80799724  1
  Se  Se221  1  0.75033217  0.74848113  0.30429293  1
  Se  Se222  1  0.75787795  0.76109207  0.81743663  1
  Se  Se223  1  0.25220195  0.08122884  0.19833369  1
  Se  Se224  1  0.24558801  0.08854956  0.68676660  1
  Se  Se225  1  0.24357349  0.42133792  0.20133927  1
  Se  Se226  1  0.24979399  0.41691554  0.69807360  1
  Se  Se227  1  0.24624654  0.75595164  0.19545431  1
  Se  Se228  1  0.24213763  0.75742722  0.68699416  1
  Se  Se229  1  0.58400252  0.08575661  0.19824235  1
  Se  Se230  1  0.58031383  0.07888293  0.69700747  1
  Se  Se231  1  0.57822103  0.41877545  0.18230016  1
  Se  Se232  1  0.57576899  0.42634274  0.69054549  1
  Se  Se233  1  0.58867005  0.73382570  0.20161955  1
  Se  Se234  1  0.57424340  0.75186055  0.69276532  1
  Se  Se235  1  0.92453320  0.08056278  0.19338351  1
  Se  Se236  1  0.91748006  0.07821582  0.69570885  1
  Se  Se237  1  0.91250534  0.41948725  0.18947429  1
  Se  Se238  1  0.91415822  0.41905409  0.69373333  1
  Se  Se239  1  0.91840251  0.74934050  0.19852414  1
  Se  Se240  1  0.91332037  0.74773938  0.69555008  1
  Se  Se241  1  0.09011783  0.24376035  0.18901634  1
  Se  Se242  1  0.09046505  0.24240109  0.68919972  1
  Se  Se243  1  0.06883210  0.58708603  0.20178803  1
  Se  Se244  1  0.08332425  0.58417851  0.69536831  1
  Se  Se245  1  0.08196727  0.92233318  0.19594691  1
  Se  Se246  1  0.07906057  0.91867730  0.69546389  1
  Se  Se247  1  0.41198297  0.25160328  0.19830491  1
  Se  Se248  1  0.41722682  0.24811703  0.69695525  1
  Se  Se249  1  0.41334191  0.58126939  0.19060663  1
  Se  Se250  1  0.42406246  0.57663097  0.69059743  1
  Se  Se251  1  0.42882855  0.91390550  0.20689617  1
  Se  Se252  1  0.41613044  0.90899434  0.69181998  1
  Se  Se253  1  0.75682672  0.24223418  0.19000012  1
  Se  Se254  1  0.75934704  0.24314292  0.68763637  1
  Se  Se255  1  0.74962297  0.58077270  0.20005221  1
  Se  Se256  1  0.74882660  0.58018332  0.69309420  1
  Se  Se257  1  0.75193094  0.91809652  0.19890215  1
  Se  Se258  1  0.74464524  0.91487384  0.69902304  1
