# generated using pymatgen
data_In86Cu29Se144
_symmetry_space_group_name_H-M   'P 1'
_cell_length_a   17.57756248
_cell_length_b   17.57729793
_cell_length_c   23.44591949
_cell_angle_alpha   89.98774542
_cell_angle_beta   90.00037355
_cell_angle_gamma   89.98897037
_symmetry_Int_Tables_number   1
_chemical_formula_structural   In86Cu29Se144
_chemical_formula_sum   'In86 Cu29 Se144'
_cell_volume   7243.99289487
_cell_formula_units_Z   1
loop_
 _symmetry_equiv_pos_site_id
 _symmetry_equiv_pos_as_xyz
  1  'x, y, z'
loop_
 _atom_site_type_symbol
 _atom_site_label
 _atom_site_symmetry_multiplicity
 _atom_site_fract_x
 _atom_site_fract_y
 _atom_site_fract_z
 _atom_site_occupancy
  In  In0  1  0.00184286  0.15163290  0.12712317  1
  In  In1  1  -0.00303270  0.15331233  0.62627042  1
  In  In2  1  0.01791966  0.49979222  0.12631947  1
  In  In3  1  0.01176248  0.50975346  0.60000983  1
  In  In4  1  0.00306048  0.83301199  0.12549461  1
  In  In5  1  0.00777224  0.84089834  0.62365570  1
  In  In6  1  0.33297126  0.16268572  0.12166487  1
  In  In7  1  0.33788297  0.16005023  0.63718054  1
  In  In8  1  0.32184991  0.50761500  0.13180564  1
  In  In9  1  0.32360071  0.51883742  0.63827855  1
  In  In10  1  0.33273286  0.83513671  0.12475910  1
  In  In11  1  0.33021639  0.82581491  0.62877794  1
  In  In12  1  0.66740847  0.17593740  0.12831742  1
  In  In13  1  0.65757687  0.16144702  0.62589418  1
  In  In14  1  0.66813456  0.49831080  0.13783256  1
  In  In15  1  0.66996199  0.49553632  0.61621719  1
  In  In16  1  0.65824701  0.82632341  0.11968293  1
  In  In17  1  0.67075818  0.84781621  0.61178426  1
  In  In18  1  0.16850032  0.00089362  0.36377255  1
  In  In19  1  0.17047767  -0.00258712  0.87571658  1
  In  In20  1  0.17406277  0.33798328  0.37341593  1
  In  In21  1  0.18169501  0.32156524  0.88693514  1
  In  In22  1  0.15733303  0.65945500  0.36908674  1
  In  In23  1  0.17801678  0.66271483  0.88302534  1
  In  In24  1  0.49230082  -0.00434364  0.38111633  1
  In  In25  1  0.49718948  0.00018166  0.87669617  1
  In  In26  1  0.49398157  0.33227308  0.36432795  1
  In  In27  1  0.48151528  0.33275000  0.87540862  1
  In  In28  1  0.50754424  0.67784356  0.36650536  1
  In  In29  1  0.49847504  0.68076151  0.87549657  1
  In  In30  1  0.83126199  -0.01715326  0.37509582  1
  In  In31  1  0.81915175  -0.00839654  0.86916759  1
  In  In32  1  0.83956094  0.35043659  0.37358986  1
  In  In33  1  0.82493660  0.33279305  0.87443910  1
  In  In34  1  0.83385727  0.67420409  0.37705741  1
  In  In35  1  0.84852472  0.67420430  0.87584069  1
  In  In36  1  0.01077780  0.16753672  0.36684517  1
  In  In37  1  0.01557547  0.16285532  0.88144705  1
  In  In38  1  -0.01853684  0.52486726  0.39730672  1
  In  In39  1  0.01166810  0.51491891  0.87395012  1
  In  In40  1  -0.00873343  0.82255939  0.36836305  1
  In  In41  1  -0.00506605  0.84163618  0.88146061  1
  In  In42  1  0.32887143  0.16318274  0.36540823  1
  In  In43  1  0.33320500  0.16298026  0.87769425  1
  In  In44  1  0.32462613  0.49790028  0.36948773  1
  In  In45  1  0.32988699  0.48869827  0.86548286  1
  In  In46  1  0.34329912  0.84225755  0.36820449  1
  In  In47  1  0.33095512  0.83861682  0.87599198  1
  In  In48  1  0.65365928  0.16224779  0.37015921  1
  In  In49  1  0.66935958  0.14953935  0.87527176  1
  In  In50  1  0.67165042  0.51448442  0.36535162  1
  In  In51  1  0.66443474  0.50092361  0.87328915  1
  In  In52  1  0.68049412  0.83183898  0.38531605  1
  In  In53  1  0.65042413  0.84288322  0.88596444  1
  In  In54  1  0.16868432  -0.00233600  0.12246780  1
  In  In55  1  0.17004152  -0.01819883  0.64369181  1
  In  In56  1  0.17748925  0.34263274  0.11847478  1
  In  In57  1  0.17186127  0.34533587  0.62473761  1
  In  In58  1  0.16771464  0.67033329  0.12600358  1
  In  In59  1  0.17551835  0.66827626  0.62042320  1
  In  In60  1  0.48645362  -0.01264272  0.11541849  1
  In  In61  1  0.50147449  -0.00866500  0.62762078  1
  In  In62  1  0.50501636  0.32363689  0.12968924  1
  In  In63  1  0.49525360  0.32651033  0.62733823  1
  In  In64  1  0.49224007  0.67224996  0.13077433  1
  In  In65  1  0.48043922  0.67584371  0.62636882  1
  In  In66  1  0.85106686  -0.00310406  0.13119195  1
  In  In67  1  0.83875389  -0.00993308  0.62891911  1
  In  In68  1  0.82544746  0.32101023  0.13589543  1
  In  In69  1  0.83425396  0.33819868  0.61359264  1
  In  In70  1  0.82649810  0.67461758  0.13433128  1
  In  In71  1  0.84058713  0.67032452  0.60952307  1
  In  In72  1  0.49716164  0.50316224  0.50005055  1
  In  In73  1  0.83663853  0.15907613  0.01212244  1
  In  In74  1  0.83508862  0.16546153  0.50112409  1
  In  In75  1  0.00970295  0.67480505  0.74504915  1
  In  In76  1  0.66637041  0.00142303  0.25143432  1
  In  In77  1  0.00314315  0.33926741  0.25333964  1
  In  In78  1  0.49522645  0.50222006  0.00179619  1
  In  In79  1  0.16876520  0.16255957  0.49399510  1
  In  In80  1  0.49971169  0.15916397  0.50263956  1
  In  In81  1  0.00167256  0.32873635  0.74600956  1
  In  In82  1  0.16335445  0.82770754  0.50229189  1
  In  In83  1  0.83961109  0.50198126  0.00273607  1
  In  In84  1  0.65886154  0.67208039  0.75096781  1
  In  In85  1  0.66191548  0.32912720  0.73695635  1
  Cu  Cu86  1  0.16801640  0.83446744  0.24637807  1
  Cu  Cu87  1  0.49464825  0.83953784  0.75357522  1
  Cu  Cu88  1  0.00055533  -0.00429492  0.50039228  1
  Cu  Cu89  1  0.82456194  0.83726828  0.75062189  1
  Cu  Cu90  1  0.32907747  0.66772489  0.49910453  1
  Cu  Cu91  1  0.67093226  0.67123623  0.00545716  1
  Cu  Cu92  1  0.16431552  0.50769614  0.25128249  1
  Cu  Cu93  1  0.49262808  0.49626816  0.24907041  1
  Cu  Cu94  1  0.33174449  0.33104975  0.00036979  1
  Cu  Cu95  1  0.83533320  0.82994106  0.25311826  1
  Cu  Cu96  1  0.33377882  0.67257131  0.00490522  1
  Cu  Cu97  1  0.67245554  0.34143308  0.49117961  1
  Cu  Cu98  1  0.83483019  0.50029383  0.73694772  1
  Cu  Cu99  1  0.66405092  -0.00598404  -0.00215124  1
  Cu  Cu100  1  0.16955596  0.49347781  0.75211166  1
  Cu  Cu101  1  0.33233259  0.33363998  0.49920540  1
  Cu  Cu102  1  0.66586876  0.67044877  0.49258742  1
  Cu  Cu103  1  0.66109890  0.32757247  0.00745904  1
  Cu  Cu104  1  0.00745006  0.67275554  0.00116602  1
  Cu  Cu105  1  0.00760053  0.33860415  0.00090238  1
  Cu  Cu106  1  0.00374362  -0.00254549  0.00147962  1
  Cu  Cu107  1  0.16966593  0.16446937  0.24349926  1
  Cu  Cu108  1  0.17061530  0.16335992  0.75909230  1
  Cu  Cu109  1  0.49315984  0.16385390  0.24658708  1
  Cu  Cu110  1  0.50130764  0.83195364  0.24630176  1
  Cu  Cu111  1  0.83970761  0.15607882  0.74955970  1
  Cu  Cu112  1  0.33139731  -0.00064597  -0.00324676  1
  Cu  Cu113  1  0.49845645  0.16575654  0.75393394  1
  Cu  Cu114  1  0.83586830  0.50567962  0.25776974  1
  Se  Se115  1  0.08568021  0.08355364  0.05266996  1
  Se  Se116  1  0.08690921  0.06952644  0.56021111  1
  Se  Se117  1  0.09182355  0.42414982  0.04991261  1
  Se  Se118  1  0.08889856  0.40700407  0.54885749  1
  Se  Se119  1  0.08992452  0.75593540  0.05518390  1
  Se  Se120  1  0.06882919  0.73523597  0.55616370  1
  Se  Se121  1  0.41587359  0.08323617  0.04973461  1
  Se  Se122  1  0.40488972  0.07465480  0.55968881  1
  Se  Se123  1  0.40998715  0.41139464  0.06385441  1
  Se  Se124  1  0.40909193  0.41369854  0.56182975  1
  Se  Se125  1  0.42064594  0.75372249  0.05575151  1
  Se  Se126  1  0.40990613  0.75474598  0.55017052  1
  Se  Se127  1  0.74068371  0.06865432  0.06584581  1
  Se  Se128  1  0.74556994  0.07690781  0.56105854  1
  Se  Se129  1  0.74600743  0.41000876  0.06091340  1
  Se  Se130  1  0.75539864  0.42307858  0.54455810  1
  Se  Se131  1  0.75731454  0.75302524  0.05583989  1
  Se  Se132  1  0.74792543  0.75245834  0.54947559  1
  Se  Se133  1  0.24838811  0.24678303  0.05314680  1
  Se  Se134  1  0.25880185  0.24762480  0.56016512  1
  Se  Se135  1  0.25006219  0.58609103  0.05530555  1
  Se  Se136  1  0.25227706  0.57890052  0.55250635  1
  Se  Se137  1  0.25075240  0.91509607  0.05292259  1
  Se  Se138  1  0.25018923  0.92258193  0.55944327  1
  Se  Se139  1  0.57755563  0.24089918  0.05435405  1
  Se  Se140  1  0.59322431  0.26216943  0.55315079  1
  Se  Se141  1  0.59235775  0.58534862  0.06201183  1
  Se  Se142  1  0.58590703  0.59715494  0.55930818  1
  Se  Se143  1  0.57942694  0.91056818  0.05059053  1
  Se  Se144  1  0.56824798  0.91227060  0.54947562  1
  Se  Se145  1  0.92571574  0.26213022  0.06235866  1
  Se  Se146  1  0.93348968  0.25331992  0.55632492  1
  Se  Se147  1  0.92651117  0.59206962  0.06287824  1
  Se  Se148  1  0.90514375  0.57362520  0.54369316  1
  Se  Se149  1  0.91874531  0.91585499  0.05473899  1
  Se  Se150  1  0.91764336  0.91321571  0.55394566  1
  Se  Se151  1  0.07816326  0.25772207  0.44066617  1
  Se  Se152  1  0.08760180  0.24783192  0.95267658  1
  Se  Se153  1  0.09556680  0.58249083  0.45039955  1
  Se  Se154  1  0.08820657  0.58340465  0.95126091  1
  Se  Se155  1  0.08100851  0.92059096  0.43631537  1
  Se  Se156  1  0.08776268  0.91601830  0.94733348  1
  Se  Se157  1  0.41054761  0.25188533  0.44039879  1
  Se  Se158  1  0.41610270  0.24693614  0.94907038  1
  Se  Se159  1  0.41168277  0.59169167  0.43619693  1
  Se  Se160  1  0.40815897  0.59052479  0.93989015  1
  Se  Se161  1  0.41660472  0.90978490  0.44932478  1
  Se  Se162  1  0.41858719  0.91530388  0.94672599  1
  Se  Se163  1  0.74530485  0.25133518  0.43535766  1
  Se  Se164  1  0.74619107  0.25008191  0.94784677  1
  Se  Se165  1  0.74895279  0.58452119  0.44265701  1
  Se  Se166  1  0.74642650  0.59126834  0.94105059  1
  Se  Se167  1  0.75328313  0.92100128  0.45395605  1
  Se  Se168  1  0.75290919  0.91235668  0.94831826  1
  Se  Se169  1  0.26051951  0.07009869  0.43950457  1
  Se  Se170  1  0.24634281  0.08522415  0.94687760  1
  Se  Se171  1  0.25188186  0.41870227  0.44649214  1
  Se  Se172  1  0.25486195  0.42249050  0.94744185  1
  Se  Se173  1  0.25307130  0.74706385  0.43489394  1
  Se  Se174  1  0.25193259  0.75548364  0.94899557  1
  Se  Se175  1  0.59506897  0.07070143  0.44670134  1
  Se  Se176  1  0.58272609  0.08214296  0.94763672  1
  Se  Se177  1  0.58342531  0.41540125  0.43437453  1
  Se  Se178  1  0.58927034  0.40922719  0.94306439  1
  Se  Se179  1  0.57947070  0.75397849  0.44391509  1
  Se  Se180  1  0.58035392  0.74725128  0.95269705  1
  Se  Se181  1  0.92739425  0.07969004  0.43829909  1
  Se  Se182  1  0.91765524  0.07572190  0.94107915  1
  Se  Se183  1  0.92380710  0.40927556  0.44989959  1
  Se  Se184  1  0.92527755  0.41090108  0.93700746  1
  Se  Se185  1  0.91379512  0.75746957  0.44666281  1
  Se  Se186  1  0.91731095  0.75305156  0.95182178  1
  Se  Se187  1  0.24566519  0.25034115  0.30156710  1
  Se  Se188  1  0.25426816  0.25137673  0.80701307  1
  Se  Se189  1  0.25298645  0.59014193  0.30091210  1
  Se  Se190  1  0.24738492  0.58270424  0.80503160  1
  Se  Se191  1  0.25358828  0.91714660  0.29894458  1
  Se  Se192  1  0.26219437  0.92979149  0.80550744  1
  Se  Se193  1  0.57825263  0.24629466  0.29972489  1
  Se  Se194  1  0.58402810  0.24603877  0.81095946  1
  Se  Se195  1  0.57751032  0.58352667  0.29834548  1
  Se  Se196  1  0.57123305  0.57703320  0.80861875  1
  Se  Se197  1  0.58013516  0.90914078  0.31136138  1
  Se  Se198  1  0.58311513  0.91864513  0.80622142  1
  Se  Se199  1  0.90949569  0.24715443  0.30780188  1
  Se  Se200  1  0.91040298  0.24159971  0.81105684  1
  Se  Se201  1  0.91970535  0.58878337  0.30960426  1
  Se  Se202  1  0.91232188  0.57770980  0.80088437  1
  Se  Se203  1  0.91929667  0.91828617  0.30080161  1
  Se  Se204  1  0.91284739  0.91357533  0.80571928  1
  Se  Se205  1  0.08353736  0.08242908  0.29565150  1
  Se  Se206  1  0.08210703  0.08023157  0.80633629  1
  Se  Se207  1  0.08356630  0.43259902  0.31548215  1
  Se  Se208  1  0.08921151  0.41428135  0.81273730  1
  Se  Se209  1  0.08436715  0.75138866  0.30074898  1
  Se  Se210  1  0.08829649  0.75333346  0.81795693  1
  Se  Se211  1  0.42043349  0.07850454  0.30609027  1
  Se  Se212  1  0.41523705  0.08224506  0.80676795  1
  Se  Se213  1  0.40651862  0.41390430  0.30035335  1
  Se  Se214  1  0.42490680  0.41887838  0.79964302  1
  Se  Se215  1  0.41446551  0.74993625  0.29884307  1
  Se  Se216  1  0.41271469  0.75307585  0.80468111  1
  Se  Se217  1  0.75893277  0.08775145  0.31139535  1
  Se  Se218  1  0.74592458  0.07922927  0.79766474  1
  Se  Se219  1  0.74889248  0.41830997  0.30275126  1
  Se  Se220  1  0.75499841  0.42399457  0.79896066  1
  Se  Se221  1  0.74652923  0.75182021  0.30616779  1
  Se  Se222  1  0.75127225  0.75581265  0.81460145  1
  Se  Se223  1  0.25317564  0.07905343  0.19252993  1
  Se  Se224  1  0.25037339  0.07887844  0.70247321  1
  Se  Se225  1  0.24423368  0.41804331  0.19963795  1
  Se  Se226  1  0.25629225  0.41298621  0.69923529  1
  Se  Se227  1  0.25316708  0.75035820  0.19486356  1
  Se  Se228  1  0.23237198  0.75747377  0.69422844  1
  Se  Se229  1  0.57288899  0.08190328  0.18649874  1
  Se  Se230  1  0.57821482  0.08285755  0.69644676  1
  Se  Se231  1  0.58005171  0.41291519  0.19868183  1
  Se  Se232  1  0.57351961  0.43067241  0.68821237  1
  Se  Se233  1  0.58700997  0.74706262  0.19665739  1
  Se  Se234  1  0.57577401  0.76349140  0.68849853  1
  Se  Se235  1  0.90487512  0.09865448  0.19810866  1
  Se  Se236  1  0.92318312  0.07165272  0.69868662  1
  Se  Se237  1  0.91001164  0.42763094  0.18979059  1
  Se  Se238  1  0.92132311  0.42370337  0.68194561  1
  Se  Se239  1  0.92110026  0.75078272  0.19741338  1
  Se  Se240  1  0.90455142  0.75597771  0.69094981  1
  Se  Se241  1  0.08904579  0.25059558  0.18714608  1
  Se  Se242  1  0.09578695  0.23810513  0.68924443  1
  Se  Se243  1  0.08150310  0.59103532  0.19784722  1
  Se  Se244  1  0.08898927  0.57030270  0.68888690  1
  Se  Se245  1  0.08365239  0.91926831  0.19379409  1
  Se  Se246  1  0.07556010  0.90707895  0.70581914  1
  Se  Se247  1  0.41025747  0.24838799  0.19383724  1
  Se  Se248  1  0.41670884  0.25179117  0.70161741  1
  Se  Se249  1  0.41317871  0.58459679  0.19704856  1
  Se  Se250  1  0.41867523  0.59035301  0.70129629  1
  Se  Se251  1  0.41589730  0.91707002  0.19656222  1
  Se  Se252  1  0.41058887  0.91637055  0.69501375  1
  Se  Se253  1  0.73917153  0.25058194  0.20545804  1
  Se  Se254  1  0.76528404  0.23961635  0.68628908  1
  Se  Se255  1  0.75017317  0.58578670  0.20207093  1
  Se  Se256  1  0.75164995  0.58623800  0.68603407  1
  Se  Se257  1  0.75347319  0.90832365  0.19064041  1
  Se  Se258  1  0.74187308  0.91744814  0.69438516  1
