# generated using pymatgen
data_In86Cu29Se144
_symmetry_space_group_name_H-M   'P 1'
_cell_length_a   17.59547715
_cell_length_b   17.59580379
_cell_length_c   23.45708731
_cell_angle_alpha   89.97944363
_cell_angle_beta   89.97498226
_cell_angle_gamma   90.00818276
_symmetry_Int_Tables_number   1
_chemical_formula_structural   In86Cu29Se144
_chemical_formula_sum   'In86 Cu29 Se144'
_cell_volume   7262.46695827
_cell_formula_units_Z   1
loop_
 _symmetry_equiv_pos_site_id
 _symmetry_equiv_pos_as_xyz
  1  'x, y, z'
loop_
 _atom_site_type_symbol
 _atom_site_label
 _atom_site_symmetry_multiplicity
 _atom_site_fract_x
 _atom_site_fract_y
 _atom_site_fract_z
 _atom_site_occupancy
  In  In0  1  -0.00342924  0.17310701  0.12336358  1
  In  In1  1  -0.00424870  0.16506679  0.61786912  1
  In  In2  1  0.01173811  0.49301385  0.12621142  1
  In  In3  1  0.02126798  0.53071031  0.60051981  1
  In  In4  1  -0.01207765  0.83276710  0.12802778  1
  In  In5  1  0.00327897  0.80615093  0.61829911  1
  In  In6  1  0.33873047  0.15969794  0.13734934  1
  In  In7  1  0.33837697  0.18081769  0.62464175  1
  In  In8  1  0.32753522  0.49385160  0.11974397  1
  In  In9  1  0.33718370  0.49695236  0.62308816  1
  In  In10  1  0.34494481  0.83946295  0.13046022  1
  In  In11  1  0.31665678  0.80738111  0.59710601  1
  In  In12  1  0.66542296  0.16401772  0.11203053  1
  In  In13  1  0.67313269  0.15759981  0.63314084  1
  In  In14  1  0.66255816  0.51304480  0.12347648  1
  In  In15  1  0.66434915  0.50005371  0.62726580  1
  In  In16  1  0.66271476  0.81963075  0.12340565  1
  In  In17  1  0.65558631  0.84029229  0.63031261  1
  In  In18  1  0.17371861  -0.00079916  0.38002277  1
  In  In19  1  0.16956045  0.00212210  0.87049339  1
  In  In20  1  0.17315000  0.32798529  0.38067624  1
  In  In21  1  0.18273132  0.34276131  0.86490369  1
  In  In22  1  0.16062780  0.67371463  0.39213231  1
  In  In23  1  0.15937366  0.65187231  0.86190521  1
  In  In24  1  0.48915625  0.01024887  0.37600623  1
  In  In25  1  0.51850820  -0.00025615  0.87625099  1
  In  In26  1  0.48741693  0.35948344  0.37819098  1
  In  In27  1  0.49903255  0.33512865  0.87583466  1
  In  In28  1  0.50173367  0.65237266  0.39486242  1
  In  In29  1  0.48793343  0.65301915  0.86574302  1
  In  In30  1  0.84086835  0.00006924  0.37927823  1
  In  In31  1  0.80492823  0.00987556  0.89111814  1
  In  In32  1  0.83410745  0.33475515  0.38338035  1
  In  In33  1  0.82052179  0.33342747  0.87072200  1
  In  In34  1  0.82648257  0.66083068  0.37633632  1
  In  In35  1  0.83312700  0.67220928  0.86794612  1
  In  In36  1  0.00021183  0.16588566  0.38309876  1
  In  In37  1  -0.00532270  0.15450143  0.87498127  1
  In  In38  1  -0.00771822  0.51288172  0.39091643  1
  In  In39  1  0.00204161  0.51255430  0.87048595  1
  In  In40  1  0.01465910  0.82752485  0.38209568  1
  In  In41  1  -0.00897494  0.81349932  0.86785463  1
  In  In42  1  0.31950385  0.16619338  0.36135536  1
  In  In43  1  0.32974970  0.18528476  0.87464380  1
  In  In44  1  0.33886575  0.49600207  0.38665314  1
  In  In45  1  0.33473543  0.50051719  0.87518872  1
  In  In46  1  0.32708607  0.83918005  0.38541793  1
  In  In47  1  0.34535406  0.82631652  0.87243411  1
  In  In48  1  0.66829187  0.17317698  0.37829921  1
  In  In49  1  0.66043361  0.16861407  0.87665325  1
  In  In50  1  0.65007563  0.51353904  0.38730671  1
  In  In51  1  0.65602508  0.48661613  0.86153562  1
  In  In52  1  0.67141536  0.81562987  0.37941478  1
  In  In53  1  0.66884901  0.83914145  0.86380641  1
  In  In54  1  0.17359805  0.00972263  0.13145431  1
  In  In55  1  0.16764960  -0.00051331  0.61473394  1
  In  In56  1  0.16402580  0.34154511  0.12657714  1
  In  In57  1  0.18353558  0.35078242  0.61375919  1
  In  In58  1  0.16947814  0.65033610  0.12919035  1
  In  In59  1  0.17383629  0.65824295  0.61767092  1
  In  In60  1  0.49475565  -0.00151460  0.12690635  1
  In  In61  1  0.51689707  -0.01360224  0.62920765  1
  In  In62  1  0.49637126  0.33193633  0.12065537  1
  In  In63  1  0.49127312  0.34185568  0.63496732  1
  In  In64  1  0.50858843  0.67008297  0.12365842  1
  In  In65  1  0.49925270  0.66737135  0.62205145  1
  In  In66  1  0.82688071  -0.00557454  0.11451542  1
  In  In67  1  0.81412636  -0.00026996  0.62171554  1
  In  In68  1  0.84364525  0.32513104  0.12044145  1
  In  In69  1  0.82846575  0.33188575  0.62512647  1
  In  In70  1  0.82750957  0.66934192  0.13158404  1
  In  In71  1  0.84420665  0.65491000  0.63210555  1
  In  In72  1  0.00638079  -0.00699892  0.25882889  1
  In  In73  1  0.50343640  0.16823738  0.50191777  1
  In  In74  1  0.15978087  0.17311216  0.00549384  1
  In  In75  1  0.50804759  0.83742758  -0.00074789  1
  In  In76  1  0.66205170  -0.00644974  0.24447600  1
  In  In77  1  0.00678181  0.33441090  0.24840105  1
  In  In78  1  0.00076696  0.34369594  0.74135571  1
  In  In79  1  0.83049959  0.49808419  -0.00370332  1
  In  In80  1  0.33530006  0.66389215  0.25941241  1
  In  In81  1  0.34521228  -0.00566816  0.74930221  1
  In  In82  1  0.16171982  0.82948513  -0.00316074  1
  In  In83  1  0.83280370  0.83471833  0.50477553  1
  In  In84  1  0.66402420  0.34046688  0.24894633  1
  In  In85  1  -0.00595831  -0.01222228  0.74837089  1
  Cu  Cu86  1  0.82849982  0.50574593  0.25673711  1
  Cu  Cu87  1  0.82860286  0.83297345  0.74563034  1
  Cu  Cu88  1  0.49801173  0.83197125  0.25383238  1
  Cu  Cu89  1  0.66425076  0.66512869  -0.00374926  1
  Cu  Cu90  1  0.33749042  0.33636297  -0.00229840  1
  Cu  Cu91  1  0.66933635  0.66299675  0.50758257  1
  Cu  Cu92  1  0.83591798  0.50374345  0.74471185  1
  Cu  Cu93  1  0.83662226  0.16167521  0.24725555  1
  Cu  Cu94  1  0.49821150  0.49905785  0.74823076  1
  Cu  Cu95  1  0.50486729  0.17069466  0.75273504  1
  Cu  Cu96  1  0.33273036  0.32883129  0.50118806  1
  Cu  Cu97  1  -0.01074315  -0.00982270  -0.00315178  1
  Cu  Cu98  1  0.00002487  0.66059863  -0.00398285  1
  Cu  Cu99  1  0.49328666  0.17977220  0.25094672  1
  Cu  Cu100  1  0.16924622  0.17364252  0.74056413  1
  Cu  Cu101  1  0.66704813  0.33391285  0.50381804  1
  Cu  Cu102  1  -0.00243090  0.33499313  0.50382822  1
  Cu  Cu103  1  0.83402152  0.81412544  0.25206508  1
  Cu  Cu104  1  0.16312928  0.50276675  0.25429119  1
  Cu  Cu105  1  0.17194210  0.82893986  0.26184707  1
  Cu  Cu106  1  0.82625876  0.16701877  0.75265098  1
  Cu  Cu107  1  0.49714204  0.82425768  0.74494226  1
  Cu  Cu108  1  0.66379206  0.33333673  -0.00680434  1
  Cu  Cu109  1  0.33260019  0.65832933  -0.00418959  1
  Cu  Cu110  1  0.00364545  0.33184244  -0.00075325  1
  Cu  Cu111  1  0.33818170  0.00623768  0.49759724  1
  Cu  Cu112  1  0.17229169  0.82107760  0.73950545  1
  Cu  Cu113  1  0.33584276  0.00976045  0.00719033  1
  Cu  Cu114  1  -0.00174338  0.00557819  0.50108737  1
  Se  Se115  1  0.07209330  0.06856490  0.05783795  1
  Se  Se116  1  0.08563243  0.08846593  0.55106619  1
  Se  Se117  1  0.08647612  0.41636898  0.05007608  1
  Se  Se118  1  0.08793297  0.41977607  0.54705487  1
  Se  Se119  1  0.07691452  0.73999571  0.06114367  1
  Se  Se120  1  0.09778324  0.74969123  0.54835674  1
  Se  Se121  1  0.41971246  0.08973859  0.05983935  1
  Se  Se122  1  0.41698292  0.07663215  0.56518914  1
  Se  Se123  1  0.41913469  0.42044210  0.05182281  1
  Se  Se124  1  0.41914820  0.41011351  0.55369817  1
  Se  Se125  1  0.40850908  0.74592970  0.05439365  1
  Se  Se126  1  0.44907565  0.77807626  0.55733394  1
  Se  Se127  1  0.76148996  0.09212729  0.05093872  1
  Se  Se128  1  0.75270136  0.09453871  0.55329876  1
  Se  Se129  1  0.74262906  0.40826799  0.06045281  1
  Se  Se130  1  0.74879570  0.41875531  0.55702466  1
  Se  Se131  1  0.74810331  0.74155279  0.05427092  1
  Se  Se132  1  0.74688137  0.74539550  0.56757311  1
  Se  Se133  1  0.25824378  0.25615194  0.06127628  1
  Se  Se134  1  0.24803671  0.24413282  0.55180073  1
  Se  Se135  1  0.24613217  0.58071798  0.05142360  1
  Se  Se136  1  0.27580428  0.59250831  0.55014806  1
  Se  Se137  1  0.25456401  0.92053919  0.05842700  1
  Se  Se138  1  0.25052026  0.92071538  0.54528279  1
  Se  Se139  1  0.58129508  0.25307477  0.05110658  1
  Se  Se140  1  0.58708365  0.25625668  0.56695660  1
  Se  Se141  1  0.57901582  0.58463030  0.04949886  1
  Se  Se142  1  0.58071781  0.57835152  0.55527132  1
  Se  Se143  1  0.59605186  0.92764913  0.06085946  1
  Se  Se144  1  0.59502747  0.92244156  0.55053372  1
  Se  Se145  1  0.91878740  0.24547382  0.04648709  1
  Se  Se146  1  0.91187284  0.25124611  0.55426382  1
  Se  Se147  1  0.92109207  0.58231751  0.06018725  1
  Se  Se148  1  0.90783760  0.58864110  0.54705275  1
  Se  Se149  1  0.91110983  0.90502929  0.05180796  1
  Se  Se150  1  0.92616293  0.92310119  0.56622786  1
  Se  Se151  1  0.08109383  0.25280504  0.44784924  1
  Se  Se152  1  0.08094941  0.25656349  0.93132327  1
  Se  Se153  1  0.08727209  0.57991012  0.45720850  1
  Se  Se154  1  0.08765840  0.58181297  0.94442844  1
  Se  Se155  1  0.08235097  0.92362193  0.44730783  1
  Se  Se156  1  0.07347836  0.92064176  0.93385393  1
  Se  Se157  1  0.41255678  0.25135404  0.43742277  1
  Se  Se158  1  0.41887950  0.24905438  0.94708107  1
  Se  Se159  1  0.39273555  0.59706883  0.45845903  1
  Se  Se160  1  0.42182950  0.57796600  0.94694857  1
  Se  Se161  1  0.42166342  0.92101754  0.44723090  1
  Se  Se162  1  0.40918467  0.92704226  0.94287637  1
  Se  Se163  1  0.74913013  0.25057282  0.44916734  1
  Se  Se164  1  0.75080064  0.25044599  0.94434082  1
  Se  Se165  1  0.75057057  0.58095247  0.45081661  1
  Se  Se166  1  0.74126275  0.58355361  0.93380285  1
  Se  Se167  1  0.74358831  0.92170916  0.44130230  1
  Se  Se168  1  0.74529777  0.89890689  0.94616862  1
  Se  Se169  1  0.25566984  0.09010575  0.44386181  1
  Se  Se170  1  0.25188459  0.08172554  0.94431682  1
  Se  Se171  1  0.24862495  0.41487934  0.45079634  1
  Se  Se172  1  0.25025163  0.41673234  0.94511401  1
  Se  Se173  1  0.25222138  0.75358554  0.45396551  1
  Se  Se174  1  0.25467301  0.74312758  0.93802495  1
  Se  Se175  1  0.59306191  0.07618461  0.44271288  1
  Se  Se176  1  0.58752267  0.08191729  0.94868022  1
  Se  Se177  1  0.57967283  0.41594724  0.45296670  1
  Se  Se178  1  0.58256231  0.42115519  0.94398444  1
  Se  Se179  1  0.58655866  0.74682322  0.45324131  1
  Se  Se180  1  0.58274011  0.74213702  0.93363704  1
  Se  Se181  1  0.91170189  0.08709915  0.44994894  1
  Se  Se182  1  0.91196308  0.08215608  0.94700194  1
  Se  Se183  1  0.91201025  0.41853542  0.45218522  1
  Se  Se184  1  0.92410312  0.40995707  0.93580910  1
  Se  Se185  1  0.91945366  0.74494525  0.44372742  1
  Se  Se186  1  0.91379296  0.74322083  0.94602948  1
  Se  Se187  1  0.25407554  0.26903244  0.30049481  1
  Se  Se188  1  0.25357726  0.25282260  0.79503602  1
  Se  Se189  1  0.23957741  0.58061936  0.31848992  1
  Se  Se190  1  0.26995031  0.59600907  0.80558555  1
  Se  Se191  1  0.25390974  0.91805724  0.30820529  1
  Se  Se192  1  0.24327673  0.90417576  0.80470346  1
  Se  Se193  1  0.57436008  0.25326251  0.31343399  1
  Se  Se194  1  0.58579575  0.25577837  0.80616754  1
  Se  Se195  1  0.56770366  0.58097208  0.31226767  1
  Se  Se196  1  0.58410642  0.58447409  0.79851403  1
  Se  Se197  1  0.58038558  0.91048773  0.31478830  1
  Se  Se198  1  0.57553633  0.91400929  0.79743436  1
  Se  Se199  1  0.91143452  0.24499994  0.30739375  1
  Se  Se200  1  0.91644198  0.24580544  0.80519099  1
  Se  Se201  1  0.91748118  0.58219291  0.30976119  1
  Se  Se202  1  0.91660580  0.58671083  0.80084919  1
  Se  Se203  1  0.90958100  0.89937752  0.31167048  1
  Se  Se204  1  0.90080851  0.91257811  0.81423523  1
  Se  Se205  1  0.09088877  0.09312069  0.31052605  1
  Se  Se206  1  0.09066489  0.09036292  0.79901385  1
  Se  Se207  1  0.08189466  0.42503486  0.31653009  1
  Se  Se208  1  0.09237467  0.43024412  0.80190106  1
  Se  Se209  1  0.08695020  0.74363813  0.30920096  1
  Se  Se210  1  0.08466691  0.74846310  0.79872390  1
  Se  Se211  1  0.41620026  0.08711238  0.30050069  1
  Se  Se212  1  0.42172779  0.09088214  0.81389500  1
  Se  Se213  1  0.41538277  0.43659410  0.30352178  1
  Se  Se214  1  0.41690489  0.41625551  0.80562212  1
  Se  Se215  1  0.42260549  0.75483888  0.31917177  1
  Se  Se216  1  0.41151577  0.74343524  0.79728170  1
  Se  Se217  1  0.75372521  0.08423021  0.30638047  1
  Se  Se218  1  0.74473609  0.08368825  0.80707462  1
  Se  Se219  1  0.75009960  0.42443164  0.31599054  1
  Se  Se220  1  0.75374131  0.41654443  0.79570472  1
  Se  Se221  1  0.74315596  0.73797537  0.30303409  1
  Se  Se222  1  0.74553174  0.74728618  0.79826385  1
  Se  Se223  1  0.25261497  0.08041974  0.20430085  1
  Se  Se224  1  0.24978505  0.08270795  0.68987917  1
  Se  Se225  1  0.24441523  0.42350822  0.19637429  1
  Se  Se226  1  0.25664279  0.41446366  0.69387969  1
  Se  Se227  1  0.24747522  0.75489412  0.19192249  1
  Se  Se228  1  0.25851300  0.74361280  0.68647382  1
  Se  Se229  1  0.57730623  0.09821021  0.19328347  1
  Se  Se230  1  0.58063685  0.08191210  0.69929314  1
  Se  Se231  1  0.57406560  0.42795756  0.19011472  1
  Se  Se232  1  0.58644799  0.41514939  0.69951967  1
  Se  Se233  1  0.58109378  0.75052997  0.19926749  1
  Se  Se234  1  0.58605402  0.74318975  0.69535748  1
  Se  Se235  1  0.91570326  0.07784122  0.19077520  1
  Se  Se236  1  0.90850980  0.08717584  0.69304006  1
  Se  Se237  1  0.90528675  0.42380172  0.19406281  1
  Se  Se238  1  0.91692763  0.43305446  0.67924308  1
  Se  Se239  1  0.92417661  0.73925353  0.19871889  1
  Se  Se240  1  0.91797865  0.75037430  0.69831392  1
  Se  Se241  1  0.09495988  0.23689658  0.19296335  1
  Se  Se242  1  0.08821444  0.25090443  0.68160244  1
  Se  Se243  1  0.07780659  0.58208237  0.19969730  1
  Se  Se244  1  0.08541844  0.58585291  0.68870168  1
  Se  Se245  1  0.09405198  0.90431639  0.19332388  1
  Se  Se246  1  0.09024748  0.90731742  0.68612603  1
  Se  Se247  1  0.41239434  0.26201863  0.19587504  1
  Se  Se248  1  0.41562495  0.25007353  0.70248295  1
  Se  Se249  1  0.41561906  0.58421911  0.18621346  1
  Se  Se250  1  0.41926089  0.58219754  0.69176995  1
  Se  Se251  1  0.41897821  0.92109705  0.20303973  1
  Se  Se252  1  0.41444246  0.89984782  0.68225216  1
  Se  Se253  1  0.75459551  0.24402496  0.19075014  1
  Se  Se254  1  0.74798670  0.25283448  0.69808496  1
  Se  Se255  1  0.74549061  0.58290785  0.19811050  1
  Se  Se256  1  0.74581911  0.58563819  0.69661096  1
  Se  Se257  1  0.76024947  0.90213684  0.19252707  1
  Se  Se258  1  0.74470577  0.92052059  0.69835842  1
