# generated using pymatgen
data_In86Cu29Se144
_symmetry_space_group_name_H-M   'P 1'
_cell_length_a   17.57700751
_cell_length_b   17.57861956
_cell_length_c   23.44275945
_cell_angle_alpha   90.00674754
_cell_angle_beta   89.97312632
_cell_angle_gamma   89.99886309
_symmetry_Int_Tables_number   1
_chemical_formula_structural   In86Cu29Se144
_chemical_formula_sum   'In86 Cu29 Se144'
_cell_volume   7243.33190556
_cell_formula_units_Z   1
loop_
 _symmetry_equiv_pos_site_id
 _symmetry_equiv_pos_as_xyz
  1  'x, y, z'
loop_
 _atom_site_type_symbol
 _atom_site_label
 _atom_site_symmetry_multiplicity
 _atom_site_fract_x
 _atom_site_fract_y
 _atom_site_fract_z
 _atom_site_occupancy
  In  In0  1  -0.00976534  0.17172768  0.13494897  1
  In  In1  1  0.00335110  0.17129939  0.60924360  1
  In  In2  1  -0.00232739  0.50341419  0.13013341  1
  In  In3  1  0.00947740  0.50223399  0.62350306  1
  In  In4  1  -0.00148833  0.83134073  0.12701114  1
  In  In5  1  -0.00199694  0.82516278  0.62487081  1
  In  In6  1  0.33965873  0.17863464  0.13174836  1
  In  In7  1  0.32670250  0.17867926  0.61421782  1
  In  In8  1  0.33997066  0.49901359  0.13091308  1
  In  In9  1  0.34659136  0.51320096  0.60794099  1
  In  In10  1  0.32863513  0.82321291  0.12336659  1
  In  In11  1  0.32656458  0.82285665  0.62014651  1
  In  In12  1  0.68217174  0.16019707  0.12135992  1
  In  In13  1  0.67957942  0.16696376  0.62728270  1
  In  In14  1  0.67735547  0.51091806  0.11728668  1
  In  In15  1  0.64590537  0.52147808  0.64863101  1
  In  In16  1  0.65456893  0.82650180  0.11108695  1
  In  In17  1  0.65939257  0.83002262  0.62635354  1
  In  In18  1  0.13862056  0.01090507  0.39181854  1
  In  In19  1  0.15402925  -0.00495137  0.87190537  1
  In  In20  1  0.16862797  0.34262668  0.37231137  1
  In  In21  1  0.16208791  0.32533919  0.87282445  1
  In  In22  1  0.16804438  0.66574608  0.37677652  1
  In  In23  1  0.17766518  0.67213315  0.86891090  1
  In  In24  1  0.48890198  -0.00572537  0.37631525  1
  In  In25  1  0.49704859  -0.01091310  0.87643852  1
  In  In26  1  0.49830050  0.35229814  0.37972007  1
  In  In27  1  0.51592751  0.33503892  0.87249533  1
  In  In28  1  0.49513255  0.66658461  0.37480779  1
  In  In29  1  0.50367690  0.65706025  0.87258128  1
  In  In30  1  0.85230084  -0.00364531  0.37725052  1
  In  In31  1  0.83244906  -0.01053209  0.88886509  1
  In  In32  1  0.83476064  0.31904590  0.37476070  1
  In  In33  1  0.82364025  0.35387046  0.89525481  1
  In  In34  1  0.83337252  0.66703029  0.36390648  1
  In  In35  1  0.83017900  0.66928132  0.87496386  1
  In  In36  1  -0.00196565  0.16783734  0.36902216  1
  In  In37  1  -0.00336033  0.15943281  0.87722591  1
  In  In38  1  0.01371660  0.51429034  0.36541703  1
  In  In39  1  -0.01578613  0.50368416  0.88263023  1
  In  In40  1  0.00769263  0.83942611  0.36746413  1
  In  In41  1  0.00265749  0.82569953  0.88249270  1
  In  In42  1  0.31722775  0.17038288  0.37884478  1
  In  In43  1  0.33040374  0.18050065  0.87295738  1
  In  In44  1  0.32995900  0.50109841  0.37676280  1
  In  In45  1  0.32939025  0.51439746  0.87500512  1
  In  In46  1  0.33532177  0.82537565  0.37804044  1
  In  In47  1  0.34858445  0.81619258  0.88487885  1
  In  In48  1  0.67923726  0.16825838  0.38566229  1
  In  In49  1  0.67313302  0.17940041  0.87180609  1
  In  In50  1  0.64884592  0.50351886  0.38009238  1
  In  In51  1  0.66491287  0.50443936  0.87356416  1
  In  In52  1  0.67001145  0.81671468  0.37551342  1
  In  In53  1  0.68711622  0.80671241  0.89113207  1
  In  In54  1  0.16627596  -0.01898616  0.12778447  1
  In  In55  1  0.15783429  -0.00124922  0.60737498  1
  In  In56  1  0.16464937  0.33659605  0.13665163  1
  In  In57  1  0.18641040  0.34726816  0.59211059  1
  In  In58  1  0.15990433  0.67856995  0.13409661  1
  In  In59  1  0.16764379  0.66814575  0.62464204  1
  In  In60  1  0.51184652  -0.00599796  0.12272168  1
  In  In61  1  0.51933730  -0.01478895  0.61724407  1
  In  In62  1  0.48732350  0.34132457  0.12671813  1
  In  In63  1  0.50372881  0.37406475  0.61982254  1
  In  In64  1  0.50194503  0.66612382  0.12493093  1
  In  In65  1  0.49298215  0.66285031  0.62722818  1
  In  In66  1  0.83792165  0.00752659  0.11439566  1
  In  In67  1  0.82175371  0.00782929  0.61791347  1
  In  In68  1  0.84580685  0.33990893  0.11335170  1
  In  In69  1  0.83026533  0.32712862  0.62529091  1
  In  In70  1  0.83265310  0.66499749  0.12521447  1
  In  In71  1  0.83913744  0.67289327  0.64212029  1
  In  In72  1  0.34141943  0.35094971  0.73258318  1
  In  In73  1  -0.00070002  0.33405183  0.74722981  1
  In  In74  1  0.83352328  0.49334394  0.50468317  1
  In  In75  1  0.50251069  0.16206806  0.50088961  1
  In  In76  1  0.16398311  0.16176570  -0.00353359  1
  In  In77  1  0.83492150  0.83631085  0.50349517  1
  In  In78  1  0.33472925  -0.00529913  0.74635002  1
  In  In79  1  0.32413275  -0.00309314  0.25644593  1
  In  In80  1  -0.00389193  -0.00492828  0.75079064  1
  In  In81  1  0.50616075  0.16393819  0.00686496  1
  In  In82  1  0.16352433  0.50509401  0.01156993  1
  In  In83  1  0.67162694  -0.01089677  0.74867018  1
  In  In84  1  0.66830379  0.34102341  0.25343640  1
  In  In85  1  0.67085816  -0.00388398  0.24230131  1
  Cu  Cu86  1  0.50046542  0.82739270  0.24826920  1
  Cu  Cu87  1  0.65960237  0.66191062  0.50229368  1
  Cu  Cu88  1  0.33298128  0.34244063  0.00233385  1
  Cu  Cu89  1  0.66994365  0.33689214  -0.00270689  1
  Cu  Cu90  1  0.33068865  -0.00870930  0.00083737  1
  Cu  Cu91  1  0.49936437  0.17063164  0.74917011  1
  Cu  Cu92  1  0.33917677  0.67258275  -0.00069601  1
  Cu  Cu93  1  0.50030770  0.18027080  0.25262773  1
  Cu  Cu94  1  0.15990143  0.50924965  0.74654880  1
  Cu  Cu95  1  0.83804381  0.16876437  0.75068344  1
  Cu  Cu96  1  0.66401602  0.65840387  -0.00204130  1
  Cu  Cu97  1  0.16196391  0.83014079  0.25481921  1
  Cu  Cu98  1  0.66236098  0.34116688  0.50490621  1
  Cu  Cu99  1  0.50128209  0.82041943  0.75193484  1
  Cu  Cu100  1  0.33363957  0.66677712  0.49844393  1
  Cu  Cu101  1  0.83436722  0.82785259  0.24555385  1
  Cu  Cu102  1  0.16590534  0.17517151  0.73333497  1
  Cu  Cu103  1  0.83891095  0.16428330  0.24749208  1
  Cu  Cu104  1  0.00466254  0.67065183  0.49951393  1
  Cu  Cu105  1  0.00039366  0.33329448  0.49125166  1
  Cu  Cu106  1  0.17225906  0.50229035  0.25136898  1
  Cu  Cu107  1  0.00212033  -0.00632306  0.00233006  1
  Cu  Cu108  1  0.83328632  0.49789623  0.24451637  1
  Cu  Cu109  1  0.33722883  -0.01355299  0.49911253  1
  Cu  Cu110  1  0.82976471  0.50233727  0.76040973  1
  Cu  Cu111  1  0.16265427  0.16524547  0.25766057  1
  Cu  Cu112  1  0.49786829  0.50885272  0.25253731  1
  Cu  Cu113  1  -0.00254142  0.66754818  0.00485291  1
  Cu  Cu114  1  0.17261530  0.82646913  0.75100940  1
  Se  Se115  1  0.08091155  0.07534495  0.06338320  1
  Se  Se116  1  0.08406408  0.08868727  0.54235084  1
  Se  Se117  1  0.07626242  0.40470189  0.06134414  1
  Se  Se118  1  0.07643031  0.42271075  0.54534360  1
  Se  Se119  1  0.08373080  0.75048575  0.05628976  1
  Se  Se120  1  0.08608030  0.75346956  0.55466471  1
  Se  Se121  1  0.40464692  0.07588614  0.06240804  1
  Se  Se122  1  0.41265239  0.06896764  0.56243010  1
  Se  Se123  1  0.41770105  0.42561583  0.05243653  1
  Se  Se124  1  0.38698005  0.38899065  0.55630433  1
  Se  Se125  1  0.42255490  0.75401388  0.05533231  1
  Se  Se126  1  0.41896125  0.74770663  0.55403774  1
  Se  Se127  1  0.73578182  0.06815921  0.04811698  1
  Se  Se128  1  0.74236162  0.08748384  0.54876513  1
  Se  Se129  1  0.75399906  0.42028195  0.05097738  1
  Se  Se130  1  0.73644347  0.42202574  0.57016207  1
  Se  Se131  1  0.74774892  0.74147062  0.05259706  1
  Se  Se132  1  0.74979798  0.73551553  0.56035039  1
  Se  Se133  1  0.25310061  0.25642878  0.05771074  1
  Se  Se134  1  0.23587981  0.23004820  0.53841128  1
  Se  Se135  1  0.25833837  0.59681811  0.06415813  1
  Se  Se136  1  0.24455012  0.58594576  0.55069375  1
  Se  Se137  1  0.24785171  0.90865583  0.05395166  1
  Se  Se138  1  0.24827396  0.90886493  0.55167349  1
  Se  Se139  1  0.59255693  0.26222079  0.06519639  1
  Se  Se140  1  0.58325035  0.25752561  0.56535165  1
  Se  Se141  1  0.57805941  0.57932796  0.05336292  1
  Se  Se142  1  0.58076091  0.57885495  0.55911431  1
  Se  Se143  1  0.58536647  0.92418926  0.04566256  1
  Se  Se144  1  0.59955538  0.91001616  0.54637732  1
  Se  Se145  1  0.90354011  0.22769755  0.05702216  1
  Se  Se146  1  0.91415553  0.25943823  0.54992879  1
  Se  Se147  1  0.91719773  0.58044735  0.05674703  1
  Se  Se148  1  0.91884518  0.59473150  0.55969296  1
  Se  Se149  1  0.91707810  0.91075820  0.05443296  1
  Se  Se150  1  0.92624888  0.92868186  0.55997993  1
  Se  Se151  1  0.08281255  0.25314768  0.43556768  1
  Se  Se152  1  0.07065132  0.25803668  0.94580368  1
  Se  Se153  1  0.08451819  0.58272774  0.44737152  1
  Se  Se154  1  0.08196579  0.59172789  0.94259436  1
  Se  Se155  1  0.07365027  0.90625668  0.45118131  1
  Se  Se156  1  0.08752234  0.91373944  0.94791819  1
  Se  Se157  1  0.41565571  0.25239535  0.44014965  1
  Se  Se158  1  0.41456706  0.25739540  0.94596165  1
  Se  Se159  1  0.41720136  0.58204785  0.44571735  1
  Se  Se160  1  0.41630280  0.58289601  0.94707915  1
  Se  Se161  1  0.42270713  0.90484970  0.44774988  1
  Se  Se162  1  0.42030452  0.91204396  0.95055348  1
  Se  Se163  1  0.74921009  0.25989351  0.45434004  1
  Se  Se164  1  0.75201073  0.24610303  0.95038441  1
  Se  Se165  1  0.74794828  0.58863028  0.44219905  1
  Se  Se166  1  0.75240427  0.58032739  0.94381481  1
  Se  Se167  1  0.74708447  0.91897522  0.43615512  1
  Se  Se168  1  0.73756969  0.91792805  0.95211489  1
  Se  Se169  1  0.25643043  0.06903395  0.44373539  1
  Se  Se170  1  0.25968765  0.07356770  0.93614909  1
  Se  Se171  1  0.25045998  0.41665929  0.44583956  1
  Se  Se172  1  0.24706405  0.41378060  0.94090425  1
  Se  Se173  1  0.24728174  0.75015600  0.44754429  1
  Se  Se174  1  0.24627566  0.74973485  0.94842124  1
  Se  Se175  1  0.58995307  0.07082758  0.44013290  1
  Se  Se176  1  0.58621822  0.08416056  0.93426152  1
  Se  Se177  1  0.57618548  0.42493472  0.45669117  1
  Se  Se178  1  0.58399423  0.41921745  0.94622986  1
  Se  Se179  1  0.58150253  0.74631703  0.44601371  1
  Se  Se180  1  0.57737260  0.74217745  0.94656102  1
  Se  Se181  1  0.91032102  0.09721793  0.44188137  1
  Se  Se182  1  0.92016058  0.07852628  0.94866181  1
  Se  Se183  1  0.92160891  0.41845709  0.43323190  1
  Se  Se184  1  0.92861760  0.41302271  0.95664267  1
  Se  Se185  1  0.91812164  0.74353458  0.43940339  1
  Se  Se186  1  0.91296368  0.74816765  0.94884785  1
  Se  Se187  1  0.24890038  0.25192467  0.30316546  1
  Se  Se188  1  0.24742128  0.25304225  0.79430959  1
  Se  Se189  1  0.25287151  0.58687091  0.30609670  1
  Se  Se190  1  0.25137864  0.58489505  0.79790960  1
  Se  Se191  1  0.23532730  0.91306076  0.31899057  1
  Se  Se192  1  0.25004106  0.90839761  0.81280657  1
  Se  Se193  1  0.58390438  0.24806907  0.31710829  1
  Se  Se194  1  0.58743737  0.25062113  0.79930508  1
  Se  Se195  1  0.58504822  0.58894393  0.30459399  1
  Se  Se196  1  0.58485631  0.58054182  0.80033779  1
  Se  Se197  1  0.57925863  0.91106131  0.30726517  1
  Se  Se198  1  0.58098441  0.90281094  0.81014630  1
  Se  Se199  1  0.91798571  0.25372348  0.29830888  1
  Se  Se200  1  0.91198716  0.25020501  0.81344644  1
  Se  Se201  1  0.91705548  0.58275268  0.29839488  1
  Se  Se202  1  0.91840513  0.58619322  0.80675325  1
  Se  Se203  1  0.91523673  0.91297432  0.29938647  1
  Se  Se204  1  0.90925880  0.90794205  0.81282606  1
  Se  Se205  1  0.07892376  0.07570003  0.30338617  1
  Se  Se206  1  0.09213844  0.09722761  0.79961723  1
  Se  Se207  1  0.08352778  0.41777007  0.29931690  1
  Se  Se208  1  0.08733418  0.42605570  0.80978791  1
  Se  Se209  1  0.07969061  0.74122985  0.30490747  1
  Se  Se210  1  0.08370922  0.75208395  0.80683885  1
  Se  Se211  1  0.42047041  0.09375628  0.30827597  1
  Se  Se212  1  0.42054483  0.09194655  0.80892420  1
  Se  Se213  1  0.41713831  0.42148470  0.30471910  1
  Se  Se214  1  0.41826187  0.42048109  0.81274423  1
  Se  Se215  1  0.41433263  0.74957332  0.30317678  1
  Se  Se216  1  0.41462879  0.74083182  0.80490906  1
  Se  Se217  1  0.75464997  0.08695486  0.30738141  1
  Se  Se218  1  0.76105886  0.08223865  0.80938838  1
  Se  Se219  1  0.75700528  0.42894090  0.31653225  1
  Se  Se220  1  0.75149608  0.41217570  0.81062268  1
  Se  Se221  1  0.74634418  0.74758911  0.29686469  1
  Se  Se222  1  0.74868558  0.74931960  0.80332646  1
  Se  Se223  1  0.24177585  0.09026034  0.19031504  1
  Se  Se224  1  0.24577842  0.08457682  0.68362582  1
  Se  Se225  1  0.25544524  0.41697413  0.19887648  1
  Se  Se226  1  0.23332082  0.42740245  0.68215923  1
  Se  Se227  1  0.25214624  0.75275908  0.20217938  1
  Se  Se228  1  0.25532085  0.74414139  0.69678807  1
  Se  Se229  1  0.57644734  0.09764253  0.19239589  1
  Se  Se230  1  0.57833504  0.08441450  0.69195341  1
  Se  Se231  1  0.57925970  0.42827260  0.19112899  1
  Se  Se232  1  0.59155093  0.40526921  0.70270980  1
  Se  Se233  1  0.58718592  0.75135478  0.19232342  1
  Se  Se234  1  0.58455535  0.74244272  0.69436552  1
  Se  Se235  1  0.91501871  0.07224267  0.19621703  1
  Se  Se236  1  0.91555267  0.09194951  0.68735471  1
  Se  Se237  1  0.91592980  0.41175434  0.19475987  1
  Se  Se238  1  0.90688356  0.42857805  0.69126637  1
  Se  Se239  1  0.91959026  0.74305322  0.19494715  1
  Se  Se240  1  0.92653971  0.75647887  0.70422653  1
  Se  Se241  1  0.08218621  0.24820377  0.20010166  1
  Se  Se242  1  0.08950463  0.25977644  0.67686930  1
  Se  Se243  1  0.08559980  0.58223205  0.19707924  1
  Se  Se244  1  0.07619402  0.59260047  0.69470878  1
  Se  Se245  1  0.07955089  0.91340538  0.20041103  1
  Se  Se246  1  0.09687199  0.91413784  0.69245236  1
  Se  Se247  1  0.41385419  0.26258776  0.20333442  1
  Se  Se248  1  0.42597380  0.24574562  0.68269575  1
  Se  Se249  1  0.41517067  0.59111384  0.19720155  1
  Se  Se250  1  0.41988648  0.56662964  0.69231023  1
  Se  Se251  1  0.42115953  0.91550250  0.19295358  1
  Se  Se252  1  0.42920858  0.90655618  0.68943395  1
  Se  Se253  1  0.75630079  0.24948377  0.19263109  1
  Se  Se254  1  0.75138287  0.25158123  0.70077918  1
  Se  Se255  1  0.74808887  0.58403709  0.19689632  1
  Se  Se256  1  0.75155322  0.58974331  0.70615780  1
  Se  Se257  1  0.75589797  0.90534918  0.18153514  1
  Se  Se258  1  0.76568984  0.90449222  0.68819197  1
