# generated using pymatgen
data_In86Cu29Se144
_symmetry_space_group_name_H-M   'P 1'
_cell_length_a   17.68073036
_cell_length_b   17.68589535
_cell_length_c   23.54924839
_cell_angle_alpha   90.04280052
_cell_angle_beta   89.95584788
_cell_angle_gamma   90.04012930
_symmetry_Int_Tables_number   1
_chemical_formula_structural   In86Cu29Se144
_chemical_formula_sum   'In86 Cu29 Se144'
_cell_volume   7363.83325551
_cell_formula_units_Z   1
loop_
 _symmetry_equiv_pos_site_id
 _symmetry_equiv_pos_as_xyz
  1  'x, y, z'
loop_
 _atom_site_type_symbol
 _atom_site_label
 _atom_site_symmetry_multiplicity
 _atom_site_fract_x
 _atom_site_fract_y
 _atom_site_fract_z
 _atom_site_occupancy
  In  In0  1  -0.00305869  0.15385059  0.13522817  1
  In  In1  1  0.01966185  0.15109265  0.60007808  1
  In  In2  1  0.01766043  0.49853123  0.12691742  1
  In  In3  1  0.00618058  0.49808636  0.62358796  1
  In  In4  1  0.06110708  0.79587206  0.18191551  1
  In  In5  1  0.00985954  0.85579771  0.60616976  1
  In  In6  1  0.33952589  0.16202887  0.13163408  1
  In  In7  1  0.32650989  0.16245329  0.62420742  1
  In  In8  1  0.33857104  0.49878596  0.12855205  1
  In  In9  1  0.32752179  0.50391720  0.62662282  1
  In  In10  1  0.32372277  0.84086312  0.13669526  1
  In  In11  1  0.32268268  0.84136023  0.62244990  1
  In  In12  1  0.66369680  0.17085994  0.12557365  1
  In  In13  1  0.64801634  0.16348326  0.62292910  1
  In  In14  1  0.66282063  0.50680489  0.11921350  1
  In  In15  1  0.66588880  0.51993290  0.63161032  1
  In  In16  1  0.65401306  0.82945437  0.12753119  1
  In  In17  1  0.66720083  0.82946125  0.62607447  1
  In  In18  1  0.17472550  -0.00615252  0.37082823  1
  In  In19  1  0.16561885  -0.00898845  0.87745052  1
  In  In20  1  0.17198371  0.31858162  0.38378986  1
  In  In21  1  0.19345502  0.33964412  0.86846824  1
  In  In22  1  0.16421311  0.67314154  0.37575613  1
  In  In23  1  0.17673511  0.66280527  0.88290303  1
  In  In24  1  0.49843818  0.01257129  0.37852998  1
  In  In25  1  0.49764940  0.00405255  0.86732269  1
  In  In26  1  0.49604671  0.34550570  0.38197410  1
  In  In27  1  0.49166493  0.35031193  0.88548424  1
  In  In28  1  0.48562930  0.65593736  0.36856320  1
  In  In29  1  0.48862240  0.65719553  0.86709846  1
  In  In30  1  0.87008793  -0.03937997  0.42726347  1
  In  In31  1  0.83283862  0.00683337  0.86810675  1
  In  In32  1  0.83321209  0.32428296  0.37791747  1
  In  In33  1  0.83045474  0.32661692  0.87000119  1
  In  In34  1  0.84530386  0.67488189  0.36364546  1
  In  In35  1  0.83561724  0.67902784  0.87126916  1
  In  In36  1  0.02077940  0.13492015  0.40183539  1
  In  In37  1  -0.00016739  0.15985176  0.87379038  1
  In  In38  1  0.00250565  0.51490700  0.36985500  1
  In  In39  1  0.00807734  0.51453398  0.88074770  1
  In  In40  1  0.00939663  0.83254151  0.37378132  1
  In  In41  1  0.01258890  0.84131360  0.87850868  1
  In  In42  1  0.33711323  0.17245699  0.37422939  1
  In  In43  1  0.34159764  0.18182339  0.86432419  1
  In  In44  1  0.33346177  0.49961858  0.37843433  1
  In  In45  1  0.33445265  0.50516388  0.87700668  1
  In  In46  1  0.32278100  0.83132687  0.36978438  1
  In  In47  1  0.32838324  0.82447377  0.86983821  1
  In  In48  1  0.67083571  0.16368218  0.38805754  1
  In  In49  1  0.66693518  0.15891700  0.86806630  1
  In  In50  1  0.65320731  0.50173599  0.37745210  1
  In  In51  1  0.65031091  0.49423139  0.87329151  1
  In  In52  1  0.67750509  0.83109516  0.37486050  1
  In  In53  1  0.66125586  0.83179557  0.86040313  1
  In  In54  1  0.17461808  -0.00998666  0.14023057  1
  In  In55  1  0.21967298  0.02682319  0.54686196  1
  In  In56  1  0.17047683  0.35117280  0.12374474  1
  In  In57  1  0.17556565  0.34220971  0.61995866  1
  In  In58  1  0.17904742  0.65926278  0.12935502  1
  In  In59  1  0.17934437  0.68148765  0.61099026  1
  In  In60  1  0.48744687  0.00103694  0.12354658  1
  In  In61  1  0.48184809  0.01206443  0.63321841  1
  In  In62  1  0.49397781  0.31930845  0.11592055  1
  In  In63  1  0.47993575  0.32773542  0.62313266  1
  In  In64  1  0.50223282  0.65758985  0.13300584  1
  In  In65  1  0.50194551  0.66126081  0.62912360  1
  In  In66  1  0.84862864  -0.00097243  0.12864501  1
  In  In67  1  0.82373816  -0.00232719  0.61887313  1
  In  In68  1  0.82701386  0.32423514  0.12518539  1
  In  In69  1  0.84725755  0.32882155  0.62263458  1
  In  In70  1  0.83155972  0.67685968  0.13411289  1
  In  In71  1  0.82029716  0.67713948  0.62587099  1
  In  In72  1  0.83295753  0.50645192  0.00410362  1
  In  In73  1  0.01270292  0.33384953  0.73540408  1
  In  In74  1  0.82960963  0.49781496  0.49952551  1
  In  In75  1  -0.00547173  0.66762831  0.74523483  1
  In  In76  1  0.66287394  0.33337602  0.75262134  1
  In  In77  1  0.66048529  0.33800661  0.25070441  1
  In  In78  1  0.00980495  -0.00256029  0.73871919  1
  In  In79  1  0.82926956  0.16435953  -0.00587538  1
  In  In80  1  0.00170914  0.33377331  0.24762765  1
  In  In81  1  0.84015524  0.83678552  -0.00039071  1
  In  In82  1  0.49202969  0.83060167  -0.00014648  1
  In  In83  1  0.49816268  0.83084842  0.50018924  1
  In  In84  1  0.16787130  0.17177802  -0.00728351  1
  In  In85  1  0.66739346  0.00009826  0.25671374  1
  Cu  Cu86  1  0.00313462  0.32910160  0.50108902  1
  Cu  Cu87  1  0.49503532  0.49668176  0.75138316  1
  Cu  Cu88  1  0.49331101  0.50173380  0.25332030  1
  Cu  Cu89  1  0.82609556  0.50546278  0.24576180  1
  Cu  Cu90  1  0.83672208  0.15741391  0.26394113  1
  Cu  Cu91  1  -0.00280127  0.66381981  0.49431886  1
  Cu  Cu92  1  0.83582479  0.83776282  0.25970233  1
  Cu  Cu93  1  0.65940061  0.33672824  0.50481266  1
  Cu  Cu94  1  0.01671075  0.66994571  0.01155263  1
  Cu  Cu95  1  0.33244752  0.00535481  0.00660052  1
  Cu  Cu96  1  0.33245661  0.66581322  0.00257818  1
  Cu  Cu97  1  0.66570456  0.66728330  0.50185945  1
  Cu  Cu98  1  0.66403663  0.00419440  -0.00929039  1
  Cu  Cu99  1  0.83484976  0.16125337  0.74258765  1
  Cu  Cu100  1  0.65970281  0.66520092  -0.00223548  1
  Cu  Cu101  1  -0.00137247  0.33418636  -0.00066190  1
  Cu  Cu102  1  0.49433236  0.17372738  0.25309750  1
  Cu  Cu103  1  0.33440310  0.34002043  0.49944324  1
  Cu  Cu104  1  0.49318334  0.16530895  0.74713856  1
  Cu  Cu105  1  0.83266288  0.83646594  0.74309301  1
  Cu  Cu106  1  0.01263793  -0.01094521  0.00807658  1
  Cu  Cu107  1  0.33208745  0.33989451  -0.00033630  1
  Cu  Cu108  1  0.17360390  0.50249753  0.75110050  1
  Cu  Cu109  1  0.17638470  0.50076182  0.25461014  1
  Cu  Cu110  1  0.17124631  0.16838929  0.25746220  1
  Cu  Cu111  1  0.49763930  0.83334893  0.74276440  1
  Cu  Cu112  1  0.65396669  0.00737897  0.50504075  1
  Cu  Cu113  1  0.49697849  0.82710689  0.25025967  1
  Cu  Cu114  1  0.17008333  0.82940104  0.74608865  1
  Se  Se115  1  0.08453416  0.08444334  0.06013408  1
  Se  Se116  1  0.06920353  0.04484699  0.53348477  1
  Se  Se117  1  0.08341261  0.41745345  0.04961800  1
  Se  Se118  1  0.08226456  0.41653460  0.55333073  1
  Se  Se119  1  0.08604402  0.75152207  0.07431473  1
  Se  Se120  1  0.07570629  0.74780598  0.55029432  1
  Se  Se121  1  0.41831699  0.09066561  0.05365108  1
  Se  Se122  1  0.41434956  0.08499781  0.55459043  1
  Se  Se123  1  0.41739173  0.41669155  0.05643749  1
  Se  Se124  1  0.41310821  0.42323814  0.55649540  1
  Se  Se125  1  0.40836142  0.74588436  0.06662230  1
  Se  Se126  1  0.41222093  0.74321025  0.56223565  1
  Se  Se127  1  0.74731441  0.07100179  0.05902125  1
  Se  Se128  1  0.74089825  0.08865788  0.55729616  1
  Se  Se129  1  0.74468592  0.40748581  0.05660151  1
  Se  Se130  1  0.74334322  0.41255091  0.56587940  1
  Se  Se131  1  0.74039683  0.74763215  0.05509075  1
  Se  Se132  1  0.74767879  0.75503618  0.55045139  1
  Se  Se133  1  0.25456810  0.25623701  0.05964740  1
  Se  Se134  1  0.25402498  0.25482728  0.55318548  1
  Se  Se135  1  0.25526789  0.57819613  0.05702681  1
  Se  Se136  1  0.23232693  0.56754151  0.55709795  1
  Se  Se137  1  0.25202515  0.92216189  0.06094446  1
  Se  Se138  1  0.24239867  0.87969514  0.53377920  1
  Se  Se139  1  0.59112968  0.24824965  0.05342482  1
  Se  Se140  1  0.57435372  0.25481098  0.55716176  1
  Se  Se141  1  0.57642585  0.58672167  0.05268469  1
  Se  Se142  1  0.58423470  0.58474356  0.55498248  1
  Se  Se143  1  0.58797201  0.92522906  0.05476665  1
  Se  Se144  1  0.57783335  0.92407020  0.56547283  1
  Se  Se145  1  0.92505051  0.24921421  0.05804411  1
  Se  Se146  1  0.92161992  0.24430437  0.55253058  1
  Se  Se147  1  0.92506422  0.59415664  0.06519861  1
  Se  Se148  1  0.91796290  0.58964516  0.55973745  1
  Se  Se149  1  0.93140465  0.90997803  0.06585748  1
  Se  Se150  1  0.90072548  0.91500463  0.54700985  1
  Se  Se151  1  0.09096013  0.24194885  0.45616073  1
  Se  Se152  1  0.07687106  0.26212494  0.93292308  1
  Se  Se153  1  0.08421311  0.58368807  0.44410037  1
  Se  Se154  1  0.09131878  0.58490156  0.95345159  1
  Se  Se155  1  0.07820655  0.92877672  0.44169262  1
  Se  Se156  1  0.09544589  0.90879879  0.95353627  1
  Se  Se157  1  0.41632576  0.25497890  0.44551333  1
  Se  Se158  1  0.41095427  0.25408453  0.94466054  1
  Se  Se159  1  0.42385879  0.57552600  0.44564959  1
  Se  Se160  1  0.41739056  0.58657720  0.94738016  1
  Se  Se161  1  0.41190846  0.91875380  0.43772007  1
  Se  Se162  1  0.40753661  0.92417213  0.94093048  1
  Se  Se163  1  0.74635477  0.25922575  0.45150539  1
  Se  Se164  1  0.73806827  0.25696839  0.94002990  1
  Se  Se165  1  0.74814890  0.59201102  0.43748939  1
  Se  Se166  1  0.74687354  0.59265907  0.93807225  1
  Se  Se167  1  0.73128432  0.91932317  0.45245716  1
  Se  Se168  1  0.74481172  0.92056086  0.93588548  1
  Se  Se169  1  0.25461962  0.08173754  0.43991534  1
  Se  Se170  1  0.25972736  0.08051251  0.93792268  1
  Se  Se171  1  0.24661779  0.41586120  0.44471563  1
  Se  Se172  1  0.24960873  0.42318839  0.94708418  1
  Se  Se173  1  0.24133346  0.76079575  0.44597576  1
  Se  Se174  1  0.25350503  0.75292459  0.94926770  1
  Se  Se175  1  0.57399425  0.09189070  0.45191157  1
  Se  Se176  1  0.58064809  0.08421422  0.93828206  1
  Se  Se177  1  0.58127012  0.42302173  0.45207593  1
  Se  Se178  1  0.58599663  0.41946061  0.95156950  1
  Se  Se179  1  0.58627300  0.74249072  0.43740133  1
  Se  Se180  1  0.58475460  0.74788692  0.93663622  1
  Se  Se181  1  0.88987929  0.10410915  0.44177589  1
  Se  Se182  1  0.92857715  0.06559927  0.94654182  1
  Se  Se183  1  0.92664132  0.41227890  0.43981831  1
  Se  Se184  1  0.91805505  0.41308275  0.93906375  1
  Se  Se185  1  0.91862505  0.74887174  0.44040000  1
  Se  Se186  1  0.93485559  0.74045898  0.94495143  1
  Se  Se187  1  0.25363615  0.25548225  0.30522912  1
  Se  Se188  1  0.23186078  0.23324012  0.80220239  1
  Se  Se189  1  0.25091869  0.58633592  0.31171684  1
  Se  Se190  1  0.25196713  0.58762356  0.80701868  1
  Se  Se191  1  0.24280370  0.90873003  0.29757116  1
  Se  Se192  1  0.24613801  0.91325978  0.80573001  1
  Se  Se193  1  0.58076273  0.24470883  0.31404897  1
  Se  Se194  1  0.56952441  0.24708046  0.81079961  1
  Se  Se195  1  0.58248778  0.58263699  0.30285778  1
  Se  Se196  1  0.58148565  0.58103131  0.80176258  1
  Se  Se197  1  0.57360091  0.90855880  0.31251464  1
  Se  Se198  1  0.57742922  0.91814779  0.79907691  1
  Se  Se199  1  0.92250765  0.24335907  0.31285383  1
  Se  Se200  1  0.91674648  0.24226228  0.80021662  1
  Se  Se201  1  0.91737009  0.58222706  0.29578323  1
  Se  Se202  1  0.91093928  0.57593004  0.80990311  1
  Se  Se203  1  0.90612052  0.91813689  0.32367260  1
  Se  Se204  1  0.91695265  0.91025901  0.80564006  1
  Se  Se205  1  0.08789081  0.08697903  0.31108067  1
  Se  Se206  1  0.09186029  0.08629403  0.80644695  1
  Se  Se207  1  0.09097358  0.41900002  0.31099010  1
  Se  Se208  1  0.08804653  0.42452765  0.80907742  1
  Se  Se209  1  0.07776214  0.74504053  0.30077315  1
  Se  Se210  1  0.08850206  0.75248590  0.80801684  1
  Se  Se211  1  0.41615414  0.08503669  0.30477021  1
  Se  Se212  1  0.40901710  0.08161401  0.80053279  1
  Se  Se213  1  0.41480564  0.41576337  0.30691864  1
  Se  Se214  1  0.41256428  0.41670617  0.80761999  1
  Se  Se215  1  0.41132173  0.74909276  0.30438367  1
  Se  Se216  1  0.41770533  0.75151849  0.80154096  1
  Se  Se217  1  0.75554653  0.07901534  0.32168139  1
  Se  Se218  1  0.75038008  0.08162399  0.79702697  1
  Se  Se219  1  0.75694368  0.42307595  0.31039341  1
  Se  Se220  1  0.75620957  0.42527756  0.80823534  1
  Se  Se221  1  0.74774836  0.74803550  0.30040653  1
  Se  Se222  1  0.75376058  0.75176929  0.79859619  1
  Se  Se223  1  0.25246982  0.08651702  0.19994778  1
  Se  Se224  1  0.23033418  0.05852262  0.65475269  1
  Se  Se225  1  0.25439006  0.41635743  0.19858373  1
  Se  Se226  1  0.25148207  0.41502538  0.69770857  1
  Se  Se227  1  0.23438759  0.76092494  0.19972969  1
  Se  Se228  1  0.25254607  0.74689718  0.69249998  1
  Se  Se229  1  0.57626538  0.09005454  0.19509953  1
  Se  Se230  1  0.58006452  0.08214504  0.69914440  1
  Se  Se231  1  0.57271789  0.42389742  0.18885501  1
  Se  Se232  1  0.57597556  0.42033710  0.68886284  1
  Se  Se233  1  0.58333132  0.74603799  0.19921405  1
  Se  Se234  1  0.58396334  0.74860556  0.69467864  1
  Se  Se235  1  0.91708949  0.07713296  0.20725647  1
  Se  Se236  1  0.91946700  0.08940843  0.68102345  1
  Se  Se237  1  0.90662856  0.42280351  0.18689729  1
  Se  Se238  1  0.90983831  0.42723519  0.69423711  1
  Se  Se239  1  0.91465348  0.75948511  0.19929409  1
  Se  Se240  1  0.92000895  0.76678705  0.68230464  1
  Se  Se241  1  0.09567003  0.24400613  0.18914495  1
  Se  Se242  1  0.09166902  0.23564395  0.67806447  1
  Se  Se243  1  0.09069646  0.57873895  0.19921887  1
  Se  Se244  1  0.09238066  0.58127285  0.69137182  1
  Se  Se245  1  0.05808240  0.94169692  0.19400074  1
  Se  Se246  1  0.10290216  0.91353247  0.68214182  1
  Se  Se247  1  0.41574326  0.25598267  0.19635715  1
  Se  Se248  1  0.40660259  0.24593268  0.69604848  1
  Se  Se249  1  0.41024091  0.58688843  0.20100910  1
  Se  Se250  1  0.41507556  0.58111413  0.69641424  1
  Se  Se251  1  0.42105793  0.91737544  0.19776335  1
  Se  Se252  1  0.40841799  0.91441079  0.69477621  1
  Se  Se253  1  0.75764648  0.23627135  0.20214549  1
  Se  Se254  1  0.75379442  0.24682781  0.68882264  1
  Se  Se255  1  0.74354570  0.58486894  0.19063360  1
  Se  Se256  1  0.76019703  0.58615541  0.69771893  1
  Se  Se257  1  0.75454093  0.90988079  0.19115469  1
  Se  Se258  1  0.74701710  0.91906098  0.69311789  1
