# generated using pymatgen
data_In86Cu29Se144
_symmetry_space_group_name_H-M   'P 1'
_cell_length_a   17.58489770
_cell_length_b   17.58642893
_cell_length_c   23.45269217
_cell_angle_alpha   90.00274948
_cell_angle_beta   89.98181435
_cell_angle_gamma   90.00927870
_symmetry_Int_Tables_number   1
_chemical_formula_structural   In86Cu29Se144
_chemical_formula_sum   'In86 Cu29 Se144'
_cell_volume   7252.87483396
_cell_formula_units_Z   1
loop_
 _symmetry_equiv_pos_site_id
 _symmetry_equiv_pos_as_xyz
  1  'x, y, z'
loop_
 _atom_site_type_symbol
 _atom_site_label
 _atom_site_symmetry_multiplicity
 _atom_site_fract_x
 _atom_site_fract_y
 _atom_site_fract_z
 _atom_site_occupancy
  In  In0  1  -0.01370215  0.16100813  0.12862723  1
  In  In1  1  0.01029138  0.16823630  0.62799215  1
  In  In2  1  0.00917679  0.50864898  0.11580436  1
  In  In3  1  -0.01914541  0.50961344  0.62767252  1
  In  In4  1  -0.00238938  0.82790656  0.12668369  1
  In  In5  1  -0.00949259  0.84186947  0.62175276  1
  In  In6  1  0.34574377  0.15547192  0.12790043  1
  In  In7  1  0.33833366  0.16231823  0.63714646  1
  In  In8  1  0.33215864  0.50136476  0.12516498  1
  In  In9  1  0.34465436  0.49777521  0.64225063  1
  In  In10  1  0.32762755  0.83899489  0.12861183  1
  In  In11  1  0.34793450  0.82578509  0.63691484  1
  In  In12  1  0.65646521  0.17226878  0.12886683  1
  In  In13  1  0.65979946  0.16861440  0.62692863  1
  In  In14  1  0.64580456  0.47669296  0.09904162  1
  In  In15  1  0.68309620  0.49545112  0.62798330  1
  In  In16  1  0.67942333  0.83332690  0.12179598  1
  In  In17  1  0.66442374  0.84009184  0.62723709  1
  In  In18  1  0.16997732  0.00056217  0.36422910  1
  In  In19  1  0.16515632  -0.01572353  0.88056491  1
  In  In20  1  0.17226209  0.32570629  0.36880085  1
  In  In21  1  0.17644352  0.34366752  0.87296080  1
  In  In22  1  0.16908649  0.67320399  0.36576236  1
  In  In23  1  0.17640295  0.65727134  0.88538034  1
  In  In24  1  0.49799387  -0.00448131  0.37094090  1
  In  In25  1  0.51411328  0.01218023  0.87425336  1
  In  In26  1  0.50001229  0.33481682  0.36629553  1
  In  In27  1  0.49152096  0.34990830  0.89223272  1
  In  In28  1  0.50743933  0.68005125  0.37146475  1
  In  In29  1  0.49688094  0.65009717  0.86403268  1
  In  In30  1  0.81653858  -0.01704099  0.36435640  1
  In  In31  1  0.81501544  -0.01008455  0.86957338  1
  In  In32  1  0.82755871  0.34915903  0.37495165  1
  In  In33  1  0.84670803  0.32289080  0.87274338  1
  In  In34  1  0.83206299  0.66216171  0.37531352  1
  In  In35  1  0.82184545  0.67887640  0.87754445  1
  In  In36  1  0.01011984  0.16549498  0.37010244  1
  In  In37  1  -0.02287684  0.16970808  0.87015319  1
  In  In38  1  -0.02084661  0.50294614  0.37027180  1
  In  In39  1  0.00836265  0.49669063  0.88068845  1
  In  In40  1  -0.01192602  0.82095559  0.36786780  1
  In  In41  1  0.00044444  0.83636896  0.88445136  1
  In  In42  1  0.33425523  0.16522310  0.36521283  1
  In  In43  1  0.34751592  0.17881527  0.87400038  1
  In  In44  1  0.33460947  0.50001726  0.36560384  1
  In  In45  1  0.33683958  0.49865445  0.87625361  1
  In  In46  1  0.33991283  0.83842344  0.36813030  1
  In  In47  1  0.32983212  0.82262830  0.87298233  1
  In  In48  1  0.66220971  0.16404840  0.36791638  1
  In  In49  1  0.66643459  0.15767187  0.88100360  1
  In  In50  1  0.67502682  0.50035743  0.37156440  1
  In  In51  1  0.65716000  0.50798188  0.88528150  1
  In  In52  1  0.65886350  0.84451212  0.38797966  1
  In  In53  1  0.68039085  0.83934172  0.86436445  1
  In  In54  1  0.17339132  -0.01195403  0.12777213  1
  In  In55  1  0.16962729  0.01044526  0.62916849  1
  In  In56  1  0.16845303  0.35094873  0.12099605  1
  In  In57  1  0.17087741  0.33263026  0.63483003  1
  In  In58  1  0.16578499  0.66747738  0.12403796  1
  In  In59  1  0.17627099  0.67303329  0.62779897  1
  In  In60  1  0.49932043  0.00210207  0.12627310  1
  In  In61  1  0.52245756  -0.01801983  0.64392023  1
  In  In62  1  0.50000172  0.32814219  0.12108616  1
  In  In63  1  0.50129982  0.32598625  0.62989458  1
  In  In64  1  0.49896685  0.65140227  0.12219399  1
  In  In65  1  0.49269985  0.67624550  0.63426224  1
  In  In66  1  0.83990326  -0.00661315  0.13410137  1
  In  In67  1  0.82333418  -0.01384199  0.62022252  1
  In  In68  1  0.81615337  0.33144721  0.11948047  1
  In  In69  1  0.82270713  0.35408903  0.62959448  1
  In  In70  1  0.83301136  0.66889475  0.11967695  1
  In  In71  1  0.82437551  0.66671530  0.62505857  1
  In  In72  1  0.66334127  0.33593868  0.75386799  1
  In  In73  1  -0.00246858  0.00316020  0.75078569  1
  In  In74  1  0.16209244  0.50635340  0.50038517  1
  In  In75  1  0.66850561  0.66339930  0.24413330  1
  In  In76  1  0.16742957  0.16599544  0.49419192  1
  In  In77  1  0.16401503  0.83349745  0.50385841  1
  In  In78  1  0.16888030  0.16738086  -0.00161561  1
  In  In79  1  0.00032186  0.33553920  0.24802193  1
  In  In80  1  0.50289841  0.16119195  0.50682118  1
  In  In81  1  0.82681306  0.16127454  -0.00213993  1
  In  In82  1  0.50804014  0.50575197  0.49927426  1
  In  In83  1  0.50609443  0.83061493  -0.00686662  1
  In  In84  1  0.00359094  0.66674566  0.74616782  1
  In  In85  1  0.83400043  0.16787790  0.49919346  1
  Cu  Cu86  1  0.66941859  0.66637406  -0.00431156  1
  Cu  Cu87  1  -0.00931606  -0.00698356  0.49122322  1
  Cu  Cu88  1  0.34116236  0.67185031  0.50541203  1
  Cu  Cu89  1  0.33158867  0.66602741  -0.00063004  1
  Cu  Cu90  1  0.83576580  0.50174311  0.75379514  1
  Cu  Cu91  1  -0.00307250  0.66921602  0.00110901  1
  Cu  Cu92  1  0.33554029  0.33882099  0.00010131  1
  Cu  Cu93  1  0.16239703  0.83159795  0.24619297  1
  Cu  Cu94  1  0.33673149  0.33189645  0.50047137  1
  Cu  Cu95  1  0.50247351  0.83692383  0.75657190  1
  Cu  Cu96  1  0.83265980  0.83140707  0.24845363  1
  Cu  Cu97  1  0.49652060  0.17034158  0.75577482  1
  Cu  Cu98  1  0.17145020  0.16502018  0.24508015  1
  Cu  Cu99  1  0.50018688  0.16593806  0.24772804  1
  Cu  Cu100  1  0.17014474  0.16744269  0.75531808  1
  Cu  Cu101  1  0.34296059  -0.01044152  0.50061671  1
  Cu  Cu102  1  -0.01378408  0.66426220  0.49719757  1
  Cu  Cu103  1  0.00292952  0.33653793  -0.00431388  1
  Cu  Cu104  1  0.17229540  0.82936066  0.75439072  1
  Cu  Cu105  1  0.82818771  0.16425772  0.24827902  1
  Cu  Cu106  1  -0.00223684  -0.00870616  0.00678569  1
  Cu  Cu107  1  -0.00972051  0.34464235  0.50405854  1
  Cu  Cu108  1  0.16800450  0.50682521  0.24421979  1
  Cu  Cu109  1  0.33831123  -0.00144808  0.00403571  1
  Cu  Cu110  1  0.49483456  0.49231749  0.24053783  1
  Cu  Cu111  1  0.66842550  0.67253170  0.50302152  1
  Cu  Cu112  1  0.82812668  0.50188637  0.24327081  1
  Cu  Cu113  1  0.49743786  0.83403282  0.24957302  1
  Cu  Cu114  1  0.17090616  0.49540731  0.75897919  1
  Se  Se115  1  0.07663717  0.07975294  0.06040910  1
  Se  Se116  1  0.07381128  0.07128521  0.55115134  1
  Se  Se117  1  0.08683707  0.42087952  0.04649343  1
  Se  Se118  1  0.07858753  0.41503821  0.56457431  1
  Se  Se119  1  0.08207740  0.75040128  0.05546263  1
  Se  Se120  1  0.07105213  0.73741441  0.55955468  1
  Se  Se121  1  0.42375989  0.08332516  0.05118049  1
  Se  Se122  1  0.41264609  0.07235545  0.56577653  1
  Se  Se123  1  0.41721619  0.42013617  0.05701733  1
  Se  Se124  1  0.41383591  0.41410989  0.55902454  1
  Se  Se125  1  0.41375841  0.74734338  0.05853256  1
  Se  Se126  1  0.42234798  0.75672347  0.55651294  1
  Se  Se127  1  0.74761099  0.07743710  0.06781499  1
  Se  Se128  1  0.73906687  0.08098928  0.55614123  1
  Se  Se129  1  0.76473435  0.42659329  0.04684647  1
  Se  Se130  1  0.74829194  0.41759572  0.54901709  1
  Se  Se131  1  0.75128109  0.75044887  0.04851360  1
  Se  Se132  1  0.74945459  0.75641573  0.55733644  1
  Se  Se133  1  0.25694236  0.25503050  0.06121037  1
  Se  Se134  1  0.25670770  0.25074599  0.55942879  1
  Se  Se135  1  0.24917941  0.58347738  0.05546609  1
  Se  Se136  1  0.26309654  0.58509184  0.56067033  1
  Se  Se137  1  0.25142712  0.91459285  0.05129268  1
  Se  Se138  1  0.25675777  0.92013251  0.56403623  1
  Se  Se139  1  0.59065241  0.25493678  0.05269995  1
  Se  Se140  1  0.59338969  0.26442223  0.55390451  1
  Se  Se141  1  0.57788462  0.58567371  0.04353350  1
  Se  Se142  1  0.59073876  0.59242129  0.56583014  1
  Se  Se143  1  0.58977024  0.91950637  0.05742408  1
  Se  Se144  1  0.57971101  0.91929534  0.55670926  1
  Se  Se145  1  0.92314731  0.25552719  0.05541601  1
  Se  Se146  1  0.92042332  0.25701004  0.56417968  1
  Se  Se147  1  0.91426772  0.58281991  0.05169031  1
  Se  Se148  1  0.90429049  0.58293575  0.55260798  1
  Se  Se149  1  0.91096648  0.91118157  0.05877784  1
  Se  Se150  1  0.90968380  0.91300285  0.54717033  1
  Se  Se151  1  0.07227388  0.26621279  0.44394992  1
  Se  Se152  1  0.07577741  0.25035944  0.93540025  1
  Se  Se153  1  0.07310083  0.59257420  0.43659667  1
  Se  Se154  1  0.08295246  0.58397734  0.95078210  1
  Se  Se155  1  0.08071644  0.91886479  0.43500428  1
  Se  Se156  1  0.08643681  0.91110088  0.95591967  1
  Se  Se157  1  0.41345361  0.25024611  0.44078083  1
  Se  Se158  1  0.41945545  0.24861887  0.95464101  1
  Se  Se159  1  0.41191672  0.59020340  0.43939194  1
  Se  Se160  1  0.41691897  0.58621855  0.94489808  1
  Se  Se161  1  0.42210090  0.90936708  0.44336469  1
  Se  Se162  1  0.41343185  0.92177742  0.93669944  1
  Se  Se163  1  0.74326068  0.25458364  0.43766578  1
  Se  Se164  1  0.74442891  0.26085999  0.94252428  1
  Se  Se165  1  0.74358598  0.58652062  0.44495301  1
  Se  Se166  1  0.75688239  0.58241558  0.94644208  1
  Se  Se167  1  0.75596685  0.91710349  0.45014580  1
  Se  Se168  1  0.74475754  0.91435321  0.94628948  1
  Se  Se169  1  0.26240482  0.07142405  0.44179479  1
  Se  Se170  1  0.25926496  0.07771731  0.93949606  1
  Se  Se171  1  0.25443618  0.41143907  0.44228844  1
  Se  Se172  1  0.25017039  0.42150253  0.94859370  1
  Se  Se173  1  0.25525089  0.74499424  0.44363346  1
  Se  Se174  1  0.24859290  0.75409994  0.95052951  1
  Se  Se175  1  0.58850467  0.07553591  0.44194710  1
  Se  Se176  1  0.58723128  0.08099440  0.95353010  1
  Se  Se177  1  0.58922948  0.40993858  0.43906033  1
  Se  Se178  1  0.59003546  0.41657905  0.95569581  1
  Se  Se179  1  0.57933795  0.75074474  0.45070381  1
  Se  Se180  1  0.59000892  0.74117432  0.92990580  1
  Se  Se181  1  0.91870474  0.08057968  0.43241350  1
  Se  Se182  1  0.92065086  0.06833150  0.94181916  1
  Se  Se183  1  0.90960023  0.42510748  0.44817785  1
  Se  Se184  1  0.91560746  0.41506335  0.94295189  1
  Se  Se185  1  0.90764972  0.75227432  0.44486377  1
  Se  Se186  1  0.91354462  0.75157084  0.94689509  1
  Se  Se187  1  0.25367032  0.25087391  0.29715665  1
  Se  Se188  1  0.25346072  0.25182624  0.80792594  1
  Se  Se189  1  0.25188270  0.58665985  0.30129266  1
  Se  Se190  1  0.25176016  0.58421944  0.80798903  1
  Se  Se191  1  0.25011933  0.91289972  0.29959628  1
  Se  Se192  1  0.25157944  0.91645921  0.80701570  1
  Se  Se193  1  0.58347793  0.25106228  0.30026437  1
  Se  Se194  1  0.57590730  0.24926954  0.81794972  1
  Se  Se195  1  0.57332863  0.57346989  0.30427480  1
  Se  Se196  1  0.59304690  0.57641503  0.80134030  1
  Se  Se197  1  0.58434404  0.91049994  0.30540502  1
  Se  Se198  1  0.58749503  0.92331618  0.80421357  1
  Se  Se199  1  0.90810292  0.24687313  0.30981716  1
  Se  Se200  1  0.91606260  0.25027500  0.79194760  1
  Se  Se201  1  0.90889771  0.58703610  0.29688778  1
  Se  Se202  1  0.91730067  0.58274321  0.81264330  1
  Se  Se203  1  0.91816611  0.91617253  0.30086280  1
  Se  Se204  1  0.91355580  0.90612456  0.80734193  1
  Se  Se205  1  0.08542549  0.08427471  0.29803589  1
  Se  Se206  1  0.08884951  0.08815323  0.81600899  1
  Se  Se207  1  0.08925676  0.42843210  0.31004498  1
  Se  Se208  1  0.08043787  0.41389828  0.80554425  1
  Se  Se209  1  0.07842854  0.74735315  0.29939549  1
  Se  Se210  1  0.08905750  0.75207493  0.81361954  1
  Se  Se211  1  0.41779258  0.07982285  0.30149239  1
  Se  Se212  1  0.41680071  0.08182194  0.80769602  1
  Se  Se213  1  0.41231702  0.41198084  0.29884668  1
  Se  Se214  1  0.41815594  0.41163542  0.81015482  1
  Se  Se215  1  0.41603198  0.74681099  0.30083563  1
  Se  Se216  1  0.41881707  0.74872398  0.80436797  1
  Se  Se217  1  0.74440564  0.07988823  0.30066411  1
  Se  Se218  1  0.76902597  0.10505266  0.81209698  1
  Se  Se219  1  0.74698132  0.41694335  0.29698417  1
  Se  Se220  1  0.75617240  0.42152238  0.81481045  1
  Se  Se221  1  0.74705270  0.75543863  0.30988510  1
  Se  Se222  1  0.74876645  0.74453241  0.79694241  1
  Se  Se223  1  0.25301483  0.07850736  0.19271427  1
  Se  Se224  1  0.25133296  0.08070063  0.70358450  1
  Se  Se225  1  0.25039426  0.41761534  0.19720296  1
  Se  Se226  1  0.25433408  0.41322868  0.70248464  1
  Se  Se227  1  0.24896873  0.74923160  0.19452569  1
  Se  Se228  1  0.25581880  0.74582188  0.70156233  1
  Se  Se229  1  0.58394534  0.07998064  0.19721595  1
  Se  Se230  1  0.58481537  0.09179002  0.70221430  1
  Se  Se231  1  0.58466135  0.41555267  0.18874246  1
  Se  Se232  1  0.57647903  0.42695856  0.69139741  1
  Se  Se233  1  0.57548135  0.75511219  0.18570941  1
  Se  Se234  1  0.58352660  0.75601494  0.69805775  1
  Se  Se235  1  0.91823561  0.08012666  0.20449007  1
  Se  Se236  1  0.91076635  0.08461148  0.68348874  1
  Se  Se237  1  0.91269958  0.42124056  0.18446050  1
  Se  Se238  1  0.91846651  0.41799231  0.70026314  1
  Se  Se239  1  0.91177157  0.74486271  0.19499458  1
  Se  Se240  1  0.91021976  0.75914780  0.69296639  1
  Se  Se241  1  0.09045025  0.24578430  0.18529091  1
  Se  Se242  1  0.08627213  0.24832596  0.70049635  1
  Se  Se243  1  0.07924182  0.58620345  0.19404315  1
  Se  Se244  1  0.09626423  0.57135048  0.68951220  1
  Se  Se245  1  0.07912073  0.91639095  0.19417466  1
  Se  Se246  1  0.09178078  0.90766822  0.69233849  1
  Se  Se247  1  0.41694159  0.25009327  0.19436453  1
  Se  Se248  1  0.41520730  0.25468059  0.70160184  1
  Se  Se249  1  0.41312301  0.58516889  0.19680561  1
  Se  Se250  1  0.41842267  0.59026366  0.70417753  1
  Se  Se251  1  0.41633451  0.91860169  0.19469277  1
  Se  Se252  1  0.41479321  0.92127696  0.70505519  1
  Se  Se253  1  0.74790284  0.25102585  0.19645655  1
  Se  Se254  1  0.75477034  0.24775293  0.69168946  1
  Se  Se255  1  0.74407283  0.57070712  0.17801167  1
  Se  Se256  1  0.75220267  0.58385785  0.70026167  1
  Se  Se257  1  0.74603940  0.91483059  0.19919226  1
  Se  Se258  1  0.74376940  0.92438546  0.69825801  1
