# generated using pymatgen
data_In86Cu29Se144
_symmetry_space_group_name_H-M   'P 1'
_cell_length_a   17.57979678
_cell_length_b   17.58083935
_cell_length_c   23.42885633
_cell_angle_alpha   89.99785977
_cell_angle_beta   90.01952516
_cell_angle_gamma   89.99972014
_symmetry_Int_Tables_number   1
_chemical_formula_structural   In86Cu29Se144
_chemical_formula_sum   'In86 Cu29 Se144'
_cell_volume   7241.09957053
_cell_formula_units_Z   1
loop_
 _symmetry_equiv_pos_site_id
 _symmetry_equiv_pos_as_xyz
  1  'x, y, z'
loop_
 _atom_site_type_symbol
 _atom_site_label
 _atom_site_symmetry_multiplicity
 _atom_site_fract_x
 _atom_site_fract_y
 _atom_site_fract_z
 _atom_site_occupancy
  In  In0  1  0.00505836  0.16349356  0.13161044  1
  In  In1  1  0.00323542  0.15878603  0.62870097  1
  In  In2  1  -0.00514807  0.49239309  0.14423180  1
  In  In3  1  -0.01484675  0.48844314  0.61147254  1
  In  In4  1  0.00799758  0.83178700  0.13065450  1
  In  In5  1  -0.00666260  0.85341354  0.62066580  1
  In  In6  1  0.32042516  0.17427971  0.13265124  1
  In  In7  1  0.33220046  0.16795494  0.61307437  1
  In  In8  1  0.33751120  0.49665788  0.13949034  1
  In  In9  1  0.33375006  0.49933032  0.60819204  1
  In  In10  1  0.31973726  0.84829042  0.14416295  1
  In  In11  1  0.32303223  0.83073814  0.62410862  1
  In  In12  1  0.68250427  0.16463120  0.14447941  1
  In  In13  1  0.67611055  0.18788363  0.61927010  1
  In  In14  1  0.68104570  0.49373562  0.14401472  1
  In  In15  1  0.67229047  0.49791542  0.61311200  1
  In  In16  1  0.66700662  0.83138143  0.14095957  1
  In  In17  1  0.66968397  0.81975607  0.61985917  1
  In  In18  1  0.16866425  0.00491609  0.37167938  1
  In  In19  1  0.15970898  0.00648229  0.88623718  1
  In  In20  1  0.16529598  0.33358182  0.37342429  1
  In  In21  1  0.14218486  0.32289192  0.87260459  1
  In  In22  1  0.15765169  0.66134510  0.36914238  1
  In  In23  1  0.17522274  0.66637985  0.88099583  1
  In  In24  1  0.50926758  0.00739395  0.36577369  1
  In  In25  1  0.49477225  0.00285929  0.87561492  1
  In  In26  1  0.49970918  0.33436816  0.37671574  1
  In  In27  1  0.51545075  0.32459335  0.87170306  1
  In  In28  1  0.49698937  0.66496115  0.37054287  1
  In  In29  1  0.51105312  0.65341911  0.87485702  1
  In  In30  1  0.82636102  0.00375272  0.36417825  1
  In  In31  1  0.85028901  -0.00450284  0.87501972  1
  In  In32  1  0.85134542  0.34649393  0.34992916  1
  In  In33  1  0.82741071  0.32451198  0.86532609  1
  In  In34  1  0.83728372  0.65817863  0.37535014  1
  In  In35  1  0.82335827  0.67562613  0.86912226  1
  In  In36  1  -0.00263323  0.17373843  0.36569281  1
  In  In37  1  0.00175114  0.16689929  0.88133924  1
  In  In38  1  0.00100355  0.50193252  0.37459792  1
  In  In39  1  0.00348102  0.48257375  0.87233069  1
  In  In40  1  -0.00601674  0.83260466  0.37335089  1
  In  In41  1  0.00129613  0.84241558  0.87533348  1
  In  In42  1  0.33112378  0.16900390  0.37381149  1
  In  In43  1  0.32899704  0.15067423  0.87814779  1
  In  In44  1  0.33338752  0.49968604  0.37658964  1
  In  In45  1  0.33900384  0.50633654  0.87357157  1
  In  In46  1  0.34196203  0.83583908  0.35919510  1
  In  In47  1  0.32666354  0.82682716  0.88184199  1
  In  In48  1  0.66585002  0.16059577  0.36557000  1
  In  In49  1  0.66801082  0.18390853  0.87189151  1
  In  In50  1  0.67828441  0.49182548  0.37340259  1
  In  In51  1  0.67413028  0.49973842  0.86724115  1
  In  In52  1  0.66895718  0.83938218  0.36719203  1
  In  In53  1  0.68136526  0.82713575  0.86876614  1
  In  In54  1  0.16367261  0.00191544  0.13005880  1
  In  In55  1  0.13173759  0.00645125  0.62387789  1
  In  In56  1  0.17090865  0.32895911  0.13123078  1
  In  In57  1  0.15443292  0.32113215  0.61333869  1
  In  In58  1  0.15461235  0.67515799  0.13495779  1
  In  In59  1  0.17452568  0.66764029  0.62172996  1
  In  In60  1  0.50172389  -0.00745647  0.14134681  1
  In  In61  1  0.48679833  0.00183893  0.61859471  1
  In  In62  1  0.50100565  0.32363593  0.13199278  1
  In  In63  1  0.51282900  0.34812979  0.60622597  1
  In  In64  1  0.50596849  0.66556382  0.14647114  1
  In  In65  1  0.51713432  0.66432900  0.61210446  1
  In  In66  1  0.82621984  0.01699640  0.13936959  1
  In  In67  1  0.86306721  0.00725879  0.60935027  1
  In  In68  1  0.86418499  0.30426299  0.17247280  1
  In  In69  1  0.82688276  0.32983647  0.63280232  1
  In  In70  1  0.83228212  0.66165676  0.14547980  1
  In  In71  1  0.81679055  0.65733417  0.60062877  1
  In  In72  1  0.50197126  0.50250280  0.00887516  1
  In  In73  1  0.33579576  0.66939794  0.73799514  1
  In  In74  1  0.83317717  0.49891448  0.01437322  1
  In  In75  1  0.16689186  0.83488975  0.49953485  1
  In  In76  1  0.83908956  0.83957572  0.00583817  1
  In  In77  1  -0.00815871  0.66396035  0.74552053  1
  In  In78  1  0.49441111  0.16616018  0.00363886  1
  In  In79  1  0.32784711  -0.00109221  0.75532256  1
  In  In80  1  0.83314488  0.17185789  0.49302470  1
  In  In81  1  0.67289675  -0.00048133  0.74479344  1
  In  In82  1  0.16420075  0.49462743  0.00189039  1
  In  In83  1  0.50431663  0.83374995  0.48650819  1
  In  In84  1  0.33669000  0.33523668  0.74993161  1
  In  In85  1  0.49921388  0.83199357  0.01863333  1
  Cu  Cu86  1  -0.00012028  0.66302278  0.49249631  1
  Cu  Cu87  1  0.51060158  0.18044571  0.73799707  1
  Cu  Cu88  1  0.66624709  0.00026089  0.49102346  1
  Cu  Cu89  1  0.16556716  0.49492368  0.73939798  1
  Cu  Cu90  1  0.16204446  0.83643536  0.25305638  1
  Cu  Cu91  1  0.32114987  0.32982482  0.00163627  1
  Cu  Cu92  1  0.82842927  0.49925884  0.74083292  1
  Cu  Cu93  1  0.66624722  0.67101605  0.00559480  1
  Cu  Cu94  1  0.67779240  0.01526204  0.00863899  1
  Cu  Cu95  1  0.67858573  0.33146651  0.00347618  1
  Cu  Cu96  1  0.49641028  0.49853207  0.26090026  1
  Cu  Cu97  1  0.50603540  0.82352566  0.74652172  1
  Cu  Cu98  1  0.16175772  0.16060265  0.74850520  1
  Cu  Cu99  1  0.32149333  0.67636437  0.01221578  1
  Cu  Cu100  1  0.00003187  0.33363961  0.49189859  1
  Cu  Cu101  1  -0.01014797  0.32385519  0.00739074  1
  Cu  Cu102  1  0.00346535  0.67144544  0.00749106  1
  Cu  Cu103  1  0.00085530  0.00656641  0.00386078  1
  Cu  Cu104  1  0.49089616  0.16842348  0.25254755  1
  Cu  Cu105  1  0.16723901  0.49616949  0.25708111  1
  Cu  Cu106  1  0.83053845  0.82740127  0.74060974  1
  Cu  Cu107  1  0.33043826  0.33215787  0.49173662  1
  Cu  Cu108  1  0.32783170  0.00965368  0.49617897  1
  Cu  Cu109  1  0.32413430  -0.00253123  0.01091297  1
  Cu  Cu110  1  0.51813777  0.50136798  0.74078338  1
  Cu  Cu111  1  0.33303572  0.66853289  0.49290469  1
  Cu  Cu112  1  0.84111342  0.83375116  0.25435514  1
  Cu  Cu113  1  0.67199976  0.33217152  0.49080852  1
  Cu  Cu114  1  0.16777210  0.16923299  0.25309879  1
  Se  Se115  1  0.08618965  0.08671470  0.05808075  1
  Se  Se116  1  0.08090900  0.09540510  0.54733341  1
  Se  Se117  1  0.06972228  0.41155636  0.06379192  1
  Se  Se118  1  0.08363825  0.41727974  0.54743083  1
  Se  Se119  1  0.08807980  0.75558150  0.05548773  1
  Se  Se120  1  0.07474289  0.74347775  0.55807554  1
  Se  Se121  1  0.41243470  0.07424464  0.06842648  1
  Se  Se122  1  0.42014269  0.08858035  0.54571469  1
  Se  Se123  1  0.40603010  0.40671719  0.05909179  1
  Se  Se124  1  0.41671954  0.41803592  0.54088302  1
  Se  Se125  1  0.40823982  0.74284543  0.07588848  1
  Se  Se126  1  0.41092244  0.74972397  0.55459641  1
  Se  Se127  1  0.75742781  0.09911334  0.06167393  1
  Se  Se128  1  0.74479961  0.07860878  0.55609940  1
  Se  Se129  1  0.75214351  0.40255943  0.07189503  1
  Se  Se130  1  0.75688048  0.40462341  0.55284750  1
  Se  Se131  1  0.75090831  0.74667078  0.06531807  1
  Se  Se132  1  0.74795671  0.75917302  0.54033738  1
  Se  Se133  1  0.24125168  0.24614159  0.05482540  1
  Se  Se134  1  0.24717645  0.24869735  0.54660031  1
  Se  Se135  1  0.25062108  0.58167359  0.06708437  1
  Se  Se136  1  0.24717030  0.58772507  0.54693161  1
  Se  Se137  1  0.24366649  0.91115079  0.06178878  1
  Se  Se138  1  0.25185366  0.93191533  0.56160264  1
  Se  Se139  1  0.59219602  0.25082875  0.06018440  1
  Se  Se140  1  0.58705054  0.24888814  0.54400711  1
  Se  Se141  1  0.59372137  0.58824252  0.06859126  1
  Se  Se142  1  0.58034257  0.57109315  0.54472528  1
  Se  Se143  1  0.59922687  0.92852653  0.06452865  1
  Se  Se144  1  0.58624486  0.92373889  0.55584957  1
  Se  Se145  1  0.91084007  0.25325485  0.07385853  1
  Se  Se146  1  0.92219756  0.25582338  0.55781401  1
  Se  Se147  1  0.92630998  0.59329137  0.06867100  1
  Se  Se148  1  0.91332959  0.57731063  0.54193029  1
  Se  Se149  1  0.92136549  0.93100304  0.06832884  1
  Se  Se150  1  0.91064556  0.90594985  0.53929642  1
  Se  Se151  1  0.08031363  0.24752908  0.43979046  1
  Se  Se152  1  0.08261762  0.24820140  0.95569961  1
  Se  Se153  1  0.08845534  0.57999278  0.44570181  1
  Se  Se154  1  0.07124018  0.58613683  0.94197378  1
  Se  Se155  1  0.07799363  0.92394615  0.44118997  1
  Se  Se156  1  0.07893465  0.91602958  0.95132518  1
  Se  Se157  1  0.41686865  0.24748769  0.44409226  1
  Se  Se158  1  0.40823394  0.25874530  0.93770881  1
  Se  Se159  1  0.41853712  0.58452762  0.44407713  1
  Se  Se160  1  0.40640320  0.59871657  0.95063284  1
  Se  Se161  1  0.40706356  0.92687959  0.43715816  1
  Se  Se162  1  0.41119903  0.92184437  0.95013946  1
  Se  Se163  1  0.75157255  0.25886788  0.42635298  1
  Se  Se164  1  0.75688697  0.24887697  0.94581323  1
  Se  Se165  1  0.76138046  0.56961296  0.44396005  1
  Se  Se166  1  0.74575525  0.58950912  0.94586656  1
  Se  Se167  1  0.75070818  0.92073064  0.43837228  1
  Se  Se168  1  0.74284619  0.92445273  0.94411948  1
  Se  Se169  1  0.24278374  0.09041774  0.44385828  1
  Se  Se170  1  0.24774880  0.08544798  0.95512206  1
  Se  Se171  1  0.24558527  0.41822035  0.44340089  1
  Se  Se172  1  0.25294723  0.41056056  0.93364039  1
  Se  Se173  1  0.25683935  0.75228034  0.43353201  1
  Se  Se174  1  0.24079275  0.75556902  0.95462890  1
  Se  Se175  1  0.58346375  0.08690467  0.44146925  1
  Se  Se176  1  0.59044472  0.07972622  0.94250832  1
  Se  Se177  1  0.58571567  0.41771022  0.44313234  1
  Se  Se178  1  0.59518077  0.41282384  0.94513786  1
  Se  Se179  1  0.59665485  0.74009661  0.43726545  1
  Se  Se180  1  0.58819635  0.75089366  0.94400539  1
  Se  Se181  1  0.92020484  0.07936639  0.43554227  1
  Se  Se182  1  0.91521473  0.08350012  0.94865685  1
  Se  Se183  1  0.91330686  0.41145183  0.43737709  1
  Se  Se184  1  0.91707044  0.41082664  0.94737814  1
  Se  Se185  1  0.91638304  0.74911172  0.44390297  1
  Se  Se186  1  0.91921081  0.74118317  0.94255969  1
  Se  Se187  1  0.25140893  0.25414185  0.30399909  1
  Se  Se188  1  0.24650868  0.23966111  0.80809263  1
  Se  Se189  1  0.25106794  0.58295125  0.30599321  1
  Se  Se190  1  0.24340560  0.57632070  0.80136300  1
  Se  Se191  1  0.24875098  0.92078955  0.30175612  1
  Se  Se192  1  0.23960870  0.90948990  0.81497752  1
  Se  Se193  1  0.57623092  0.24887529  0.30539910  1
  Se  Se194  1  0.59495651  0.25985487  0.79305613  1
  Se  Se195  1  0.58622315  0.57680024  0.31039100  1
  Se  Se196  1  0.59412553  0.58663329  0.79919350  1
  Se  Se197  1  0.57522309  0.91059939  0.30070384  1
  Se  Se198  1  0.57802254  0.90996820  0.80861985  1
  Se  Se199  1  0.90627840  0.23549124  0.28908279  1
  Se  Se200  1  0.94475779  0.27161908  0.81506700  1
  Se  Se201  1  0.92716666  0.58851678  0.30352710  1
  Se  Se202  1  0.90587539  0.57147458  0.81105956  1
  Se  Se203  1  0.92245923  0.92304292  0.30317296  1
  Se  Se204  1  0.91165617  0.90483130  0.80062930  1
  Se  Se205  1  0.08260772  0.08408191  0.30231096  1
  Se  Se206  1  0.08316150  0.08155718  0.81012657  1
  Se  Se207  1  0.07844737  0.41287719  0.30454351  1
  Se  Se208  1  0.08538626  0.41370498  0.79607107  1
  Se  Se209  1  0.07916378  0.75171842  0.30480078  1
  Se  Se210  1  0.08432167  0.74473153  0.81235192  1
  Se  Se211  1  0.40987213  0.08183076  0.30437236  1
  Se  Se212  1  0.43012124  0.09922492  0.80008942  1
  Se  Se213  1  0.41061136  0.41186846  0.30723599  1
  Se  Se214  1  0.43546480  0.42827578  0.80616181  1
  Se  Se215  1  0.42165981  0.74677636  0.29738525  1
  Se  Se216  1  0.42352229  0.75049439  0.81156758  1
  Se  Se217  1  0.74687823  0.08463608  0.29325104  1
  Se  Se218  1  0.75397565  0.08312224  0.81460266  1
  Se  Se219  1  0.72979007  0.39361901  0.29793941  1
  Se  Se220  1  0.74930231  0.41386337  0.79812148  1
  Se  Se221  1  0.75925829  0.75136776  0.30854784  1
  Se  Se222  1  0.74500958  0.74383934  0.79087296  1
  Se  Se223  1  0.24913528  0.08180214  0.20013539  1
  Se  Se224  1  0.24602800  0.08553454  0.68701486  1
  Se  Se225  1  0.24958326  0.41236807  0.20145478  1
  Se  Se226  1  0.24934624  0.41706766  0.68192529  1
  Se  Se227  1  0.24586390  0.74712036  0.20362234  1
  Se  Se228  1  0.23141124  0.76470180  0.69882243  1
  Se  Se229  1  0.58094289  0.08805406  0.20111133  1
  Se  Se230  1  0.57981125  0.08691716  0.68271482  1
  Se  Se231  1  0.57015331  0.42284067  0.19464541  1
  Se  Se232  1  0.59275610  0.41293760  0.68584641  1
  Se  Se233  1  0.60036084  0.73890679  0.20870968  1
  Se  Se234  1  0.58604908  0.74228185  0.69104139  1
  Se  Se235  1  0.91043600  0.10066750  0.20488096  1
  Se  Se236  1  0.91183164  0.08267825  0.69446001  1
  Se  Se237  1  0.89253325  0.43956967  0.21084385  1
  Se  Se238  1  0.91780681  0.41704494  0.69376347  1
  Se  Se239  1  0.92423022  0.75096316  0.19988512  1
  Se  Se240  1  0.90814792  0.74783273  0.67793429  1
  Se  Se241  1  0.08347800  0.25347623  0.20031253  1
  Se  Se242  1  0.08472117  0.24899796  0.69462157  1
  Se  Se243  1  0.08457003  0.57994785  0.20192416  1
  Se  Se244  1  0.08415518  0.57697534  0.68305633  1
  Se  Se245  1  0.07946747  0.92211036  0.20047247  1
  Se  Se246  1  0.08574960  0.90809061  0.69595737  1
  Se  Se247  1  0.40816854  0.25362538  0.19927605  1
  Se  Se248  1  0.42267513  0.25437372  0.68052626  1
  Se  Se249  1  0.41297755  0.58423170  0.20742897  1
  Se  Se250  1  0.42579246  0.57339329  0.68361902  1
  Se  Se251  1  0.42812313  0.90180830  0.20604312  1
  Se  Se252  1  0.42119233  0.90528603  0.69370695  1
  Se  Se253  1  0.72232701  0.28227583  0.20382667  1
  Se  Se254  1  0.76364977  0.23097978  0.69990875  1
  Se  Se255  1  0.73716273  0.59499639  0.21117993  1
  Se  Se256  1  0.75202882  0.58379260  0.68431483  1
  Se  Se257  1  0.75569672  0.91721803  0.20173662  1
  Se  Se258  1  0.75875597  0.91484626  0.67949857  1
