# generated using pymatgen
data_In86Cu29Se144
_symmetry_space_group_name_H-M   'P 1'
_cell_length_a   17.59545522
_cell_length_b   17.59767545
_cell_length_c   23.45940641
_cell_angle_alpha   89.98563107
_cell_angle_beta   89.98532823
_cell_angle_gamma   90.01300943
_symmetry_Int_Tables_number   1
_chemical_formula_structural   In86Cu29Se144
_chemical_formula_sum   'In86 Cu29 Se144'
_cell_volume   7263.94907302
_cell_formula_units_Z   1
loop_
 _symmetry_equiv_pos_site_id
 _symmetry_equiv_pos_as_xyz
  1  'x, y, z'
loop_
 _atom_site_type_symbol
 _atom_site_label
 _atom_site_symmetry_multiplicity
 _atom_site_fract_x
 _atom_site_fract_y
 _atom_site_fract_z
 _atom_site_occupancy
  In  In0  1  -0.01381624  0.16805136  0.13043036  1
  In  In1  1  -0.02694592  0.16999505  0.63262630  1
  In  In2  1  0.00819791  0.49592286  0.12420314  1
  In  In3  1  -0.00238065  0.51668370  0.62146138  1
  In  In4  1  0.00349589  0.82897913  0.12260146  1
  In  In5  1  -0.00739024  0.84075004  0.63579569  1
  In  In6  1  0.33179237  0.15041789  0.12473121  1
  In  In7  1  0.35229648  0.16205893  0.62853988  1
  In  In8  1  0.33268679  0.51707406  0.12534571  1
  In  In9  1  0.32782846  0.50254654  0.63522204  1
  In  In10  1  0.33043105  0.83601334  0.11782003  1
  In  In11  1  0.32459448  0.82661853  0.63092361  1
  In  In12  1  0.66932331  0.15710429  0.10604549  1
  In  In13  1  0.66967512  0.17083806  0.62884342  1
  In  In14  1  0.68083699  0.50736478  0.12267134  1
  In  In15  1  0.68835558  0.48017614  0.64865045  1
  In  In16  1  0.65835619  0.82937032  0.11334567  1
  In  In17  1  0.68226206  0.82447232  0.63929881  1
  In  In18  1  0.15860283  -0.00688014  0.36436339  1
  In  In19  1  0.15265699  -0.01490296  0.87358897  1
  In  In20  1  0.16059051  0.34529191  0.37386013  1
  In  In21  1  0.17923333  0.33472177  0.87318967  1
  In  In22  1  0.16432379  0.66269433  0.36434953  1
  In  In23  1  0.16322501  0.66346769  0.88289544  1
  In  In24  1  0.50381203  0.01241992  0.37386555  1
  In  In25  1  0.52296530  -0.01241166  0.89586500  1
  In  In26  1  0.49419937  0.32146662  0.37797989  1
  In  In27  1  0.50030798  0.32823133  0.87367788  1
  In  In28  1  0.49981683  0.67540389  0.36898320  1
  In  In29  1  0.51287851  0.67764726  0.87119013  1
  In  In30  1  0.83863981  0.00170092  0.37197041  1
  In  In31  1  0.82750577  -0.00105077  0.88489698  1
  In  In32  1  0.84013019  0.32582717  0.38233350  1
  In  In33  1  0.82458548  0.33266577  0.86400316  1
  In  In34  1  0.83539664  0.66719182  0.37069463  1
  In  In35  1  0.85395484  0.68055052  0.85752453  1
  In  In36  1  -0.01967930  0.15909866  0.36041491  1
  In  In37  1  -0.00664739  0.14838620  0.87079415  1
  In  In38  1  -0.00436701  0.49662234  0.36973379  1
  In  In39  1  -0.00428728  0.54381090  0.87467347  1
  In  In40  1  -0.00050212  0.83410795  0.36448797  1
  In  In41  1  -0.00471645  0.81889758  0.89102385  1
  In  In42  1  0.34389393  0.16514974  0.37290515  1
  In  In43  1  0.34175481  0.18037000  0.87217092  1
  In  In44  1  0.32584787  0.50439834  0.37294181  1
  In  In45  1  0.32230676  0.49730149  0.87714430  1
  In  In46  1  0.32291219  0.82901094  0.36264811  1
  In  In47  1  0.33837224  0.82639362  0.87859542  1
  In  In48  1  0.66556007  0.16507093  0.38372094  1
  In  In49  1  0.67137123  0.16373518  0.87238409  1
  In  In50  1  0.66958726  0.51249942  0.37342063  1
  In  In51  1  0.68445065  0.50405611  0.85392141  1
  In  In52  1  0.67614827  0.82891669  0.37210272  1
  In  In53  1  0.67342256  0.83643112  0.88408824  1
  In  In54  1  0.17099878  -0.00882511  0.12914405  1
  In  In55  1  0.15265494  -0.00932034  0.63179534  1
  In  In56  1  0.14735087  0.32887801  0.12093969  1
  In  In57  1  0.16632719  0.34578669  0.63170695  1
  In  In58  1  0.16676520  0.67158326  0.11868490  1
  In  In59  1  0.15588724  0.68200332  0.64560131  1
  In  In60  1  0.49718043  -0.01056044  0.10928527  1
  In  In61  1  0.50462765  0.01613215  0.62604665  1
  In  In62  1  0.50986204  0.32431377  0.12168258  1
  In  In63  1  0.51237720  0.32018824  0.63505446  1
  In  In64  1  0.48973201  0.67500339  0.12594308  1
  In  In65  1  0.50444203  0.66039856  0.63488894  1
  In  In66  1  0.84196368  0.00492026  0.11387606  1
  In  In67  1  0.81874357  0.01729444  0.64881863  1
  In  In68  1  0.84466504  0.32895923  0.12305753  1
  In  In69  1  0.82623452  0.32612616  0.61529757  1
  In  In70  1  0.83215823  0.67269145  0.12677468  1
  In  In71  1  0.84742620  0.64988187  0.64351250  1
  In  In72  1  0.00332127  0.33495415  0.75344052  1
  In  In73  1  0.50010287  0.84172976  0.50301924  1
  In  In74  1  0.50576978  0.49516871  0.50334966  1
  In  In75  1  0.16162752  0.83192162  0.50906862  1
  In  In76  1  0.16564919  0.50340257  0.49630096  1
  In  In77  1  0.84074188  0.50015635  -0.00509272  1
  In  In78  1  0.33835545  0.00177856  0.75737054  1
  In  In79  1  0.16356548  0.16164143  -0.00283538  1
  In  In80  1  0.67287735  0.33487759  0.24271630  1
  In  In81  1  0.66687443  -0.00338286  0.24634438  1
  In  In82  1  0.16630892  0.16901793  0.50071081  1
  In  In83  1  0.49911896  0.49497255  -0.00846838  1
  In  In84  1  0.32887498  0.33783568  0.25718568  1
  In  In85  1  0.83690916  0.83819964  0.49816752  1
  Cu  Cu86  1  0.34381017  0.32562689  0.50711837  1
  Cu  Cu87  1  0.33468691  0.00583491  -0.00435458  1
  Cu  Cu88  1  0.33039748  0.67224616  0.00076392  1
  Cu  Cu89  1  0.83445837  0.82985199  0.24490885  1
  Cu  Cu90  1  0.50259999  0.84245986  0.75876442  1
  Cu  Cu91  1  0.83717013  0.50676231  0.24768325  1
  Cu  Cu92  1  0.66939798  0.33301412  0.50709896  1
  Cu  Cu93  1  0.48855503  0.49885315  0.75726892  1
  Cu  Cu94  1  0.16763114  0.50421766  0.75573385  1
  Cu  Cu95  1  -0.00767236  0.00685341  0.50063571  1
  Cu  Cu96  1  0.66475047  0.00854007  0.51019512  1
  Cu  Cu97  1  0.50614841  0.51127569  0.24939664  1
  Cu  Cu98  1  -0.00788669  0.33152362  0.49580069  1
  Cu  Cu99  1  0.15854001  0.16333709  0.24544255  1
  Cu  Cu100  1  -0.00593195  0.33048744  -0.00588124  1
  Cu  Cu101  1  0.83211978  0.83903227  0.76257391  1
  Cu  Cu102  1  0.33636264  0.00294822  0.49665599  1
  Cu  Cu103  1  0.32962026  0.66461243  0.50275603  1
  Cu  Cu104  1  0.16859273  0.83467090  0.24006949  1
  Cu  Cu105  1  0.33338269  0.33418724  -0.00013541  1
  Cu  Cu106  1  -0.00297531  -0.00621097  0.00096754  1
  Cu  Cu107  1  0.50871011  0.16696062  0.75522277  1
  Cu  Cu108  1  0.66880342  0.32780141  -0.00935772  1
  Cu  Cu109  1  0.49845690  0.16101304  0.24637789  1
  Cu  Cu110  1  0.16981328  0.16414061  0.75472356  1
  Cu  Cu111  1  0.16993778  0.50619685  0.24467067  1
  Cu  Cu112  1  0.67456928  0.66179476  0.50175085  1
  Cu  Cu113  1  0.66764908  0.66260980  -0.00346311  1
  Cu  Cu114  1  0.49401590  0.83384488  0.23995297  1
  Se  Se115  1  0.07616482  0.07758894  0.06183589  1
  Se  Se116  1  0.07607877  0.08160676  0.56194008  1
  Se  Se117  1  0.07888709  0.41247206  0.04690649  1
  Se  Se118  1  0.07611586  0.40870600  0.55490857  1
  Se  Se119  1  0.09744024  0.76530483  0.05127924  1
  Se  Se120  1  0.06871292  0.74286835  0.56439689  1
  Se  Se121  1  0.41756754  0.08802189  0.04933561  1
  Se  Se122  1  0.42040664  0.08358577  0.54992461  1
  Se  Se123  1  0.41204573  0.41215641  0.06327167  1
  Se  Se124  1  0.41441165  0.41184737  0.56725490  1
  Se  Se125  1  0.41863379  0.75454328  0.04976396  1
  Se  Se126  1  0.41318488  0.74375606  0.55960247  1
  Se  Se127  1  0.74384829  0.06357797  0.04192089  1
  Se  Se128  1  0.75546094  0.08429687  0.56236558  1
  Se  Se129  1  0.74584446  0.40687500  0.05416985  1
  Se  Se130  1  0.74708634  0.42505993  0.55597751  1
  Se  Se131  1  0.74968810  0.74456751  0.05240719  1
  Se  Se132  1  0.75173498  0.74645778  0.55908616  1
  Se  Se133  1  0.25374312  0.25226135  0.06071256  1
  Se  Se134  1  0.25553713  0.25444431  0.56604717  1
  Se  Se135  1  0.24963447  0.58353321  0.05041857  1
  Se  Se136  1  0.24682384  0.59153710  0.56431362  1
  Se  Se137  1  0.25030510  0.92513691  0.05040068  1
  Se  Se138  1  0.25863925  0.92793468  0.56000598  1
  Se  Se139  1  0.58387230  0.24958698  0.04609445  1
  Se  Se140  1  0.58374304  0.24773118  0.55573203  1
  Se  Se141  1  0.58497423  0.58459872  0.05662999  1
  Se  Se142  1  0.59258469  0.58584493  0.56193972  1
  Se  Se143  1  0.59545259  0.92502808  0.04318935  1
  Se  Se144  1  0.59565968  0.91811789  0.56761453  1
  Se  Se145  1  0.91657454  0.24539214  0.04958295  1
  Se  Se146  1  0.91309987  0.24370824  0.54852322  1
  Se  Se147  1  0.92385878  0.58868657  0.05958504  1
  Se  Se148  1  0.90899983  0.58996964  0.55478886  1
  Se  Se149  1  0.91524189  0.90647865  0.05212605  1
  Se  Se150  1  0.91463908  0.92978160  0.56449977  1
  Se  Se151  1  0.07710111  0.25416981  0.43733262  1
  Se  Se152  1  0.07683480  0.25103191  0.93364369  1
  Se  Se153  1  0.07560448  0.59395106  0.43920834  1
  Se  Se154  1  0.09228767  0.57026380  0.95264107  1
  Se  Se155  1  0.07401026  0.92415899  0.44474631  1
  Se  Se156  1  0.08365291  0.91050699  0.95230998  1
  Se  Se157  1  0.41947214  0.24081145  0.45064105  1
  Se  Se158  1  0.41918035  0.25305109  0.94933782  1
  Se  Se159  1  0.41249889  0.58781030  0.44343193  1
  Se  Se160  1  0.41204901  0.59393581  0.93879238  1
  Se  Se161  1  0.40723943  0.91827197  0.43494899  1
  Se  Se162  1  0.41545748  0.91425431  0.94813356  1
  Se  Se163  1  0.74902507  0.25007425  0.44859272  1
  Se  Se164  1  0.75813651  0.24900295  0.94048443  1
  Se  Se165  1  0.75641634  0.58505631  0.44383430  1
  Se  Se166  1  0.74724316  0.58557753  0.93587870  1
  Se  Se167  1  0.73803204  0.92990305  0.44303313  1
  Se  Se168  1  0.73110917  0.93538510  0.95797892  1
  Se  Se169  1  0.24986690  0.07519344  0.43706283  1
  Se  Se170  1  0.25413406  0.08008559  0.93145163  1
  Se  Se171  1  0.26398134  0.40486100  0.44658581  1
  Se  Se172  1  0.24638059  0.41536025  0.95121992  1
  Se  Se173  1  0.25107174  0.74445728  0.44237084  1
  Se  Se174  1  0.24650774  0.75450975  0.94718739  1
  Se  Se175  1  0.58006590  0.08413277  0.45153960  1
  Se  Se176  1  0.56599052  0.11212392  0.94181720  1
  Se  Se177  1  0.59313311  0.40598242  0.43768410  1
  Se  Se178  1  0.60090942  0.41925560  0.93219450  1
  Se  Se179  1  0.59109490  0.74452934  0.44594826  1
  Se  Se180  1  0.58425167  0.75205497  0.94983945  1
  Se  Se181  1  0.91241818  0.08757901  0.44368518  1
  Se  Se182  1  0.91740181  0.08346238  0.95100821  1
  Se  Se183  1  0.91500407  0.42299089  0.44505772  1
  Se  Se184  1  0.92404372  0.41213793  0.92869951  1
  Se  Se185  1  0.92770529  0.74883362  0.44013736  1
  Se  Se186  1  0.90583591  0.73152365  0.95138014  1
  Se  Se187  1  0.23693853  0.23984182  0.31117843  1
  Se  Se188  1  0.25391614  0.25154812  0.80038742  1
  Se  Se189  1  0.25588823  0.58596726  0.29859035  1
  Se  Se190  1  0.24958015  0.58862853  0.80889185  1
  Se  Se191  1  0.24901833  0.91980843  0.29651505  1
  Se  Se192  1  0.24661164  0.90625820  0.80772622  1
  Se  Se193  1  0.57933911  0.24308288  0.30418205  1
  Se  Se194  1  0.59045247  0.25496070  0.80522360  1
  Se  Se195  1  0.58734011  0.59284058  0.30444487  1
  Se  Se196  1  0.57951600  0.58249347  0.80261245  1
  Se  Se197  1  0.57349300  0.90658187  0.30828081  1
  Se  Se198  1  0.58974936  0.91977017  0.81227075  1
  Se  Se199  1  0.91514019  0.26312109  0.30092752  1
  Se  Se200  1  0.91196821  0.23610418  0.80154661  1
  Se  Se201  1  0.92196392  0.58832011  0.30167837  1
  Se  Se202  1  0.89062765  0.55967646  0.80099674  1
  Se  Se203  1  0.91154017  0.91644245  0.30108532  1
  Se  Se204  1  0.91656857  0.91076624  0.82365876  1
  Se  Se205  1  0.07582197  0.08006990  0.30022209  1
  Se  Se206  1  0.08660787  0.07794178  0.80303759  1
  Se  Se207  1  0.08710929  0.42320820  0.29939265  1
  Se  Se208  1  0.08523749  0.42666532  0.81667580  1
  Se  Se209  1  0.08774454  0.75373008  0.29955513  1
  Se  Se210  1  0.05829804  0.72410322  0.81883685  1
  Se  Se211  1  0.41510804  0.07907015  0.30010289  1
  Se  Se212  1  0.43229980  0.08453915  0.81653914  1
  Se  Se213  1  0.43122858  0.42788580  0.31036586  1
  Se  Se214  1  0.41065910  0.41420249  0.81254762  1
  Se  Se215  1  0.41460831  0.75060513  0.29913052  1
  Se  Se216  1  0.42005468  0.75235266  0.80455258  1
  Se  Se217  1  0.74962817  0.09194534  0.30697838  1
  Se  Se218  1  0.75559573  0.07821830  0.80799909  1
  Se  Se219  1  0.75593481  0.42440851  0.30710323  1
  Se  Se220  1  0.75506833  0.41159603  0.78678676  1
  Se  Se221  1  0.75064893  0.74833911  0.30044325  1
  Se  Se222  1  0.74278549  0.75113115  0.80785600  1
  Se  Se223  1  0.24807869  0.08169457  0.19794497  1
  Se  Se224  1  0.24670139  0.08575170  0.68959818  1
  Se  Se225  1  0.24573608  0.41787290  0.18645084  1
  Se  Se226  1  0.24947763  0.41632930  0.70465898  1
  Se  Se227  1  0.25405226  0.75036287  0.18941969  1
  Se  Se228  1  0.26061408  0.74294799  0.70548359  1
  Se  Se229  1  0.57827177  0.08591780  0.18349967  1
  Se  Se230  1  0.58915802  0.08431537  0.69920582  1
  Se  Se231  1  0.57710319  0.42865578  0.18731563  1
  Se  Se232  1  0.57422914  0.41956075  0.70149267  1
  Se  Se233  1  0.58309870  0.75255586  0.19055832  1
  Se  Se234  1  0.57716195  0.75703849  0.69844928  1
  Se  Se235  1  0.90521051  0.08018258  0.19470152  1
  Se  Se236  1  0.94622123  0.05448317  0.69588567  1
  Se  Se237  1  0.91413526  0.42126677  0.19096525  1
  Se  Se238  1  0.92202335  0.41284989  0.68040286  1
  Se  Se239  1  0.92201274  0.74749724  0.19504836  1
  Se  Se240  1  0.91163707  0.75655557  0.70355633  1
  Se  Se241  1  0.07632024  0.24992025  0.19588356  1
  Se  Se242  1  0.08972274  0.23991975  0.68919620  1
  Se  Se243  1  0.08713977  0.58637444  0.18956055  1
  Se  Se244  1  0.07920941  0.57970828  0.70076834  1
  Se  Se245  1  0.07726972  0.91814327  0.19501856  1
  Se  Se246  1  0.10311138  0.88976876  0.69962691  1
  Se  Se247  1  0.41792161  0.24877207  0.19304478  1
  Se  Se248  1  0.41860437  0.24683339  0.70310305  1
  Se  Se249  1  0.41566935  0.58887653  0.19827233  1
  Se  Se250  1  0.41238445  0.58531947  0.70084682  1
  Se  Se251  1  0.41617124  0.92082877  0.18640701  1
  Se  Se252  1  0.42550139  0.91454341  0.68960496  1
  Se  Se253  1  0.75204348  0.23778625  0.18303833  1
  Se  Se254  1  0.75487668  0.25407209  0.69412972  1
  Se  Se255  1  0.74922569  0.58857481  0.19743051  1
  Se  Se256  1  0.72194677  0.61010241  0.69096213  1
  Se  Se257  1  0.75368158  0.90825510  0.18424295  1
  Se  Se258  1  0.74528111  0.91917032  0.70982271  1
