# generated using pymatgen
data_In86Cu29Se144
_symmetry_space_group_name_H-M   'P 1'
_cell_length_a   17.56927800
_cell_length_b   17.56580555
_cell_length_c   23.42242599
_cell_angle_alpha   90.00348429
_cell_angle_beta   90.00093047
_cell_angle_gamma   89.98017994
_symmetry_Int_Tables_number   1
_chemical_formula_structural   In86Cu29Se144
_chemical_formula_sum   'In86 Cu29 Se144'
_cell_volume   7228.59402289
_cell_formula_units_Z   1
loop_
 _symmetry_equiv_pos_site_id
 _symmetry_equiv_pos_as_xyz
  1  'x, y, z'
loop_
 _atom_site_type_symbol
 _atom_site_label
 _atom_site_symmetry_multiplicity
 _atom_site_fract_x
 _atom_site_fract_y
 _atom_site_fract_z
 _atom_site_occupancy
  In  In0  1  0.00977534  0.15643602  0.12603674  1
  In  In1  1  -0.00408818  0.17235606  0.61814327  1
  In  In2  1  0.01278216  0.50305393  0.12170867  1
  In  In3  1  -0.01621552  0.47826124  0.60354576  1
  In  In4  1  -0.02765237  0.82653780  0.12631047  1
  In  In5  1  0.00014195  0.84579802  0.62606572  1
  In  In6  1  0.32678011  0.17912544  0.13080517  1
  In  In7  1  0.32870677  0.19165766  0.62124790  1
  In  In8  1  0.33403491  0.49940223  0.11955967  1
  In  In9  1  0.32568255  0.50049372  0.62376118  1
  In  In10  1  0.34750954  0.81790553  0.12969159  1
  In  In11  1  0.32601200  0.81824565  0.62449383  1
  In  In12  1  0.65252545  0.16193238  0.12821646  1
  In  In13  1  0.68957858  0.18268865  0.61340965  1
  In  In14  1  0.66515946  0.52871785  0.11965640  1
  In  In15  1  0.68295083  0.49375046  0.63782796  1
  In  In16  1  0.66219449  0.82939237  0.11618862  1
  In  In17  1  0.66647481  0.81947651  0.62568904  1
  In  In18  1  0.17382727  0.00449609  0.36958280  1
  In  In19  1  0.17164191  0.01774771  0.87626659  1
  In  In20  1  0.17745222  0.32657695  0.39818324  1
  In  In21  1  0.17251754  0.33197183  0.86815903  1
  In  In22  1  0.16927551  0.65937951  0.36832857  1
  In  In23  1  0.16205045  0.64366923  0.87858662  1
  In  In24  1  0.49269382  -0.00976882  0.36480884  1
  In  In25  1  0.50122074  -0.00663637  0.88425768  1
  In  In26  1  0.49316894  0.34674636  0.37554339  1
  In  In27  1  0.51215360  0.35567471  0.85366833  1
  In  In28  1  0.50763791  0.66676548  0.36242012  1
  In  In29  1  0.50258284  0.66282034  0.87265223  1
  In  In30  1  0.83355889  -0.00152733  0.37526217  1
  In  In31  1  0.83227921  -0.01295799  0.87529066  1
  In  In32  1  0.83535230  0.32965934  0.40706246  1
  In  In33  1  0.83479082  0.33227786  0.86089976  1
  In  In34  1  0.83395346  0.66469146  0.37607885  1
  In  In35  1  0.82968008  0.68011432  0.87789658  1
  In  In36  1  0.00126396  0.17270362  0.38973994  1
  In  In37  1  0.00917217  0.17736095  0.86280653  1
  In  In38  1  -0.00186407  0.50002395  0.38747065  1
  In  In39  1  0.01177181  0.49223888  0.87567185  1
  In  In40  1  -0.00682280  0.82049483  0.36898812  1
  In  In41  1  -0.01656758  0.83353238  0.87491327  1
  In  In42  1  0.32837936  0.16512647  0.37269861  1
  In  In43  1  0.32535346  0.17201985  0.87489438  1
  In  In44  1  0.33075803  0.49493078  0.36644788  1
  In  In45  1  0.33178653  0.49656174  0.86877084  1
  In  In46  1  0.33257190  0.83162227  0.36079430  1
  In  In47  1  0.35138874  0.82911345  0.88264540  1
  In  In48  1  0.67733524  0.16353362  0.37626583  1
  In  In49  1  0.66010206  0.17588972  0.87252135  1
  In  In50  1  0.66765240  0.50640683  0.37674293  1
  In  In51  1  0.66454126  0.50307105  0.86992231  1
  In  In52  1  0.68091575  0.83664558  0.36065339  1
  In  In53  1  0.67488990  0.82149166  0.89182374  1
  In  In54  1  0.16574178  0.01816972  0.12506249  1
  In  In55  1  0.14740456  0.00200264  0.62649918  1
  In  In56  1  0.17815483  0.34398388  0.11482483  1
  In  In57  1  0.16378879  0.33283870  0.61528428  1
  In  In58  1  0.17648571  0.65574563  0.13014272  1
  In  In59  1  0.17955466  0.65426836  0.63063550  1
  In  In60  1  0.51610705  -0.01858743  0.13637696  1
  In  In61  1  0.49889410  0.00408532  0.62881563  1
  In  In62  1  0.48418427  0.33186251  0.12330066  1
  In  In63  1  0.49247607  0.35574608  0.64353050  1
  In  In64  1  0.50137340  0.66103424  0.11442184  1
  In  In65  1  0.51435712  0.63782491  0.65295227  1
  In  In66  1  0.82298675  -0.01841900  0.12164528  1
  In  In67  1  0.84385327  0.01103423  0.61371626  1
  In  In68  1  0.83118925  0.33829919  0.12940931  1
  In  In69  1  0.83478909  0.33624530  0.62353249  1
  In  In70  1  0.79905088  0.70788699  0.17125043  1
  In  In71  1  0.82969223  0.65909085  0.61829122  1
  In  In72  1  0.66278098  0.33950160  0.25884497  1
  In  In73  1  0.67087078  0.00359613  0.75279037  1
  In  In74  1  0.50362330  0.49913039  0.50585430  1
  In  In75  1  0.00017187  0.66197644  0.75284820  1
  In  In76  1  0.49198485  0.16629856  -0.00197665  1
  In  In77  1  0.83637272  0.51030422  -0.00183139  1
  In  In78  1  0.15928759  0.83190594  0.49478340  1
  In  In79  1  0.84027233  0.16381642  0.00700838  1
  In  In80  1  0.33505471  0.00054463  0.75767838  1
  In  In81  1  0.49857702  0.82664778  0.49442502  1
  In  In82  1  0.16656269  0.83409560  0.00616522  1
  In  In83  1  0.50575934  0.17225585  0.50412562  1
  In  In84  1  0.00639370  0.33272946  0.26834191  1
  In  In85  1  -0.00273336  -0.00487296  0.25269896  1
  Cu  Cu86  1  0.49791930  0.82616837  0.24157983  1
  Cu  Cu87  1  -0.00801337  0.66617708  0.00479434  1
  Cu  Cu88  1  0.33810516  0.00481695  0.00798956  1
  Cu  Cu89  1  0.84295191  0.49845687  0.25887592  1
  Cu  Cu90  1  0.00494828  0.00504906  0.00034903  1
  Cu  Cu91  1  0.16971733  0.18033039  0.25235022  1
  Cu  Cu92  1  0.83046971  0.83672096  0.75134821  1
  Cu  Cu93  1  0.17473818  0.49856427  0.24847832  1
  Cu  Cu94  1  0.33240648  0.33810426  -0.00720382  1
  Cu  Cu95  1  0.00159767  0.67082782  0.49750151  1
  Cu  Cu96  1  0.16380927  0.16492157  0.74296946  1
  Cu  Cu97  1  0.67860494  0.66557734  0.49958739  1
  Cu  Cu98  1  0.16106248  0.49050457  0.74519442  1
  Cu  Cu99  1  -0.00623155  0.00162660  0.49983254  1
  Cu  Cu100  1  0.34050779  0.66419713  0.50201974  1
  Cu  Cu101  1  0.50710018  0.17235591  0.74767906  1
  Cu  Cu102  1  0.83061782  0.16173446  0.25626243  1
  Cu  Cu103  1  0.49885777  0.82492310  0.75446078  1
  Cu  Cu104  1  0.33191231  0.65855084  -0.00019694  1
  Cu  Cu105  1  0.16486682  0.83717606  0.24427580  1
  Cu  Cu106  1  0.01211104  0.32835184  -0.00605342  1
  Cu  Cu107  1  0.16690020  0.83184733  0.75103685  1
  Cu  Cu108  1  0.32122421  0.00767344  0.49805539  1
  Cu  Cu109  1  0.84094207  0.16948975  0.73978449  1
  Cu  Cu110  1  0.49253628  0.16186557  0.25003237  1
  Cu  Cu111  1  0.66652052  -0.00851237  0.49353081  1
  Cu  Cu112  1  0.49892104  0.50227955  0.24159019  1
  Cu  Cu113  1  0.66630309  0.34067091  -0.00755586  1
  Cu  Cu114  1  0.83548491  0.50116071  0.74399996  1
  Se  Se115  1  0.08986510  0.09192347  0.04685663  1
  Se  Se116  1  0.08044486  0.08354225  0.55075349  1
  Se  Se117  1  0.08548636  0.41856093  0.04877129  1
  Se  Se118  1  0.10538075  0.43968058  0.55118591  1
  Se  Se119  1  0.07652906  0.74405557  0.06509885  1
  Se  Se120  1  0.08105307  0.74286365  0.56474751  1
  Se  Se121  1  0.41711368  0.08175519  0.07118136  1
  Se  Se122  1  0.40682241  0.07896637  0.55967478  1
  Se  Se123  1  0.41715325  0.41692562  0.04874263  1
  Se  Se124  1  0.40816909  0.40682207  0.55687573  1
  Se  Se125  1  0.41496577  0.74747897  0.04766888  1
  Se  Se126  1  0.42353138  0.73639368  0.56430451  1
  Se  Se127  1  0.73933115  0.07918531  0.05902120  1
  Se  Se128  1  0.74587750  0.07855490  0.54757014  1
  Se  Se129  1  0.74469479  0.41502456  0.05806723  1
  Se  Se130  1  0.74940281  0.42259046  0.55805498  1
  Se  Se131  1  0.75763384  0.73463601  0.06836523  1
  Se  Se132  1  0.75538205  0.75524920  0.55235487  1
  Se  Se133  1  0.25482138  0.25065473  0.04940906  1
  Se  Se134  1  0.23865752  0.24214563  0.54560189  1
  Se  Se135  1  0.24419140  0.57786230  0.05074140  1
  Se  Se136  1  0.24990809  0.58363223  0.54920161  1
  Se  Se137  1  0.25729732  0.92260571  0.06679337  1
  Se  Se138  1  0.25039687  0.91964903  0.55962752  1
  Se  Se139  1  0.58873739  0.25937496  0.05494380  1
  Se  Se140  1  0.57868170  0.26753796  0.57057002  1
  Se  Se141  1  0.57108592  0.56985866  0.04346858  1
  Se  Se142  1  0.59447163  0.59163301  0.56284687  1
  Se  Se143  1  0.58015363  0.91846384  0.05142141  1
  Se  Se144  1  0.58489868  0.92074502  0.55850757  1
  Se  Se145  1  0.93047240  0.26154213  0.06302465  1
  Se  Se146  1  0.89692736  0.23892372  0.55368070  1
  Se  Se147  1  0.91427341  0.59188912  0.06997335  1
  Se  Se148  1  0.91528191  0.58565135  0.54738595  1
  Se  Se149  1  0.91965834  0.92117599  0.05065451  1
  Se  Se150  1  0.91509098  0.91092797  0.54995178  1
  Se  Se151  1  0.07017560  0.26502024  0.45633994  1
  Se  Se152  1  0.09172738  0.24513702  0.93918315  1
  Se  Se153  1  0.08907893  0.59078663  0.44554956  1
  Se  Se154  1  0.07362063  0.57965449  0.95283660  1
  Se  Se155  1  0.07229345  0.92543435  0.43384170  1
  Se  Se156  1  0.08121683  0.92132864  0.93870531  1
  Se  Se157  1  0.41242016  0.25519902  0.44247218  1
  Se  Se158  1  0.41901971  0.26301323  0.93268789  1
  Se  Se159  1  0.42237810  0.58996977  0.43823419  1
  Se  Se160  1  0.41212455  0.58061080  0.93861473  1
  Se  Se161  1  0.40076788  0.92086726  0.44235751  1
  Se  Se162  1  0.41796905  0.91811750  0.95585900  1
  Se  Se163  1  0.73245464  0.24741541  0.45468099  1
  Se  Se164  1  0.75267586  0.25623536  0.94257298  1
  Se  Se165  1  0.75681809  0.57695498  0.44729656  1
  Se  Se166  1  0.73805627  0.59561797  0.94300836  1
  Se  Se167  1  0.75150278  0.90932082  0.44168933  1
  Se  Se168  1  0.75320564  0.91862350  0.95003343  1
  Se  Se169  1  0.24018084  0.09010893  0.44458054  1
  Se  Se170  1  0.25850217  0.08543066  0.95015394  1
  Se  Se171  1  0.26120220  0.42856691  0.44772187  1
  Se  Se172  1  0.24463916  0.41911629  0.94071434  1
  Se  Se173  1  0.26170295  0.74720216  0.44112144  1
  Se  Se174  1  0.24927273  0.74201242  0.94123831  1
  Se  Se175  1  0.57903225  0.07034864  0.43872021  1
  Se  Se176  1  0.59594148  0.08067432  0.94470241  1
  Se  Se177  1  0.59369913  0.40822096  0.44485453  1
  Se  Se178  1  0.58129795  0.41968422  0.93934999  1
  Se  Se179  1  0.59634396  0.74243985  0.43735075  1
  Se  Se180  1  0.56288481  0.76079243  0.94315194  1
  Se  Se181  1  0.90943923  0.08404635  0.44599075  1
  Se  Se182  1  0.92536162  0.08322312  0.93627627  1
  Se  Se183  1  0.93624898  0.40686503  0.45973345  1
  Se  Se184  1  0.91849081  0.40487982  0.94145667  1
  Se  Se185  1  0.91453189  0.75178897  0.44636450  1
  Se  Se186  1  0.91374247  0.75333178  0.95137241  1
  Se  Se187  1  0.24706116  0.26100635  0.31209182  1
  Se  Se188  1  0.25041937  0.24481166  0.79720213  1
  Se  Se189  1  0.25941712  0.58770061  0.29792344  1
  Se  Se190  1  0.24038386  0.57717218  0.80056267  1
  Se  Se191  1  0.24765527  0.92040553  0.29799246  1
  Se  Se192  1  0.24613033  0.90768240  0.81702932  1
  Se  Se193  1  0.57212543  0.24118945  0.31365067  1
  Se  Se194  1  0.59408267  0.25739597  0.79609485  1
  Se  Se195  1  0.58795542  0.57516586  0.29874888  1
  Se  Se196  1  0.57632990  0.57748610  0.79988858  1
  Se  Se197  1  0.57907889  0.90809304  0.29977178  1
  Se  Se198  1  0.57851464  0.91255914  0.80892519  1
  Se  Se199  1  0.90282639  0.24522467  0.31820225  1
  Se  Se200  1  0.92323444  0.25501128  0.79400365  1
  Se  Se201  1  0.92544697  0.58116083  0.31214385  1
  Se  Se202  1  0.90824280  0.57505341  0.81579704  1
  Se  Se203  1  0.90161304  0.90172219  0.30136254  1
  Se  Se204  1  0.91797124  0.92053401  0.79952203  1
  Se  Se205  1  0.08180134  0.09883719  0.30715881  1
  Se  Se206  1  0.08591995  0.08037397  0.79962793  1
  Se  Se207  1  0.10012336  0.42577711  0.31862875  1
  Se  Se208  1  0.07899794  0.40832294  0.80050761  1
  Se  Se209  1  0.09105467  0.75320132  0.30432846  1
  Se  Se210  1  0.08855911  0.75280757  0.81562804  1
  Se  Se211  1  0.40755092  0.07955863  0.30345085  1
  Se  Se212  1  0.43213501  0.09239372  0.81219801  1
  Se  Se213  1  0.41883957  0.41736919  0.29688318  1
  Se  Se214  1  0.39528311  0.40074352  0.79841698  1
  Se  Se215  1  0.41571668  0.74396315  0.29737900  1
  Se  Se216  1  0.41108698  0.74482014  0.80495254  1
  Se  Se217  1  0.74616852  0.07495263  0.30422110  1
  Se  Se218  1  0.76397997  0.09664324  0.80984802  1
  Se  Se219  1  0.76690386  0.41288263  0.31913281  1
  Se  Se220  1  0.75015407  0.42136656  0.80075557  1
  Se  Se221  1  0.74471429  0.73052070  0.30086770  1
  Se  Se222  1  0.74653651  0.75710191  0.80648239  1
  Se  Se223  1  0.24723095  0.09068028  0.19953623  1
  Se  Se224  1  0.25118825  0.08302952  0.68707189  1
  Se  Se225  1  0.25494280  0.41484957  0.19257743  1
  Se  Se226  1  0.24656692  0.41040663  0.69009196  1
  Se  Se227  1  0.24976344  0.74987076  0.19559189  1
  Se  Se228  1  0.24874941  0.74598103  0.70144689  1
  Se  Se229  1  0.58380764  0.08055622  0.20351826  1
  Se  Se230  1  0.58819471  0.09565856  0.68671198  1
  Se  Se231  1  0.58278240  0.41892594  0.18440083  1
  Se  Se232  1  0.57051245  0.45049767  0.70297690  1
  Se  Se233  1  0.57970930  0.74437761  0.18638427  1
  Se  Se234  1  0.58868021  0.74782060  0.70223108  1
  Se  Se235  1  0.90689649  0.08625952  0.19003547  1
  Se  Se236  1  0.92237397  0.08097247  0.69088507  1
  Se  Se237  1  0.92025874  0.41740851  0.19770316  1
  Se  Se238  1  0.92081186  0.41814911  0.69294567  1
  Se  Se239  1  0.93487647  0.73603136  0.20680702  1
  Se  Se240  1  0.91247487  0.75472112  0.69191586  1
  Se  Se241  1  0.08685952  0.25445579  0.19017713  1
  Se  Se242  1  0.08388962  0.24933804  0.68749827  1
  Se  Se243  1  0.08595443  0.57979278  0.19899243  1
  Se  Se244  1  0.07754436  0.57084338  0.68642610  1
  Se  Se245  1  0.08354085  0.91302295  0.18275691  1
  Se  Se246  1  0.08213107  0.91603580  0.70214851  1
  Se  Se247  1  0.41449256  0.25419517  0.20145173  1
  Se  Se248  1  0.41640927  0.25074144  0.69796269  1
  Se  Se249  1  0.41567219  0.58471943  0.18757540  1
  Se  Se250  1  0.38909375  0.59491983  0.69555477  1
  Se  Se251  1  0.41093715  0.91716366  0.19784763  1
  Se  Se252  1  0.41999966  0.90572218  0.69265352  1
  Se  Se253  1  0.75154772  0.24383542  0.19561542  1
  Se  Se254  1  0.75138928  0.25566848  0.69688889  1
  Se  Se255  1  0.75479552  0.57023992  0.20048685  1
  Se  Se256  1  0.75422503  0.59523320  0.70048030  1
  Se  Se257  1  0.74541774  0.90455255  0.19236690  1
  Se  Se258  1  0.75562898  0.91677172  0.68589240  1
