# generated using pymatgen
data_In86Cu29Se144
_symmetry_space_group_name_H-M   'P 1'
_cell_length_a   17.57398973
_cell_length_b   17.57188398
_cell_length_c   23.42952777
_cell_angle_alpha   90.01475829
_cell_angle_beta   90.03117164
_cell_angle_gamma   89.98396533
_symmetry_Int_Tables_number   1
_chemical_formula_structural   In86Cu29Se144
_chemical_formula_sum   'In86 Cu29 Se144'
_cell_volume   7235.22656523
_cell_formula_units_Z   1
loop_
 _symmetry_equiv_pos_site_id
 _symmetry_equiv_pos_as_xyz
  1  'x, y, z'
loop_
 _atom_site_type_symbol
 _atom_site_label
 _atom_site_symmetry_multiplicity
 _atom_site_fract_x
 _atom_site_fract_y
 _atom_site_fract_z
 _atom_site_occupancy
  In  In0  1  -0.00290713  0.15022092  0.12642241  1
  In  In1  1  0.01371129  0.17049640  0.62244300  1
  In  In2  1  0.00748770  0.51230525  0.11763974  1
  In  In3  1  -0.00719194  0.49938088  0.64158376  1
  In  In4  1  -0.00456575  0.82905822  0.12151996  1
  In  In5  1  -0.01287163  0.83254876  0.63093202  1
  In  In6  1  0.34473144  0.16628853  0.11810854  1
  In  In7  1  0.33468247  0.16513123  0.61723132  1
  In  In8  1  0.32287564  0.51010116  0.13124477  1
  In  In9  1  0.33657714  0.48994272  0.62362198  1
  In  In10  1  0.31866149  0.81140376  0.09980454  1
  In  In11  1  0.34971898  0.82320445  0.62682677  1
  In  In12  1  0.65422835  0.16817780  0.13152589  1
  In  In13  1  0.65569398  0.16356488  0.62153981  1
  In  In14  1  0.66839275  0.49927760  0.12476087  1
  In  In15  1  0.67366238  0.51349533  0.62355665  1
  In  In16  1  0.66789068  0.83300458  0.12452436  1
  In  In17  1  0.66334713  0.83436979  0.63307709  1
  In  In18  1  0.17648952  0.01383840  0.36944013  1
  In  In19  1  0.17637799  -0.00827125  0.89433425  1
  In  In20  1  0.17054076  0.31602529  0.37359144  1
  In  In21  1  0.15776657  0.33941164  0.88502277  1
  In  In22  1  0.16715949  0.66597572  0.36127380  1
  In  In23  1  0.15977065  0.67920033  0.89138960  1
  In  In24  1  0.51000794  -0.00785476  0.38393419  1
  In  In25  1  0.51340954  -0.01367629  0.89073999  1
  In  In26  1  0.49909055  0.33441167  0.37071372  1
  In  In27  1  0.49048585  0.33048436  0.87574975  1
  In  In28  1  0.50629057  0.66562173  0.36848117  1
  In  In29  1  0.51044865  0.67148491  0.87927924  1
  In  In30  1  0.82713885  -0.00597562  0.36559665  1
  In  In31  1  0.81104510  0.00243133  0.87340803  1
  In  In32  1  0.83334342  0.34539604  0.37503587  1
  In  In33  1  0.85030663  0.32960446  0.87151650  1
  In  In34  1  0.83372715  0.66852903  0.36389448  1
  In  In35  1  0.83058740  0.66194968  0.88493186  1
  In  In36  1  0.01855930  0.16923929  0.37392334  1
  In  In37  1  0.00153624  0.17585048  0.87414864  1
  In  In38  1  -0.00839634  0.50546070  0.37299561  1
  In  In39  1  -0.00557830  0.50334255  0.87759624  1
  In  In40  1  -0.00090375  0.83130561  0.36253832  1
  In  In41  1  0.00269488  0.81866329  0.88423910  1
  In  In42  1  0.33047348  0.17193993  0.37589454  1
  In  In43  1  0.33828260  0.15473180  0.89447236  1
  In  In44  1  0.34616951  0.51297179  0.36191431  1
  In  In45  1  0.33053964  0.49030372  0.88089519  1
  In  In46  1  0.34669447  0.83252083  0.36780597  1
  In  In47  1  0.34315392  0.82889878  0.90446963  1
  In  In48  1  0.65012877  0.15330424  0.36678436  1
  In  In49  1  0.67782906  0.15019467  0.87151841  1
  In  In50  1  0.66207602  0.48919732  0.36290046  1
  In  In51  1  0.66718884  0.51989407  0.87607677  1
  In  In52  1  0.66299426  0.83124250  0.36617514  1
  In  In53  1  0.66513595  0.82953151  0.88604424  1
  In  In54  1  0.16172965  -0.01537667  0.11207066  1
  In  In55  1  0.15723368  0.00871326  0.62377320  1
  In  In56  1  0.17352923  0.34441872  0.12115086  1
  In  In57  1  0.16427331  0.32555044  0.62766961  1
  In  In58  1  0.16688567  0.66102260  0.12037638  1
  In  In59  1  0.16252182  0.65698642  0.63063718  1
  In  In60  1  0.49723290  0.00428820  0.12216505  1
  In  In61  1  0.51319325  0.00391623  0.61254508  1
  In  In62  1  0.50585218  0.32519048  0.13138535  1
  In  In63  1  0.49480539  0.32974476  0.61320683  1
  In  In64  1  0.49682275  0.67558035  0.12342707  1
  In  In65  1  0.51578667  0.68142815  0.61469312  1
  In  In66  1  0.83928387  -0.01083375  0.13245619  1
  In  In67  1  0.82640866  -0.01090179  0.62601796  1
  In  In68  1  0.81583489  0.33543049  0.12539812  1
  In  In69  1  0.84176825  0.33917317  0.62939132  1
  In  In70  1  0.82879400  0.67047423  0.12027834  1
  In  In71  1  0.82750196  0.66274115  0.64345275  1
  In  In72  1  0.32611671  0.33029468  0.75104012  1
  In  In73  1  -0.00703552  0.00322665  0.75289125  1
  In  In74  1  0.33470233  0.66516165  0.75905903  1
  In  In75  1  0.82787564  0.83194482  0.49687099  1
  In  In76  1  0.17697615  0.84321427  0.49837187  1
  In  In77  1  0.33403192  -0.00094340  0.75964388  1
  In  In78  1  0.83412786  0.16773874  -0.00349511  1
  In  In79  1  0.17343348  0.49626594  0.50313909  1
  In  In80  1  0.67305812  0.33741689  0.74669678  1
  In  In81  1  0.49934849  0.50711062  0.00685345  1
  In  In82  1  0.00031589  0.33513663  0.25442318  1
  In  In83  1  0.83413618  0.49984737  0.50082881  1
  In  In84  1  0.82843886  0.16671914  0.50431135  1
  In  In85  1  0.33421381  -0.00478567  0.24186416  1
  Cu  Cu86  1  0.00553416  0.01053049  0.49380771  1
  Cu  Cu87  1  0.66362912  0.66586382  0.49597714  1
  Cu  Cu88  1  0.50636687  0.15893448  0.74974251  1
  Cu  Cu89  1  0.50457808  0.49916947  0.24523922  1
  Cu  Cu90  1  0.16473830  0.83138241  0.76130357  1
  Cu  Cu91  1  0.16233851  0.17090791  0.75550376  1
  Cu  Cu92  1  0.83129344  0.83132818  0.24242792  1
  Cu  Cu93  1  0.00518582  0.66689370  0.50502511  1
  Cu  Cu94  1  0.49677938  0.16405186  0.25017579  1
  Cu  Cu95  1  0.50937182  0.83966525  0.75549011  1
  Cu  Cu96  1  0.49831718  0.83098688  0.24478420  1
  Cu  Cu97  1  0.50442552  0.51012353  0.74373099  1
  Cu  Cu98  1  -0.00152930  -0.00654475  0.00106102  1
  Cu  Cu99  1  0.33361582  0.33137006  0.00403638  1
  Cu  Cu100  1  0.34695025  0.66626159  0.49159624  1
  Cu  Cu101  1  -0.00506538  0.66268413  0.00316896  1
  Cu  Cu102  1  0.15036972  0.50138759  0.76109378  1
  Cu  Cu103  1  0.16481382  0.82801361  0.23549481  1
  Cu  Cu104  1  0.66120057  0.33542395  0.00349823  1
  Cu  Cu105  1  0.17225374  0.50049080  0.24426371  1
  Cu  Cu106  1  0.33704434  0.33609168  0.49497120  1
  Cu  Cu107  1  0.33555849  0.00438289  0.49570257  1
  Cu  Cu108  1  0.82717143  0.16413135  0.24679407  1
  Cu  Cu109  1  0.82896268  0.82646195  0.75935322  1
  Cu  Cu110  1  0.16680470  0.16329711  0.24647137  1
  Cu  Cu111  1  0.83608754  0.50566152  0.24492389  1
  Cu  Cu112  1  0.66822888  0.00195527  0.00448368  1
  Cu  Cu113  1  -0.00122404  0.33614160  0.00127071  1
  Cu  Cu114  1  0.65951847  0.33007448  0.49297402  1
  Se  Se115  1  0.07954681  0.08109137  0.05188016  1
  Se  Se116  1  0.09012999  0.09083164  0.54755979  1
  Se  Se117  1  0.08440452  0.41947971  0.05297551  1
  Se  Se118  1  0.07637281  0.41907042  0.56541223  1
  Se  Se119  1  0.08124273  0.74669572  0.05442849  1
  Se  Se120  1  0.08306254  0.75304240  0.56094810  1
  Se  Se121  1  0.41662562  0.07899092  0.04757168  1
  Se  Se122  1  0.42048561  0.08566222  0.55061898  1
  Se  Se123  1  0.41329352  0.41212825  0.06528552  1
  Se  Se124  1  0.41827109  0.42239270  0.54766732  1
  Se  Se125  1  0.43757023  0.76193059  0.04399589  1
  Se  Se126  1  0.42289925  0.75478682  0.54673344  1
  Se  Se127  1  0.74954329  0.08299861  0.06417324  1
  Se  Se128  1  0.73933358  0.06788666  0.55518690  1
  Se  Se129  1  0.74820130  0.41960088  0.05030046  1
  Se  Se130  1  0.74080783  0.40560644  0.55677736  1
  Se  Se131  1  0.76099068  0.76735082  0.05357158  1
  Se  Se132  1  0.74855706  0.73698989  0.56065102  1
  Se  Se133  1  0.24972102  0.24921308  0.05771712  1
  Se  Se134  1  0.25431665  0.25870514  0.55567153  1
  Se  Se135  1  0.25033669  0.57843086  0.05195196  1
  Se  Se136  1  0.26393220  0.59634464  0.55795027  1
  Se  Se137  1  0.26200557  0.92583641  0.04543251  1
  Se  Se138  1  0.26444093  0.92802595  0.56691750  1
  Se  Se139  1  0.58158850  0.24772254  0.05449565  1
  Se  Se140  1  0.58044184  0.24560249  0.54869549  1
  Se  Se141  1  0.59593938  0.59799075  0.05689243  1
  Se  Se142  1  0.58421885  0.57992523  0.55092141  1
  Se  Se143  1  0.58426869  0.91988218  0.05722332  1
  Se  Se144  1  0.57985388  0.89746688  0.55622565  1
  Se  Se145  1  0.92014643  0.25567250  0.06345710  1
  Se  Se146  1  0.92425248  0.25863028  0.55624618  1
  Se  Se147  1  0.90806167  0.57882143  0.05308253  1
  Se  Se148  1  0.92028084  0.59206403  0.56395423  1
  Se  Se149  1  0.91125162  0.91489112  0.05379123  1
  Se  Se150  1  0.92768744  0.92572675  0.55241490  1
  Se  Se151  1  0.08250016  0.25559930  0.44779609  1
  Se  Se152  1  0.07951891  0.24792193  0.95092074  1
  Se  Se153  1  0.08321956  0.59002566  0.44225001  1
  Se  Se154  1  0.08071041  0.58037042  0.94927390  1
  Se  Se155  1  0.08013098  0.92249111  0.43513574  1
  Se  Se156  1  0.08339301  0.90662870  0.95152556  1
  Se  Se157  1  0.41921790  0.25072437  0.44246045  1
  Se  Se158  1  0.42112272  0.25108762  0.95190483  1
  Se  Se159  1  0.42640610  0.58004642  0.43999871  1
  Se  Se160  1  0.40986385  0.58997028  0.94035377  1
  Se  Se161  1  0.41255288  0.91397903  0.44490793  1
  Se  Se162  1  0.39162454  0.95450715  0.94781502  1
  Se  Se163  1  0.74504877  0.25324907  0.43520645  1
  Se  Se164  1  0.74191263  0.25906385  0.93820435  1
  Se  Se165  1  0.74698534  0.58696797  0.43634449  1
  Se  Se166  1  0.74099198  0.58717309  0.95467889  1
  Se  Se167  1  0.73867437  0.92359461  0.44096125  1
  Se  Se168  1  0.75098912  0.91779945  0.95129710  1
  Se  Se169  1  0.24883269  0.08818191  0.44694761  1
  Se  Se170  1  0.22555689  0.10492444  0.95233195  1
  Se  Se171  1  0.25879775  0.41629975  0.43307461  1
  Se  Se172  1  0.24898961  0.41505971  0.95247492  1
  Se  Se173  1  0.25494584  0.74261073  0.43789552  1
  Se  Se174  1  0.25341220  0.74364732  0.96127787  1
  Se  Se175  1  0.58060981  0.08760575  0.44917441  1
  Se  Se176  1  0.59092417  0.08839111  0.94754118  1
  Se  Se177  1  0.58275324  0.41947560  0.44010380  1
  Se  Se178  1  0.58308353  0.41531118  0.93971162  1
  Se  Se179  1  0.58559870  0.75041408  0.43972168  1
  Se  Se180  1  0.55851950  0.77035609  0.95238023  1
  Se  Se181  1  0.91634546  0.08131519  0.43523572  1
  Se  Se182  1  0.92151606  0.07303388  0.93707747  1
  Se  Se183  1  0.93200662  0.40867612  0.44692354  1
  Se  Se184  1  0.91375789  0.41579773  0.94751031  1
  Se  Se185  1  0.92573947  0.74242579  0.44097785  1
  Se  Se186  1  0.91108257  0.75004506  0.95380338  1
  Se  Se187  1  0.25220126  0.24575497  0.29825956  1
  Se  Se188  1  0.24714624  0.24256053  0.81847907  1
  Se  Se189  1  0.25528459  0.58849422  0.29494511  1
  Se  Se190  1  0.23982434  0.57729120  0.81601099  1
  Se  Se191  1  0.24060502  0.90529084  0.30367556  1
  Se  Se192  1  0.25156572  0.90242029  0.81970726  1
  Se  Se193  1  0.58168969  0.25074865  0.30105837  1
  Se  Se194  1  0.58021616  0.24769283  0.80826427  1
  Se  Se195  1  0.58882441  0.58385445  0.29804511  1
  Se  Se196  1  0.58129278  0.59097749  0.80255330  1
  Se  Se197  1  0.57546664  0.91651252  0.30198516  1
  Se  Se198  1  0.59179379  0.91938570  0.81193323  1
  Se  Se199  1  0.90858250  0.24080943  0.31100465  1
  Se  Se200  1  0.90900309  0.23316020  0.80156751  1
  Se  Se201  1  0.92187696  0.58680478  0.29805568  1
  Se  Se202  1  0.92046657  0.59573543  0.81194896  1
  Se  Se203  1  0.91411482  0.91512926  0.29833600  1
  Se  Se204  1  0.91219570  0.90881876  0.81625681  1
  Se  Se205  1  0.08298711  0.08025588  0.29913344  1
  Se  Se206  1  0.09406340  0.07812725  0.81439958  1
  Se  Se207  1  0.09503480  0.42588022  0.31204910  1
  Se  Se208  1  0.07399966  0.40958483  0.81062492  1
  Se  Se209  1  0.08220427  0.74857305  0.29550847  1
  Se  Se210  1  0.08306143  0.74377724  0.80924899  1
  Se  Se211  1  0.41816578  0.08034781  0.31022800  1
  Se  Se212  1  0.42748596  0.08797443  0.81597250  1
  Se  Se213  1  0.41913620  0.41615095  0.29832711  1
  Se  Se214  1  0.42346477  0.42763879  0.80168006  1
  Se  Se215  1  0.41749774  0.74410912  0.29837529  1
  Se  Se216  1  0.41913455  0.76610635  0.81391897  1
  Se  Se217  1  0.74384741  0.08000703  0.30037890  1
  Se  Se218  1  0.75692751  0.08636053  0.79318173  1
  Se  Se219  1  0.75736353  0.41583165  0.29711510  1
  Se  Se220  1  0.75276163  0.42200449  0.81588487  1
  Se  Se221  1  0.74789260  0.74954715  0.29850541  1
  Se  Se222  1  0.74554034  0.74730640  0.81547984  1
  Se  Se223  1  0.24260543  0.08391607  0.18270813  1
  Se  Se224  1  0.24486760  0.09142991  0.69573027  1
  Se  Se225  1  0.25562685  0.41105230  0.19865687  1
  Se  Se226  1  0.23552457  0.42948103  0.69667273  1
  Se  Se227  1  0.25411326  0.74697586  0.18662461  1
  Se  Se228  1  0.24478833  0.75693739  0.69469482  1
  Se  Se229  1  0.57820255  0.07694991  0.19855853  1
  Se  Se230  1  0.58504620  0.07584065  0.69417873  1
  Se  Se231  1  0.58932590  0.41428220  0.19454378  1
  Se  Se232  1  0.57427257  0.41938170  0.68533015  1
  Se  Se233  1  0.58581051  0.74873008  0.19440920  1
  Se  Se234  1  0.58215455  0.74703133  0.70056598  1
  Se  Se235  1  0.91594085  0.07979343  0.20113154  1
  Se  Se236  1  0.91338383  0.08769724  0.68252029  1
  Se  Se237  1  0.91547467  0.42029285  0.18701518  1
  Se  Se238  1  0.90132491  0.42409309  0.70536951  1
  Se  Se239  1  0.91635498  0.74609920  0.19289682  1
  Se  Se240  1  0.91708746  0.74963352  0.70396333  1
  Se  Se241  1  0.08490298  0.24695534  0.18875810  1
  Se  Se242  1  0.08011474  0.25271390  0.70109759  1
  Se  Se243  1  0.08480689  0.58358564  0.19511993  1
  Se  Se244  1  0.07701206  0.58983654  0.70359081  1
  Se  Se245  1  0.08066384  0.91585723  0.18903910  1
  Se  Se246  1  0.09065806  0.91045826  0.69553296  1
  Se  Se247  1  0.41334506  0.24626879  0.19648307  1
  Se  Se248  1  0.42325371  0.24138619  0.69314218  1
  Se  Se249  1  0.42240232  0.58421488  0.19186797  1
  Se  Se250  1  0.41941525  0.58668116  0.68539035  1
  Se  Se251  1  0.41411921  0.90056572  0.18054651  1
  Se  Se252  1  0.42587353  0.91620040  0.69483401  1
  Se  Se253  1  0.74413420  0.25003735  0.19712004  1
  Se  Se254  1  0.75432214  0.24065490  0.68611366  1
  Se  Se255  1  0.74960297  0.58590917  0.19232902  1
  Se  Se256  1  0.74460477  0.57629153  0.70573861  1
  Se  Se257  1  0.74314340  0.91912284  0.19837864  1
  Se  Se258  1  0.75237434  0.91152161  0.70122114  1
