# generated using pymatgen
data_In86Cu29Se144
_symmetry_space_group_name_H-M   'P 1'
_cell_length_a   17.58143501
_cell_length_b   17.57815511
_cell_length_c   23.44482407
_cell_angle_alpha   89.99217130
_cell_angle_beta   89.98444336
_cell_angle_gamma   90.01327979
_symmetry_Int_Tables_number   1
_chemical_formula_structural   In86Cu29Se144
_chemical_formula_sum   'In86 Cu29 Se144'
_cell_volume   7245.60339734
_cell_formula_units_Z   1
loop_
 _symmetry_equiv_pos_site_id
 _symmetry_equiv_pos_as_xyz
  1  'x, y, z'
loop_
 _atom_site_type_symbol
 _atom_site_label
 _atom_site_symmetry_multiplicity
 _atom_site_fract_x
 _atom_site_fract_y
 _atom_site_fract_z
 _atom_site_occupancy
  In  In0  1  0.00744029  0.17512782  0.12127619  1
  In  In1  1  -0.00471016  0.18224186  0.62753209  1
  In  In2  1  -0.00698329  0.48961808  0.12283426  1
  In  In3  1  0.00336620  0.50379803  0.62324735  1
  In  In4  1  -0.00202658  0.83028036  0.11169946  1
  In  In5  1  -0.01287524  0.81630866  0.63546981  1
  In  In6  1  0.33511448  0.16728718  0.12389675  1
  In  In7  1  0.33694502  0.15866132  0.63013074  1
  In  In8  1  0.32355749  0.50720209  0.12713317  1
  In  In9  1  0.34729934  0.51013699  0.61177671  1
  In  In10  1  0.34224652  0.84427939  0.11835100  1
  In  In11  1  0.35203583  0.81931303  0.64912840  1
  In  In12  1  0.65466957  0.16433554  0.11155075  1
  In  In13  1  0.67360258  0.15695947  0.63123915  1
  In  In14  1  0.67908053  0.49200199  0.12671483  1
  In  In15  1  0.66458947  0.49907427  0.62340458  1
  In  In16  1  0.67432975  0.82730831  0.12631053  1
  In  In17  1  0.68428734  0.81422229  0.65487292  1
  In  In18  1  0.17597434  -0.00575600  0.36671901  1
  In  In19  1  0.17069937  -0.00369636  0.88490104  1
  In  In20  1  0.17865524  0.34451559  0.36139789  1
  In  In21  1  0.16315490  0.33823508  0.88817509  1
  In  In22  1  0.15546641  0.66069048  0.37329311  1
  In  In23  1  0.16394895  0.66769594  0.87286077  1
  In  In24  1  0.50295008  0.00223647  0.36681629  1
  In  In25  1  0.50900074  0.00811828  0.86590486  1
  In  In26  1  0.49153882  0.34326888  0.37304848  1
  In  In27  1  0.50773393  0.31917117  0.88089292  1
  In  In28  1  0.50907958  0.64699613  0.37822133  1
  In  In29  1  0.50761013  0.68232978  0.85708176  1
  In  In30  1  0.82921338  0.01492139  0.37526452  1
  In  In31  1  0.82515327  0.00897629  0.88122677  1
  In  In32  1  0.83052644  0.33056280  0.37762697  1
  In  In33  1  0.81644930  0.34749739  0.89008190  1
  In  In34  1  0.80870600  0.65249307  0.38043369  1
  In  In35  1  0.83099191  0.66825566  0.87016901  1
  In  In36  1  -0.01923332  0.17253281  0.37500052  1
  In  In37  1  -0.00953311  0.17733795  0.88797864  1
  In  In38  1  0.00976433  0.49241824  0.38055203  1
  In  In39  1  -0.00960942  0.51091170  0.87761293  1
  In  In40  1  0.00220264  0.82877138  0.37354905  1
  In  In41  1  0.00483166  0.82765802  0.88058148  1
  In  In42  1  0.33578862  0.16592317  0.36435903  1
  In  In43  1  0.34033875  0.16100870  0.88608410  1
  In  In44  1  0.34551535  0.47646458  0.39678419  1
  In  In45  1  0.32368395  0.50304490  0.87530644  1
  In  In46  1  0.33105723  0.84089156  0.36859253  1
  In  In47  1  0.32621063  0.82836321  0.86663521  1
  In  In48  1  0.68058944  0.17336823  0.37330642  1
  In  In49  1  0.66935450  0.16775577  0.87555727  1
  In  In50  1  0.64926820  0.50508310  0.39651975  1
  In  In51  1  0.67333898  0.51206355  0.86555533  1
  In  In52  1  0.66014111  0.82710391  0.36952045  1
  In  In53  1  0.67961572  0.84781329  0.85463434  1
  In  In54  1  0.17709831  0.00953353  0.11431876  1
  In  In55  1  0.18430125  0.00027286  0.63042557  1
  In  In56  1  0.16873486  0.33442999  0.12740213  1
  In  In57  1  0.16468117  0.33889312  0.62218848  1
  In  In58  1  0.16481457  0.66194198  0.11218984  1
  In  In59  1  0.17087437  0.66107942  0.63188717  1
  In  In60  1  0.49329355  0.00615757  0.12738319  1
  In  In61  1  0.50950429  -0.01045320  0.63779601  1
  In  In62  1  0.51080921  0.31779478  0.12426398  1
  In  In63  1  0.51117020  0.35374243  0.61130458  1
  In  In64  1  0.50351415  0.67581077  0.12657188  1
  In  In65  1  0.51880051  0.64838600  0.64495384  1
  In  In66  1  0.82476265  -0.00817489  0.11807207  1
  In  In67  1  0.82184416  -0.00864616  0.63140466  1
  In  In68  1  0.83397877  0.34448892  0.11784808  1
  In  In69  1  0.81530633  0.33076579  0.60812490  1
  In  In70  1  0.82708870  0.65610117  0.11722865  1
  In  In71  1  0.83748787  0.66039883  0.63500108  1
  In  In72  1  0.82882808  0.82586452  0.51239044  1
  In  In73  1  0.49930289  0.49987289  -0.00193577  1
  In  In74  1  0.66450921  0.33488958  0.25103733  1
  In  In75  1  0.33809339  0.66465696  0.25297867  1
  In  In76  1  0.00163043  -0.00151407  0.76013470  1
  In  In77  1  0.16755831  0.83429913  0.49502280  1
  In  In78  1  0.00163898  0.00582933  0.24788878  1
  In  In79  1  0.50602681  0.82677941  0.51041649  1
  In  In80  1  -0.00541188  0.33997623  0.75484694  1
  In  In81  1  -0.00513253  0.66518332  0.24655753  1
  In  In82  1  0.33990690  0.33520555  0.74551645  1
  In  In83  1  0.50501575  0.17321654  0.49189159  1
  In  In84  1  0.16505172  0.17279622  0.50108344  1
  In  In85  1  0.50356415  0.83730396  -0.01521263  1
  Cu  Cu86  1  -0.00442174  0.66437243  0.50146718  1
  Cu  Cu87  1  0.32821635  0.65876001  0.50415128  1
  Cu  Cu88  1  0.49768542  0.16025188  0.24410879  1
  Cu  Cu89  1  0.33974059  -0.00031752  0.50247650  1
  Cu  Cu90  1  0.50884757  0.83520734  0.24730333  1
  Cu  Cu91  1  0.82702724  0.16875558  0.24824501  1
  Cu  Cu92  1  0.50771850  0.16988375  0.75189383  1
  Cu  Cu93  1  0.33189134  0.33247083  0.00393646  1
  Cu  Cu94  1  0.16019272  0.83431094  0.75779313  1
  Cu  Cu95  1  0.82544581  0.83530461  0.24933256  1
  Cu  Cu96  1  -0.00283501  0.01021772  0.50326025  1
  Cu  Cu97  1  0.49960145  0.49460941  0.74625749  1
  Cu  Cu98  1  0.83176153  0.49890746  0.24831372  1
  Cu  Cu99  1  0.17379739  0.16942440  0.76068809  1
  Cu  Cu100  1  0.66253312  -0.00192702  -0.00529641  1
  Cu  Cu101  1  0.00150777  0.66349768  -0.00613912  1
  Cu  Cu102  1  0.67554791  -0.00172196  0.50495302  1
  Cu  Cu103  1  0.00550514  0.33334251  0.00504675  1
  Cu  Cu104  1  0.33020443  0.00351898  0.00189197  1
  Cu  Cu105  1  0.17742199  0.84094150  0.23814878  1
  Cu  Cu106  1  0.16836386  0.49282862  0.25164608  1
  Cu  Cu107  1  0.82556686  0.16718541  0.75099459  1
  Cu  Cu108  1  0.16737807  0.51078191  0.74882183  1
  Cu  Cu109  1  0.16849792  0.16992063  0.24171524  1
  Cu  Cu110  1  0.32898218  0.66681764  -0.00985570  1
  Cu  Cu111  1  -0.00398547  0.33459647  0.49919574  1
  Cu  Cu112  1  -0.00516100  -0.00106113  -0.00180652  1
  Cu  Cu113  1  0.82962479  0.49669480  0.75012178  1
  Cu  Cu114  1  0.67750745  0.66258581  -0.00361972  1
  Se  Se115  1  0.07827410  0.08178815  0.05319544  1
  Se  Se116  1  0.08117353  0.07979540  0.56672624  1
  Se  Se117  1  0.08880898  0.41930153  0.05681828  1
  Se  Se118  1  0.07998972  0.41584091  0.55363002  1
  Se  Se119  1  0.08527910  0.74921713  0.04643830  1
  Se  Se120  1  0.07660662  0.74828191  0.55844678  1
  Se  Se121  1  0.41797677  0.08477966  0.05290551  1
  Se  Se122  1  0.42493654  0.07792920  0.55847184  1
  Se  Se123  1  0.41263556  0.41369543  0.06370507  1
  Se  Se124  1  0.40646615  0.40776738  0.54771573  1
  Se  Se125  1  0.41487243  0.74413213  0.04885819  1
  Se  Se126  1  0.40677303  0.74022136  0.56316330  1
  Se  Se127  1  0.74586113  0.07951540  0.05049028  1
  Se  Se128  1  0.75824768  0.08134626  0.55797643  1
  Se  Se129  1  0.74815678  0.42028972  0.04819175  1
  Se  Se130  1  0.75969977  0.44113556  0.54808947  1
  Se  Se131  1  0.75376809  0.75155779  0.05173026  1
  Se  Se132  1  0.73510332  0.73598358  0.56658014  1
  Se  Se133  1  0.24780935  0.24900396  0.05735682  1
  Se  Se134  1  0.26136179  0.25411757  0.56145197  1
  Se  Se135  1  0.25320608  0.58093128  0.04698296  1
  Se  Se136  1  0.23933923  0.58004695  0.55526846  1
  Se  Se137  1  0.24938990  0.91177614  0.04955362  1
  Se  Se138  1  0.26142930  0.91391564  0.55869466  1
  Se  Se139  1  0.58791776  0.25945804  0.04356211  1
  Se  Se140  1  0.59608075  0.24963219  0.55906487  1
  Se  Se141  1  0.59043921  0.59159607  0.05787095  1
  Se  Se142  1  0.56697060  0.57330440  0.55957326  1
  Se  Se143  1  0.58448954  0.91806810  0.05819715  1
  Se  Se144  1  0.60147975  0.91546378  0.56610802  1
  Se  Se145  1  0.91653675  0.25247630  0.05542140  1
  Se  Se146  1  0.91455330  0.24887749  0.55130561  1
  Se  Se147  1  0.92250990  0.58229004  0.05407991  1
  Se  Se148  1  0.91396278  0.58552094  0.55842790  1
  Se  Se149  1  0.91007810  0.91310258  0.04862975  1
  Se  Se150  1  0.92709265  0.92074755  0.56333614  1
  Se  Se151  1  0.07716953  0.25700864  0.43650405  1
  Se  Se152  1  0.08783817  0.24640174  0.95357117  1
  Se  Se153  1  0.08312668  0.58443899  0.44946531  1
  Se  Se154  1  0.08792461  0.57976377  0.94355892  1
  Se  Se155  1  0.07374007  0.93168962  0.44015941  1
  Se  Se156  1  0.08195464  0.91512838  0.94934644  1
  Se  Se157  1  0.40040180  0.25445042  0.44070732  1
  Se  Se158  1  0.41862306  0.25076460  0.95247031  1
  Se  Se159  1  0.41782129  0.58293030  0.45065837  1
  Se  Se160  1  0.42050948  0.59568272  0.93285181  1
  Se  Se161  1  0.41945765  0.91826230  0.44275235  1
  Se  Se162  1  0.40615265  0.92783621  0.93442463  1
  Se  Se163  1  0.75458704  0.24570975  0.44884291  1
  Se  Se164  1  0.76225784  0.23471888  0.94602319  1
  Se  Se165  1  0.75580150  0.56605721  0.45963822  1
  Se  Se166  1  0.75783580  0.57791240  0.94244370  1
  Se  Se167  1  0.74891053  0.91477793  0.44122664  1
  Se  Se168  1  0.74378699  0.91198158  0.94180693  1
  Se  Se169  1  0.25619326  0.07612411  0.44282404  1
  Se  Se170  1  0.24457763  0.08932188  0.95179116  1
  Se  Se171  1  0.23046548  0.41773534  0.44752818  1
  Se  Se172  1  0.25382823  0.42054509  0.95070428  1
  Se  Se173  1  0.25970245  0.74074652  0.43721574  1
  Se  Se174  1  0.24564074  0.75433093  0.94179283  1
  Se  Se175  1  0.59570788  0.07218333  0.44089209  1
  Se  Se176  1  0.58101753  0.08452784  0.94323516  1
  Se  Se177  1  0.59100511  0.38804708  0.44515760  1
  Se  Se178  1  0.59275402  0.41866890  0.93700387  1
  Se  Se179  1  0.59278146  0.73920904  0.44625724  1
  Se  Se180  1  0.59783580  0.74286253  0.93574091  1
  Se  Se181  1  0.91139610  0.08773291  0.44957723  1
  Se  Se182  1  0.91029627  0.08632263  0.95113249  1
  Se  Se183  1  0.91486386  0.41734823  0.44372076  1
  Se  Se184  1  0.92553646  0.41354525  0.94573920  1
  Se  Se185  1  0.91638944  0.74355237  0.44026242  1
  Se  Se186  1  0.91389581  0.74570148  0.94368642  1
  Se  Se187  1  0.25360993  0.25023086  0.29757008  1
  Se  Se188  1  0.25128509  0.25568487  0.81606291  1
  Se  Se189  1  0.24612030  0.57619482  0.31133124  1
  Se  Se190  1  0.25316012  0.58942684  0.80335550  1
  Se  Se191  1  0.25920754  0.92231970  0.29320895  1
  Se  Se192  1  0.24281304  0.92281891  0.80579075  1
  Se  Se193  1  0.57326610  0.24007013  0.30926860  1
  Se  Se194  1  0.59050218  0.25384990  0.80395497  1
  Se  Se195  1  0.59639785  0.57644104  0.30893853  1
  Se  Se196  1  0.58284068  0.58392672  0.79588518  1
  Se  Se197  1  0.58996356  0.92020374  0.30156734  1
  Se  Se198  1  0.55888849  0.89709040  0.80519018  1
  Se  Se199  1  0.90934600  0.25383720  0.30038996  1
  Se  Se200  1  0.90509208  0.24731061  0.81095682  1
  Se  Se201  1  0.91038671  0.57844055  0.31250763  1
  Se  Se202  1  0.91425475  0.58234007  0.80038543  1
  Se  Se203  1  0.91010462  0.91238112  0.30893422  1
  Se  Se204  1  0.90906468  0.91227389  0.81684411  1
  Se  Se205  1  0.09048438  0.09601215  0.31075786  1
  Se  Se206  1  0.08576246  0.09638277  0.81814937  1
  Se  Se207  1  0.07544699  0.41445045  0.30026797  1
  Se  Se208  1  0.09304303  0.42617734  0.81009745  1
  Se  Se209  1  0.09578231  0.76156280  0.29860651  1
  Se  Se210  1  0.07577583  0.74695353  0.80404882  1
  Se  Se211  1  0.41391358  0.07666701  0.29849780  1
  Se  Se212  1  0.41734161  0.09458846  0.80562360  1
  Se  Se213  1  0.40952432  0.42493562  0.30634214  1
  Se  Se214  1  0.42509299  0.41948908  0.81428576  1
  Se  Se215  1  0.43121357  0.75590046  0.31250141  1
  Se  Se216  1  0.40604733  0.74850155  0.79667018  1
  Se  Se217  1  0.74534565  0.08247107  0.29958530  1
  Se  Se218  1  0.74576740  0.08017322  0.80382608  1
  Se  Se219  1  0.74940708  0.42592390  0.31256682  1
  Se  Se220  1  0.74909740  0.41156621  0.80417409  1
  Se  Se221  1  0.75206227  0.74669553  0.30639116  1
  Se  Se222  1  0.73315477  0.73185375  0.80121349  1
  Se  Se223  1  0.25106334  0.08191035  0.19290271  1
  Se  Se224  1  0.25224071  0.08761282  0.70397611  1
  Se  Se225  1  0.25503769  0.41552906  0.19685676  1
  Se  Se226  1  0.24669773  0.42761367  0.68972702  1
  Se  Se227  1  0.25145286  0.75008908  0.18328310  1
  Se  Se228  1  0.24172152  0.75133810  0.70142410  1
  Se  Se229  1  0.58733562  0.08441839  0.19080469  1
  Se  Se230  1  0.58923740  0.07979080  0.70167280  1
  Se  Se231  1  0.57404916  0.42408000  0.19064895  1
  Se  Se232  1  0.58569557  0.41266770  0.69515634  1
  Se  Se233  1  0.59003391  0.74770865  0.19727873  1
  Se  Se234  1  0.54813769  0.78052752  0.68646858  1
  Se  Se235  1  0.90827783  0.08915823  0.18700576  1
  Se  Se236  1  0.91531791  0.09022128  0.69492231  1
  Se  Se237  1  0.91361027  0.41364255  0.19693765  1
  Se  Se238  1  0.90674347  0.41729492  0.68610680  1
  Se  Se239  1  0.90790029  0.75876899  0.18824655  1
  Se  Se240  1  0.89565559  0.75782666  0.70654811  1
  Se  Se241  1  0.08017719  0.25472968  0.19670283  1
  Se  Se242  1  0.09429093  0.24788705  0.69930265  1
  Se  Se243  1  0.09174402  0.57788399  0.19118103  1
  Se  Se244  1  0.07543001  0.58748948  0.69768940  1
  Se  Se245  1  0.08543782  0.91409974  0.18370177  1
  Se  Se246  1  0.08644542  0.91227235  0.68978207  1
  Se  Se247  1  0.41821197  0.24951297  0.19391553  1
  Se  Se248  1  0.43347699  0.24806256  0.68569951  1
  Se  Se249  1  0.42815933  0.57775020  0.19146165  1
  Se  Se250  1  0.40925600  0.57757575  0.69869740  1
  Se  Se251  1  0.41950040  0.91397309  0.19585360  1
  Se  Se252  1  0.38904566  0.94741182  0.69201015  1
  Se  Se253  1  0.74923162  0.24753134  0.18458379  1
  Se  Se254  1  0.75304776  0.25417450  0.69166255  1
  Se  Se255  1  0.75047983  0.58443560  0.19574101  1
  Se  Se256  1  0.74452629  0.57908327  0.69702978  1
  Se  Se257  1  0.74576152  0.92054926  0.19555015  1
  Se  Se258  1  0.75231393  0.91974453  0.71014656  1
