# generated using pymatgen
data_In86Cu29Se144
_symmetry_space_group_name_H-M   'P 1'
_cell_length_a   17.58527836
_cell_length_b   17.58717307
_cell_length_c   23.44385666
_cell_angle_alpha   90.01663352
_cell_angle_beta   89.99979427
_cell_angle_gamma   90.04155903
_symmetry_Int_Tables_number   1
_chemical_formula_structural   In86Cu29Se144
_chemical_formula_sum   'In86 Cu29 Se144'
_cell_volume   7250.60438365
_cell_formula_units_Z   1
loop_
 _symmetry_equiv_pos_site_id
 _symmetry_equiv_pos_as_xyz
  1  'x, y, z'
loop_
 _atom_site_type_symbol
 _atom_site_label
 _atom_site_symmetry_multiplicity
 _atom_site_fract_x
 _atom_site_fract_y
 _atom_site_fract_z
 _atom_site_occupancy
  In  In0  1  0.01358345  0.15373288  0.13439917  1
  In  In1  1  -0.00737406  0.15745736  0.62771176  1
  In  In2  1  -0.01434270  0.50996389  0.12285726  1
  In  In3  1  0.00144655  0.49708447  0.61775831  1
  In  In4  1  0.01448091  0.84089941  0.11259491  1
  In  In5  1  -0.00064639  0.84553790  0.62382357  1
  In  In6  1  0.31905646  0.14700500  0.10430316  1
  In  In7  1  0.34775276  0.15395437  0.63382195  1
  In  In8  1  0.34770400  0.49901990  0.12331614  1
  In  In9  1  0.32839871  0.50948129  0.63246175  1
  In  In10  1  0.33098402  0.83578896  0.12622978  1
  In  In11  1  0.33889178  0.83332705  0.62901618  1
  In  In12  1  0.66147194  0.17871245  0.12712596  1
  In  In13  1  0.66209329  0.17818342  0.62923901  1
  In  In14  1  0.66285240  0.49320182  0.12143969  1
  In  In15  1  0.67013153  0.48846998  0.62637389  1
  In  In16  1  0.66655194  0.82925332  0.11876758  1
  In  In17  1  0.66517343  0.83948015  0.61433931  1
  In  In18  1  0.16784309  -0.00057637  0.37013602  1
  In  In19  1  0.17142449  0.00281176  0.87599573  1
  In  In20  1  0.16494146  0.34636904  0.37237712  1
  In  In21  1  0.16833890  0.31758116  0.87881747  1
  In  In22  1  0.16591599  0.65806545  0.37339265  1
  In  In23  1  0.18266056  0.66475209  0.87490671  1
  In  In24  1  0.48841009  0.00898319  0.38867508  1
  In  In25  1  0.47602529  0.01708871  0.89630701  1
  In  In26  1  0.50006370  0.31940486  0.37318371  1
  In  In27  1  0.50052825  0.33496319  0.87114729  1
  In  In28  1  0.49580022  0.68194672  0.37522364  1
  In  In29  1  0.48936948  0.67766498  0.88111449  1
  In  In30  1  0.83730742  -0.00945913  0.37672360  1
  In  In31  1  0.83647497  -0.01511281  0.87612741  1
  In  In32  1  0.83823736  0.34039588  0.36631028  1
  In  In33  1  0.82827075  0.34399609  0.86950769  1
  In  In34  1  0.82757075  0.67059177  0.38326320  1
  In  In35  1  0.83608374  0.66609132  0.88283969  1
  In  In36  1  -0.00463928  0.16512543  0.36438746  1
  In  In37  1  0.01902288  0.16133712  0.87888609  1
  In  In38  1  0.00141437  0.49995877  0.37646668  1
  In  In39  1  -0.01076666  0.49497987  0.87997395  1
  In  In40  1  -0.00931986  0.83657808  0.37575242  1
  In  In41  1  -0.00751159  0.84035433  0.88180633  1
  In  In42  1  0.34568249  0.16223064  0.37910688  1
  In  In43  1  0.33053771  0.16784300  0.87291066  1
  In  In44  1  0.32041092  0.50276840  0.37748141  1
  In  In45  1  0.34499288  0.51308770  0.86766198  1
  In  In46  1  0.33653616  0.84156639  0.37012254  1
  In  In47  1  0.33361359  0.83663049  0.87805901  1
  In  In48  1  0.65008006  0.16868903  0.37207549  1
  In  In49  1  0.65070738  0.16824663  0.87412152  1
  In  In50  1  0.67933880  0.50333826  0.37522923  1
  In  In51  1  0.67346440  0.48764665  0.87399712  1
  In  In52  1  0.65910526  0.85115573  0.39237641  1
  In  In53  1  0.66570823  0.82979543  0.88286405  1
  In  In54  1  0.17109823  -0.00463271  0.12417360  1
  In  In55  1  0.16746808  0.00261344  0.63203971  1
  In  In56  1  0.17039935  0.31890488  0.12495146  1
  In  In57  1  0.16791655  0.34861992  0.62381483  1
  In  In58  1  0.16915942  0.69536231  0.11906999  1
  In  In59  1  0.18865476  0.66562756  0.62262838  1
  In  In60  1  0.48253272  -0.01673316  0.10689973  1
  In  In61  1  0.48393622  -0.01462790  0.60671232  1
  In  In62  1  0.50083334  0.33397595  0.11967016  1
  In  In63  1  0.50686604  0.32302936  0.63108115  1
  In  In64  1  0.49556291  0.66017018  0.12221057  1
  In  In65  1  0.48407553  0.67968000  0.62615885  1
  In  In66  1  0.84794153  -0.00201644  0.12815634  1
  In  In67  1  0.84458041  -0.00496859  0.62496614  1
  In  In68  1  0.82782610  0.34314212  0.13194147  1
  In  In69  1  0.82381123  0.33171564  0.62714703  1
  In  In70  1  0.84707744  0.66624697  0.10859610  1
  In  In71  1  0.83369245  0.66550577  0.61992084  1
  In  In72  1  0.66181628  0.00827732  0.25550539  1
  In  In73  1  0.17017608  0.16593796  0.50186109  1
  In  In74  1  0.00462076  0.66335933  0.75989257  1
  In  In75  1  0.00309138  0.66980710  0.24426231  1
  In  In76  1  0.49899940  0.50462335  0.50419271  1
  In  In77  1  0.33512301  0.32655467  0.24952721  1
  In  In78  1  0.83121996  0.16810424  0.00984392  1
  In  In79  1  0.16426511  0.50144458  -0.00380634  1
  In  In80  1  0.16770091  0.83137443  0.50178162  1
  In  In81  1  0.66842702  0.66588140  0.25390481  1
  In  In82  1  0.82774161  0.16258501  0.49861430  1
  In  In83  1  0.00334158  0.32781583  0.75190219  1
  In  In84  1  0.66002613  0.66343770  0.74318373  1
  In  In85  1  0.65677849  0.00075825  0.75337213  1
  Cu  Cu86  1  0.49015303  0.83730063  0.24882929  1
  Cu  Cu87  1  0.34150854  0.33353868  -0.00461973  1
  Cu  Cu88  1  0.83477444  0.83542920  0.25198355  1
  Cu  Cu89  1  0.50020290  0.49704031  0.24365988  1
  Cu  Cu90  1  0.33388513  0.67190252  0.00063146  1
  Cu  Cu91  1  0.83571582  0.17361523  0.24574329  1
  Cu  Cu92  1  0.17333246  0.83971215  0.75035821  1
  Cu  Cu93  1  0.00024599  0.66322198  0.49840121  1
  Cu  Cu94  1  0.66701072  0.33551157  0.50342650  1
  Cu  Cu95  1  -0.00236995  0.33162962  0.00147324  1
  Cu  Cu96  1  0.17268481  0.16287056  0.75343985  1
  Cu  Cu97  1  0.66317537  0.33528362  -0.00058442  1
  Cu  Cu98  1  0.33595598  0.33342738  0.50018011  1
  Cu  Cu99  1  0.17095985  0.49998584  0.75096056  1
  Cu  Cu100  1  0.67131969  0.66611883  0.50183557  1
  Cu  Cu101  1  0.49447608  0.16626825  0.75321603  1
  Cu  Cu102  1  0.66502322  0.65779010  0.00013436  1
  Cu  Cu103  1  0.83410122  0.16121041  0.74832635  1
  Cu  Cu104  1  -0.00143842  0.33767968  0.49553956  1
  Cu  Cu105  1  0.50136321  0.49889111  0.74948193  1
  Cu  Cu106  1  0.66770865  -0.00433409  -0.00270825  1
  Cu  Cu107  1  0.00522679  0.00131874  0.00295143  1
  Cu  Cu108  1  0.17106622  0.84149852  0.24551516  1
  Cu  Cu109  1  0.49384153  0.16229226  0.24708961  1
  Cu  Cu110  1  0.83077305  0.49989086  0.24735605  1
  Cu  Cu111  1  0.49148453  0.84338326  0.75690512  1
  Cu  Cu112  1  0.16444285  0.50164248  0.25137097  1
  Cu  Cu113  1  0.83701126  0.83282104  0.75307119  1
  Cu  Cu114  1  0.16771291  0.16062373  0.24655089  1
  Se  Se115  1  0.08885541  0.08429415  0.05590890  1
  Se  Se116  1  0.07550692  0.07458744  0.55704344  1
  Se  Se117  1  0.07997267  0.41171429  0.06174011  1
  Se  Se118  1  0.08565586  0.41785923  0.54818560  1
  Se  Se119  1  0.06188376  0.72901946  0.05094889  1
  Se  Se120  1  0.07815470  0.73964329  0.56380100  1
  Se  Se121  1  0.42872161  0.09159297  0.04551439  1
  Se  Se122  1  0.41753755  0.09255654  0.54965312  1
  Se  Se123  1  0.42096707  0.41859931  0.04957019  1
  Se  Se124  1  0.41413077  0.41096410  0.56443805  1
  Se  Se125  1  0.41689123  0.75118092  0.05843752  1
  Se  Se126  1  0.41309512  0.75752922  0.55150257  1
  Se  Se127  1  0.74113864  0.07248038  0.06580588  1
  Se  Se128  1  0.74423361  0.07980213  0.56718626  1
  Se  Se129  1  0.75061295  0.41383958  0.05351995  1
  Se  Se130  1  0.75479002  0.41701392  0.55224622  1
  Se  Se131  1  0.74823101  0.74502592  0.05157770  1
  Se  Se132  1  0.75344963  0.75203051  0.55389192  1
  Se  Se133  1  0.25174339  0.25498591  0.04702351  1
  Se  Se134  1  0.25734296  0.25486167  0.56397154  1
  Se  Se135  1  0.25393144  0.58810707  0.06043256  1
  Se  Se136  1  0.25198429  0.57442166  0.55223794  1
  Se  Se137  1  0.23663773  0.89975488  0.05594808  1
  Se  Se138  1  0.25408547  0.92479400  0.56039827  1
  Se  Se139  1  0.58178504  0.24857432  0.05045941  1
  Se  Se140  1  0.58264439  0.25006717  0.55227529  1
  Se  Se141  1  0.58005454  0.57804905  0.05526320  1
  Se  Se142  1  0.58974240  0.59299675  0.56662835  1
  Se  Se143  1  0.58458225  0.90918572  0.04901371  1
  Se  Se144  1  0.58570973  0.91979885  0.54583473  1
  Se  Se145  1  0.92498141  0.25328743  0.06921549  1
  Se  Se146  1  0.92304934  0.25554483  0.55767690  1
  Se  Se147  1  0.91106105  0.56961510  0.04129201  1
  Se  Se148  1  0.91610702  0.58096701  0.55269613  1
  Se  Se149  1  0.91603699  0.91821122  0.05147455  1
  Se  Se150  1  0.91164338  0.91029607  0.55124692  1
  Se  Se151  1  0.07791025  0.25356343  0.43848689  1
  Se  Se152  1  0.08469168  0.24777237  0.95375934  1
  Se  Se153  1  0.08465592  0.58147443  0.44538432  1
  Se  Se154  1  0.07574352  0.59199159  0.93665916  1
  Se  Se155  1  0.07867876  0.92290646  0.44264634  1
  Se  Se156  1  0.08500595  0.92005038  0.94464056  1
  Se  Se157  1  0.42019261  0.24945306  0.44953659  1
  Se  Se158  1  0.42035899  0.24923512  0.93968905  1
  Se  Se159  1  0.41036666  0.59073961  0.44179322  1
  Se  Se160  1  0.41542383  0.58427786  0.94909930  1
  Se  Se161  1  0.42392837  0.90198102  0.44622263  1
  Se  Se162  1  0.42562861  0.90161988  0.95025551  1
  Se  Se163  1  0.74423603  0.25792152  0.43749953  1
  Se  Se164  1  0.74570171  0.25245385  0.94118921  1
  Se  Se165  1  0.75331753  0.57945096  0.45136427  1
  Se  Se166  1  0.74734503  0.57853142  0.94278365  1
  Se  Se167  1  0.76116391  0.91820420  0.45211103  1
  Se  Se168  1  0.75374496  0.91192024  0.94868526  1
  Se  Se169  1  0.25816914  0.07275548  0.44422886  1
  Se  Se170  1  0.24506921  0.09327505  0.94391409  1
  Se  Se171  1  0.24974106  0.41341551  0.44800164  1
  Se  Se172  1  0.25863801  0.41521333  0.93640036  1
  Se  Se173  1  0.25369205  0.74548625  0.43770738  1
  Se  Se174  1  0.24848744  0.75268253  0.94791280  1
  Se  Se175  1  0.59770997  0.07390368  0.44393959  1
  Se  Se176  1  0.58594600  0.08564975  0.95073652  1
  Se  Se177  1  0.58620576  0.41368911  0.44015792  1
  Se  Se178  1  0.58141048  0.41732004  0.94325912  1
  Se  Se179  1  0.58629046  0.74568868  0.44773932  1
  Se  Se180  1  0.58339698  0.74597336  0.94983102  1
  Se  Se181  1  0.92744564  0.07996111  0.44273590  1
  Se  Se182  1  0.91913425  0.08070939  0.94440384  1
  Se  Se183  1  0.91283757  0.41858431  0.44242339  1
  Se  Se184  1  0.91122835  0.40872062  0.94787868  1
  Se  Se185  1  0.91917744  0.74977540  0.44697007  1
  Se  Se186  1  0.91324531  0.75390277  0.94765579  1
  Se  Se187  1  0.24376452  0.23981088  0.31292272  1
  Se  Se188  1  0.25158624  0.25430868  0.80157879  1
  Se  Se189  1  0.25098408  0.58433486  0.30073888  1
  Se  Se190  1  0.25501876  0.58812949  0.79834376  1
  Se  Se191  1  0.25402182  0.92325721  0.30044998  1
  Se  Se192  1  0.25555737  0.92071692  0.80655480  1
  Se  Se193  1  0.57880283  0.24925436  0.29547967  1
  Se  Se194  1  0.58285851  0.25167694  0.79946788  1
  Se  Se195  1  0.57376602  0.57582596  0.31120955  1
  Se  Se196  1  0.57554542  0.58218925  0.81255950  1
  Se  Se197  1  0.57377931  0.91247905  0.31086905  1
  Se  Se198  1  0.57257248  0.91627897  0.82035954  1
  Se  Se199  1  0.92065302  0.25702874  0.29851751  1
  Se  Se200  1  0.91376717  0.23764475  0.81430578  1
  Se  Se201  1  0.90722720  0.58629717  0.30681845  1
  Se  Se202  1  0.90365890  0.57234508  0.80678942  1
  Se  Se203  1  0.92047407  0.92040699  0.30072279  1
  Se  Se204  1  0.92256256  0.91776821  0.80176447  1
  Se  Se205  1  0.08314764  0.08020664  0.30184852  1
  Se  Se206  1  0.08492126  0.07996499  0.80236441  1
  Se  Se207  1  0.07838413  0.41969375  0.30163627  1
  Se  Se208  1  0.09098952  0.42215924  0.81307013  1
  Se  Se209  1  0.09056442  0.76069818  0.30751205  1
  Se  Se210  1  0.09398932  0.76035332  0.81274646  1
  Se  Se211  1  0.41775762  0.07877469  0.30552615  1
  Se  Se212  1  0.41567081  0.07972407  0.80729045  1
  Se  Se213  1  0.42053631  0.42170030  0.31069909  1
  Se  Se214  1  0.41540209  0.41684998  0.80208953  1
  Se  Se215  1  0.41068954  0.74902017  0.30057624  1
  Se  Se216  1  0.41187547  0.75113712  0.80490428  1
  Se  Se217  1  0.76037960  0.09513826  0.31219782  1
  Se  Se218  1  0.75435869  0.08604267  0.81365548  1
  Se  Se219  1  0.74535213  0.41804857  0.30005361  1
  Se  Se220  1  0.74468289  0.41176552  0.79611846  1
  Se  Se221  1  0.74992717  0.76438349  0.31396908  1
  Se  Se222  1  0.75242815  0.75143219  0.80722475  1
  Se  Se223  1  0.25397944  0.08330127  0.19137992  1
  Se  Se224  1  0.25533442  0.07913332  0.69999775  1
  Se  Se225  1  0.24648179  0.42158830  0.19018970  1
  Se  Se226  1  0.25318259  0.41492560  0.69882587  1
  Se  Se227  1  0.25265065  0.75025079  0.19919570  1
  Se  Se228  1  0.25322368  0.75246360  0.69759994  1
  Se  Se229  1  0.57248684  0.08194431  0.18471576  1
  Se  Se230  1  0.57053898  0.08598899  0.68888344  1
  Se  Se231  1  0.58227746  0.41232477  0.19313761  1
  Se  Se232  1  0.58451431  0.41553454  0.69686227  1
  Se  Se233  1  0.57744445  0.75652480  0.19451710  1
  Se  Se234  1  0.57509890  0.76862921  0.69354709  1
  Se  Se235  1  0.91835560  0.08219789  0.20111684  1
  Se  Se236  1  0.91843405  0.07570494  0.70066125  1
  Se  Se237  1  0.92117026  0.42110904  0.19700463  1
  Se  Se238  1  0.91602796  0.41881050  0.69206077  1
  Se  Se239  1  0.91084985  0.75910235  0.18642264  1
  Se  Se240  1  0.91649832  0.75088593  0.69387540  1
  Se  Se241  1  0.08570888  0.25140405  0.19985064  1
  Se  Se242  1  0.09353950  0.24073838  0.68836682  1
  Se  Se243  1  0.09432529  0.58166263  0.18388373  1
  Se  Se244  1  0.08931546  0.57869360  0.69054829  1
  Se  Se245  1  0.08020734  0.91785061  0.19316462  1
  Se  Se246  1  0.08377765  0.91592551  0.69721500  1
  Se  Se247  1  0.41394694  0.23811444  0.18263437  1
  Se  Se248  1  0.41353996  0.25334585  0.69999297  1
  Se  Se249  1  0.41561402  0.58466307  0.19798488  1
  Se  Se250  1  0.42107187  0.58659707  0.69759286  1
  Se  Se251  1  0.41343125  0.92379609  0.19371663  1
  Se  Se252  1  0.41755717  0.92524929  0.69482251  1
  Se  Se253  1  0.74656212  0.25396258  0.19739862  1
  Se  Se254  1  0.75107123  0.24858719  0.70078208  1
  Se  Se255  1  0.75726039  0.58539872  0.18630700  1
  Se  Se256  1  0.75985611  0.57551508  0.69302475  1
  Se  Se257  1  0.74936091  0.91377008  0.19342650  1
  Se  Se258  1  0.75148098  0.91070199  0.69499357  1
