# generated using pymatgen
data_In86Cu29Se144
_symmetry_space_group_name_H-M   'P 1'
_cell_length_a   17.58312504
_cell_length_b   17.57528870
_cell_length_c   23.44074110
_cell_angle_alpha   89.96645191
_cell_angle_beta   90.00087389
_cell_angle_gamma   90.01340805
_symmetry_Int_Tables_number   1
_chemical_formula_structural   In86Cu29Se144
_chemical_formula_sum   'In86 Cu29 Se144'
_cell_volume   7243.85558947
_cell_formula_units_Z   1
loop_
 _symmetry_equiv_pos_site_id
 _symmetry_equiv_pos_as_xyz
  1  'x, y, z'
loop_
 _atom_site_type_symbol
 _atom_site_label
 _atom_site_symmetry_multiplicity
 _atom_site_fract_x
 _atom_site_fract_y
 _atom_site_fract_z
 _atom_site_occupancy
  In  In0  1  0.02448427  0.14865868  0.14749781  1
  In  In1  1  -0.00625705  0.15396490  0.61273088  1
  In  In2  1  -0.00968111  0.49153510  0.11755803  1
  In  In3  1  -0.00367993  0.49030000  0.62440068  1
  In  In4  1  -0.00050667  0.83745608  0.11679677  1
  In  In5  1  0.00488073  0.85149793  0.62587064  1
  In  In6  1  0.32481201  0.14787869  0.12183964  1
  In  In7  1  0.32819807  0.16228430  0.61672043  1
  In  In8  1  0.33390003  0.50818231  0.12101503  1
  In  In9  1  0.34333954  0.50201399  0.62749366  1
  In  In10  1  0.36094859  0.87680339  0.08645248  1
  In  In11  1  0.34392342  0.83002680  0.63886475  1
  In  In12  1  0.66091168  0.16728564  0.13459055  1
  In  In13  1  0.66028875  0.16061609  0.60713846  1
  In  In14  1  0.67381597  0.47955831  0.12404353  1
  In  In15  1  0.66806775  0.51432203  0.62531810  1
  In  In16  1  0.67774561  0.84579058  0.12036040  1
  In  In17  1  0.66219332  0.83130012  0.61997796  1
  In  In18  1  0.18544021  0.02163149  0.34941953  1
  In  In19  1  0.16456769  0.00081755  0.88015863  1
  In  In20  1  0.14712162  0.32047435  0.35942584  1
  In  In21  1  0.17544296  0.32885443  0.89156336  1
  In  In22  1  0.17334482  0.66973482  0.37199736  1
  In  In23  1  0.17376255  0.66292235  0.87811852  1
  In  In24  1  0.50054417  0.00414844  0.37070238  1
  In  In25  1  0.48642317  0.00517275  0.88732566  1
  In  In26  1  0.52821510  0.30788770  0.39884033  1
  In  In27  1  0.49458818  0.33119681  0.88209056  1
  In  In28  1  0.50027061  0.66496293  0.38727515  1
  In  In29  1  0.51067148  0.67994048  0.87034721  1
  In  In30  1  0.83674884  0.00001286  0.36898270  1
  In  In31  1  0.83472473  -0.01900368  0.87407752  1
  In  In32  1  0.80912565  0.31205111  0.35804718  1
  In  In33  1  0.84594096  0.32858402  0.88174034  1
  In  In34  1  0.82969591  0.67879027  0.37722522  1
  In  In35  1  0.81783424  0.67953339  0.87936239  1
  In  In36  1  -0.00264455  0.15969544  0.36913217  1
  In  In37  1  0.01316577  0.16025955  0.87877131  1
  In  In38  1  0.00206125  0.49366258  0.37120091  1
  In  In39  1  0.00328466  0.49588713  0.88780593  1
  In  In40  1  -0.01334289  0.84816885  0.37668992  1
  In  In41  1  -0.01598762  0.84874009  0.88029007  1
  In  In42  1  0.34513417  0.15396312  0.37446174  1
  In  In43  1  0.34010752  0.15291104  0.89408933  1
  In  In44  1  0.34247726  0.50429326  0.37792081  1
  In  In45  1  0.32384981  0.49802133  0.87745740  1
  In  In46  1  0.33709010  0.85162763  0.37186998  1
  In  In47  1  0.33899304  0.83963825  0.88180744  1
  In  In48  1  0.66660140  0.16971513  0.37432131  1
  In  In49  1  0.66297593  0.15583070  0.88026005  1
  In  In50  1  0.66371427  0.47225620  0.37962482  1
  In  In51  1  0.65695084  0.51481262  0.87920301  1
  In  In52  1  0.66255797  0.83738776  0.37658234  1
  In  In53  1  0.67490788  0.82221988  0.88207058  1
  In  In54  1  0.16708465  -0.00123866  0.12052334  1
  In  In55  1  0.16699214  0.00616271  0.62918585  1
  In  In56  1  0.15487310  0.31787787  0.12197183  1
  In  In57  1  0.17755382  0.32308851  0.62194206  1
  In  In58  1  0.16779307  0.67417872  0.11157331  1
  In  In59  1  0.16846169  0.68672379  0.63534504  1
  In  In60  1  0.50570756  0.00232110  0.12686151  1
  In  In61  1  0.49869428  -0.00552690  0.61916110  1
  In  In62  1  0.52272981  0.31298345  0.13263222  1
  In  In63  1  0.49687206  0.33210797  0.60879509  1
  In  In64  1  0.48510098  0.67036678  0.12691685  1
  In  In65  1  0.50282566  0.67467270  0.62799821  1
  In  In66  1  0.83452699  -0.00965748  0.13476992  1
  In  In67  1  0.83694625  0.00059689  0.61576967  1
  In  In68  1  0.82941051  0.33516241  0.12848625  1
  In  In69  1  0.83748114  0.32873815  0.61926318  1
  In  In70  1  0.84372301  0.67170287  0.11650674  1
  In  In71  1  0.81461871  0.67117443  0.63070702  1
  In  In72  1  0.82606592  0.49406398  0.49993783  1
  In  In73  1  0.32814530  0.67298118  0.24517946  1
  In  In74  1  0.66860494  0.33703147  0.74260422  1
  In  In75  1  0.82996947  0.17321511  0.01135022  1
  In  In76  1  0.16882322  0.84385655  0.49998813  1
  In  In77  1  0.00237854  0.32922253  0.74598652  1
  In  In78  1  0.33374315  0.33037554  0.75566689  1
  In  In79  1  0.00272225  0.67624518  0.24237916  1
  In  In80  1  0.34142561  0.32429434  0.24708492  1
  In  In81  1  0.50326596  0.49879625  0.00288849  1
  In  In82  1  0.66255139  -0.00764300  0.74731731  1
  In  In83  1  0.66667864  0.67092719  0.25213991  1
  In  In84  1  0.17040800  0.49521158  0.50219028  1
  In  In85  1  0.00029922  0.67438294  0.75617442  1
  Cu  Cu86  1  0.66248563  0.67033918  0.50275403  1
  Cu  Cu87  1  0.16234544  0.49159135  0.24199304  1
  Cu  Cu88  1  0.83954605  0.15382637  0.74082975  1
  Cu  Cu89  1  0.67239102  -0.00052433  0.49134489  1
  Cu  Cu90  1  0.16920273  0.15408926  0.75288708  1
  Cu  Cu91  1  0.33797201  0.00357298  0.49479547  1
  Cu  Cu92  1  0.34214851  0.67339388  0.50964865  1
  Cu  Cu93  1  -0.00134923  0.33265329  0.00909832  1
  Cu  Cu94  1  0.16690912  0.83791416  0.23697352  1
  Cu  Cu95  1  0.50801949  0.48807908  0.25791354  1
  Cu  Cu96  1  0.49580993  0.16704315  0.75386524  1
  Cu  Cu97  1  -0.00680299  0.00578566  0.00667853  1
  Cu  Cu98  1  0.32327144  0.32719473  0.49407355  1
  Cu  Cu99  1  0.83124605  0.17034963  0.25117949  1
  Cu  Cu100  1  0.17771842  0.84157977  0.75815962  1
  Cu  Cu101  1  0.49829556  0.83835298  0.75309822  1
  Cu  Cu102  1  0.16393601  0.50496670  0.75775763  1
  Cu  Cu103  1  -0.00812022  0.66800270  0.49796161  1
  Cu  Cu104  1  0.33256925  0.66783300  -0.00262123  1
  Cu  Cu105  1  0.83670294  0.50385701  0.24624753  1
  Cu  Cu106  1  0.82295051  0.50729669  0.76115218  1
  Cu  Cu107  1  0.33779658  0.33000420  0.00722556  1
  Cu  Cu108  1  0.65840144  -0.00285295  0.00107924  1
  Cu  Cu109  1  0.50098510  0.51592049  0.74743970  1
  Cu  Cu110  1  0.66827485  0.66566293  0.00370723  1
  Cu  Cu111  1  0.00207027  0.66705691  -0.00607554  1
  Cu  Cu112  1  0.49455923  0.84060238  0.24590422  1
  Cu  Cu113  1  0.00315022  0.00239901  0.49421449  1
  Cu  Cu114  1  -0.00614972  0.31801769  0.48881327  1
  Se  Se115  1  0.07953069  0.08823599  0.05610398  1
  Se  Se116  1  0.09087481  0.07873366  0.55055991  1
  Se  Se117  1  0.08893540  0.41746907  0.05541656  1
  Se  Se118  1  0.07180870  0.39880410  0.55323272  1
  Se  Se119  1  0.08000307  0.75505562  0.04675565  1
  Se  Se120  1  0.07791584  0.74537715  0.55640344  1
  Se  Se121  1  0.41444776  0.07199108  0.05559458  1
  Se  Se122  1  0.42047756  0.08454438  0.55246473  1
  Se  Se123  1  0.42093726  0.40700969  0.06794198  1
  Se  Se124  1  0.40050909  0.41411825  0.55044613  1
  Se  Se125  1  0.41974299  0.74806658  0.04858616  1
  Se  Se126  1  0.42181975  0.76229307  0.55927601  1
  Se  Se127  1  0.74358040  0.07290482  0.06202848  1
  Se  Se128  1  0.75556334  0.08294903  0.54634497  1
  Se  Se129  1  0.76220735  0.41785374  0.05115666  1
  Se  Se130  1  0.73420384  0.40724566  0.56103400  1
  Se  Se131  1  0.75195724  0.75227323  0.05420156  1
  Se  Se132  1  0.75192206  0.75183192  0.55151367  1
  Se  Se133  1  0.25155600  0.24699817  0.05755322  1
  Se  Se134  1  0.24253604  0.24064067  0.54590706  1
  Se  Se135  1  0.25091409  0.58194809  0.04932030  1
  Se  Se136  1  0.24949367  0.59663255  0.56389244  1
  Se  Se137  1  0.22714370  0.90191070  0.04910000  1
  Se  Se138  1  0.26416885  0.92280049  0.56237845  1
  Se  Se139  1  0.59464716  0.24382618  0.05351335  1
  Se  Se140  1  0.58119689  0.25067042  0.54440287  1
  Se  Se141  1  0.59008339  0.58888726  0.06798340  1
  Se  Se142  1  0.57981450  0.58806233  0.55681938  1
  Se  Se143  1  0.57834513  0.91067091  0.05433592  1
  Se  Se144  1  0.58933407  0.92139492  0.55085806  1
  Se  Se145  1  0.93026317  0.24655335  0.07285625  1
  Se  Se146  1  0.91064358  0.24255305  0.54890094  1
  Se  Se147  1  0.91916172  0.58349864  0.04866238  1
  Se  Se148  1  0.91702410  0.58718278  0.56078449  1
  Se  Se149  1  0.90705353  0.91925298  0.05348199  1
  Se  Se150  1  0.92292232  0.91634560  0.54807252  1
  Se  Se151  1  0.08486963  0.24073129  0.43938726  1
  Se  Se152  1  0.07833168  0.25082646  0.95063722  1
  Se  Se153  1  0.07820645  0.58990924  0.44134913  1
  Se  Se154  1  0.09136813  0.58149768  0.94857187  1
  Se  Se155  1  0.09007651  0.93101558  0.43200957  1
  Se  Se156  1  0.07373971  0.92295316  0.94842622  1
  Se  Se157  1  0.41236528  0.24375201  0.44736503  1
  Se  Se158  1  0.42175772  0.24810615  0.95402827  1
  Se  Se159  1  0.41501268  0.58260749  0.45437930  1
  Se  Se160  1  0.41742633  0.58763812  0.93824849  1
  Se  Se161  1  0.42257496  0.91846915  0.44532957  1
  Se  Se162  1  0.40577418  0.92462593  0.95849618  1
  Se  Se163  1  0.74420105  0.25681978  0.44508712  1
  Se  Se164  1  0.74232433  0.25545910  0.94209045  1
  Se  Se165  1  0.73835872  0.58817776  0.43856375  1
  Se  Se166  1  0.74988015  0.58329856  0.94796282  1
  Se  Se167  1  0.75619159  0.91495068  0.44036476  1
  Se  Se168  1  0.74668004  0.91746701  0.94889739  1
  Se  Se169  1  0.24872941  0.07860081  0.43992028  1
  Se  Se170  1  0.22711592  0.09952885  0.94900053  1
  Se  Se171  1  0.24648015  0.40802055  0.43043061  1
  Se  Se172  1  0.25651125  0.41821433  0.95566919  1
  Se  Se173  1  0.26077102  0.74697385  0.44331639  1
  Se  Se174  1  0.25045209  0.75242674  0.94524986  1
  Se  Se175  1  0.58500952  0.08177631  0.44182145  1
  Se  Se176  1  0.57762366  0.08635983  0.95209709  1
  Se  Se177  1  0.56226997  0.43322651  0.45093618  1
  Se  Se178  1  0.59425514  0.40843789  0.94449023  1
  Se  Se179  1  0.58214901  0.75550785  0.44821862  1
  Se  Se180  1  0.58336202  0.74898689  0.95138151  1
  Se  Se181  1  0.91511689  0.08317052  0.44243304  1
  Se  Se182  1  0.91222184  0.08175159  0.94186017  1
  Se  Se183  1  0.91465925  0.40815909  0.43611185  1
  Se  Se184  1  0.91608404  0.41441593  0.95397644  1
  Se  Se185  1  0.91487663  0.75653635  0.44599599  1
  Se  Se186  1  0.91406800  0.75027643  0.94487820  1
  Se  Se187  1  0.24882280  0.23785207  0.30616509  1
  Se  Se188  1  0.24193645  0.24208342  0.81317622  1
  Se  Se189  1  0.24255553  0.57038597  0.30313382  1
  Se  Se190  1  0.25485973  0.58505489  0.80405484  1
  Se  Se191  1  0.25451869  0.91339548  0.29377929  1
  Se  Se192  1  0.25718002  0.92526993  0.81290838  1
  Se  Se193  1  0.58494438  0.25708554  0.30708365  1
  Se  Se194  1  0.58006353  0.24768033  0.80850694  1
  Se  Se195  1  0.58040598  0.57894003  0.31422872  1
  Se  Se196  1  0.58878038  0.59247749  0.80108978  1
  Se  Se197  1  0.58084407  0.91381670  0.30375900  1
  Se  Se198  1  0.57588233  0.91552430  0.81864319  1
  Se  Se199  1  0.92012741  0.25293955  0.30140638  1
  Se  Se200  1  0.91200730  0.23669308  0.80519151  1
  Se  Se201  1  0.91211367  0.58622760  0.30802913  1
  Se  Se202  1  0.91578935  0.57846965  0.81685671  1
  Se  Se203  1  0.92226921  0.92275744  0.29768405  1
  Se  Se204  1  0.91300501  0.91339278  0.79729391  1
  Se  Se205  1  0.06895751  0.07298509  0.29690222  1
  Se  Se206  1  0.07945890  0.07563944  0.80377399  1
  Se  Se207  1  0.07316056  0.41527836  0.29445732  1
  Se  Se208  1  0.08949509  0.41526129  0.81359726  1
  Se  Se209  1  0.09370077  0.76206220  0.30695314  1
  Se  Se210  1  0.09047012  0.76252441  0.81640349  1
  Se  Se211  1  0.40862142  0.06978636  0.29864122  1
  Se  Se212  1  0.41479139  0.08842045  0.81131787  1
  Se  Se213  1  0.42352065  0.41107730  0.31495109  1
  Se  Se214  1  0.42799701  0.42881694  0.80866004  1
  Se  Se215  1  0.42399336  0.75249387  0.30954450  1
  Se  Se216  1  0.41527382  0.75527631  0.80809820  1
  Se  Se217  1  0.75012474  0.08690407  0.30581320  1
  Se  Se218  1  0.75453998  0.08600812  0.80676818  1
  Se  Se219  1  0.74959748  0.42307927  0.29880128  1
  Se  Se220  1  0.75158183  0.41606807  0.81684767  1
  Se  Se221  1  0.75945133  0.76539830  0.30301385  1
  Se  Se222  1  0.74932156  0.75640160  0.80165862  1
  Se  Se223  1  0.23606598  0.08480646  0.19536330  1
  Se  Se224  1  0.25910774  0.08319774  0.69546217  1
  Se  Se225  1  0.25127696  0.41768871  0.18642080  1
  Se  Se226  1  0.24141371  0.42236245  0.69450804  1
  Se  Se227  1  0.25093653  0.76111895  0.17863229  1
  Se  Se228  1  0.25666490  0.75164078  0.70793909  1
  Se  Se229  1  0.59949028  0.06499471  0.19882246  1
  Se  Se230  1  0.57884738  0.09364511  0.69037625  1
  Se  Se231  1  0.58957082  0.41122553  0.19927910  1
  Se  Se232  1  0.56975849  0.42411562  0.68711611  1
  Se  Se233  1  0.57488222  0.75653748  0.18942248  1
  Se  Se234  1  0.58385750  0.75873491  0.69758821  1
  Se  Se235  1  0.91127407  0.08428439  0.19863048  1
  Se  Se236  1  0.92470706  0.07270283  0.68993586  1
  Se  Se237  1  0.91835584  0.41668117  0.19586518  1
  Se  Se238  1  0.89941712  0.42523344  0.69781937  1
  Se  Se239  1  0.90488520  0.76494907  0.19198612  1
  Se  Se240  1  0.91614730  0.75608731  0.68711658  1
  Se  Se241  1  0.08668347  0.25598239  0.20693208  1
  Se  Se242  1  0.09217264  0.23571692  0.68902564  1
  Se  Se243  1  0.08968964  0.58153136  0.18390748  1
  Se  Se244  1  0.08538509  0.57739130  0.69135590  1
  Se  Se245  1  0.07654547  0.91817418  0.18917617  1
  Se  Se246  1  0.09318530  0.91695997  0.69938949  1
  Se  Se247  1  0.42501832  0.22848298  0.18907053  1
  Se  Se248  1  0.42276412  0.24865675  0.68893261  1
  Se  Se249  1  0.42564245  0.56973525  0.20079435  1
  Se  Se250  1  0.41247649  0.59399334  0.69548725  1
  Se  Se251  1  0.41022412  0.91531048  0.18715464  1
  Se  Se252  1  0.42135362  0.92784818  0.69985388  1
  Se  Se253  1  0.74755377  0.25378602  0.19799243  1
  Se  Se254  1  0.75473790  0.23611840  0.68672116  1
  Se  Se255  1  0.75635793  0.58430111  0.18715837  1
  Se  Se256  1  0.74167255  0.58723803  0.70410235  1
  Se  Se257  1  0.73427051  0.92570633  0.20109873  1
  Se  Se258  1  0.75725282  0.91092286  0.68717842  1
