# generated using pymatgen
data_In86Cu29Se144
_symmetry_space_group_name_H-M   'P 1'
_cell_length_a   17.58622370
_cell_length_b   17.58195337
_cell_length_c   23.44493684
_cell_angle_alpha   89.99938061
_cell_angle_beta   89.96224367
_cell_angle_gamma   90.00107526
_symmetry_Int_Tables_number   1
_chemical_formula_structural   In86Cu29Se144
_chemical_formula_sum   'In86 Cu29 Se144'
_cell_volume   7249.17676405
_cell_formula_units_Z   1
loop_
 _symmetry_equiv_pos_site_id
 _symmetry_equiv_pos_as_xyz
  1  'x, y, z'
loop_
 _atom_site_type_symbol
 _atom_site_label
 _atom_site_symmetry_multiplicity
 _atom_site_fract_x
 _atom_site_fract_y
 _atom_site_fract_z
 _atom_site_occupancy
  In  In0  1  0.00811332  0.15960784  0.13736124  1
  In  In1  1  -0.00265794  0.17317171  0.63440121  1
  In  In2  1  -0.00831940  0.49616695  0.11652276  1
  In  In3  1  0.01514154  0.48684016  0.63555329  1
  In  In4  1  -0.00179172  0.83891397  0.11773222  1
  In  In5  1  -0.01347182  0.84072763  0.63464856  1
  In  In6  1  0.32169182  0.15528408  0.12255055  1
  In  In7  1  0.34173923  0.18673902  0.62576874  1
  In  In8  1  0.33004893  0.51463439  0.12892728  1
  In  In9  1  0.32470308  0.48118073  0.61401166  1
  In  In10  1  0.34021613  0.82715236  0.12805504  1
  In  In11  1  0.33084696  0.83095271  0.62657817  1
  In  In12  1  0.66258685  0.18082867  0.12849475  1
  In  In13  1  0.65366151  0.17039116  0.64586083  1
  In  In14  1  0.68034204  0.49041521  0.12967828  1
  In  In15  1  0.66218991  0.50768279  0.62995108  1
  In  In16  1  0.66625816  0.83331211  0.12152047  1
  In  In17  1  0.66537874  0.83474038  0.63547040  1
  In  In18  1  0.17200428  0.01229232  0.35226504  1
  In  In19  1  0.16735368  0.01527338  0.87912626  1
  In  In20  1  0.16167467  0.34531243  0.36753656  1
  In  In21  1  0.16600686  0.33535716  0.87996914  1
  In  In22  1  0.16927405  0.64466260  0.36745875  1
  In  In23  1  0.14005804  0.66505489  0.88139073  1
  In  In24  1  0.50775593  0.00693344  0.36362435  1
  In  In25  1  0.50658263  -0.00715118  0.88727085  1
  In  In26  1  0.50397839  0.33394615  0.37868243  1
  In  In27  1  0.49391059  0.32274109  0.86516283  1
  In  In28  1  0.49139636  0.65729693  0.36469909  1
  In  In29  1  0.51349815  0.66690421  0.87661863  1
  In  In30  1  0.84675653  0.02231112  0.34655618  1
  In  In31  1  0.82537258  -0.00982030  0.87617826  1
  In  In32  1  0.84118099  0.33637032  0.36144678  1
  In  In33  1  0.84346962  0.34141207  0.86921168  1
  In  In34  1  0.83508367  0.67806491  0.37149940  1
  In  In35  1  0.83473057  0.66602299  0.88677218  1
  In  In36  1  0.01644145  0.18815677  0.33662185  1
  In  In37  1  0.00891959  0.17945084  0.87044487  1
  In  In38  1  0.01612630  0.48848582  0.37723124  1
  In  In39  1  -0.00138535  0.49779577  0.88368511  1
  In  In40  1  -0.00642913  0.83898835  0.37335906  1
  In  In41  1  -0.01947501  0.82036341  0.87331953  1
  In  In42  1  0.34445886  0.17134256  0.36995976  1
  In  In43  1  0.32400674  0.17543280  0.88706404  1
  In  In44  1  0.32197638  0.50148657  0.37669340  1
  In  In45  1  0.33261441  0.48040824  0.87475837  1
  In  In46  1  0.33617000  0.83440455  0.36485018  1
  In  In47  1  0.33432384  0.84851465  0.88066035  1
  In  In48  1  0.67644396  0.17583913  0.35373539  1
  In  In49  1  0.65859186  0.15957744  0.86924393  1
  In  In50  1  0.65635291  0.49018381  0.36918055  1
  In  In51  1  0.67274953  0.50812437  0.86803594  1
  In  In52  1  0.67067308  0.83805894  0.36637765  1
  In  In53  1  0.67042067  0.82971463  0.88553653  1
  In  In54  1  0.15906118  0.01177392  0.13747557  1
  In  In55  1  0.16251333  -0.00868790  0.62834235  1
  In  In56  1  0.15673864  0.32244899  0.12723974  1
  In  In57  1  0.15675793  0.34675717  0.62932186  1
  In  In58  1  0.17061034  0.66475611  0.12163318  1
  In  In59  1  0.17305188  0.64212659  0.62847305  1
  In  In60  1  0.49920853  0.00345114  0.12126447  1
  In  In61  1  0.50981949  0.01461502  0.63023760  1
  In  In62  1  0.51642438  0.33407646  0.12307875  1
  In  In63  1  0.48987404  0.33917587  0.64396493  1
  In  In64  1  0.49452349  0.67855216  0.12660782  1
  In  In65  1  0.51412108  0.66139950  0.62972609  1
  In  In66  1  0.84451637  -0.00311349  0.12831253  1
  In  In67  1  0.83006498  0.00704634  0.63518436  1
  In  In68  1  0.82526410  0.33412301  0.12854298  1
  In  In69  1  0.83747890  0.33105878  0.63201707  1
  In  In70  1  0.83053174  0.65108735  0.11020457  1
  In  In71  1  0.83103018  0.66898733  0.63341357  1
  In  In72  1  0.16759153  0.83782181  0.00267288  1
  In  In73  1  0.15936958  0.82308016  0.49560832  1
  In  In74  1  0.33149837  0.66325222  0.74875243  1
  In  In75  1  0.50079605  0.49776520  -0.00160831  1
  In  In76  1  0.00045837  0.66771124  0.24859679  1
  In  In77  1  0.83528779  0.50109950  0.49733075  1
  In  In78  1  0.83044756  0.83427064  0.49522509  1
  In  In79  1  0.83662561  0.16811098  0.49848713  1
  In  In80  1  0.83515228  0.16650454  -0.00010411  1
  In  In81  1  0.32900042  0.33439667  0.25034960  1
  In  In82  1  0.33612954  0.00669649  0.74964342  1
  In  In83  1  0.50059167  0.17605389  0.49774158  1
  In  In84  1  0.50021854  0.82473931  0.50648400  1
  In  In85  1  0.16464610  0.17646872  0.49537084  1
  Cu  Cu86  1  0.33131765  0.66608668  0.00109249  1
  Cu  Cu87  1  0.50402127  0.83610188  0.24421681  1
  Cu  Cu88  1  0.14896692  0.83650471  0.75435426  1
  Cu  Cu89  1  0.50548337  0.50339299  0.24423913  1
  Cu  Cu90  1  0.82962117  0.82973507  0.75851412  1
  Cu  Cu91  1  0.67170434  0.00620694  0.49666195  1
  Cu  Cu92  1  0.66477056  0.66407898  0.00263854  1
  Cu  Cu93  1  0.66546464  0.00167362  0.00083796  1
  Cu  Cu94  1  0.33593692  0.00471697  0.00442448  1
  Cu  Cu95  1  0.33680791  0.00005438  0.49317034  1
  Cu  Cu96  1  0.49532532  0.16638119  0.24575608  1
  Cu  Cu97  1  0.01115396  0.65602560  0.50907938  1
  Cu  Cu98  1  0.83661899  0.16368867  0.75691028  1
  Cu  Cu99  1  0.67003386  0.33616498  -0.00282615  1
  Cu  Cu100  1  0.82761747  0.82986644  0.24474318  1
  Cu  Cu101  1  0.50871208  0.83450555  0.75899457  1
  Cu  Cu102  1  0.66827346  0.33394719  0.49810037  1
  Cu  Cu103  1  0.33373186  0.64869760  0.49278907  1
  Cu  Cu104  1  0.65946950  0.66105814  0.49904286  1
  Cu  Cu105  1  0.16369499  0.49885471  0.75750575  1
  Cu  Cu106  1  0.17075275  0.17443723  0.75583017  1
  Cu  Cu107  1  0.00377797  0.00415862  0.00272452  1
  Cu  Cu108  1  -0.00145768  0.00858532  0.49310004  1
  Cu  Cu109  1  0.33118555  0.33140206  0.00286994  1
  Cu  Cu110  1  0.50110187  0.49776126  0.75265024  1
  Cu  Cu111  1  0.83521792  0.50637654  0.75338145  1
  Cu  Cu112  1  0.83524188  0.50537880  0.24454042  1
  Cu  Cu113  1  0.17080082  0.83103359  0.24163625  1
  Cu  Cu114  1  0.00480410  0.32925871  0.00169290  1
  Se  Se115  1  0.08350874  0.08545828  0.05916940  1
  Se  Se116  1  0.07934212  0.08037104  0.55876583  1
  Se  Se117  1  0.08612213  0.41278244  0.05630037  1
  Se  Se118  1  0.08063150  0.41921008  0.55236718  1
  Se  Se119  1  0.07657210  0.74167369  0.05421653  1
  Se  Se120  1  0.07932324  0.74530792  0.57045056  1
  Se  Se121  1  0.41932255  0.09173844  0.05313291  1
  Se  Se122  1  0.41166428  0.07863581  0.55744044  1
  Se  Se123  1  0.41081993  0.41304312  0.06368797  1
  Se  Se124  1  0.42855250  0.40803084  0.55943487  1
  Se  Se125  1  0.41532355  0.75135781  0.05007983  1
  Se  Se126  1  0.40335719  0.73098099  0.56014665  1
  Se  Se127  1  0.74512854  0.08106991  0.06269692  1
  Se  Se128  1  0.74212149  0.08632529  0.56307646  1
  Se  Se129  1  0.75456076  0.41603351  0.05134974  1
  Se  Se130  1  0.74688625  0.41216828  0.56087710  1
  Se  Se131  1  0.74916567  0.74886932  0.05266537  1
  Se  Se132  1  0.73943026  0.74507995  0.55746052  1
  Se  Se133  1  0.24740248  0.24938421  0.05711591  1
  Se  Se134  1  0.25240903  0.26346128  0.55818326  1
  Se  Se135  1  0.24917683  0.58057479  0.05038216  1
  Se  Se136  1  0.24610188  0.57271931  0.54855511  1
  Se  Se137  1  0.25274160  0.92597932  0.06633166  1
  Se  Se138  1  0.25599064  0.92030702  0.55264215  1
  Se  Se139  1  0.58636289  0.25121280  0.04806204  1
  Se  Se140  1  0.59311868  0.25451391  0.56271768  1
  Se  Se141  1  0.58623734  0.58243338  0.06441659  1
  Se  Se142  1  0.57911333  0.57753731  0.55275505  1
  Se  Se143  1  0.58156769  0.91702646  0.05376789  1
  Se  Se144  1  0.59238449  0.92614118  0.55771115  1
  Se  Se145  1  0.92429720  0.25086138  0.06371690  1
  Se  Se146  1  0.92774063  0.25873570  0.55681125  1
  Se  Se147  1  0.92376107  0.58307533  0.04296237  1
  Se  Se148  1  0.92035528  0.58513547  0.56579244  1
  Se  Se149  1  0.91527742  0.92011251  0.04915391  1
  Se  Se150  1  0.91861091  0.92913648  0.55506765  1
  Se  Se151  1  0.06885914  0.25186681  0.43137768  1
  Se  Se152  1  0.08831585  0.24528592  0.94917604  1
  Se  Se153  1  0.08871106  0.57934164  0.44655253  1
  Se  Se154  1  0.08677090  0.57229372  0.95448962  1
  Se  Se155  1  0.08391527  0.92855417  0.43623129  1
  Se  Se156  1  0.07741755  0.92127320  0.93792831  1
  Se  Se157  1  0.40105810  0.26575325  0.44619089  1
  Se  Se158  1  0.41950845  0.25647722  0.94760762  1
  Se  Se159  1  0.42303785  0.57345761  0.44022178  1
  Se  Se160  1  0.40984151  0.58760200  0.93677054  1
  Se  Se161  1  0.42075813  0.91976178  0.43855826  1
  Se  Se162  1  0.41695391  0.91519363  0.95582556  1
  Se  Se163  1  0.74583771  0.25771459  0.43612452  1
  Se  Se164  1  0.74855509  0.25417369  0.93573828  1
  Se  Se165  1  0.74509074  0.59128725  0.43687556  1
  Se  Se166  1  0.74487615  0.57796262  0.94885117  1
  Se  Se167  1  0.75205987  0.93144251  0.43417695  1
  Se  Se168  1  0.75206777  0.91596325  0.95414287  1
  Se  Se169  1  0.25444437  0.07898215  0.43624428  1
  Se  Se170  1  0.24710558  0.08555929  0.95493438  1
  Se  Se171  1  0.24570281  0.41091888  0.44146392  1
  Se  Se172  1  0.24931681  0.41700143  0.95152233  1
  Se  Se173  1  0.25877833  0.74134610  0.43708272  1
  Se  Se174  1  0.25275486  0.74485577  0.93745029  1
  Se  Se175  1  0.59334663  0.08814721  0.43658379  1
  Se  Se176  1  0.58478117  0.08866949  0.94953084  1
  Se  Se177  1  0.58276893  0.41807286  0.44886833  1
  Se  Se178  1  0.58732437  0.41152286  0.93457119  1
  Se  Se179  1  0.58729818  0.74657011  0.43670991  1
  Se  Se180  1  0.57961233  0.74910767  0.95278223  1
  Se  Se181  1  0.92409907  0.08672400  0.43045202  1
  Se  Se182  1  0.92518609  0.08016952  0.93694275  1
  Se  Se183  1  0.92224529  0.40508543  0.44189188  1
  Se  Se184  1  0.91590151  0.40946565  0.95070201  1
  Se  Se185  1  0.93297418  0.73821728  0.44780131  1
  Se  Se186  1  0.91388443  0.75287127  0.95511641  1
  Se  Se187  1  0.24027395  0.23959229  0.30750529  1
  Se  Se188  1  0.25397284  0.25531036  0.80969386  1
  Se  Se189  1  0.26139595  0.58367107  0.29701318  1
  Se  Se190  1  0.24475718  0.58116870  0.81636296  1
  Se  Se191  1  0.25459681  0.91598046  0.29545868  1
  Se  Se192  1  0.23949391  0.91393839  0.80701450  1
  Se  Se193  1  0.57256002  0.25376423  0.30158586  1
  Se  Se194  1  0.59481662  0.25804899  0.80273326  1
  Se  Se195  1  0.58891404  0.58523727  0.30034446  1
  Se  Se196  1  0.58243380  0.58645782  0.80075923  1
  Se  Se197  1  0.58650351  0.91836245  0.29820107  1
  Se  Se198  1  0.58858030  0.91514530  0.81517978  1
  Se  Se199  1  0.88294428  0.22312705  0.29941571  1
  Se  Se200  1  0.92142521  0.25340130  0.80093203  1
  Se  Se201  1  0.91438420  0.57581717  0.31337842  1
  Se  Se202  1  0.91531659  0.58237664  0.81509398  1
  Se  Se203  1  0.91681716  0.90975668  0.29665601  1
  Se  Se204  1  0.91526226  0.91795865  0.80530061  1
  Se  Se205  1  0.06141415  0.06205539  0.29279701  1
  Se  Se206  1  0.08679054  0.08651437  0.80360497  1
  Se  Se207  1  0.06958897  0.40819564  0.29537369  1
  Se  Se208  1  0.08060473  0.41625032  0.81132266  1
  Se  Se209  1  0.09362443  0.75729295  0.31096622  1
  Se  Se210  1  0.07227100  0.74596830  0.80441000  1
  Se  Se211  1  0.41366273  0.08201590  0.29928505  1
  Se  Se212  1  0.41569351  0.08304390  0.82285149  1
  Se  Se213  1  0.42522089  0.42386833  0.30674791  1
  Se  Se214  1  0.41361478  0.41225998  0.79842120  1
  Se  Se215  1  0.42031841  0.75226753  0.29852134  1
  Se  Se216  1  0.41745148  0.75744978  0.81164320  1
  Se  Se217  1  0.72157034  0.05900024  0.29852492  1
  Se  Se218  1  0.75221327  0.07976790  0.80697023  1
  Se  Se219  1  0.75332877  0.42339051  0.30168632  1
  Se  Se220  1  0.75227690  0.41828276  0.80302214  1
  Se  Se221  1  0.74778553  0.74638687  0.29988943  1
  Se  Se222  1  0.75072369  0.74667905  0.81501672  1
  Se  Se223  1  0.25328460  0.08280471  0.20271796  1
  Se  Se224  1  0.24421314  0.09508378  0.68706931  1
  Se  Se225  1  0.24171979  0.42337000  0.18970399  1
  Se  Se226  1  0.24752950  0.42158281  0.69794338  1
  Se  Se227  1  0.25247855  0.74350782  0.19259283  1
  Se  Se228  1  0.23457029  0.75863081  0.69464920  1
  Se  Se229  1  0.58085789  0.08787817  0.19084637  1
  Se  Se230  1  0.59219293  0.06774991  0.70965291  1
  Se  Se231  1  0.58922863  0.41494357  0.19743678  1
  Se  Se232  1  0.59013395  0.41761377  0.70019179  1
  Se  Se233  1  0.58761084  0.74963490  0.19400279  1
  Se  Se234  1  0.58516197  0.74768233  0.70194902  1
  Se  Se235  1  0.90442422  0.09366278  0.19741961  1
  Se  Se236  1  0.92132528  0.08283033  0.70063096  1
  Se  Se237  1  0.91544904  0.41870150  0.19196385  1
  Se  Se238  1  0.91528712  0.41906501  0.69920608  1
  Se  Se239  1  0.91034614  0.75025354  0.18489543  1
  Se  Se240  1  0.91451500  0.74943762  0.70167236  1
  Se  Se241  1  0.07989656  0.25181113  0.20576497  1
  Se  Se242  1  0.08582846  0.25437834  0.69860353  1
  Se  Se243  1  0.08490485  0.57699325  0.18849996  1
  Se  Se244  1  0.08282654  0.58402238  0.70365339  1
  Se  Se245  1  0.08008048  0.90946453  0.19268379  1
  Se  Se246  1  0.07316606  0.92484940  0.69972891  1
  Se  Se247  1  0.41936132  0.25006561  0.18533235  1
  Se  Se248  1  0.43916587  0.22393302  0.70117439  1
  Se  Se249  1  0.41996229  0.58816039  0.19587838  1
  Se  Se250  1  0.41842993  0.57325737  0.68823758  1
  Se  Se251  1  0.41865514  0.91907070  0.19200175  1
  Se  Se252  1  0.42691775  0.90760086  0.69261805  1
  Se  Se253  1  0.74688360  0.25361027  0.20013714  1
  Se  Se254  1  0.75593295  0.24796556  0.70025644  1
  Se  Se255  1  0.75225320  0.58982409  0.19296376  1
  Se  Se256  1  0.74787937  0.58610789  0.69966360  1
  Se  Se257  1  0.75075163  0.91598300  0.19017738  1
  Se  Se258  1  0.75256303  0.91502600  0.69986699  1
