# generated using pymatgen
data_In86Cu29Se144
_symmetry_space_group_name_H-M   'P 1'
_cell_length_a   17.58200202
_cell_length_b   17.57528738
_cell_length_c   23.44644115
_cell_angle_alpha   89.99632532
_cell_angle_beta   90.02382574
_cell_angle_gamma   89.99907912
_symmetry_Int_Tables_number   1
_chemical_formula_structural   In86Cu29Se144
_chemical_formula_sum   'In86 Cu29 Se144'
_cell_volume   7245.15455289
_cell_formula_units_Z   1
loop_
 _symmetry_equiv_pos_site_id
 _symmetry_equiv_pos_as_xyz
  1  'x, y, z'
loop_
 _atom_site_type_symbol
 _atom_site_label
 _atom_site_symmetry_multiplicity
 _atom_site_fract_x
 _atom_site_fract_y
 _atom_site_fract_z
 _atom_site_occupancy
  In  In0  1  0.00356751  0.16536893  0.13230490  1
  In  In1  1  0.00204582  0.18328860  0.60312564  1
  In  In2  1  0.00161856  0.49214755  0.12492623  1
  In  In3  1  -0.00747879  0.49895664  0.61693431  1
  In  In4  1  0.00164250  0.85163410  0.12754539  1
  In  In5  1  0.00507167  0.81890240  0.61818557  1
  In  In6  1  0.31745402  0.18514563  0.13705203  1
  In  In7  1  0.33428536  0.18182970  0.62237568  1
  In  In8  1  0.30945999  0.49815775  0.12204877  1
  In  In9  1  0.33541349  0.48754167  0.63386307  1
  In  In10  1  0.34657798  0.82637287  0.12428568  1
  In  In11  1  0.32824575  0.82612072  0.62057171  1
  In  In12  1  0.67995351  0.17476599  0.13218226  1
  In  In13  1  0.66580350  0.16536514  0.62505642  1
  In  In14  1  0.68203870  0.49630002  0.13908445  1
  In  In15  1  0.66616037  0.50016631  0.62725247  1
  In  In16  1  0.65754455  0.81907882  0.11995914  1
  In  In17  1  0.65678389  0.83870301  0.62761712  1
  In  In18  1  0.16669145  0.00226284  0.37507291  1
  In  In19  1  0.17779690  0.00832189  0.88056010  1
  In  In20  1  0.15060997  0.31876535  0.35817101  1
  In  In21  1  0.16905257  0.32947176  0.88080504  1
  In  In22  1  0.17852335  0.66032735  0.37634880  1
  In  In23  1  0.16682595  0.65019454  0.87291917  1
  In  In24  1  0.48571841  0.00373231  0.37914953  1
  In  In25  1  0.50194381  -0.01222285  0.87532879  1
  In  In26  1  0.51177833  0.34727150  0.37041665  1
  In  In27  1  0.50472071  0.33886857  0.86605121  1
  In  In28  1  0.50655394  0.65126501  0.38628155  1
  In  In29  1  0.50741193  0.67178736  0.86553651  1
  In  In30  1  0.85020099  0.00536967  0.36935431  1
  In  In31  1  0.81755301  0.00062489  0.87430203  1
  In  In32  1  0.83455299  0.33920125  0.38647847  1
  In  In33  1  0.83714733  0.34489708  0.87683159  1
  In  In34  1  0.81339867  0.65988706  0.36663011  1
  In  In35  1  0.83036563  0.66423139  0.88154259  1
  In  In36  1  0.00438469  0.17227766  0.38286553  1
  In  In37  1  0.01062297  0.18389193  0.88042685  1
  In  In38  1  -0.01517214  0.46213968  0.35898556  1
  In  In39  1  0.00109382  0.48624027  0.89261736  1
  In  In40  1  0.00180034  0.84763090  0.36977328  1
  In  In41  1  -0.00371479  0.81715353  0.88055560  1
  In  In42  1  0.32474525  0.15867393  0.37077287  1
  In  In43  1  0.31853384  0.16731086  0.87925333  1
  In  In44  1  0.34405488  0.50127577  0.37312244  1
  In  In45  1  0.32375606  0.49474763  0.86214415  1
  In  In46  1  0.32762457  0.83545385  0.38238557  1
  In  In47  1  0.34787219  0.83382609  0.87847161  1
  In  In48  1  0.67516818  0.20186919  0.38342880  1
  In  In49  1  0.67032788  0.16585618  0.86233691  1
  In  In50  1  0.66380609  0.49400687  0.38257921  1
  In  In51  1  0.66954202  0.50573560  0.86873737  1
  In  In52  1  0.66367061  0.81826174  0.37719672  1
  In  In53  1  0.66684177  0.82746158  0.87497020  1
  In  In54  1  0.15573573  0.01438985  0.13386005  1
  In  In55  1  0.16755555  0.00416309  0.61878027  1
  In  In56  1  0.16509430  0.33780328  0.12717318  1
  In  In57  1  0.17923350  0.33702076  0.61889150  1
  In  In58  1  0.17559843  0.65246211  0.11598289  1
  In  In59  1  0.16063173  0.66786510  0.62326278  1
  In  In60  1  0.49837775  -0.01722773  0.12735679  1
  In  In61  1  0.51593418  0.00033173  0.62189261  1
  In  In62  1  0.50113851  0.34048085  0.13524879  1
  In  In63  1  0.49510543  0.34241271  0.62603725  1
  In  In64  1  0.49773832  0.67815643  0.12075512  1
  In  In65  1  0.49914843  0.66499935  0.62557926  1
  In  In66  1  0.84568290  0.00748670  0.12717996  1
  In  In67  1  0.81923664  -0.00209632  0.62519522  1
  In  In68  1  0.83758238  0.34527086  0.13804204  1
  In  In69  1  0.81645885  0.32533702  0.60712595  1
  In  In70  1  0.82054439  0.65118113  0.11926810  1
  In  In71  1  0.82711046  0.64951644  0.62283443  1
  In  In72  1  0.49716658  0.50857265  -0.00279843  1
  In  In73  1  0.49497282  0.16123877  0.00230492  1
  In  In74  1  0.34032641  0.00108304  0.75699273  1
  In  In75  1  0.83662047  0.16734071  0.00475761  1
  In  In76  1  -0.01017863  0.00272178  0.74799323  1
  In  In77  1  -0.00045301  0.33617619  0.75287140  1
  In  In78  1  -0.00337634  0.65515537  0.74348804  1
  In  In79  1  0.66688891  0.00352998  0.25210902  1
  In  In80  1  -0.00436211  0.66565409  0.24447483  1
  In  In81  1  0.33892274  0.66341864  0.24517549  1
  In  In82  1  0.16129631  0.49382923  0.49285754  1
  In  In83  1  0.16531930  0.83451070  0.00176832  1
  In  In84  1  0.50089756  0.16885415  0.50012198  1
  In  In85  1  0.83806008  0.83384628  0.49429555  1
  Cu  Cu86  1  0.49893843  0.50145203  0.74689877  1
  Cu  Cu87  1  -0.00369121  0.00356364  0.00546254  1
  Cu  Cu88  1  0.50289972  0.17172556  0.74415715  1
  Cu  Cu89  1  0.66319002  -0.01320526  -0.00091583  1
  Cu  Cu90  1  0.33391034  0.66551133  0.50302545  1
  Cu  Cu91  1  -0.00702414  0.66296844  0.00326186  1
  Cu  Cu92  1  0.16864406  0.82868570  0.74366364  1
  Cu  Cu93  1  0.83957193  0.17745536  0.25673705  1
  Cu  Cu94  1  0.33025402  -0.00636986  0.49860943  1
  Cu  Cu95  1  0.82322009  0.82832015  0.75213557  1
  Cu  Cu96  1  0.17035435  0.83785042  0.25219843  1
  Cu  Cu97  1  0.83060602  0.83514288  0.24959869  1
  Cu  Cu98  1  0.32869667  0.00478886  0.00561915  1
  Cu  Cu99  1  0.33282925  0.33251860  0.49742185  1
  Cu  Cu100  1  0.66730986  0.66289755  -0.00389965  1
  Cu  Cu101  1  0.16877653  0.17359542  0.75102044  1
  Cu  Cu102  1  0.49513209  0.82984558  0.25192780  1
  Cu  Cu103  1  0.49859028  0.16556652  0.25751178  1
  Cu  Cu104  1  0.66190733  0.66505887  0.50218561  1
  Cu  Cu105  1  0.67134430  0.33526159  0.00584292  1
  Cu  Cu106  1  0.50759939  0.50311503  0.25272286  1
  Cu  Cu107  1  0.82875909  0.49734969  0.75101280  1
  Cu  Cu108  1  0.00606879  0.66911283  0.49106460  1
  Cu  Cu109  1  0.50440396  0.83224933  0.74999513  1
  Cu  Cu110  1  0.32740252  0.33382142  0.00048925  1
  Cu  Cu111  1  0.66850331  0.00168840  0.49858893  1
  Cu  Cu112  1  0.00719489  0.00129197  0.49586801  1
  Cu  Cu113  1  0.16620671  0.16693636  0.25317996  1
  Cu  Cu114  1  0.82922429  0.16829505  0.73944362  1
  Se  Se115  1  0.08051892  0.08730987  0.05570112  1
  Se  Se116  1  0.08831880  0.08709195  0.54919354  1
  Se  Se117  1  0.10849265  0.44097171  0.05952658  1
  Se  Se118  1  0.07273707  0.40257923  0.55433932  1
  Se  Se119  1  0.07385105  0.74451513  0.06303364  1
  Se  Se120  1  0.08985040  0.74894575  0.54562029  1
  Se  Se121  1  0.40790542  0.08092358  0.07000104  1
  Se  Se122  1  0.40961064  0.07549387  0.56045628  1
  Se  Se123  1  0.41459182  0.41089758  0.05765741  1
  Se  Se124  1  0.41053115  0.41717032  0.55359782  1
  Se  Se125  1  0.41277606  0.74680531  0.04772922  1
  Se  Se126  1  0.41881039  0.74981146  0.55453333  1
  Se  Se127  1  0.73900505  0.07308330  0.05884089  1
  Se  Se128  1  0.74845470  0.08433434  0.55360241  1
  Se  Se129  1  0.75208211  0.41533510  0.06231428  1
  Se  Se130  1  0.77087842  0.44749157  0.55895460  1
  Se  Se131  1  0.74967735  0.74663217  0.05211171  1
  Se  Se132  1  0.74709038  0.74916203  0.55786055  1
  Se  Se133  1  0.24556828  0.25143705  0.05496760  1
  Se  Se134  1  0.24823815  0.24680360  0.54711263  1
  Se  Se135  1  0.27863248  0.60196025  0.04876896  1
  Se  Se136  1  0.25096495  0.57975627  0.55862744  1
  Se  Se137  1  0.24980882  0.92325491  0.06675662  1
  Se  Se138  1  0.24626123  0.91349104  0.55475258  1
  Se  Se139  1  0.58779729  0.25360550  0.06124329  1
  Se  Se140  1  0.58844884  0.26161755  0.55738026  1
  Se  Se141  1  0.59281718  0.58456748  0.06281353  1
  Se  Se142  1  0.58086682  0.58067700  0.55703664  1
  Se  Se143  1  0.57711898  0.90834364  0.05291723  1
  Se  Se144  1  0.58573008  0.91521094  0.54810744  1
  Se  Se145  1  0.92096939  0.25748403  0.06555527  1
  Se  Se146  1  0.90280595  0.24760587  0.53898391  1
  Se  Se147  1  0.91578460  0.57530787  0.05719702  1
  Se  Se148  1  0.92260683  0.59297307  0.54965980  1
  Se  Se149  1  0.91231610  0.91819905  0.05359177  1
  Se  Se150  1  0.92540775  0.92366062  0.55933513  1
  Se  Se151  1  0.09151832  0.25744706  0.44617793  1
  Se  Se152  1  0.08187591  0.26076629  0.95410485  1
  Se  Se153  1  0.07239996  0.58039271  0.42867447  1
  Se  Se154  1  0.08093590  0.58610302  0.94881157  1
  Se  Se155  1  0.08706351  0.91329034  0.44483395  1
  Se  Se156  1  0.07423835  0.92559523  0.93940238  1
  Se  Se157  1  0.41278702  0.25301742  0.43517215  1
  Se  Se158  1  0.41448075  0.25899067  0.94081731  1
  Se  Se159  1  0.41410704  0.57670099  0.45253606  1
  Se  Se160  1  0.41235891  0.58697785  0.92804528  1
  Se  Se161  1  0.41918603  0.91244518  0.44994130  1
  Se  Se162  1  0.41330680  0.92533066  0.95065855  1
  Se  Se163  1  0.76613735  0.24764481  0.46127220  1
  Se  Se164  1  0.74204387  0.25055191  0.94222461  1
  Se  Se165  1  0.74761841  0.58602208  0.44771661  1
  Se  Se166  1  0.74965503  0.57408336  0.94685048  1
  Se  Se167  1  0.74726300  0.92454846  0.43364678  1
  Se  Se168  1  0.75146057  0.91027275  0.94539663  1
  Se  Se169  1  0.25032108  0.08178350  0.44713703  1
  Se  Se170  1  0.24500606  0.09087448  0.95658168  1
  Se  Se171  1  0.25379902  0.40815120  0.43253681  1
  Se  Se172  1  0.25317932  0.42073887  0.94305394  1
  Se  Se173  1  0.24853184  0.74583696  0.44908471  1
  Se  Se174  1  0.24949931  0.74864756  0.93670216  1
  Se  Se175  1  0.59336639  0.08434726  0.43528841  1
  Se  Se176  1  0.59301334  0.07934398  0.94076490  1
  Se  Se177  1  0.57616372  0.41757181  0.45220282  1
  Se  Se178  1  0.58976010  0.41072154  0.94387421  1
  Se  Se179  1  0.57851030  0.75022691  0.45102583  1
  Se  Se180  1  0.58206374  0.74633613  0.94425746  1
  Se  Se181  1  0.91803526  0.08254639  0.44740148  1
  Se  Se182  1  0.92216260  0.07922829  0.93636011  1
  Se  Se183  1  0.91500371  0.43133338  0.45081601  1
  Se  Se184  1  0.91374928  0.40642636  0.95663261  1
  Se  Se185  1  0.92074919  0.74345886  0.42919820  1
  Se  Se186  1  0.91020413  0.74865883  0.95258231  1
  Se  Se187  1  0.25676634  0.25062006  0.30002342  1
  Se  Se188  1  0.25164393  0.25414160  0.80571833  1
  Se  Se189  1  0.24688884  0.57227258  0.30156029  1
  Se  Se190  1  0.25006892  0.58916140  0.79663467  1
  Se  Se191  1  0.25370946  0.91721350  0.30839529  1
  Se  Se192  1  0.24149178  0.90891937  0.80931560  1
  Se  Se193  1  0.58504981  0.25095505  0.30466928  1
  Se  Se194  1  0.58715751  0.25349195  0.79947174  1
  Se  Se195  1  0.58808002  0.58418290  0.30985385  1
  Se  Se196  1  0.58569998  0.58358125  0.79879128  1
  Se  Se197  1  0.57570172  0.91213522  0.31188010  1
  Se  Se198  1  0.58736269  0.91524390  0.80444476  1
  Se  Se199  1  0.91946534  0.25625248  0.31570349  1
  Se  Se200  1  0.90717983  0.23917944  0.80805146  1
  Se  Se201  1  0.90837924  0.57609490  0.30550753  1
  Se  Se202  1  0.91507142  0.56981230  0.81301696  1
  Se  Se203  1  0.91858445  0.91947211  0.29546638  1
  Se  Se204  1  0.91021505  0.90421475  0.81010814  1
  Se  Se205  1  0.08141363  0.08716347  0.30972721  1
  Se  Se206  1  0.08820084  0.08939953  0.80783196  1
  Se  Se207  1  0.09602565  0.42647463  0.29485392  1
  Se  Se208  1  0.08833523  0.42510528  0.81229858  1
  Se  Se209  1  0.09101581  0.75176416  0.30840638  1
  Se  Se210  1  0.08431672  0.75214767  0.80350827  1
  Se  Se211  1  0.41275132  0.07834317  0.30209153  1
  Se  Se212  1  0.42799308  0.09724121  0.81459053  1
  Se  Se213  1  0.42001803  0.41873836  0.30073426  1
  Se  Se214  1  0.41666025  0.41484704  0.79898191  1
  Se  Se215  1  0.42098108  0.74732817  0.31557349  1
  Se  Se216  1  0.41491414  0.75354777  0.80111171  1
  Se  Se217  1  0.75227822  0.09683007  0.31350304  1
  Se  Se218  1  0.75232392  0.08029490  0.79516432  1
  Se  Se219  1  0.74129910  0.40513212  0.31587817  1
  Se  Se220  1  0.74790449  0.41112616  0.80462255  1
  Se  Se221  1  0.74343284  0.75304962  0.29818275  1
  Se  Se222  1  0.74927001  0.74046889  0.80780490  1
  Se  Se223  1  0.25175861  0.08278402  0.20094524  1
  Se  Se224  1  0.24863937  0.08837166  0.69404831  1
  Se  Se225  1  0.26906950  0.39887594  0.19403728  1
  Se  Se226  1  0.24562020  0.40863295  0.69880416  1
  Se  Se227  1  0.24142622  0.75475066  0.18928164  1
  Se  Se228  1  0.24944173  0.74417495  0.69206606  1
  Se  Se229  1  0.57567784  0.09066319  0.18929438  1
  Se  Se230  1  0.58536805  0.08287806  0.69666248  1
  Se  Se231  1  0.59109024  0.41514387  0.20238651  1
  Se  Se232  1  0.58373489  0.41623845  0.69604768  1
  Se  Se233  1  0.57881542  0.74815030  0.19788995  1
  Se  Se234  1  0.58478433  0.74691647  0.69537313  1
  Se  Se235  1  0.91607006  0.08817164  0.20253637  1
  Se  Se236  1  0.91584633  0.09623789  0.67987121  1
  Se  Se237  1  0.93011978  0.41845441  0.20379179  1
  Se  Se238  1  0.90767937  0.41807312  0.68918924  1
  Se  Se239  1  0.90838406  0.75841905  0.18453937  1
  Se  Se240  1  0.90549093  0.75431860  0.68899304  1
  Se  Se241  1  0.08562787  0.25162424  0.19779325  1
  Se  Se242  1  0.08447267  0.24464315  0.68827362  1
  Se  Se243  1  0.09590403  0.58001224  0.19277519  1
  Se  Se244  1  0.09025553  0.56462265  0.68883852  1
  Se  Se245  1  0.08272194  0.92222829  0.20281521  1
  Se  Se246  1  0.08457063  0.91127206  0.68993527  1
  Se  Se247  1  0.42139735  0.25009155  0.19916751  1
  Se  Se248  1  0.41565386  0.25429238  0.69548143  1
  Se  Se249  1  0.42632821  0.57210232  0.18443527  1
  Se  Se250  1  0.41377767  0.58401060  0.69459273  1
  Se  Se251  1  0.41133970  0.91330116  0.20058072  1
  Se  Se252  1  0.42357694  0.91466554  0.68959081  1
  Se  Se253  1  0.75299718  0.25730346  0.20341117  1
  Se  Se254  1  0.74750929  0.25616422  0.69017274  1
  Se  Se255  1  0.74923443  0.59415575  0.20418244  1
  Se  Se256  1  0.74653795  0.58466637  0.70061198  1
  Se  Se257  1  0.75048871  0.91484158  0.18654615  1
  Se  Se258  1  0.74589977  0.91531602  0.69741441  1
