# generated using pymatgen
data_In86Cu29Se144
_symmetry_space_group_name_H-M   'P 1'
_cell_length_a   17.58260415
_cell_length_b   17.58426538
_cell_length_c   23.43574770
_cell_angle_alpha   90.03259563
_cell_angle_beta   90.01553366
_cell_angle_gamma   89.97816988
_symmetry_Int_Tables_number   1
_chemical_formula_structural   In86Cu29Se144
_chemical_formula_sum   'In86 Cu29 Se144'
_cell_volume   7245.79635958
_cell_formula_units_Z   1
loop_
 _symmetry_equiv_pos_site_id
 _symmetry_equiv_pos_as_xyz
  1  'x, y, z'
loop_
 _atom_site_type_symbol
 _atom_site_label
 _atom_site_symmetry_multiplicity
 _atom_site_fract_x
 _atom_site_fract_y
 _atom_site_fract_z
 _atom_site_occupancy
  In  In0  1  0.00458984  0.17234357  0.12154304  1
  In  In1  1  -0.01085426  0.17027626  0.62391572  1
  In  In2  1  -0.00752996  0.50741198  0.13515861  1
  In  In3  1  0.01333842  0.50689478  0.62755153  1
  In  In4  1  -0.01598342  0.81521448  0.10814266  1
  In  In5  1  -0.01669972  0.83167338  0.62058131  1
  In  In6  1  0.32620465  0.16638935  0.12489516  1
  In  In7  1  0.34824544  0.15693352  0.63317954  1
  In  In8  1  0.33888701  0.48626071  0.11758000  1
  In  In9  1  0.33034067  0.48993294  0.62001549  1
  In  In10  1  0.33764638  0.84867737  0.12261059  1
  In  In11  1  0.34964360  0.83011320  0.62360494  1
  In  In12  1  0.66634198  0.14986082  0.12706121  1
  In  In13  1  0.66635109  0.16403572  0.62605725  1
  In  In14  1  0.67420568  0.51163826  0.12204289  1
  In  In15  1  0.64772426  0.51435163  0.64160974  1
  In  In16  1  0.68538594  0.82342814  0.14254448  1
  In  In17  1  0.66306190  0.83135688  0.62442645  1
  In  In18  1  0.17386803  -0.00989364  0.36881663  1
  In  In19  1  0.16890529  0.00004612  0.87822711  1
  In  In20  1  0.17339967  0.34681516  0.37691191  1
  In  In21  1  0.16128388  0.32202951  0.87304876  1
  In  In22  1  0.15328554  0.65595877  0.37692610  1
  In  In23  1  0.16065370  0.68062112  0.87906467  1
  In  In24  1  0.50329672  -0.00078550  0.38142502  1
  In  In25  1  0.50348616  0.00425785  0.86272209  1
  In  In26  1  0.49742812  0.32516223  0.39457124  1
  In  In27  1  0.50797851  0.34869307  0.85551013  1
  In  In28  1  0.51074608  0.65476776  0.38082537  1
  In  In29  1  0.50380105  0.65026878  0.86999638  1
  In  In30  1  0.81594306  -0.00056873  0.38280573  1
  In  In31  1  0.83401097  0.00119066  0.88261254  1
  In  In32  1  0.83371399  0.32173216  0.37436621  1
  In  In33  1  0.82386793  0.32641799  0.87132980  1
  In  In34  1  0.84158988  0.68035558  0.36807629  1
  In  In35  1  0.83933316  0.68093716  0.86946877  1
  In  In36  1  -0.01716438  0.16064954  0.37090395  1
  In  In37  1  0.00250187  0.16958417  0.88524198  1
  In  In38  1  0.01233418  0.51273060  0.37350529  1
  In  In39  1  -0.00252409  0.50891920  0.87013320  1
  In  In40  1  -0.00989279  0.81261233  0.37043989  1
  In  In41  1  -0.00166314  0.82649965  0.88782459  1
  In  In42  1  0.35411186  0.16447409  0.38355058  1
  In  In43  1  0.33018108  0.16236276  0.86587397  1
  In  In44  1  0.33533905  0.48441060  0.39446963  1
  In  In45  1  0.35042212  0.50405786  0.86606507  1
  In  In46  1  0.33097771  0.84641484  0.37249778  1
  In  In47  1  0.31967754  0.83716541  0.87261394  1
  In  In48  1  0.67385555  0.15355366  0.39453099  1
  In  In49  1  0.67026817  0.16508631  0.87066037  1
  In  In50  1  0.65348214  0.50188209  0.37776719  1
  In  In51  1  0.65717291  0.49572020  0.85916893  1
  In  In52  1  0.66868724  0.83220706  0.38147030  1
  In  In53  1  0.67441595  0.84273534  0.86803714  1
  In  In54  1  0.16984214  0.00177766  0.12193347  1
  In  In55  1  0.17031633  0.00972719  0.62638184  1
  In  In56  1  0.16952319  0.32179655  0.12185947  1
  In  In57  1  0.17883633  0.35739601  0.62523662  1
  In  In58  1  0.14893804  0.66914904  0.12214910  1
  In  In59  1  0.16613196  0.65282557  0.63122996  1
  In  In60  1  0.50878906  -0.00133706  0.13664551  1
  In  In61  1  0.50632578  -0.00390777  0.62266805  1
  In  In62  1  0.48922976  0.33523632  0.12168608  1
  In  In63  1  0.50054293  0.33890478  0.62813549  1
  In  In64  1  0.51618389  0.66699464  0.12285055  1
  In  In65  1  0.50643209  0.67837894  0.61668849  1
  In  In66  1  0.82283982  -0.01003099  0.12188769  1
  In  In67  1  0.79528952  -0.02546874  0.59377014  1
  In  In68  1  0.84653844  0.34082768  0.12464618  1
  In  In69  1  0.82620525  0.31697801  0.62216000  1
  In  In70  1  0.83308544  0.67468725  0.13175723  1
  In  In71  1  0.82963651  0.66980784  0.62907059  1
  In  In72  1  0.33162683  0.32794167  0.25391144  1
  In  In73  1  0.16332469  0.17287994  0.50407426  1
  In  In74  1  -0.00468800  0.00173287  0.74971967  1
  In  In75  1  0.33279674  0.66604009  0.25359103  1
  In  In76  1  0.00138245  0.33788767  0.74828781  1
  In  In77  1  0.16900972  0.50261141  -0.00566224  1
  In  In78  1  0.50346453  0.83347604  -0.00039433  1
  In  In79  1  0.16350769  0.82643907  0.49350406  1
  In  In80  1  0.33483047  0.66987083  0.74967268  1
  In  In81  1  0.83353912  0.50276073  -0.00579508  1
  In  In82  1  -0.00709470  -0.00884618  0.24837973  1
  In  In83  1  0.83177099  0.49869742  0.50540318  1
  In  In84  1  0.50353989  0.16941418  -0.00282931  1
  In  In85  1  0.66537755  0.33213059  0.25581009  1
  Cu  Cu86  1  0.83333381  0.50197415  0.74904312  1
  Cu  Cu87  1  0.34196838  0.33309273  -0.00694857  1
  Cu  Cu88  1  0.16592955  0.83292496  0.24734037  1
  Cu  Cu89  1  0.82864986  0.83288503  0.74472086  1
  Cu  Cu90  1  0.50426663  0.83585240  0.74520223  1
  Cu  Cu91  1  0.50483753  0.15660226  0.26065307  1
  Cu  Cu92  1  0.82682423  0.15559657  0.74765670  1
  Cu  Cu93  1  0.33195736  0.00556138  -0.00269218  1
  Cu  Cu94  1  0.65990912  0.33395917  0.50711876  1
  Cu  Cu95  1  0.50165458  0.16795475  0.74447228  1
  Cu  Cu96  1  0.83800791  0.50575262  0.25072703  1
  Cu  Cu97  1  0.50675362  0.83751528  0.25476275  1
  Cu  Cu98  1  0.33362555  0.66687653  -0.00902250  1
  Cu  Cu99  1  0.16247992  0.83808519  0.75577597  1
  Cu  Cu100  1  0.33718390  -0.00233949  0.50188470  1
  Cu  Cu101  1  -0.01234084  -0.00322098  0.49292975  1
  Cu  Cu102  1  0.16074455  0.50180835  0.25358917  1
  Cu  Cu103  1  0.67598131  -0.00934919  0.00293641  1
  Cu  Cu104  1  0.16719454  0.16521870  0.24408824  1
  Cu  Cu105  1  0.49928090  0.49944282  0.25324954  1
  Cu  Cu106  1  0.66515849  0.33033756  -0.01262733  1
  Cu  Cu107  1  0.00356280  0.33272601  0.00275465  1
  Cu  Cu108  1  0.33685135  0.66394213  0.50429706  1
  Cu  Cu109  1  0.66835376  0.66488261  0.00058494  1
  Cu  Cu110  1  -0.00054396  0.33387916  0.50093800  1
  Cu  Cu111  1  0.17307759  0.17235145  0.74657301  1
  Cu  Cu112  1  0.00308400  0.00484349  0.00327850  1
  Cu  Cu113  1  0.83117073  0.16610135  0.25333832  1
  Cu  Cu114  1  0.66953497  0.66785718  0.50263908  1
  Se  Se115  1  0.08840568  0.08814723  0.05511537  1
  Se  Se116  1  0.06919438  0.07245014  0.55507150  1
  Se  Se117  1  0.07900157  0.41861359  0.06207028  1
  Se  Se118  1  0.08038719  0.41618178  0.55517847  1
  Se  Se119  1  0.09323950  0.75871791  0.04747647  1
  Se  Se120  1  0.08113145  0.74391716  0.56216525  1
  Se  Se121  1  0.41839130  0.07637127  0.05981062  1
  Se  Se122  1  0.41932352  0.08089159  0.55510050  1
  Se  Se123  1  0.42533825  0.41809239  0.04390918  1
  Se  Se124  1  0.42107379  0.41607375  0.55380401  1
  Se  Se125  1  0.41137439  0.74213641  0.05880841  1
  Se  Se126  1  0.42095887  0.75595746  0.54552407  1
  Se  Se127  1  0.75234732  0.08486330  0.05240897  1
  Se  Se128  1  0.76215083  0.10463433  0.55327259  1
  Se  Se129  1  0.74355471  0.40853436  0.05353625  1
  Se  Se130  1  0.73839310  0.41601470  0.56738733  1
  Se  Se131  1  0.74636123  0.74713046  0.05868867  1
  Se  Se132  1  0.75184510  0.74982665  0.55645350  1
  Se  Se133  1  0.26006386  0.25364042  0.05054367  1
  Se  Se134  1  0.25421990  0.24808889  0.57030315  1
  Se  Se135  1  0.25815592  0.58972281  0.05973002  1
  Se  Se136  1  0.25044821  0.58488163  0.55656473  1
  Se  Se137  1  0.25170333  0.91926480  0.05041210  1
  Se  Se138  1  0.25092259  0.91809217  0.55760570  1
  Se  Se139  1  0.59370792  0.25741668  0.06062958  1
  Se  Se140  1  0.57921392  0.24809329  0.55975138  1
  Se  Se141  1  0.58376397  0.57845163  0.04952645  1
  Se  Se142  1  0.58613733  0.58253571  0.55446504  1
  Se  Se143  1  0.59287157  0.91584455  0.06489377  1
  Se  Se144  1  0.59459621  0.92245840  0.55289741  1
  Se  Se145  1  0.91545601  0.25170047  0.05364342  1
  Se  Se146  1  0.91432121  0.24860041  0.54874277  1
  Se  Se147  1  0.91951131  0.58938866  0.05840023  1
  Se  Se148  1  0.92348170  0.59018603  0.56051021  1
  Se  Se149  1  0.91503124  0.92141476  0.05189676  1
  Se  Se150  1  0.90964539  0.90728171  0.54386043  1
  Se  Se151  1  0.07337903  0.25233791  0.43617218  1
  Se  Se152  1  0.09029817  0.24912248  0.95281090  1
  Se  Se153  1  0.08883958  0.57616614  0.45442969  1
  Se  Se154  1  0.06999175  0.59382862  0.94630294  1
  Se  Se155  1  0.07317757  0.92065018  0.43433253  1
  Se  Se156  1  0.08231915  0.92170109  0.94563736  1
  Se  Se157  1  0.38724123  0.27010771  0.45400538  1
  Se  Se158  1  0.42051872  0.25512137  0.93061401  1
  Se  Se159  1  0.42005312  0.58020212  0.44944833  1
  Se  Se160  1  0.41979798  0.58129705  0.94536474  1
  Se  Se161  1  0.41628672  0.91237344  0.44707579  1
  Se  Se162  1  0.41464485  0.92547849  0.93842729  1
  Se  Se163  1  0.74750688  0.25868639  0.45001885  1
  Se  Se164  1  0.75180787  0.24213302  0.94472323  1
  Se  Se165  1  0.74686520  0.58692556  0.44038431  1
  Se  Se166  1  0.74156447  0.58692013  0.93266455  1
  Se  Se167  1  0.73467159  0.92336264  0.45518156  1
  Se  Se168  1  0.75551817  0.90723199  0.94727536  1
  Se  Se169  1  0.25044579  0.07538254  0.44407998  1
  Se  Se170  1  0.25111501  0.08987411  0.94312909  1
  Se  Se171  1  0.24232771  0.41180129  0.45923615  1
  Se  Se172  1  0.25828166  0.41242042  0.93464699  1
  Se  Se173  1  0.25991616  0.73823187  0.43560051  1
  Se  Se174  1  0.24905979  0.75607323  0.94829897  1
  Se  Se175  1  0.55508112  0.10728881  0.44711191  1
  Se  Se176  1  0.59073862  0.06892030  0.94388679  1
  Se  Se177  1  0.58168134  0.41966456  0.45189713  1
  Se  Se178  1  0.58434707  0.41648133  0.93630442  1
  Se  Se179  1  0.58221340  0.74726634  0.44856236  1
  Se  Se180  1  0.58947919  0.74360093  0.93685541  1
  Se  Se181  1  0.90618998  0.08597847  0.44520059  1
  Se  Se182  1  0.91731429  0.08599214  0.94939568  1
  Se  Se183  1  0.92023443  0.41394463  0.43884528  1
  Se  Se184  1  0.92530656  0.40650003  0.93697751  1
  Se  Se185  1  0.91820330  0.74350283  0.44962927  1
  Se  Se186  1  0.90587997  0.75038313  0.95181188  1
  Se  Se187  1  0.24424127  0.23710131  0.31450702  1
  Se  Se188  1  0.25237229  0.25654547  0.80140712  1
  Se  Se189  1  0.25222175  0.56845723  0.31449388  1
  Se  Se190  1  0.24358663  0.58723653  0.81395741  1
  Se  Se191  1  0.25357298  0.91747035  0.29391509  1
  Se  Se192  1  0.24815267  0.92509638  0.80173011  1
  Se  Se193  1  0.57763124  0.24538316  0.31823237  1
  Se  Se194  1  0.58691442  0.24558671  0.80209143  1
  Se  Se195  1  0.58575700  0.58406115  0.30052699  1
  Se  Se196  1  0.57933892  0.58320190  0.79179149  1
  Se  Se197  1  0.58643944  0.91865243  0.31183902  1
  Se  Se198  1  0.58812574  0.91964150  0.79847688  1
  Se  Se199  1  0.91821997  0.25260665  0.29871588  1
  Se  Se200  1  0.91453122  0.23649238  0.80419455  1
  Se  Se201  1  0.92205841  0.58701081  0.30541122  1
  Se  Se202  1  0.91412219  0.58728097  0.80203331  1
  Se  Se203  1  0.90308821  0.91109899  0.31351240  1
  Se  Se204  1  0.91067831  0.90783706  0.80961387  1
  Se  Se205  1  0.08723361  0.08550411  0.30654009  1
  Se  Se206  1  0.08717440  0.09565448  0.80649882  1
  Se  Se207  1  0.08200649  0.41410196  0.30643069  1
  Se  Se208  1  0.09254833  0.42655318  0.80794741  1
  Se  Se209  1  0.08965161  0.74812993  0.30396048  1
  Se  Se210  1  0.07731842  0.75747716  0.80777279  1
  Se  Se211  1  0.41401217  0.07631467  0.30850430  1
  Se  Se212  1  0.41627643  0.08358442  0.79731623  1
  Se  Se213  1  0.42370242  0.41692298  0.31316319  1
  Se  Se214  1  0.41175701  0.41877385  0.79057664  1
  Se  Se215  1  0.42521669  0.75403431  0.31274264  1
  Se  Se216  1  0.42507794  0.76084112  0.81195494  1
  Se  Se217  1  0.74637760  0.08961892  0.31024788  1
  Se  Se218  1  0.75100696  0.07301403  0.80745843  1
  Se  Se219  1  0.75725808  0.42661968  0.31179146  1
  Se  Se220  1  0.75376846  0.41347497  0.80046222  1
  Se  Se221  1  0.73877952  0.74511722  0.30821547  1
  Se  Se222  1  0.74611582  0.74958144  0.79985633  1
  Se  Se223  1  0.25240201  0.08059055  0.19523013  1
  Se  Se224  1  0.25325688  0.08074840  0.69897760  1
  Se  Se225  1  0.24302400  0.42293913  0.19240168  1
  Se  Se226  1  0.25200610  0.42885313  0.70261150  1
  Se  Se227  1  0.24853856  0.75350757  0.18693251  1
  Se  Se228  1  0.24350025  0.76277134  0.69030572  1
  Se  Se229  1  0.59166500  0.07960116  0.20598135  1
  Se  Se230  1  0.58444818  0.08034699  0.69505193  1
  Se  Se231  1  0.57830902  0.42014529  0.18980014  1
  Se  Se232  1  0.59183129  0.40535350  0.70061553  1
  Se  Se233  1  0.58195566  0.74847504  0.19934538  1
  Se  Se234  1  0.58495068  0.74697931  0.69599536  1
  Se  Se235  1  0.91062859  0.08939644  0.18900920  1
  Se  Se236  1  0.90341707  0.07841678  0.68391879  1
  Se  Se237  1  0.91901907  0.41536618  0.20242582  1
  Se  Se238  1  0.90799844  0.42054943  0.68519479  1
  Se  Se239  1  0.92307752  0.75391169  0.19586846  1
  Se  Se240  1  0.91816053  0.74986549  0.69796689  1
  Se  Se241  1  0.08450071  0.25222080  0.19548682  1
  Se  Se242  1  0.09040754  0.24752919  0.68547738  1
  Se  Se243  1  0.08230581  0.58834403  0.19984150  1
  Se  Se244  1  0.07984991  0.58651527  0.70468158  1
  Se  Se245  1  0.08383939  0.90838439  0.18497485  1
  Se  Se246  1  0.08562725  0.91167784  0.68727815  1
  Se  Se247  1  0.42806299  0.23700420  0.19600332  1
  Se  Se248  1  0.41591251  0.25507000  0.69827027  1
  Se  Se249  1  0.42027923  0.57554332  0.18891336  1
  Se  Se250  1  0.41817894  0.58814339  0.68167746  1
  Se  Se251  1  0.41984683  0.91521776  0.19947026  1
  Se  Se252  1  0.41796891  0.91880993  0.69471552  1
  Se  Se253  1  0.75443571  0.24817038  0.18964821  1
  Se  Se254  1  0.74758059  0.24743782  0.69939424  1
  Se  Se255  1  0.75092518  0.58462438  0.19724138  1
  Se  Se256  1  0.74924830  0.58855737  0.69982470  1
  Se  Se257  1  0.74702011  0.92852952  0.20289867  1
  Se  Se258  1  0.74955792  0.91932798  0.69050872  1
