# generated using pymatgen
data_In86Cu29Se144
_symmetry_space_group_name_H-M   'P 1'
_cell_length_a   17.57862286
_cell_length_b   17.57607356
_cell_length_c   23.43502314
_cell_angle_alpha   89.99897002
_cell_angle_beta   89.99540866
_cell_angle_gamma   89.97741043
_symmetry_Int_Tables_number   1
_chemical_formula_structural   In86Cu29Se144
_chemical_formula_sum   'In86 Cu29 Se144'
_cell_volume   7240.55841445
_cell_formula_units_Z   1
loop_
 _symmetry_equiv_pos_site_id
 _symmetry_equiv_pos_as_xyz
  1  'x, y, z'
loop_
 _atom_site_type_symbol
 _atom_site_label
 _atom_site_symmetry_multiplicity
 _atom_site_fract_x
 _atom_site_fract_y
 _atom_site_fract_z
 _atom_site_occupancy
  In  In0  1  -0.00201576  0.16296953  0.13768590  1
  In  In1  1  -0.00111839  0.17683244  0.61526516  1
  In  In2  1  0.01237415  0.50082101  0.12348653  1
  In  In3  1  0.00057027  0.49844950  0.61992897  1
  In  In4  1  0.00759713  0.82366502  0.13490268  1
  In  In5  1  -0.01533901  0.83781136  0.62128601  1
  In  In6  1  0.32279589  0.16247000  0.13051050  1
  In  In7  1  0.34403881  0.15753167  0.63216251  1
  In  In8  1  0.33966627  0.51425832  0.10754962  1
  In  In9  1  0.32240973  0.49318223  0.62141930  1
  In  In10  1  0.34204615  0.83770333  0.11927406  1
  In  In11  1  0.34874334  0.83966854  0.61930975  1
  In  In12  1  0.66242897  0.16720630  0.12596417  1
  In  In13  1  0.66345134  0.16909823  0.62357571  1
  In  In14  1  0.67454421  0.51023542  0.12442449  1
  In  In15  1  0.66708481  0.50224184  0.62600092  1
  In  In16  1  0.64902835  0.82835648  0.12423466  1
  In  In17  1  0.66941000  0.83555455  0.62700870  1
  In  In18  1  0.16267452  0.00730288  0.36467262  1
  In  In19  1  0.17405334  -0.01674923  0.87666836  1
  In  In20  1  0.17381363  0.33601548  0.37928483  1
  In  In21  1  0.17636871  0.34406340  0.86262360  1
  In  In22  1  0.15318900  0.66567616  0.37288679  1
  In  In23  1  0.16440540  0.67197656  0.88002784  1
  In  In24  1  0.48730297  0.00110585  0.38949451  1
  In  In25  1  0.49249496  -0.00931650  0.86650642  1
  In  In26  1  0.50439112  0.32602385  0.39088905  1
  In  In27  1  0.51271480  0.35150531  0.86233754  1
  In  In28  1  0.50991355  0.65958021  0.38355557  1
  In  In29  1  0.50252343  0.65832940  0.87961536  1
  In  In30  1  0.84098894  0.00183313  0.38932516  1
  In  In31  1  0.83186006  0.01253906  0.86831003  1
  In  In32  1  0.84312741  0.33184102  0.39595424  1
  In  In33  1  0.82937182  0.33018042  0.85966986  1
  In  In34  1  0.83294239  0.66819186  0.37829469  1
  In  In35  1  0.82782210  0.65871514  0.85928432  1
  In  In36  1  -0.00450513  0.16084129  0.37865804  1
  In  In37  1  -0.01022070  0.16992934  0.86883295  1
  In  In38  1  -0.01363090  0.50813999  0.39192894  1
  In  In39  1  0.00591847  0.50736131  0.86326080  1
  In  In40  1  -0.00617759  0.82968930  0.37280820  1
  In  In41  1  0.01860752  0.82884554  0.87545515  1
  In  In42  1  0.33679982  0.16594430  0.37556780  1
  In  In43  1  0.33365766  0.16619817  0.86306139  1
  In  In44  1  0.33835430  0.49530796  0.38493741  1
  In  In45  1  0.34247542  0.50135451  0.87964202  1
  In  In46  1  0.33632052  0.84718399  0.37717211  1
  In  In47  1  0.32944724  0.83478963  0.88079926  1
  In  In48  1  0.66867924  0.15799407  0.38677482  1
  In  In49  1  0.66977358  0.17139000  0.86212995  1
  In  In50  1  0.66502155  0.50299653  0.38595922  1
  In  In51  1  0.65484547  0.49214404  0.86281354  1
  In  In52  1  0.67529098  0.82646868  0.38266864  1
  In  In53  1  0.65439784  0.82176991  0.86527289  1
  In  In54  1  0.17968340  -0.01191975  0.14049125  1
  In  In55  1  0.17135423  0.00828762  0.62456780  1
  In  In56  1  0.16178124  0.34699521  0.11833571  1
  In  In57  1  0.15429668  0.34188311  0.63169790  1
  In  In58  1  0.16102395  0.66208277  0.11870106  1
  In  In59  1  0.16926219  0.65193412  0.62589956  1
  In  In60  1  0.49880045  -0.01762844  0.12603039  1
  In  In61  1  0.49850347  0.00510964  0.62276460  1
  In  In62  1  0.48988252  0.33398228  0.12018181  1
  In  In63  1  0.49837775  0.33455668  0.62723482  1
  In  In64  1  0.50513967  0.67218894  0.12264654  1
  In  In65  1  0.51201695  0.67749987  0.62107225  1
  In  In66  1  0.84106494  0.00928779  0.13399632  1
  In  In67  1  0.82665492  -0.01329633  0.60946754  1
  In  In68  1  0.83557431  0.33446870  0.12624265  1
  In  In69  1  0.83588182  0.32982098  0.61630700  1
  In  In70  1  0.83046976  0.66566301  0.13856630  1
  In  In71  1  0.83335832  0.66908011  0.62612408  1
  In  In72  1  0.16576674  0.16878674  0.49764506  1
  In  In73  1  0.00235294  0.00080451  0.74658006  1
  In  In74  1  0.83089575  0.16916104  -0.00239926  1
  In  In75  1  0.33210896  0.33089475  0.25137045  1
  In  In76  1  0.67490634  0.33253840  0.25140324  1
  In  In77  1  0.67334103  -0.01154877  0.26455747  1
  In  In78  1  0.00524989  0.33343947  0.25913621  1
  In  In79  1  0.16512553  0.16971752  0.00531622  1
  In  In80  1  0.83066413  0.83277302  -0.00329428  1
  In  In81  1  0.83105224  0.49875992  -0.00251391  1
  In  In82  1  0.33482877  0.66557965  0.75606692  1
  In  In83  1  0.33259074  0.66996065  0.24113871  1
  In  In84  1  0.50098547  0.17064467  -0.00430933  1
  In  In85  1  0.16674875  0.83152233  0.49228835  1
  Cu  Cu86  1  0.16041333  0.83702668  0.25490040  1
  Cu  Cu87  1  0.83454269  0.83615700  0.74415126  1
  Cu  Cu88  1  0.33086812  0.33009590  0.50680793  1
  Cu  Cu89  1  0.00230202  0.33754832  -0.00605580  1
  Cu  Cu90  1  0.83470540  0.49728335  0.73854808  1
  Cu  Cu91  1  0.33491757  -0.00247731  0.00098151  1
  Cu  Cu92  1  0.33866009  0.66239766  0.50322088  1
  Cu  Cu93  1  0.00822012  -0.00797202  0.00619441  1
  Cu  Cu94  1  0.65899688  0.66456004  -0.00195695  1
  Cu  Cu95  1  0.33930059  0.34359083  -0.01017247  1
  Cu  Cu96  1  0.50497059  0.84012436  0.74386736  1
  Cu  Cu97  1  -0.00151234  0.66739033  0.50019261  1
  Cu  Cu98  1  0.66048753  0.33869540  0.50876314  1
  Cu  Cu99  1  0.67303436  0.66783644  0.50467229  1
  Cu  Cu100  1  0.15938563  0.49437740  0.74511209  1
  Cu  Cu101  1  0.00002163  0.66924974  -0.00179157  1
  Cu  Cu102  1  0.17353070  0.82782082  0.75318615  1
  Cu  Cu103  1  0.16727866  0.16705696  0.74472834  1
  Cu  Cu104  1  0.16799318  0.50544511  0.24707515  1
  Cu  Cu105  1  0.83092506  0.83315659  0.25786307  1
  Cu  Cu106  1  0.50972475  0.49922075  0.25683244  1
  Cu  Cu107  1  0.83619845  0.50483175  0.26016980  1
  Cu  Cu108  1  0.49766373  0.50457483  0.74708998  1
  Cu  Cu109  1  0.50197326  0.16810813  0.74492224  1
  Cu  Cu110  1  0.50509203  0.15328246  0.25858300  1
  Cu  Cu111  1  0.49703628  0.82878061  0.24903884  1
  Cu  Cu112  1  0.83111920  0.16761207  0.73833366  1
  Cu  Cu113  1  0.65779924  -0.00054474  0.50340157  1
  Cu  Cu114  1  0.65999637  -0.00564552  -0.00310378  1
  Se  Se115  1  0.08090221  0.07705018  0.06669731  1
  Se  Se116  1  0.07526048  0.07277052  0.55423823  1
  Se  Se117  1  0.08340358  0.42428884  0.04486799  1
  Se  Se118  1  0.08933702  0.41899787  0.55312399  1
  Se  Se119  1  0.07893816  0.75363049  0.05377876  1
  Se  Se120  1  0.08213947  0.74564786  0.56034240  1
  Se  Se121  1  0.41355119  0.08067336  0.06041859  1
  Se  Se122  1  0.41135654  0.08251587  0.55347178  1
  Se  Se123  1  0.42339279  0.42115507  0.04744604  1
  Se  Se124  1  0.41538881  0.41671143  0.55630783  1
  Se  Se125  1  0.40561067  0.73516788  0.05818138  1
  Se  Se126  1  0.42131116  0.74998292  0.55094839  1
  Se  Se127  1  0.74166454  0.07174129  0.05717720  1
  Se  Se128  1  0.74369098  0.08380122  0.55317219  1
  Se  Se129  1  0.74278513  0.40577423  0.05711896  1
  Se  Se130  1  0.75007807  0.42136957  0.55541504  1
  Se  Se131  1  0.74422587  0.74040404  0.05903842  1
  Se  Se132  1  0.75406915  0.75542964  0.55647903  1
  Se  Se133  1  0.26444599  0.26427115  0.05636905  1
  Se  Se134  1  0.25035251  0.25071386  0.56750875  1
  Se  Se135  1  0.23241260  0.57305449  0.04981361  1
  Se  Se136  1  0.24858421  0.58088270  0.54984077  1
  Se  Se137  1  0.24874207  0.92034176  0.05692171  1
  Se  Se138  1  0.25364635  0.92148038  0.55483158  1
  Se  Se139  1  0.59321147  0.25971151  0.05543010  1
  Se  Se140  1  0.57616329  0.24995701  0.55570075  1
  Se  Se141  1  0.58303507  0.57986075  0.05586472  1
  Se  Se142  1  0.58535104  0.58449536  0.55449327  1
  Se  Se143  1  0.57756355  0.91086821  0.04925245  1
  Se  Se144  1  0.58051294  0.91327980  0.55864303  1
  Se  Se145  1  0.93010303  0.25543455  0.05736617  1
  Se  Se146  1  0.90225093  0.23384553  0.54448462  1
  Se  Se147  1  0.91752773  0.59163178  0.05966093  1
  Se  Se148  1  0.91523575  0.58651241  0.55588056  1
  Se  Se149  1  0.91814201  0.91883481  0.06234927  1
  Se  Se150  1  0.92121654  0.91633707  0.54324778  1
  Se  Se151  1  0.07418506  0.26178588  0.44228904  1
  Se  Se152  1  0.08086980  0.25356197  0.93559523  1
  Se  Se153  1  0.08767391  0.58492793  0.45051555  1
  Se  Se154  1  0.07676659  0.58248918  0.94225485  1
  Se  Se155  1  0.07742011  0.92546490  0.43721242  1
  Se  Se156  1  0.08960362  0.91174656  0.95030400  1
  Se  Se157  1  0.41064087  0.24517862  0.45089993  1
  Se  Se158  1  0.41414209  0.25760191  0.93174521  1
  Se  Se159  1  0.42301616  0.57832615  0.45019021  1
  Se  Se160  1  0.40453975  0.59796707  0.94747556  1
  Se  Se161  1  0.41979152  0.90415550  0.45552127  1
  Se  Se162  1  0.41962545  0.91820369  0.94591581  1
  Se  Se163  1  0.73927580  0.25597496  0.45065398  1
  Se  Se164  1  0.74264350  0.25958011  0.93871632  1
  Se  Se165  1  0.75508991  0.58381165  0.44985527  1
  Se  Se166  1  0.74195577  0.58868238  0.93715046  1
  Se  Se167  1  0.74618556  0.92068066  0.44933549  1
  Se  Se168  1  0.74450540  0.92284204  0.93407888  1
  Se  Se169  1  0.25396117  0.07338840  0.44181543  1
  Se  Se170  1  0.25684767  0.08227893  0.94276832  1
  Se  Se171  1  0.25105875  0.41534169  0.45166572  1
  Se  Se172  1  0.24612054  0.42002362  0.94112779  1
  Se  Se173  1  0.25989742  0.73743530  0.43621015  1
  Se  Se174  1  0.24844997  0.75135516  0.94628062  1
  Se  Se175  1  0.57495531  0.08603688  0.45243084  1
  Se  Se176  1  0.59003145  0.08104185  0.93481054  1
  Se  Se177  1  0.57824211  0.42192528  0.45303281  1
  Se  Se178  1  0.58141350  0.42339302  0.94265419  1
  Se  Se179  1  0.58674248  0.74929397  0.45069710  1
  Se  Se180  1  0.58058107  0.75268602  0.94541841  1
  Se  Se181  1  0.90408798  0.10479114  0.45508573  1
  Se  Se182  1  0.92892916  0.07289300  0.94562691  1
  Se  Se183  1  0.91780798  0.42007641  0.46209305  1
  Se  Se184  1  0.91779843  0.41060597  0.93321803  1
  Se  Se185  1  0.91600307  0.75230874  0.44749641  1
  Se  Se186  1  0.91683988  0.74099558  0.93477172  1
  Se  Se187  1  0.23888576  0.24071488  0.30693248  1
  Se  Se188  1  0.25111884  0.25110153  0.79725424  1
  Se  Se189  1  0.25316980  0.57799618  0.30976168  1
  Se  Se190  1  0.23939711  0.57390167  0.80836826  1
  Se  Se191  1  0.24944537  0.91676071  0.30456802  1
  Se  Se192  1  0.25734216  0.91437448  0.80204204  1
  Se  Se193  1  0.58105362  0.24361084  0.31148209  1
  Se  Se194  1  0.58425257  0.25468287  0.79736189  1
  Se  Se195  1  0.59053274  0.58268182  0.30938041  1
  Se  Se196  1  0.58037225  0.59001794  0.80012627  1
  Se  Se197  1  0.57159706  0.90607159  0.31675708  1
  Se  Se198  1  0.58952668  0.92243243  0.79949013  1
  Se  Se199  1  0.90457391  0.25082424  0.31186493  1
  Se  Se200  1  0.91673160  0.24800698  0.79390011  1
  Se  Se201  1  0.92281069  0.58634341  0.31089086  1
  Se  Se202  1  0.91710446  0.58156560  0.79391880  1
  Se  Se203  1  0.90932531  0.92044873  0.31076327  1
  Se  Se204  1  0.91549886  0.90938786  0.81113832  1
  Se  Se205  1  0.07564673  0.09244549  0.30313129  1
  Se  Se206  1  0.09355262  0.08634928  0.81205503  1
  Se  Se207  1  0.09143971  0.43133073  0.31400981  1
  Se  Se208  1  0.07489932  0.40909901  0.79780493  1
  Se  Se209  1  0.07759683  0.74877285  0.30231227  1
  Se  Se210  1  0.08609075  0.74421115  0.80069092  1
  Se  Se211  1  0.41604981  0.07615350  0.30929940  1
  Se  Se212  1  0.41932595  0.08268370  0.79900925  1
  Se  Se213  1  0.42874373  0.41536560  0.31211292  1
  Se  Se214  1  0.41172913  0.42306887  0.80067012  1
  Se  Se215  1  0.41931918  0.74822393  0.31194901  1
  Se  Se216  1  0.42703877  0.76023928  0.80860180  1
  Se  Se217  1  0.75872849  0.09041368  0.31255095  1
  Se  Se218  1  0.75032323  0.08448355  0.79477999  1
  Se  Se219  1  0.75999524  0.41848949  0.31743855  1
  Se  Se220  1  0.74878140  0.41950613  0.79613360  1
  Se  Se221  1  0.74710292  0.74669586  0.30644738  1
  Se  Se222  1  0.74981946  0.75305967  0.79787797  1
  Se  Se223  1  0.25151995  0.08432336  0.20383643  1
  Se  Se224  1  0.25208990  0.07875002  0.69947251  1
  Se  Se225  1  0.25204684  0.42803845  0.18805134  1
  Se  Se226  1  0.25118519  0.41357165  0.69814071  1
  Se  Se227  1  0.23773412  0.76084813  0.18822668  1
  Se  Se228  1  0.25233242  0.75398956  0.68656640  1
  Se  Se229  1  0.58336915  0.07636344  0.19497437  1
  Se  Se230  1  0.58478442  0.08268867  0.69355462  1
  Se  Se231  1  0.57973068  0.41712353  0.19058794  1
  Se  Se232  1  0.58193764  0.41983350  0.69491450  1
  Se  Se233  1  0.58357359  0.74437341  0.20057809  1
  Se  Se234  1  0.58862816  0.75075361  0.69789574  1
  Se  Se235  1  0.91773302  0.08458549  0.20694245  1
  Se  Se236  1  0.91285742  0.08325917  0.68247029  1
  Se  Se237  1  0.91330378  0.42597812  0.19493786  1
  Se  Se238  1  0.91782239  0.41209433  0.68752243  1
  Se  Se239  1  0.91465105  0.75067099  0.20205168  1
  Se  Se240  1  0.92005203  0.75116703  0.69588497  1
  Se  Se241  1  0.09783538  0.25282405  0.19143880  1
  Se  Se242  1  0.07761537  0.24480072  0.69404368  1
  Se  Se243  1  0.08147130  0.58753175  0.19611062  1
  Se  Se244  1  0.07866824  0.58234617  0.69488522  1
  Se  Se245  1  0.07510671  0.92134308  0.20137487  1
  Se  Se246  1  0.09302993  0.90629464  0.68902449  1
  Se  Se247  1  0.42932399  0.23719524  0.19576768  1
  Se  Se248  1  0.41455140  0.25369953  0.69800343  1
  Se  Se249  1  0.42568545  0.57082062  0.19288104  1
  Se  Se250  1  0.41820811  0.58379684  0.68534093  1
  Se  Se251  1  0.41263435  0.91434455  0.19941512  1
  Se  Se252  1  0.41621356  0.92166077  0.69542767  1
  Se  Se253  1  0.76277779  0.23603758  0.19280771  1
  Se  Se254  1  0.74837378  0.25540983  0.68947447  1
  Se  Se255  1  0.74744869  0.58010177  0.20458012  1
  Se  Se256  1  0.74859233  0.58726993  0.69503171  1
  Se  Se257  1  0.75304089  0.90592635  0.18849215  1
  Se  Se258  1  0.75372849  0.92335859  0.69361666  1
