# generated using pymatgen
data_In86Cu29Se144
_symmetry_space_group_name_H-M   'P 1'
_cell_length_a   17.57636648
_cell_length_b   17.57811982
_cell_length_c   23.43006694
_cell_angle_alpha   89.99951622
_cell_angle_beta   90.00117820
_cell_angle_gamma   89.98002317
_symmetry_Int_Tables_number   1
_chemical_formula_structural   In86Cu29Se144
_chemical_formula_sum   'In86 Cu29 Se144'
_cell_volume   7238.94076359
_cell_formula_units_Z   1
loop_
 _symmetry_equiv_pos_site_id
 _symmetry_equiv_pos_as_xyz
  1  'x, y, z'
loop_
 _atom_site_type_symbol
 _atom_site_label
 _atom_site_symmetry_multiplicity
 _atom_site_fract_x
 _atom_site_fract_y
 _atom_site_fract_z
 _atom_site_occupancy
  In  In0  1  0.00987930  0.17599726  0.12045952  1
  In  In1  1  0.00182395  0.14876082  0.63450621  1
  In  In2  1  0.00306435  0.50313896  0.12258939  1
  In  In3  1  0.00515570  0.49124727  0.62351163  1
  In  In4  1  -0.00685716  0.82518218  0.12064227  1
  In  In5  1  0.01455085  0.84305737  0.62412897  1
  In  In6  1  0.32979849  0.16916863  0.11537615  1
  In  In7  1  0.33440013  0.18064114  0.62719765  1
  In  In8  1  0.34281801  0.51278435  0.11851259  1
  In  In9  1  0.33250231  0.49718916  0.62688409  1
  In  In10  1  0.32914526  0.82905509  0.11938987  1
  In  In11  1  0.29628034  0.82378923  0.63122347  1
  In  In12  1  0.68752535  0.19207266  0.09704002  1
  In  In13  1  0.67620266  0.16413348  0.62872173  1
  In  In14  1  0.66011920  0.48768226  0.11409082  1
  In  In15  1  0.66563136  0.51415184  0.62854914  1
  In  In16  1  0.66157535  0.83280757  0.11186515  1
  In  In17  1  0.65664970  0.82224830  0.62316023  1
  In  In18  1  0.17448589  -0.00173667  0.39111089  1
  In  In19  1  0.15768990  0.00157930  0.87408132  1
  In  In20  1  0.16102600  0.34338815  0.37823492  1
  In  In21  1  0.17329606  0.33302713  0.87483525  1
  In  In22  1  0.16714266  0.66430365  0.37498544  1
  In  In23  1  0.17436988  0.66014530  0.87667493  1
  In  In24  1  0.50396661  0.00052576  0.37381931  1
  In  In25  1  0.50945553  -0.00839740  0.89121520  1
  In  In26  1  0.51662880  0.33472661  0.36958984  1
  In  In27  1  0.49049660  0.34581769  0.89083456  1
  In  In28  1  0.47592824  0.67220583  0.36937141  1
  In  In29  1  0.49764793  0.66218340  0.87514458  1
  In  In30  1  0.82140607  -0.01036841  0.37691361  1
  In  In31  1  0.83938207  -0.01005595  0.88712658  1
  In  In32  1  0.83337713  0.33235267  0.36230148  1
  In  In33  1  0.82375898  0.33828443  0.89473687  1
  In  In34  1  0.84852226  0.66588022  0.37353379  1
  In  In35  1  0.82597938  0.67792775  0.88255853  1
  In  In36  1  0.00160381  0.17734044  0.36963847  1
  In  In37  1  0.00940754  0.15891800  0.88051013  1
  In  In38  1  0.00653269  0.50948350  0.36563533  1
  In  In39  1  0.00738755  0.49704162  0.88160363  1
  In  In40  1  0.01266594  0.82609361  0.38049803  1
  In  In41  1  -0.00577998  0.83871565  0.87930700  1
  In  In42  1  0.33065969  0.15601328  0.37445454  1
  In  In43  1  0.32539331  0.17039708  0.87883957  1
  In  In44  1  0.32540125  0.51187583  0.38107215  1
  In  In45  1  0.33051383  0.50528358  0.87201269  1
  In  In46  1  0.33665989  0.81675335  0.37524645  1
  In  In47  1  0.33503324  0.82405885  0.87611124  1
  In  In48  1  0.66019000  0.17166479  0.36868215  1
  In  In49  1  0.66677083  0.16359531  0.90181408  1
  In  In50  1  0.66819039  0.48970054  0.37297929  1
  In  In51  1  0.65151045  0.51232980  0.89148683  1
  In  In52  1  0.67026181  0.84364931  0.37530301  1
  In  In53  1  0.67347351  0.82545209  0.88285783  1
  In  In54  1  0.16678659  -0.00121829  0.11700207  1
  In  In55  1  0.15682371  -0.01539853  0.61523460  1
  In  In56  1  0.15614187  0.32922902  0.12138697  1
  In  In57  1  0.18105119  0.34914616  0.61302329  1
  In  In58  1  0.16739120  0.66646657  0.12270542  1
  In  In59  1  0.17510679  0.66735554  0.62676211  1
  In  In60  1  0.50545846  0.00345640  0.10997521  1
  In  In61  1  0.49790000  -0.00207680  0.62803392  1
  In  In62  1  0.51159637  0.34559784  0.11179213  1
  In  In63  1  0.48214146  0.33271532  0.62936176  1
  In  In64  1  0.49547913  0.66659368  0.12112964  1
  In  In65  1  0.50228428  0.65751040  0.62838007  1
  In  In66  1  0.81843054  -0.00281972  0.11115071  1
  In  In67  1  0.84485160  -0.00095978  0.62749168  1
  In  In68  1  0.83821657  0.34210519  0.11868165  1
  In  In69  1  0.83604459  0.32613769  0.62882677  1
  In  In70  1  0.84362078  0.67461159  0.11886068  1
  In  In71  1  0.81813940  0.67016647  0.62893623  1
  In  In72  1  0.83919226  0.16234136  0.50323299  1
  In  In73  1  0.66415758  0.00280316  0.24766280  1
  In  In74  1  0.66841077  -0.00285306  0.76351723  1
  In  In75  1  -0.00265968  0.00125346  0.24449369  1
  In  In76  1  0.33100826  -0.00134510  0.74818919  1
  In  In77  1  0.49472913  0.83186198  0.49823322  1
  In  In78  1  0.33715211  -0.00654048  0.25163245  1
  In  In79  1  0.65522576  0.34073204  0.77476460  1
  In  In80  1  0.00687140  0.67241375  0.74660244  1
  In  In81  1  0.49833589  0.16740500  0.49476879  1
  In  In82  1  0.00527799  0.33051533  0.76012734  1
  In  In83  1  0.66690363  0.66045313  0.23616626  1
  In  In84  1  0.83919879  0.50091625  0.50109581  1
  In  In85  1  0.33329925  0.34166589  0.24722874  1
  Cu  Cu86  1  0.32421101  -0.00733646  -0.00698305  1
  Cu  Cu87  1  0.16371524  0.50378417  0.24904543  1
  Cu  Cu88  1  0.83365545  0.17466902  0.23715972  1
  Cu  Cu89  1  -0.00016705  0.00349603  0.00236124  1
  Cu  Cu90  1  0.83626946  0.51060935  0.75619305  1
  Cu  Cu91  1  0.16368870  0.16774021  0.24786320  1
  Cu  Cu92  1  0.66307100  0.33379341  0.49857606  1
  Cu  Cu93  1  0.49501297  0.81814775  0.74953361  1
  Cu  Cu94  1  0.33322546  0.33916590  0.50052808  1
  Cu  Cu95  1  0.00415967  0.66830838  -0.00235070  1
  Cu  Cu96  1  -0.00018111  -0.00452249  0.50262000  1
  Cu  Cu97  1  0.83016385  0.83600131  0.75780825  1
  Cu  Cu98  1  0.00383843  0.33608203  -0.00018623  1
  Cu  Cu99  1  0.83640756  0.82536840  0.24764713  1
  Cu  Cu100  1  0.83162378  0.17029090  0.75759983  1
  Cu  Cu101  1  0.50203320  0.50331818  0.24266896  1
  Cu  Cu102  1  0.33155345  0.66388244  0.50294230  1
  Cu  Cu103  1  0.32450215  0.33840161  0.00027834  1
  Cu  Cu104  1  0.66700431  0.66313184  0.00251930  1
  Cu  Cu105  1  0.01011884  0.33283563  0.49469998  1
  Cu  Cu106  1  0.33340659  0.66425343  -0.00293675  1
  Cu  Cu107  1  0.16798781  0.82091020  0.25007927  1
  Cu  Cu108  1  0.66229526  0.66723069  0.50205725  1
  Cu  Cu109  1  0.49792625  0.49745028  0.75599341  1
  Cu  Cu110  1  0.00535821  0.67072495  0.49859991  1
  Cu  Cu111  1  0.83798710  0.49219633  0.24451094  1
  Cu  Cu112  1  0.49477551  0.16620350  0.75869315  1
  Cu  Cu113  1  0.16626223  0.16763164  0.75277385  1
  Cu  Cu114  1  0.51075035  0.17621800  0.23865243  1
  Se  Se115  1  0.08662568  0.08742273  0.05231240  1
  Se  Se116  1  0.07980826  0.08422679  0.55442353  1
  Se  Se117  1  0.08701274  0.42163960  0.05198912  1
  Se  Se118  1  0.08604809  0.42289709  0.54725283  1
  Se  Se119  1  0.08553528  0.75200747  0.05355591  1
  Se  Se120  1  0.08747943  0.74751121  0.55914998  1
  Se  Se121  1  0.40321045  0.07605749  0.05046891  1
  Se  Se122  1  0.41214020  0.08066394  0.55983182  1
  Se  Se123  1  0.41429981  0.42024916  0.05016943  1
  Se  Se124  1  0.41947413  0.41877941  0.55406188  1
  Se  Se125  1  0.41588228  0.74951755  0.05058973  1
  Se  Se126  1  0.40921679  0.74644398  0.56441310  1
  Se  Se127  1  0.74580049  0.08071436  0.04050740  1
  Se  Se128  1  0.74418379  0.07149045  0.55787677  1
  Se  Se129  1  0.75216489  0.41698518  0.04744380  1
  Se  Se130  1  0.74603702  0.40903907  0.56123603  1
  Se  Se131  1  0.75259773  0.74964853  0.05134130  1
  Se  Se132  1  0.74723384  0.75062212  0.55258064  1
  Se  Se133  1  0.24207960  0.25113116  0.05150326  1
  Se  Se134  1  0.25261398  0.24966333  0.55015958  1
  Se  Se135  1  0.24810201  0.58298727  0.05162350  1
  Se  Se136  1  0.24916000  0.57928734  0.55620512  1
  Se  Se137  1  0.24411979  0.91021533  0.05074304  1
  Se  Se138  1  0.26291441  0.92152457  0.55534856  1
  Se  Se139  1  0.55745764  0.22937306  0.05447021  1
  Se  Se140  1  0.58860178  0.25270781  0.56247891  1
  Se  Se141  1  0.57897594  0.58253890  0.05378351  1
  Se  Se142  1  0.58155209  0.57981236  0.55257026  1
  Se  Se143  1  0.58319574  0.91532958  0.04374031  1
  Se  Se144  1  0.58722731  0.92449180  0.55639201  1
  Se  Se145  1  0.92110183  0.25183428  0.05294962  1
  Se  Se146  1  0.93201520  0.25605210  0.55979531  1
  Se  Se147  1  0.92049304  0.58493510  0.05185879  1
  Se  Se148  1  0.92391794  0.59480439  0.56320450  1
  Se  Se149  1  0.91723950  0.91703419  0.05437268  1
  Se  Se150  1  0.91722887  0.91269463  0.55658330  1
  Se  Se151  1  0.08892357  0.24450063  0.44280236  1
  Se  Se152  1  0.08607516  0.25388797  0.94310855  1
  Se  Se153  1  0.08133278  0.58194941  0.44409101  1
  Se  Se154  1  0.08875373  0.58343583  0.94761003  1
  Se  Se155  1  0.08666276  0.91177152  0.45184234  1
  Se  Se156  1  0.08083382  0.91907606  0.94719511  1
  Se  Se157  1  0.41087517  0.26221844  0.43436793  1
  Se  Se158  1  0.40737088  0.25092712  0.94946006  1
  Se  Se159  1  0.41902787  0.58581257  0.44806716  1
  Se  Se160  1  0.41747845  0.57852948  0.94548469  1
  Se  Se161  1  0.40710190  0.92570957  0.43817229  1
  Se  Se162  1  0.41304567  0.90829105  0.94703397  1
  Se  Se163  1  0.74784100  0.25469755  0.44141547  1
  Se  Se164  1  0.74860717  0.25323424  0.96379862  1
  Se  Se165  1  0.74600280  0.58933565  0.44026048  1
  Se  Se166  1  0.75563938  0.58337231  0.95015150  1
  Se  Se167  1  0.75169980  0.90934250  0.45089272  1
  Se  Se168  1  0.73607398  0.92548015  0.94794100  1
  Se  Se169  1  0.25342038  0.09013769  0.45186927  1
  Se  Se170  1  0.24303047  0.08170416  0.94291292  1
  Se  Se171  1  0.24807321  0.42085345  0.44621191  1
  Se  Se172  1  0.24721963  0.42329980  0.94332237  1
  Se  Se173  1  0.24929627  0.74654375  0.44672434  1
  Se  Se174  1  0.24784410  0.74941718  0.94738946  1
  Se  Se175  1  0.59854046  0.07580136  0.44266427  1
  Se  Se176  1  0.56824501  0.08882549  0.95994600  1
  Se  Se177  1  0.58196562  0.41907318  0.44678103  1
  Se  Se178  1  0.59793511  0.40281677  0.95211450  1
  Se  Se179  1  0.58506993  0.74222589  0.43526465  1
  Se  Se180  1  0.58266781  0.74310983  0.94527631  1
  Se  Se181  1  0.92492573  0.07424009  0.43617499  1
  Se  Se182  1  0.91697593  0.08688719  0.94853899  1
  Se  Se183  1  0.92154242  0.40915043  0.43687697  1
  Se  Se184  1  0.91952832  0.42266337  0.95084788  1
  Se  Se185  1  0.91794670  0.75107105  0.44674280  1
  Se  Se186  1  0.91618890  0.75402920  0.94961789  1
  Se  Se187  1  0.24702318  0.24632374  0.30732855  1
  Se  Se188  1  0.25179114  0.25012520  0.80275644  1
  Se  Se189  1  0.25002991  0.58382526  0.30306196  1
  Se  Se190  1  0.26068824  0.59653581  0.80035442  1
  Se  Se191  1  0.23927972  0.90970170  0.31046545  1
  Se  Se192  1  0.24429743  0.91011891  0.80918703  1
  Se  Se193  1  0.59320904  0.25724355  0.29425817  1
  Se  Se194  1  0.57347821  0.23695038  0.82557235  1
  Se  Se195  1  0.58001576  0.58178258  0.30836265  1
  Se  Se196  1  0.58511310  0.57966536  0.80664915  1
  Se  Se197  1  0.57249617  0.90676117  0.30229783  1
  Se  Se198  1  0.57131015  0.90196562  0.81026082  1
  Se  Se199  1  0.91849278  0.24955310  0.29612816  1
  Se  Se200  1  0.90684011  0.25075538  0.82007827  1
  Se  Se201  1  0.91429926  0.58201511  0.29771102  1
  Se  Se202  1  0.91933620  0.58744967  0.81431327  1
  Se  Se203  1  0.91270355  0.90959880  0.30818242  1
  Se  Se204  1  0.91445063  0.92091303  0.80679756  1
  Se  Se205  1  0.09227605  0.08093646  0.30952370  1
  Se  Se206  1  0.07950187  0.08365997  0.80052083  1
  Se  Se207  1  0.08333374  0.41540309  0.30096732  1
  Se  Se208  1  0.09729289  0.43021473  0.80512435  1
  Se  Se209  1  0.08024988  0.74363308  0.30433565  1
  Se  Se210  1  0.08843158  0.75785334  0.81348876  1
  Se  Se211  1  0.43250693  0.09599524  0.30106760  1
  Se  Se212  1  0.42233575  0.07666062  0.81620533  1
  Se  Se213  1  0.42397578  0.42739257  0.30978820  1
  Se  Se214  1  0.41666146  0.41309865  0.80929369  1
  Se  Se215  1  0.41575121  0.75924123  0.29426302  1
  Se  Se216  1  0.41125023  0.73956780  0.80441749  1
  Se  Se217  1  0.76265569  0.09308541  0.30429547  1
  Se  Se218  1  0.75242828  0.09381104  0.82101917  1
  Se  Se219  1  0.74779977  0.41656244  0.29777876  1
  Se  Se220  1  0.75757433  0.43153174  0.81880622  1
  Se  Se221  1  0.75070272  0.74911187  0.30673068  1
  Se  Se222  1  0.74631978  0.74847902  0.80471790  1
  Se  Se223  1  0.24632128  0.08653861  0.19217506  1
  Se  Se224  1  0.24335635  0.08911211  0.68746065  1
  Se  Se225  1  0.24333236  0.42713601  0.18518977  1
  Se  Se226  1  0.25785224  0.40509048  0.69457053  1
  Se  Se227  1  0.25398105  0.74630725  0.19317424  1
  Se  Se228  1  0.25254823  0.73170648  0.70898007  1
  Se  Se229  1  0.58708450  0.09216304  0.18033909  1
  Se  Se230  1  0.57840395  0.09022854  0.69863053  1
  Se  Se231  1  0.58371320  0.41597607  0.19334573  1
  Se  Se232  1  0.58029980  0.41754163  0.69381523  1
  Se  Se233  1  0.57769659  0.76071986  0.18879581  1
  Se  Se234  1  0.58582287  0.74128936  0.69760814  1
  Se  Se235  1  0.90668346  0.08533718  0.18065264  1
  Se  Se236  1  0.90944296  0.08269247  0.70511418  1
  Se  Se237  1  0.92570548  0.41307456  0.19196437  1
  Se  Se238  1  0.90876638  0.42293680  0.69797538  1
  Se  Se239  1  0.92286993  0.74382120  0.19776403  1
  Se  Se240  1  0.90883960  0.76037152  0.69110276  1
  Se  Se241  1  0.08049768  0.25355885  0.19916881  1
  Se  Se242  1  0.08815526  0.24889806  0.68894360  1
  Se  Se243  1  0.08225701  0.58749658  0.19392203  1
  Se  Se244  1  0.09034777  0.57096885  0.69266595  1
  Se  Se245  1  0.09155477  0.90791350  0.19119304  1
  Se  Se246  1  0.08596456  0.92267543  0.69897542  1
  Se  Se247  1  0.41873222  0.25058823  0.18529298  1
  Se  Se248  1  0.41425870  0.24996178  0.70512904  1
  Se  Se249  1  0.41621491  0.58858572  0.19627090  1
  Se  Se250  1  0.41778505  0.57790445  0.69674612  1
  Se  Se251  1  0.42436968  0.91619750  0.18332045  1
  Se  Se252  1  0.41804921  0.90034935  0.68867638  1
  Se  Se253  1  0.74908045  0.25624156  0.18481286  1
  Se  Se254  1  0.74737686  0.25359540  0.70466677  1
  Se  Se255  1  0.76026844  0.57097809  0.18072900  1
  Se  Se256  1  0.74707885  0.58645800  0.70313360  1
  Se  Se257  1  0.75444738  0.90665472  0.19079543  1
  Se  Se258  1  0.74917139  0.91216109  0.69246253  1
