# generated using pymatgen
data_In86Cu29Se144
_symmetry_space_group_name_H-M   'P 1'
_cell_length_a   17.68279644
_cell_length_b   17.68427750
_cell_length_c   23.54149020
_cell_angle_alpha   89.98950103
_cell_angle_beta   90.01303070
_cell_angle_gamma   90.03069218
_symmetry_Int_Tables_number   1
_chemical_formula_structural   In86Cu29Se144
_chemical_formula_sum   'In86 Cu29 Se144'
_cell_volume   7361.59868712
_cell_formula_units_Z   1
loop_
 _symmetry_equiv_pos_site_id
 _symmetry_equiv_pos_as_xyz
  1  'x, y, z'
loop_
 _atom_site_type_symbol
 _atom_site_label
 _atom_site_symmetry_multiplicity
 _atom_site_fract_x
 _atom_site_fract_y
 _atom_site_fract_z
 _atom_site_occupancy
  In  In0  1  0.01019671  0.17421245  0.13571384  1
  In  In1  1  0.00490357  0.17767890  0.61263044  1
  In  In2  1  0.00306914  0.50134199  0.11696186  1
  In  In3  1  0.00380574  0.50792517  0.62065535  1
  In  In4  1  -0.00318146  0.82968500  0.12066005  1
  In  In5  1  -0.00469110  0.82550069  0.62864962  1
  In  In6  1  0.32636972  0.15554845  0.12918532  1
  In  In7  1  0.34463596  0.17956925  0.61750236  1
  In  In8  1  0.33145052  0.51472977  0.11001202  1
  In  In9  1  0.32453101  0.50884871  0.63569760  1
  In  In10  1  0.33399980  0.83298042  0.11745175  1
  In  In11  1  0.32618408  0.81624171  0.62819151  1
  In  In12  1  0.66274641  0.20640955  0.13414385  1
  In  In13  1  0.66266738  0.17567505  0.60668449  1
  In  In14  1  0.67211029  0.49720739  0.12528141  1
  In  In15  1  0.66900367  0.49016033  0.62204614  1
  In  In16  1  0.64939369  0.83069234  0.12420310  1
  In  In17  1  0.66389262  0.83992160  0.61955787  1
  In  In18  1  0.18703170  -0.00016253  0.37053471  1
  In  In19  1  0.16703844  -0.00498236  0.88663902  1
  In  In20  1  0.16077763  0.34204802  0.37675997  1
  In  In21  1  0.16952554  0.32259890  0.88174197  1
  In  In22  1  0.16189388  0.65469072  0.36381977  1
  In  In23  1  0.17436048  0.65222107  0.87602119  1
  In  In24  1  0.49086589  0.00660574  0.37593059  1
  In  In25  1  0.49339394  -0.00239178  0.88231443  1
  In  In26  1  0.49799901  0.32414066  0.37303145  1
  In  In27  1  0.47769733  0.36147656  0.90333120  1
  In  In28  1  0.50398081  0.66650999  0.36867867  1
  In  In29  1  0.47656916  0.67281258  0.90067553  1
  In  In30  1  0.84029200  0.00561443  0.37566126  1
  In  In31  1  0.83728616  -0.00094224  0.87072657  1
  In  In32  1  0.84433557  0.32945623  0.36533181  1
  In  In33  1  0.84626070  0.34017789  0.87374255  1
  In  In34  1  0.83055797  0.65714651  0.36679912  1
  In  In35  1  0.83515650  0.65496476  0.88125093  1
  In  In36  1  -0.00323346  0.17682068  0.37893568  1
  In  In37  1  -0.00102330  0.16872504  0.87820800  1
  In  In38  1  0.00330338  0.49924433  0.37152194  1
  In  In39  1  -0.00098808  0.51612551  0.89723262  1
  In  In40  1  0.01584727  0.83084083  0.36832005  1
  In  In41  1  0.08120366  0.80118536  0.92943825  1
  In  In42  1  0.34143651  0.16681975  0.37797098  1
  In  In43  1  0.32822124  0.17707562  0.87943659  1
  In  In44  1  0.31903340  0.49599626  0.37018844  1
  In  In45  1  0.32951138  0.49427394  0.87957627  1
  In  In46  1  0.33921918  0.83659039  0.37079171  1
  In  In47  1  0.33415623  0.82976281  0.88126169  1
  In  In48  1  0.66452089  0.17726816  0.37444732  1
  In  In49  1  0.65887065  0.16472190  0.87350537  1
  In  In50  1  0.67420403  0.50356725  0.36595416  1
  In  In51  1  0.65413162  0.50021337  0.89081170  1
  In  In52  1  0.66335317  0.81588875  0.37012662  1
  In  In53  1  0.65966174  0.82049523  0.88098328  1
  In  In54  1  0.18182567  0.02201027  0.11997372  1
  In  In55  1  0.15703358  0.00350387  0.62317758  1
  In  In56  1  0.15343496  0.31727752  0.13003342  1
  In  In57  1  0.17499621  0.34561593  0.62039211  1
  In  In58  1  0.16532527  0.66890531  0.11390112  1
  In  In59  1  0.16921825  0.65960079  0.63606503  1
  In  In60  1  0.49403421  -0.00577437  0.12205571  1
  In  In61  1  0.49964046  0.00082496  0.61737613  1
  In  In62  1  0.51286619  0.34371167  0.11677665  1
  In  In63  1  0.50021169  0.32986372  0.62471624  1
  In  In64  1  0.49457725  0.66819154  0.12095845  1
  In  In65  1  0.48287692  0.66277837  0.62502629  1
  In  In66  1  0.83176670  0.00562613  0.12906441  1
  In  In67  1  0.82384427  0.00808095  0.61596843  1
  In  In68  1  0.81990177  0.35002889  0.14369754  1
  In  In69  1  0.83176789  0.34104160  0.60796804  1
  In  In70  1  0.85327348  0.64829053  0.12963110  1
  In  In71  1  0.85037788  0.66766570  0.62395931  1
  In  In72  1  0.83428036  0.83491781  0.49867427  1
  In  In73  1  0.82854579  0.82982390  0.00236507  1
  In  In74  1  0.66077138  0.65768248  0.75005478  1
  In  In75  1  0.50037660  0.49944431  0.49721172  1
  In  In76  1  0.33098143  0.33625644  0.24528600  1
  In  In77  1  0.82469275  0.17798951  0.01587563  1
  In  In78  1  0.33749411  0.00006288  0.74849426  1
  In  In79  1  0.66367254  -0.00200924  0.73766811  1
  In  In80  1  0.17149474  0.83304697  0.50129495  1
  In  In81  1  0.00039389  -0.00826419  0.75360485  1
  In  In82  1  0.00664175  -0.00356011  0.24604127  1
  In  In83  1  0.66576853  0.33451060  0.74800876  1
  In  In84  1  0.00750389  0.33982882  0.74867311  1
  In  In85  1  0.66034776  0.00143923  0.25363621  1
  Cu  Cu86  1  0.16374542  0.81679085  0.76290241  1
  Cu  Cu87  1  0.00394676  0.01234805  0.49699826  1
  Cu  Cu88  1  0.49691259  0.17801364  0.74712381  1
  Cu  Cu89  1  0.33319603  0.00085742  0.00201949  1
  Cu  Cu90  1  -0.00128639  0.33809028  0.49417284  1
  Cu  Cu91  1  0.83150123  0.82421731  0.24670311  1
  Cu  Cu92  1  0.50148386  0.50317845  0.23966120  1
  Cu  Cu93  1  0.17459129  0.16668164  0.75204328  1
  Cu  Cu94  1  0.17070960  0.51072861  0.24072747  1
  Cu  Cu95  1  0.49716900  0.82591104  0.75842222  1
  Cu  Cu96  1  0.49507227  0.16612749  0.24997441  1
  Cu  Cu97  1  0.84175469  0.50290605  0.24948198  1
  Cu  Cu98  1  0.84210786  0.82307267  0.75119859  1
  Cu  Cu99  1  0.65978458  0.00478079  0.00047199  1
  Cu  Cu100  1  0.66467643  0.66514224  0.49065178  1
  Cu  Cu101  1  0.32708974  0.32325223  0.00847416  1
  Cu  Cu102  1  0.83914731  0.50062347  0.75561570  1
  Cu  Cu103  1  0.48992744  0.50248213  0.76242845  1
  Cu  Cu104  1  0.32897357  0.33835869  0.49701684  1
  Cu  Cu105  1  0.33956306  0.00250876  0.49704562  1
  Cu  Cu106  1  0.17096505  0.82238948  0.24242862  1
  Cu  Cu107  1  0.32920471  0.66453799  0.50410991  1
  Cu  Cu108  1  0.66356763  0.66372881  0.00731158  1
  Cu  Cu109  1  0.83378022  0.16369205  0.73816808  1
  Cu  Cu110  1  0.48982451  0.82674775  0.24399443  1
  Cu  Cu111  1  -0.00162446  0.66040316  0.49563460  1
  Cu  Cu112  1  0.16520461  0.49732130  0.75517670  1
  Cu  Cu113  1  0.00304180  0.33099273  0.00147594  1
  Cu  Cu114  1  0.65933221  0.00330532  0.49354863  1
  Se  Se115  1  0.06904935  0.08033212  0.06530696  1
  Se  Se116  1  0.09071226  0.08988186  0.55061474  1
  Se  Se117  1  0.08839644  0.40815232  0.05753984  1
  Se  Se118  1  0.07877999  0.41612568  0.55572455  1
  Se  Se119  1  0.07511330  0.75185621  0.04852269  1
  Se  Se120  1  0.07735813  0.74166925  0.55794276  1
  Se  Se121  1  0.41387396  0.08357447  0.05736405  1
  Se  Se122  1  0.41984116  0.08725918  0.55227632  1
  Se  Se123  1  0.41019437  0.41192244  0.05608027  1
  Se  Se124  1  0.40614971  0.41920829  0.56091323  1
  Se  Se125  1  0.41317438  0.74650259  0.05023811  1
  Se  Se126  1  0.41271068  0.75076005  0.55343743  1
  Se  Se127  1  0.73238538  0.08033872  0.06658638  1
  Se  Se128  1  0.74565662  0.08554416  0.54478415  1
  Se  Se129  1  0.74903547  0.40607299  0.05955793  1
  Se  Se130  1  0.74345373  0.42123895  0.54581302  1
  Se  Se131  1  0.74578887  0.74163934  0.06738161  1
  Se  Se132  1  0.74466178  0.74023407  0.55748972  1
  Se  Se133  1  0.24415119  0.24163360  0.06266133  1
  Se  Se134  1  0.24967458  0.25400739  0.55390237  1
  Se  Se135  1  0.23681295  0.58137182  0.04085149  1
  Se  Se136  1  0.24665128  0.58496190  0.56034796  1
  Se  Se137  1  0.24615014  0.92188209  0.05478084  1
  Se  Se138  1  0.26109228  0.92542172  0.56224621  1
  Se  Se139  1  0.57895475  0.24408335  0.05156017  1
  Se  Se140  1  0.58101404  0.26629563  0.54855061  1
  Se  Se141  1  0.58276322  0.57896390  0.06004952  1
  Se  Se142  1  0.58757366  0.59284046  0.55981642  1
  Se  Se143  1  0.58007864  0.91651766  0.05196309  1
  Se  Se144  1  0.58290833  0.91763381  0.55006572  1
  Se  Se145  1  0.92273957  0.26269839  0.06907965  1
  Se  Se146  1  0.91542583  0.25216932  0.54674071  1
  Se  Se147  1  0.92023316  0.58226751  0.04734592  1
  Se  Se148  1  0.91391163  0.58074494  0.55005680  1
  Se  Se149  1  0.91569387  0.92822511  0.05805587  1
  Se  Se150  1  0.92874529  0.92639839  0.55787083  1
  Se  Se151  1  0.08589670  0.25391051  0.44641952  1
  Se  Se152  1  0.08154440  0.24324520  0.94904723  1
  Se  Se153  1  0.08576327  0.58378571  0.44186626  1
  Se  Se154  1  0.11274604  0.56734473  0.95572117  1
  Se  Se155  1  0.08198984  0.92534259  0.44159443  1
  Se  Se156  1  0.04607781  0.94319532  0.93122760  1
  Se  Se157  1  0.41547907  0.25533967  0.44798117  1
  Se  Se158  1  0.41428353  0.24560188  0.95261456  1
  Se  Se159  1  0.40596221  0.58663692  0.43935885  1
  Se  Se160  1  0.43695554  0.54747934  0.94590914  1
  Se  Se161  1  0.41731981  0.91504045  0.44427525  1
  Se  Se162  1  0.41435956  0.91370215  0.94952396  1
  Se  Se163  1  0.76338823  0.24698709  0.43458958  1
  Se  Se164  1  0.75373762  0.25104501  0.93299191  1
  Se  Se165  1  0.75037353  0.58393401  0.44126576  1
  Se  Se166  1  0.74531012  0.58465448  0.94991335  1
  Se  Se167  1  0.74067431  0.91994020  0.43576811  1
  Se  Se168  1  0.73930830  0.92536521  0.93954454  1
  Se  Se169  1  0.25489770  0.08363615  0.44531625  1
  Se  Se170  1  0.25292479  0.08351768  0.94503356  1
  Se  Se171  1  0.24517280  0.42258471  0.44713595  1
  Se  Se172  1  0.25127593  0.40622539  0.94843700  1
  Se  Se173  1  0.25284002  0.74181625  0.43823752  1
  Se  Se174  1  0.23118613  0.76216612  0.94277082  1
  Se  Se175  1  0.58069737  0.08799928  0.43858675  1
  Se  Se176  1  0.57896950  0.08498321  0.94360518  1
  Se  Se177  1  0.58726167  0.41518112  0.43408592  1
  Se  Se178  1  0.60528597  0.38962267  0.95069139  1
  Se  Se179  1  0.57768657  0.74850440  0.44436857  1
  Se  Se180  1  0.58052098  0.74939850  0.95518540  1
  Se  Se181  1  0.91534905  0.08898401  0.44575874  1
  Se  Se182  1  0.90477170  0.08962350  0.94378584  1
  Se  Se183  1  0.91746487  0.41846876  0.43810843  1
  Se  Se184  1  0.91817876  0.41499008  0.95052007  1
  Se  Se185  1  0.92527511  0.74877618  0.43751252  1
  Se  Se186  1  0.91802694  0.75498638  0.93541958  1
  Se  Se187  1  0.24908077  0.25103976  0.31234050  1
  Se  Se188  1  0.25175816  0.25344430  0.80451791  1
  Se  Se189  1  0.25773108  0.58635715  0.29640817  1
  Se  Se190  1  0.25609878  0.57667528  0.80434183  1
  Se  Se191  1  0.24895508  0.90658961  0.30013254  1
  Se  Se192  1  0.24464827  0.91299721  0.80881787  1
  Se  Se193  1  0.57985597  0.24969351  0.30031474  1
  Se  Se194  1  0.57447179  0.25345474  0.81027547  1
  Se  Se195  1  0.58263018  0.58127907  0.30091136  1
  Se  Se196  1  0.57167449  0.58334221  0.81901778  1
  Se  Se197  1  0.57040022  0.90531011  0.30764880  1
  Se  Se198  1  0.58038981  0.91212585  0.80868817  1
  Se  Se199  1  0.94851009  0.26670193  0.29925543  1
  Se  Se200  1  0.91189543  0.24184185  0.80028328  1
  Se  Se201  1  0.92541599  0.58695056  0.30172142  1
  Se  Se202  1  0.92176665  0.57741665  0.81309497  1
  Se  Se203  1  0.90999065  0.90597950  0.30725402  1
  Se  Se204  1  0.91684773  0.90107355  0.81370658  1
  Se  Se205  1  0.08569248  0.08196369  0.31545456  1
  Se  Se206  1  0.09002045  0.08934023  0.80764106  1
  Se  Se207  1  0.09576104  0.42866431  0.30158894  1
  Se  Se208  1  0.08542738  0.42290677  0.81920481  1
  Se  Se209  1  0.08439283  0.74503771  0.29703506  1
  Se  Se210  1  0.08137678  0.74695443  0.82429506  1
  Se  Se211  1  0.41231184  0.08379691  0.30245365  1
  Se  Se212  1  0.42483317  0.09156017  0.80790289  1
  Se  Se213  1  0.42439547  0.42532314  0.30557129  1
  Se  Se214  1  0.41458071  0.40931901  0.81112192  1
  Se  Se215  1  0.41310971  0.74471289  0.30393750  1
  Se  Se216  1  0.41690469  0.74539291  0.81422055  1
  Se  Se217  1  0.75627341  0.08826023  0.30756437  1
  Se  Se218  1  0.75332927  0.08771009  0.79945727  1
  Se  Se219  1  0.75878633  0.41853611  0.30166906  1
  Se  Se220  1  0.75139352  0.42603101  0.81145784  1
  Se  Se221  1  0.74806977  0.74281764  0.30020893  1
  Se  Se222  1  0.75140956  0.75122599  0.80758628  1
  Se  Se223  1  0.24555551  0.08645862  0.20469387  1
  Se  Se224  1  0.24837477  0.08858873  0.68755387  1
  Se  Se225  1  0.24608908  0.42466904  0.18143639  1
  Se  Se226  1  0.24796344  0.41570705  0.70043298  1
  Se  Se227  1  0.25224170  0.74509523  0.18427919  1
  Se  Se228  1  0.25029869  0.74377900  0.70461829  1
  Se  Se229  1  0.57864302  0.09089627  0.18804017  1
  Se  Se230  1  0.57590936  0.09858327  0.68627820  1
  Se  Se231  1  0.58705377  0.41536431  0.19566450  1
  Se  Se232  1  0.57046029  0.43153250  0.69578085  1
  Se  Se233  1  0.57797424  0.74536743  0.19536069  1
  Se  Se234  1  0.57753426  0.75619366  0.69075126  1
  Se  Se235  1  0.90965795  0.09074659  0.19871906  1
  Se  Se236  1  0.91924006  0.08442269  0.68443271  1
  Se  Se237  1  0.92675914  0.42386508  0.19451220  1
  Se  Se238  1  0.90877163  0.42003097  0.68934444  1
  Se  Se239  1  0.92069531  0.74942917  0.19349950  1
  Se  Se240  1  0.92643261  0.73956333  0.70139865  1
  Se  Se241  1  0.07278568  0.25991669  0.21265105  1
  Se  Se242  1  0.09285501  0.24430024  0.69061398  1
  Se  Se243  1  0.08454785  0.58782323  0.18541898  1
  Se  Se244  1  0.08017476  0.57768911  0.69980402  1
  Se  Se245  1  0.09339014  0.90823761  0.18522410  1
  Se  Se246  1  0.09661122  0.90067553  0.69497964  1
  Se  Se247  1  0.42370223  0.24993223  0.18598553  1
  Se  Se248  1  0.41201971  0.25934224  0.69573180  1
  Se  Se249  1  0.41312473  0.58044535  0.18849769  1
  Se  Se250  1  0.41418411  0.58674504  0.70283258  1
  Se  Se251  1  0.41229930  0.91463328  0.19178549  1
  Se  Se252  1  0.42589447  0.90627184  0.69110294  1
  Se  Se253  1  0.76510656  0.24022696  0.20458611  1
  Se  Se254  1  0.75518957  0.24774367  0.68273714  1
  Se  Se255  1  0.75479787  0.58142926  0.19437554  1
  Se  Se256  1  0.75910917  0.57565702  0.69099698  1
  Se  Se257  1  0.75044730  0.90848520  0.19215255  1
  Se  Se258  1  0.76654291  0.90434967  0.68939155  1
