# generated using pymatgen
data_In86Cu29Se144
_symmetry_space_group_name_H-M   'P 1'
_cell_length_a   17.57144787
_cell_length_b   17.57149691
_cell_length_c   23.42518908
_cell_angle_alpha   90.00881736
_cell_angle_beta   90.01634561
_cell_angle_gamma   90.00005521
_symmetry_Int_Tables_number   1
_chemical_formula_structural   In86Cu29Se144
_chemical_formula_sum   'In86 Cu29 Se144'
_cell_volume   7232.68233506
_cell_formula_units_Z   1
loop_
 _symmetry_equiv_pos_site_id
 _symmetry_equiv_pos_as_xyz
  1  'x, y, z'
loop_
 _atom_site_type_symbol
 _atom_site_label
 _atom_site_symmetry_multiplicity
 _atom_site_fract_x
 _atom_site_fract_y
 _atom_site_fract_z
 _atom_site_occupancy
  In  In0  1  -0.00586582  0.16698744  0.11286762  1
  In  In1  1  0.01808857  0.17924392  0.62112215  1
  In  In2  1  -0.00963309  0.49835749  0.12517945  1
  In  In3  1  -0.00022770  0.50125000  0.63353716  1
  In  In4  1  0.00885361  0.82298768  0.11909610  1
  In  In5  1  -0.01272203  0.82548008  0.62455220  1
  In  In6  1  0.32755082  0.16836839  0.12559727  1
  In  In7  1  0.33010779  0.17962085  0.63824170  1
  In  In8  1  0.34183035  0.49762566  0.13928949  1
  In  In9  1  0.34428394  0.48669960  0.63401740  1
  In  In10  1  0.32362551  0.84175226  0.13482795  1
  In  In11  1  0.33998671  0.82651990  0.62535041  1
  In  In12  1  0.66835249  0.16648955  0.13100699  1
  In  In13  1  0.66044824  0.16094252  0.62963760  1
  In  In14  1  0.65740890  0.50376599  0.14815264  1
  In  In15  1  0.65021462  0.47822102  0.60068757  1
  In  In16  1  0.66042993  0.84175741  0.13826205  1
  In  In17  1  0.66808013  0.83881759  0.61535742  1
  In  In18  1  0.18215030  0.00472581  0.37458794  1
  In  In19  1  0.17296722  -0.00688247  0.87913034  1
  In  In20  1  0.17526991  0.31892102  0.37905455  1
  In  In21  1  0.14760396  0.31283650  0.84603503  1
  In  In22  1  0.17306989  0.66006916  0.37167668  1
  In  In23  1  0.17291662  0.67747665  0.86400980  1
  In  In24  1  0.49109988  -0.00985658  0.37216088  1
  In  In25  1  0.50320135  0.00835826  0.85474674  1
  In  In26  1  0.50573383  0.34181904  0.37401503  1
  In  In27  1  0.48912586  0.31332410  0.85130067  1
  In  In28  1  0.50529258  0.66646561  0.37940005  1
  In  In29  1  0.48555132  0.67732039  0.87656411  1
  In  In30  1  0.82116542  0.01332244  0.38479710  1
  In  In31  1  0.84475938  0.01467821  0.87303062  1
  In  In32  1  0.79609384  0.36171609  0.41721877  1
  In  In33  1  0.82541123  0.32439309  0.86482458  1
  In  In34  1  0.82072312  0.68137118  0.38734899  1
  In  In35  1  0.83115676  0.64852523  0.87344836  1
  In  In36  1  -0.00697972  0.17188888  0.38528878  1
  In  In37  1  -0.00666366  0.16728954  0.87607506  1
  In  In38  1  -0.00130091  0.48837647  0.38057398  1
  In  In39  1  0.00727697  0.50192934  0.84749287  1
  In  In40  1  -0.00167864  0.82143317  0.37620046  1
  In  In41  1  0.01560454  0.84665252  0.87300312  1
  In  In42  1  0.33528907  0.16590252  0.37229157  1
  In  In43  1  0.31585697  0.14587282  0.84516316  1
  In  In44  1  0.35009682  0.50492679  0.36754364  1
  In  In45  1  0.31315022  0.48930355  0.85550598  1
  In  In46  1  0.33590715  0.84676580  0.36954322  1
  In  In47  1  0.32726470  0.82480194  0.86757825  1
  In  In48  1  0.67105819  0.17297387  0.37613936  1
  In  In49  1  0.67858930  0.17489133  0.86344690  1
  In  In50  1  0.65684095  0.50420598  0.38118260  1
  In  In51  1  0.67342327  0.48801234  0.87344830  1
  In  In52  1  0.66646999  0.83541103  0.37782287  1
  In  In53  1  0.65068344  0.83601024  0.87586774  1
  In  In54  1  0.17052483  0.00155072  0.11689574  1
  In  In55  1  0.17384391  0.02336815  0.62709841  1
  In  In56  1  0.17781993  0.32814135  0.12171253  1
  In  In57  1  0.18564675  0.31701719  0.64816634  1
  In  In58  1  0.17227425  0.67749720  0.12084475  1
  In  In59  1  0.17614726  0.64796181  0.64365777  1
  In  In60  1  0.50125889  -0.00032357  0.13488952  1
  In  In61  1  0.50685041  0.00023619  0.63116610  1
  In  In62  1  0.49867457  0.33447105  0.14169700  1
  In  In63  1  0.49527158  0.33597136  0.62760114  1
  In  In64  1  0.48423370  0.67632044  0.14490097  1
  In  In65  1  0.49369358  0.65797892  0.61316178  1
  In  In66  1  0.82249716  0.01322674  0.12868350  1
  In  In67  1  0.82449995  -0.00890380  0.61858406  1
  In  In68  1  0.83225316  0.32649584  0.12587087  1
  In  In69  1  0.83132061  0.32974094  0.62158919  1
  In  In70  1  0.83395887  0.65752370  0.13214117  1
  In  In71  1  0.83169143  0.66380760  0.62148962  1
  In  In72  1  0.84182488  0.84160727  0.00135161  1
  In  In73  1  0.49708829  0.17604880  0.50399287  1
  In  In74  1  0.83723248  0.48419171  0.00129252  1
  In  In75  1  0.49954797  0.16745400  -0.00462784  1
  In  In76  1  0.16795118  0.49441800  0.50531714  1
  In  In77  1  0.16495834  0.49467827  -0.00471288  1
  In  In78  1  0.66464150  0.66054574  0.74589430  1
  In  In79  1  0.15965261  0.83570316  0.50300553  1
  In  In80  1  0.49833984  0.49599708  0.00285086  1
  In  In81  1  0.00063752  -0.00015393  0.24257454  1
  In  In82  1  0.49176752  0.84041254  0.00738550  1
  In  In83  1  0.00290955  0.66510830  0.24946661  1
  In  In84  1  -0.00131523  -0.00224472  0.74570044  1
  In  In85  1  -0.00338335  0.32867796  0.25479679  1
  Cu  Cu86  1  0.49933781  0.83409317  0.74562110  1
  Cu  Cu87  1  0.66594801  0.66572496  0.01593864  1
  Cu  Cu88  1  0.82269345  0.82706984  0.74268186  1
  Cu  Cu89  1  0.00408790  0.32940657  0.50755955  1
  Cu  Cu90  1  0.00739056  0.00720846  -0.00257901  1
  Cu  Cu91  1  0.32738507  0.66262839  -0.00683341  1
  Cu  Cu92  1  0.00079283  0.00181836  0.50672892  1
  Cu  Cu93  1  0.82257760  0.18124856  0.25955318  1
  Cu  Cu94  1  0.17895326  0.49783985  0.25067409  1
  Cu  Cu95  1  0.33411756  -0.00267958  -0.00718795  1
  Cu  Cu96  1  0.67583418  0.01370119  -0.00120870  1
  Cu  Cu97  1  0.16682835  0.83759373  0.74768710  1
  Cu  Cu98  1  0.33343354  0.00718951  0.49876053  1
  Cu  Cu99  1  0.00953224  0.67319672  -0.01028535  1
  Cu  Cu100  1  0.82504314  0.49212825  0.74220536  1
  Cu  Cu101  1  0.83669862  0.16344399  0.74436288  1
  Cu  Cu102  1  0.50415147  0.50676665  0.74218244  1
  Cu  Cu103  1  0.50016079  0.16129022  0.25616467  1
  Cu  Cu104  1  -0.00378442  0.66712085  0.50659488  1
  Cu  Cu105  1  0.67002887  0.66882606  0.49810943  1
  Cu  Cu106  1  0.82874184  0.84166419  0.25840551  1
  Cu  Cu107  1  0.50529248  0.82670120  0.25721433  1
  Cu  Cu108  1  0.16838914  0.16127292  0.24926351  1
  Cu  Cu109  1  0.82453594  0.50405939  0.26734468  1
  Cu  Cu110  1  0.32913651  0.32397901  -0.00313720  1
  Cu  Cu111  1  -0.00240452  0.32798255  -0.01197772  1
  Cu  Cu112  1  0.33844185  0.66827065  0.49775085  1
  Cu  Cu113  1  0.65712525  -0.00294313  0.50199508  1
  Cu  Cu114  1  0.66532143  0.33065179  -0.00488007  1
  Se  Se115  1  0.09018298  0.09116621  0.05143312  1
  Se  Se116  1  0.08981308  0.08781340  0.55066748  1
  Se  Se117  1  0.06988609  0.40562560  0.05691982  1
  Se  Se118  1  0.08447182  0.40597803  0.56932975  1
  Se  Se119  1  0.09266921  0.75250133  0.04532313  1
  Se  Se120  1  0.08576718  0.73639441  0.56656766  1
  Se  Se121  1  0.41528169  0.07260094  0.05697853  1
  Se  Se122  1  0.41082794  0.08274104  0.56418105  1
  Se  Se123  1  0.40731829  0.40162781  0.06059571  1
  Se  Se124  1  0.41419027  0.41422421  0.55605821  1
  Se  Se125  1  0.40618150  0.73991072  0.05920880  1
  Se  Se126  1  0.42000739  0.75559172  0.54899631  1
  Se  Se127  1  0.75390452  0.09801017  0.05389255  1
  Se  Se128  1  0.73969459  0.07999468  0.55624508  1
  Se  Se129  1  0.73504232  0.41315946  0.06296374  1
  Se  Se130  1  0.76374198  0.41858329  0.54698823  1
  Se  Se131  1  0.75109619  0.75205057  0.06494848  1
  Se  Se132  1  0.75344096  0.75094405  0.55274048  1
  Se  Se133  1  0.24527194  0.23976131  0.04901927  1
  Se  Se134  1  0.25325090  0.25492562  0.56334966  1
  Se  Se135  1  0.25872455  0.57736786  0.05862434  1
  Se  Se136  1  0.25895297  0.58931507  0.55987633  1
  Se  Se137  1  0.25667756  0.91461414  0.05188487  1
  Se  Se138  1  0.25366820  0.92475057  0.56022167  1
  Se  Se139  1  0.58276246  0.25826361  0.06043925  1
  Se  Se140  1  0.59506240  0.26133316  0.55891679  1
  Se  Se141  1  0.58039771  0.58719097  0.07065933  1
  Se  Se142  1  0.58084605  0.58329159  0.54365713  1
  Se  Se143  1  0.59558196  0.93038956  0.05731340  1
  Se  Se144  1  0.57092499  0.91504086  0.55331993  1
  Se  Se145  1  0.91117364  0.25573613  0.04847461  1
  Se  Se146  1  0.91744341  0.24363628  0.55558408  1
  Se  Se147  1  0.92564850  0.59550836  0.05099638  1
  Se  Se148  1  0.91888147  0.57739642  0.55831486  1
  Se  Se149  1  0.92812013  0.93271729  0.06526819  1
  Se  Se150  1  0.91710913  0.91306614  0.55316457  1
  Se  Se151  1  0.08583356  0.24996010  0.44946034  1
  Se  Se152  1  0.08811208  0.25059789  0.93645821  1
  Se  Se153  1  0.07778054  0.59061303  0.44418862  1
  Se  Se154  1  0.07861755  0.58388791  0.93040790  1
  Se  Se155  1  0.07545701  0.92671383  0.43800792  1
  Se  Se156  1  0.08920091  0.91642652  0.95200297  1
  Se  Se157  1  0.40801433  0.26083479  0.44110562  1
  Se  Se158  1  0.40735922  0.24828907  0.93293638  1
  Se  Se159  1  0.41984705  0.58114628  0.44683859  1
  Se  Se160  1  0.40467203  0.57683135  0.93608830  1
  Se  Se161  1  0.41192030  0.91659470  0.44922213  1
  Se  Se162  1  0.41899308  0.92421836  0.93110059  1
  Se  Se163  1  0.76010667  0.22897003  0.45315612  1
  Se  Se164  1  0.75182740  0.24929740  0.94343978  1
  Se  Se165  1  0.75326132  0.58009423  0.44855759  1
  Se  Se166  1  0.73858097  0.58353217  0.95109923  1
  Se  Se167  1  0.74747910  0.91789234  0.44910778  1
  Se  Se168  1  0.74594116  0.92367668  0.93839396  1
  Se  Se169  1  0.25061819  0.09138648  0.44727490  1
  Se  Se170  1  0.25918763  0.08662409  0.93779217  1
  Se  Se171  1  0.25664944  0.41823617  0.43646014  1
  Se  Se172  1  0.24926379  0.40283299  0.93507321  1
  Se  Se173  1  0.25184125  0.74716522  0.44253047  1
  Se  Se174  1  0.24721965  0.75193115  0.94370709  1
  Se  Se175  1  0.57841171  0.07886774  0.44089645  1
  Se  Se176  1  0.59144946  0.08048393  0.93374031  1
  Se  Se177  1  0.58831531  0.40973932  0.44990713  1
  Se  Se178  1  0.57904332  0.40438991  0.93571699  1
  Se  Se179  1  0.58467079  0.75390381  0.44806606  1
  Se  Se180  1  0.58518119  0.74131587  0.95178065  1
  Se  Se181  1  0.91568131  0.08323990  0.45193793  1
  Se  Se182  1  0.91583381  0.08802142  0.95136880  1
  Se  Se183  1  0.92342856  0.41864229  0.45791958  1
  Se  Se184  1  0.92675743  0.41576460  0.92677590  1
  Se  Se185  1  0.91757374  0.75416056  0.45288992  1
  Se  Se186  1  0.91873532  0.74685442  0.93313306  1
  Se  Se187  1  0.25087128  0.24727749  0.30088011  1
  Se  Se188  1  0.27603243  0.27463671  0.80233344  1
  Se  Se189  1  0.25812600  0.58579896  0.30208080  1
  Se  Se190  1  0.25955033  0.60051477  0.79759082  1
  Se  Se191  1  0.24185295  0.91515239  0.30173828  1
  Se  Se192  1  0.25074402  0.91838181  0.80270737  1
  Se  Se193  1  0.58170977  0.24754404  0.30768299  1
  Se  Se194  1  0.60298526  0.26144010  0.79589744  1
  Se  Se195  1  0.58998604  0.59139548  0.30793231  1
  Se  Se196  1  0.57503920  0.57974330  0.81597066  1
  Se  Se197  1  0.58622097  0.91751547  0.30606545  1
  Se  Se198  1  0.58801724  0.91456774  0.79627790  1
  Se  Se199  1  0.90318359  0.25674577  0.32138986  1
  Se  Se200  1  0.91799594  0.24620531  0.80051030  1
  Se  Se201  1  0.91486596  0.58380718  0.31833172  1
  Se  Se202  1  0.90519710  0.58208583  0.79345686  1
  Se  Se203  1  0.91487031  0.91894718  0.31422838  1
  Se  Se204  1  0.90572395  0.90579353  0.80595136  1
  Se  Se205  1  0.08136222  0.09060555  0.31010348  1
  Se  Se206  1  0.08546915  0.08108487  0.81121180  1
  Se  Se207  1  0.09473309  0.42037776  0.30924917  1
  Se  Se208  1  0.10179619  0.42828218  0.78606134  1
  Se  Se209  1  0.09548446  0.75758803  0.30475708  1
  Se  Se210  1  0.07932457  0.75736508  0.80026873  1
  Se  Se211  1  0.41196030  0.07737149  0.30380488  1
  Se  Se212  1  0.43664930  0.10466159  0.78968316  1
  Se  Se213  1  0.41280272  0.40495016  0.30209894  1
  Se  Se214  1  0.42077026  0.42334274  0.79717915  1
  Se  Se215  1  0.41766928  0.75021785  0.31181229  1
  Se  Se216  1  0.41535812  0.74948867  0.79726299  1
  Se  Se217  1  0.74673568  0.08368626  0.30492228  1
  Se  Se218  1  0.75618177  0.07869906  0.79997255  1
  Se  Se219  1  0.74919240  0.41436855  0.31995889  1
  Se  Se220  1  0.74294362  0.40963307  0.79677837  1
  Se  Se221  1  0.74955657  0.75184628  0.30688670  1
  Se  Se222  1  0.74955273  0.75174775  0.81275238  1
  Se  Se223  1  0.24824521  0.07861819  0.19218911  1
  Se  Se224  1  0.25116886  0.08956582  0.70478898  1
  Se  Se225  1  0.25190024  0.40697041  0.19608394  1
  Se  Se226  1  0.22499273  0.44627205  0.69236926  1
  Se  Se227  1  0.26611361  0.73092692  0.19373435  1
  Se  Se228  1  0.25161858  0.75391335  0.69615090  1
  Se  Se229  1  0.58650700  0.08277152  0.19927227  1
  Se  Se230  1  0.58840018  0.07673948  0.70291795  1
  Se  Se231  1  0.58508178  0.40885070  0.20963563  1
  Se  Se232  1  0.58661941  0.42160545  0.69082411  1
  Se  Se233  1  0.59070534  0.74578683  0.20237190  1
  Se  Se234  1  0.57799980  0.75120816  0.68515641  1
  Se  Se235  1  0.90762740  0.10537214  0.19648529  1
  Se  Se236  1  0.91487986  0.08551877  0.68100088  1
  Se  Se237  1  0.90302794  0.42812273  0.20031716  1
  Se  Se238  1  0.91438943  0.40947789  0.69412479  1
  Se  Se239  1  0.90931669  0.76306367  0.19454096  1
  Se  Se240  1  0.91013005  0.74328753  0.69665589  1
  Se  Se241  1  0.08435972  0.24149461  0.18948029  1
  Se  Se242  1  0.08414335  0.24393682  0.70628090  1
  Se  Se243  1  0.09183542  0.57116759  0.18835326  1
  Se  Se244  1  0.06342407  0.59942527  0.70172983  1
  Se  Se245  1  0.09209239  0.90634534  0.18872668  1
  Se  Se246  1  0.08942249  0.91169020  0.68204201  1
  Se  Se247  1  0.41508402  0.23912020  0.19779336  1
  Se  Se248  1  0.43766816  0.23939327  0.69947091  1
  Se  Se249  1  0.43659978  0.56433188  0.20511732  1
  Se  Se250  1  0.41722107  0.59021410  0.69349491  1
  Se  Se251  1  0.42323081  0.90950447  0.19921441  1
  Se  Se252  1  0.41380881  0.91745146  0.69399066  1
  Se  Se253  1  0.74384124  0.25931629  0.19809191  1
  Se  Se254  1  0.75135419  0.24577747  0.69227599  1
  Se  Se255  1  0.75048768  0.58971616  0.20687220  1
  Se  Se256  1  0.74198339  0.56874010  0.68100875  1
  Se  Se257  1  0.75195293  0.92502950  0.19940650  1
  Se  Se258  1  0.74360399  0.91481166  0.69312562  1
