# generated using pymatgen
data_In86Cu29Se144
_symmetry_space_group_name_H-M   'P 1'
_cell_length_a   17.56222554
_cell_length_b   17.56162112
_cell_length_c   23.41652877
_cell_angle_alpha   90.00927995
_cell_angle_beta   90.01035079
_cell_angle_gamma   89.99504167
_symmetry_Int_Tables_number   1
_chemical_formula_structural   In86Cu29Se144
_chemical_formula_sum   'In86 Cu29 Se144'
_cell_volume   7222.15251401
_cell_formula_units_Z   1
loop_
 _symmetry_equiv_pos_site_id
 _symmetry_equiv_pos_as_xyz
  1  'x, y, z'
loop_
 _atom_site_type_symbol
 _atom_site_label
 _atom_site_symmetry_multiplicity
 _atom_site_fract_x
 _atom_site_fract_y
 _atom_site_fract_z
 _atom_site_occupancy
  In  In0  1  -0.02590109  0.18789798  0.15330075  1
  In  In1  1  0.02020028  0.18918036  0.59989386  1
  In  In2  1  0.00078105  0.49709118  0.12654527  1
  In  In3  1  -0.00259613  0.48915794  0.61178352  1
  In  In4  1  -0.00892746  0.84002094  0.13868878  1
  In  In5  1  -0.00227121  0.83037311  0.61054766  1
  In  In6  1  0.34752821  0.17113395  0.12213450  1
  In  In7  1  0.32244272  0.17988750  0.64128417  1
  In  In8  1  0.33052229  0.49689435  0.12684616  1
  In  In9  1  0.31533771  0.49279630  0.62337961  1
  In  In10  1  0.34126503  0.82002032  0.13382732  1
  In  In11  1  0.33958686  0.84406050  0.62322471  1
  In  In12  1  0.66235297  0.19066511  0.14688261  1
  In  In13  1  0.66862994  0.16275765  0.62168393  1
  In  In14  1  0.67196572  0.49394317  0.12519102  1
  In  In15  1  0.67541690  0.48881694  0.62274994  1
  In  In16  1  0.64660805  0.84013480  0.13960881  1
  In  In17  1  0.67019675  0.83823788  0.61816609  1
  In  In18  1  0.15034939  0.01628130  0.38674789  1
  In  In19  1  0.17441743  -0.01562881  0.87448002  1
  In  In20  1  0.16297611  0.33295830  0.37655001  1
  In  In21  1  0.17035281  0.33039927  0.87513318  1
  In  In22  1  0.16685566  0.66634220  0.37184545  1
  In  In23  1  0.15245794  0.65931115  0.87571129  1
  In  In24  1  0.51735875  -0.00595561  0.36935401  1
  In  In25  1  0.48668775  0.00926768  0.88932989  1
  In  In26  1  0.50300993  0.33113617  0.36317450  1
  In  In27  1  0.49554584  0.33533902  0.88625256  1
  In  In28  1  0.50091945  0.68369227  0.34843269  1
  In  In29  1  0.50892889  0.65864842  0.89061956  1
  In  In30  1  0.83029644  -0.00086977  0.36759242  1
  In  In31  1  0.84645890  0.00928814  0.87365447  1
  In  In32  1  0.84261634  0.33691873  0.37254812  1
  In  In33  1  0.84043960  0.33652020  0.87392229  1
  In  In34  1  0.83884097  0.66435575  0.37420138  1
  In  In35  1  0.82598711  0.66361722  0.87350782  1
  In  In36  1  -0.00512948  0.17159417  0.36915309  1
  In  In37  1  -0.01470374  0.17889983  0.87526649  1
  In  In38  1  -0.00306841  0.49552606  0.37687838  1
  In  In39  1  0.01499358  0.48069944  0.89792192  1
  In  In40  1  -0.00132156  0.83009736  0.37608924  1
  In  In41  1  0.00533009  0.84541824  0.87645725  1
  In  In42  1  0.31958592  0.16957167  0.37692470  1
  In  In43  1  0.34377099  0.17749612  0.86133037  1
  In  In44  1  0.32161017  0.49223954  0.36443686  1
  In  In45  1  0.34243370  0.48910661  0.88689118  1
  In  In46  1  0.33828407  0.82273517  0.36848565  1
  In  In47  1  0.33174466  0.84295052  0.87376492  1
  In  In48  1  0.69861224  0.18517322  0.34679932  1
  In  In49  1  0.66579420  0.15240942  0.87735985  1
  In  In50  1  0.67971176  0.51074213  0.36243563  1
  In  In51  1  0.67363481  0.48912924  0.89957283  1
  In  In52  1  0.67403210  0.84495452  0.35707566  1
  In  In53  1  0.66925307  0.82100949  0.87929149  1
  In  In54  1  0.16177548  -0.00094110  0.13017887  1
  In  In55  1  0.17415903  0.00647217  0.61529369  1
  In  In56  1  0.14951888  0.35341004  0.13336148  1
  In  In57  1  0.16700551  0.33421373  0.62380942  1
  In  In58  1  0.17256219  0.65625579  0.13444717  1
  In  In59  1  0.15762054  0.65305198  0.60907148  1
  In  In60  1  0.51435139  0.01500021  0.11547802  1
  In  In61  1  0.49895803  -0.00297104  0.62980205  1
  In  In62  1  0.50096352  0.33028400  0.12313340  1
  In  In63  1  0.48651209  0.32000311  0.62707777  1
  In  In64  1  0.50034612  0.66445221  0.12925303  1
  In  In65  1  0.50282674  0.67126509  0.62640746  1
  In  In66  1  0.82621372  0.01065233  0.14580723  1
  In  In67  1  0.83716390  0.00591550  0.61423350  1
  In  In68  1  0.82650591  0.34158083  0.13391048  1
  In  In69  1  0.84946357  0.34662618  0.60610997  1
  In  In70  1  0.83936389  0.65706582  0.13771441  1
  In  In71  1  0.84228840  0.67522280  0.61094379  1
  In  In72  1  0.81683923  0.18717239  0.02010266  1
  In  In73  1  0.00062941  0.00752112  0.74705488  1
  In  In74  1  0.16508249  0.16649225  -0.00070505  1
  In  In75  1  0.50020406  0.83289478  0.49534064  1
  In  In76  1  0.33254818  0.66402667  0.74938761  1
  In  In77  1  0.50364654  0.15964763  0.50157237  1
  In  In78  1  0.66150362  0.00088113  0.74391364  1
  In  In79  1  0.17427072  0.82358038  0.00663061  1
  In  In80  1  0.33158791  0.00455932  0.25329943  1
  In  In81  1  0.83165375  0.82668094  0.00293045  1
  In  In82  1  -0.00387355  0.66283706  0.73759755  1
  In  In83  1  0.50206179  0.50766070  0.49089959  1
  In  In84  1  0.66867070  0.66485459  0.76035672  1
  In  In85  1  0.66485049  0.33045818  0.75912284  1
  Cu  Cu86  1  0.49880363  0.84073932  0.75786016  1
  Cu  Cu87  1  -0.00872781  -0.00561727  0.49016739  1
  Cu  Cu88  1  0.16468020  0.50009170  0.25362882  1
  Cu  Cu89  1  0.16820208  0.17938557  0.25553522  1
  Cu  Cu90  1  0.16737414  0.48595278  0.75447986  1
  Cu  Cu91  1  0.84158102  0.50474185  0.74527973  1
  Cu  Cu92  1  0.32613474  0.00154009  0.49969169  1
  Cu  Cu93  1  0.32686315  0.65906683  0.48694727  1
  Cu  Cu94  1  0.32688819  0.33107837  0.00340505  1
  Cu  Cu95  1  0.16211313  0.83893219  0.25645161  1
  Cu  Cu96  1  0.17000525  0.83312850  0.74124858  1
  Cu  Cu97  1  0.50221042  0.16862863  0.24609913  1
  Cu  Cu98  1  0.67774773  0.33421933  0.49002705  1
  Cu  Cu99  1  0.83702239  0.82275310  0.25562932  1
  Cu  Cu100  1  0.15799706  0.16466088  0.74376869  1
  Cu  Cu101  1  0.83982692  0.17898188  0.74161151  1
  Cu  Cu102  1  0.33472991  0.66240186  0.00880173  1
  Cu  Cu103  1  0.32657582  0.33080225  0.49898654  1
  Cu  Cu104  1  0.00162933  0.66379042  0.49121406  1
  Cu  Cu105  1  0.49684510  0.49552969  0.24259624  1
  Cu  Cu106  1  0.66629714  0.66897168  0.01109256  1
  Cu  Cu107  1  0.67742957  0.00705852  0.48565726  1
  Cu  Cu108  1  0.83536439  0.49756944  0.25357770  1
  Cu  Cu109  1  0.34127128  -0.00329162  -0.00019685  1
  Cu  Cu110  1  0.49517358  0.49069510  0.75905981  1
  Cu  Cu111  1  -0.00368925  0.66075521  0.01035145  1
  Cu  Cu112  1  -0.00456160  0.01234686  0.01320362  1
  Cu  Cu113  1  0.66645314  -0.00626107  0.00431001  1
  Cu  Cu114  1  0.67551713  0.66838096  0.48930332  1
  Se  Se115  1  0.07506207  0.09258646  0.07087236  1
  Se  Se116  1  0.07788220  0.07264823  0.54767831  1
  Se  Se117  1  0.08453742  0.42470321  0.05154213  1
  Se  Se118  1  0.09482168  0.41784204  0.55075344  1
  Se  Se119  1  0.07365076  0.74848897  0.06771532  1
  Se  Se120  1  0.08517206  0.74863106  0.54552648  1
  Se  Se121  1  0.42003010  0.08781092  0.04893418  1
  Se  Se122  1  0.40802606  0.07719441  0.56272849  1
  Se  Se123  1  0.41224965  0.41311232  0.05738231  1
  Se  Se124  1  0.41460281  0.41287686  0.55443123  1
  Se  Se125  1  0.41889532  0.74877598  0.05689975  1
  Se  Se126  1  0.40703715  0.73669415  0.55263402  1
  Se  Se127  1  0.73938775  0.07585261  0.06747401  1
  Se  Se128  1  0.75016366  0.08919506  0.54838426  1
  Se  Se129  1  0.74512241  0.40324708  0.05616215  1
  Se  Se130  1  0.75378226  0.42491828  0.54370384  1
  Se  Se131  1  0.74679019  0.74802129  0.07216546  1
  Se  Se132  1  0.74867089  0.75553484  0.54840168  1
  Se  Se133  1  0.24588414  0.25635601  0.06638040  1
  Se  Se134  1  0.25227519  0.24501393  0.55774580  1
  Se  Se135  1  0.24611989  0.58094968  0.05697126  1
  Se  Se136  1  0.25041231  0.57432950  0.54527911  1
  Se  Se137  1  0.25953628  0.92194160  0.06373544  1
  Se  Se138  1  0.24992860  0.90968204  0.55153234  1
  Se  Se139  1  0.58568293  0.23897968  0.06155482  1
  Se  Se140  1  0.59263090  0.26400221  0.55457604  1
  Se  Se141  1  0.58419535  0.58100796  0.06059015  1
  Se  Se142  1  0.59470111  0.59480153  0.55610492  1
  Se  Se143  1  0.58102617  0.90916044  0.05415401  1
  Se  Se144  1  0.59117335  0.93469414  0.55013642  1
  Se  Se145  1  0.92856454  0.26557267  0.06338196  1
  Se  Se146  1  0.90114206  0.23539652  0.54722359  1
  Se  Se147  1  0.90947422  0.57864272  0.05946245  1
  Se  Se148  1  0.91810678  0.58245663  0.54783995  1
  Se  Se149  1  0.91164900  0.92601589  0.06424793  1
  Se  Se150  1  0.90899058  0.91298643  0.54671655  1
  Se  Se151  1  0.08966115  0.23615587  0.43944545  1
  Se  Se152  1  0.06957230  0.25851059  0.94556334  1
  Se  Se153  1  0.08702303  0.58081511  0.44093766  1
  Se  Se154  1  0.08682821  0.58480884  0.95623510  1
  Se  Se155  1  0.08381735  0.91078265  0.44606489  1
  Se  Se156  1  0.07870787  0.92783247  0.95504705  1
  Se  Se157  1  0.41636744  0.25633546  0.44242629  1
  Se  Se158  1  0.40670876  0.24555556  0.94748275  1
  Se  Se159  1  0.41712498  0.59338529  0.42459291  1
  Se  Se160  1  0.41880938  0.57867570  0.95401585  1
  Se  Se161  1  0.41112359  0.92875933  0.43771995  1
  Se  Se162  1  0.41840608  0.90429023  0.94999269  1
  Se  Se163  1  0.75541645  0.24653579  0.43759075  1
  Se  Se164  1  0.74100938  0.25507834  0.93714536  1
  Se  Se165  1  0.75645086  0.57752365  0.44308277  1
  Se  Se166  1  0.75252202  0.59310713  0.95249519  1
  Se  Se167  1  0.75035483  0.91004277  0.43831855  1
  Se  Se168  1  0.75091607  0.92640203  0.93913375  1
  Se  Se169  1  0.24528960  0.09152244  0.45199755  1
  Se  Se170  1  0.25582922  0.07375768  0.94077109  1
  Se  Se171  1  0.25034090  0.41782035  0.44396091  1
  Se  Se172  1  0.24432484  0.41395061  0.94852252  1
  Se  Se173  1  0.24994690  0.75366026  0.44027408  1
  Se  Se174  1  0.25907258  0.73617523  0.93753635  1
  Se  Se175  1  0.59666029  0.09194985  0.43053106  1
  Se  Se176  1  0.58483432  0.08141696  0.95229597  1
  Se  Se177  1  0.59086375  0.41319652  0.43352712  1
  Se  Se178  1  0.57369329  0.41736699  0.95642562  1
  Se  Se179  1  0.58711495  0.74551959  0.43195776  1
  Se  Se180  1  0.58699819  0.75249913  0.95431487  1
  Se  Se181  1  0.91349541  0.08108415  0.43648500  1
  Se  Se182  1  0.91366387  0.09129732  0.95331116  1
  Se  Se183  1  0.92515249  0.40648486  0.44737694  1
  Se  Se184  1  0.89430551  0.43093120  0.94678561  1
  Se  Se185  1  0.91346052  0.75043159  0.44630826  1
  Se  Se186  1  0.92998961  0.74347515  0.94083509  1
  Se  Se187  1  0.25684567  0.26052506  0.30486369  1
  Se  Se188  1  0.24123775  0.24639711  0.80069618  1
  Se  Se189  1  0.25159933  0.58951522  0.29916689  1
  Se  Se190  1  0.24429145  0.57363255  0.81177829  1
  Se  Se191  1  0.24001045  0.92142801  0.31700459  1
  Se  Se192  1  0.25282439  0.91400217  0.79664857  1
  Se  Se193  1  0.59036552  0.25624582  0.29294574  1
  Se  Se194  1  0.57463900  0.23918049  0.81520449  1
  Se  Se195  1  0.57946975  0.57819994  0.29809432  1
  Se  Se196  1  0.58189660  0.56661243  0.81644343  1
  Se  Se197  1  0.55944818  0.89310529  0.29751347  1
  Se  Se198  1  0.58283285  0.91566789  0.81719122  1
  Se  Se199  1  0.89978264  0.23827035  0.29886598  1
  Se  Se200  1  0.91922122  0.26140592  0.79791514  1
  Se  Se201  1  0.92048422  0.58127533  0.30482565  1
  Se  Se202  1  0.91886204  0.57924709  0.81097284  1
  Se  Se203  1  0.91826711  0.91218518  0.30499874  1
  Se  Se204  1  0.91013887  0.90987685  0.80340428  1
  Se  Se205  1  0.08742566  0.08833808  0.30329944  1
  Se  Se206  1  0.08795152  0.08971074  0.81710167  1
  Se  Se207  1  0.08183245  0.41547229  0.30565290  1
  Se  Se208  1  0.07821755  0.41400305  0.81132509  1
  Se  Se209  1  0.08037370  0.74885958  0.30494128  1
  Se  Se210  1  0.08647818  0.75746663  0.80251856  1
  Se  Se211  1  0.42573672  0.09396689  0.31341723  1
  Se  Se212  1  0.40634361  0.06559979  0.80836396  1
  Se  Se213  1  0.41485166  0.41431458  0.29995828  1
  Se  Se214  1  0.41164732  0.40754196  0.81000237  1
  Se  Se215  1  0.40775552  0.75975158  0.28525743  1
  Se  Se216  1  0.42750819  0.74638056  0.81330795  1
  Se  Se217  1  0.72281422  0.05402346  0.30242710  1
  Se  Se218  1  0.76254460  0.09208470  0.79982640  1
  Se  Se219  1  0.75032387  0.40934279  0.30168202  1
  Se  Se220  1  0.75317499  0.43367860  0.80822120  1
  Se  Se221  1  0.74888204  0.73890964  0.30377078  1
  Se  Se222  1  0.76518452  0.76545715  0.80241744  1
  Se  Se223  1  0.24515087  0.09827602  0.19192907  1
  Se  Se224  1  0.24402981  0.07760663  0.69699736  1
  Se  Se225  1  0.24967912  0.41714649  0.19994088  1
  Se  Se226  1  0.25328018  0.40709006  0.69926188  1
  Se  Se227  1  0.24077702  0.75698232  0.19856078  1
  Se  Se228  1  0.24334658  0.74587665  0.68124894  1
  Se  Se229  1  0.58746480  0.08127754  0.19797413  1
  Se  Se230  1  0.57070482  0.10037685  0.69458207  1
  Se  Se231  1  0.58415653  0.41246326  0.19310414  1
  Se  Se232  1  0.57625771  0.41980555  0.69140533  1
  Se  Se233  1  0.58743761  0.73597154  0.20178969  1
  Se  Se234  1  0.58134037  0.76219712  0.69632452  1
  Se  Se235  1  0.93948156  0.06278219  0.20282932  1
  Se  Se236  1  0.91827055  0.09654983  0.68251611  1
  Se  Se237  1  0.92007313  0.41646914  0.19940675  1
  Se  Se238  1  0.91720493  0.41805239  0.68957730  1
  Se  Se239  1  0.92427203  0.74134571  0.20376381  1
  Se  Se240  1  0.90762213  0.76378429  0.68904551  1
  Se  Se241  1  0.08118341  0.26193393  0.20511611  1
  Se  Se242  1  0.07838903  0.25032805  0.69009533  1
  Se  Se243  1  0.07931875  0.58145745  0.19896755  1
  Se  Se244  1  0.09307188  0.56733224  0.68973429  1
  Se  Se245  1  0.08076875  0.92288661  0.20223918  1
  Se  Se246  1  0.08425090  0.91159576  0.68500678  1
  Se  Se247  1  0.41582854  0.25318508  0.19765587  1
  Se  Se248  1  0.42027280  0.24649109  0.70606656  1
  Se  Se249  1  0.41086842  0.58283528  0.19541840  1
  Se  Se250  1  0.42475784  0.57188975  0.69057699  1
  Se  Se251  1  0.42035662  0.92908925  0.18393911  1
  Se  Se252  1  0.41542824  0.91800945  0.70033392  1
  Se  Se253  1  0.78773965  0.22556627  0.19979311  1
  Se  Se254  1  0.75189638  0.25612948  0.68559639  1
  Se  Se255  1  0.74694621  0.57730530  0.20035459  1
  Se  Se256  1  0.75719571  0.58527951  0.68788644  1
  Se  Se257  1  0.75325855  0.90517750  0.20027269  1
  Se  Se258  1  0.75951664  0.91554874  0.68887801  1
