# generated using pymatgen
data_In86Cu29Se144
_symmetry_space_group_name_H-M   'P 1'
_cell_length_a   17.58216217
_cell_length_b   17.58648023
_cell_length_c   23.44687325
_cell_angle_alpha   89.98872263
_cell_angle_beta   89.99248347
_cell_angle_gamma   90.01153568
_symmetry_Int_Tables_number   1
_chemical_formula_structural   In86Cu29Se144
_chemical_formula_sum   'In86 Cu29 Se144'
_cell_volume   7249.96857751
_cell_formula_units_Z   1
loop_
 _symmetry_equiv_pos_site_id
 _symmetry_equiv_pos_as_xyz
  1  'x, y, z'
loop_
 _atom_site_type_symbol
 _atom_site_label
 _atom_site_symmetry_multiplicity
 _atom_site_fract_x
 _atom_site_fract_y
 _atom_site_fract_z
 _atom_site_occupancy
  In  In0  1  0.00740184  0.15596121  0.12914864  1
  In  In1  1  -0.01713114  0.16336218  0.62492115  1
  In  In2  1  0.01179771  0.50217736  0.14433256  1
  In  In3  1  0.00726036  0.50206637  0.61997326  1
  In  In4  1  0.00021416  0.83600870  0.12735292  1
  In  In5  1  0.00258443  0.84341867  0.62079638  1
  In  In6  1  0.34000997  0.17187745  0.11754883  1
  In  In7  1  0.33760221  0.17280405  0.62942891  1
  In  In8  1  0.31658615  0.49325127  0.12887777  1
  In  In9  1  0.35357150  0.48491834  0.63884400  1
  In  In10  1  0.33707834  0.82803441  0.10784890  1
  In  In11  1  0.32626934  0.82543990  0.62474193  1
  In  In12  1  0.65974275  0.17003233  0.13095748  1
  In  In13  1  0.67871239  0.15762649  0.63748971  1
  In  In14  1  0.67067217  0.49659619  0.13454827  1
  In  In15  1  0.64810818  0.49772593  0.61705314  1
  In  In16  1  0.66924400  0.83409772  0.12728536  1
  In  In17  1  0.67335509  0.84219649  0.61514818  1
  In  In18  1  0.15029018  0.00120848  0.37457219  1
  In  In19  1  0.15642757  0.00929317  0.87988219  1
  In  In20  1  0.17221018  0.34202668  0.36035982  1
  In  In21  1  0.17047134  0.32116524  0.87204033  1
  In  In22  1  0.16515255  0.68004581  0.37362322  1
  In  In23  1  0.18706148  0.67506662  0.87708361  1
  In  In24  1  0.50225970  -0.01691314  0.37636594  1
  In  In25  1  0.50786269  -0.00469811  0.87832088  1
  In  In26  1  0.51131560  0.33900990  0.37511917  1
  In  In27  1  0.48663580  0.32363390  0.87104811  1
  In  In28  1  0.50481799  0.65789121  0.37817472  1
  In  In29  1  0.49457672  0.68173309  0.87877422  1
  In  In30  1  0.83004316  0.00197289  0.37398880  1
  In  In31  1  0.82201183  -0.00361241  0.86547337  1
  In  In32  1  0.82210404  0.32075588  0.37252828  1
  In  In33  1  0.82902957  0.32817247  0.86753363  1
  In  In34  1  0.84094128  0.67666158  0.36855198  1
  In  In35  1  0.84732984  0.67151845  0.87644921  1
  In  In36  1  -0.00971461  0.15571970  0.36684609  1
  In  In37  1  0.02232675  0.15844938  0.87491659  1
  In  In38  1  0.00619098  0.50293685  0.36096503  1
  In  In39  1  0.00127768  0.49503088  0.87833542  1
  In  In40  1  -0.00416898  0.83756085  0.37442679  1
  In  In41  1  -0.01030196  0.84547680  0.88482105  1
  In  In42  1  0.32844371  0.17324842  0.37638341  1
  In  In43  1  0.32214936  0.17821420  0.87909094  1
  In  In44  1  0.34752669  0.49640303  0.37820557  1
  In  In45  1  0.32779927  0.50176665  0.86306487  1
  In  In46  1  0.33388876  0.82390102  0.38407447  1
  In  In47  1  0.33996497  0.82626486  0.88364840  1
  In  In48  1  0.67937782  0.17994903  0.37165122  1
  In  In49  1  0.65533391  0.15249045  0.86449643  1
  In  In50  1  0.65170615  0.48697268  0.37090631  1
  In  In51  1  0.67754917  0.49052007  0.87122651  1
  In  In52  1  0.66751551  0.83572496  0.37019285  1
  In  In53  1  0.66040263  0.84557012  0.88082101  1
  In  In54  1  0.16055036  -0.00776061  0.11887058  1
  In  In55  1  0.16617367  -0.01281154  0.62948705  1
  In  In56  1  0.17589382  0.32861802  0.13383459  1
  In  In57  1  0.17786863  0.34122346  0.62460934  1
  In  In58  1  0.15946500  0.66635556  0.12698356  1
  In  In59  1  0.16716391  0.67522053  0.62809436  1
  In  In60  1  0.50529112  0.00356376  0.11935162  1
  In  In61  1  0.51526357  0.00317375  0.62529491  1
  In  In62  1  0.50703979  0.32509996  0.13122767  1
  In  In63  1  0.49458250  0.33941552  0.62676746  1
  In  In64  1  0.49868524  0.68032433  0.12340534  1
  In  In65  1  0.49323621  0.66084038  0.61934841  1
  In  In66  1  0.84240785  -0.01076060  0.13265387  1
  In  In67  1  0.83272418  -0.00134246  0.62549404  1
  In  In68  1  0.83188097  0.33528658  0.13433469  1
  In  In69  1  0.83209325  0.31184368  0.61653375  1
  In  In70  1  0.82788922  0.67356788  0.13429994  1
  In  In71  1  0.81572011  0.67316274  0.61919631  1
  In  In72  1  0.32988060  0.00401105  0.75345986  1
  In  In73  1  0.49701107  0.50300347  -0.00204300  1
  In  In74  1  0.16568862  0.50745805  0.00544000  1
  In  In75  1  0.33486544  -0.00012498  0.24493320  1
  In  In76  1  0.00385317  0.66673175  0.74664657  1
  In  In77  1  0.83345544  0.16042754  -0.00006338  1
  In  In78  1  0.17331940  0.50466197  0.49467748  1
  In  In79  1  0.82738724  0.49990249  0.49093882  1
  In  In80  1  0.16320331  0.16753754  0.50378147  1
  In  In81  1  0.00537352  0.32560625  0.74891074  1
  In  In82  1  0.50628105  0.16668586  0.50266703  1
  In  In83  1  0.33033979  0.66071641  0.24623714  1
  In  In84  1  0.66014112  0.66704361  0.74818230  1
  In  In85  1  0.83518911  0.50852019  0.00912240  1
  Cu  Cu86  1  0.33126977  0.33148404  0.00088297  1
  Cu  Cu87  1  0.50199960  0.49508302  0.25251137  1
  Cu  Cu88  1  0.16456156  0.83353325  0.75293235  1
  Cu  Cu89  1  0.66823681  -0.00424283  0.00008212  1
  Cu  Cu90  1  0.83029009  0.16684593  0.25008391  1
  Cu  Cu91  1  0.50780772  0.83068327  0.24849331  1
  Cu  Cu92  1  -0.00181595  0.32538309  0.48996652  1
  Cu  Cu93  1  0.83174188  0.50323040  0.25632888  1
  Cu  Cu94  1  0.33614035  0.00301546  -0.00566415  1
  Cu  Cu95  1  0.66982894  0.67571916  0.00512218  1
  Cu  Cu96  1  -0.00530529  0.67796877  0.49967170  1
  Cu  Cu97  1  0.33189107  0.66825178  0.50271197  1
  Cu  Cu98  1  0.83388567  0.83808185  0.25114244  1
  Cu  Cu99  1  0.16346426  0.16970746  0.24978487  1
  Cu  Cu100  1  -0.00908395  -0.00544962  0.49632258  1
  Cu  Cu101  1  0.66969995  -0.00127234  0.49954567  1
  Cu  Cu102  1  0.00201961  0.32994241  0.00180563  1
  Cu  Cu103  1  0.49995500  0.83678030  0.75360207  1
  Cu  Cu104  1  0.00318062  -0.00123369  0.00395970  1
  Cu  Cu105  1  0.00190704  0.67923000  0.00551077  1
  Cu  Cu106  1  0.65844138  0.32210854  0.00190497  1
  Cu  Cu107  1  0.16266049  0.84027110  0.25053125  1
  Cu  Cu108  1  0.82834085  0.83667501  0.74924773  1
  Cu  Cu109  1  0.49781389  0.16690011  0.24869722  1
  Cu  Cu110  1  0.49979231  0.50165201  0.74709664  1
  Cu  Cu111  1  0.66299623  0.67611021  0.49274938  1
  Cu  Cu112  1  0.83170016  0.48746091  0.74416919  1
  Cu  Cu113  1  0.50104905  0.17153586  0.74914444  1
  Cu  Cu114  1  0.33051822  -0.01001917  0.50256169  1
  Se  Se115  1  0.08678126  0.08709800  0.05159197  1
  Se  Se116  1  0.07544077  0.07077874  0.55814409  1
  Se  Se117  1  0.07617609  0.41388642  0.06300095  1
  Se  Se118  1  0.07836792  0.40637311  0.54965719  1
  Se  Se119  1  0.08925125  0.75761731  0.05798753  1
  Se  Se120  1  0.08193048  0.75025646  0.55763258  1
  Se  Se121  1  0.41909889  0.08339934  0.05182954  1
  Se  Se122  1  0.40889566  0.07470363  0.55994342  1
  Se  Se123  1  0.41057492  0.41203017  0.06137181  1
  Se  Se124  1  0.42344278  0.42557545  0.55441598  1
  Se  Se125  1  0.42408308  0.74608814  0.04419407  1
  Se  Se126  1  0.41607447  0.75365009  0.55442219  1
  Se  Se127  1  0.74518946  0.07504754  0.06395334  1
  Se  Se128  1  0.74791717  0.08185044  0.55695587  1
  Se  Se129  1  0.74141396  0.40661075  0.05637180  1
  Se  Se130  1  0.74700559  0.41264827  0.55821882  1
  Se  Se131  1  0.75702599  0.75386450  0.05775213  1
  Se  Se132  1  0.75035879  0.75645157  0.54384268  1
  Se  Se133  1  0.24488559  0.25130683  0.05477894  1
  Se  Se134  1  0.26268736  0.25786816  0.55312282  1
  Se  Se135  1  0.26232623  0.59740402  0.05888381  1
  Se  Se136  1  0.25642141  0.58560520  0.56469089  1
  Se  Se137  1  0.25331842  0.92172378  0.05040455  1
  Se  Se138  1  0.24447343  0.91048072  0.55597475  1
  Se  Se139  1  0.57606884  0.24130052  0.05525562  1
  Se  Se140  1  0.59114680  0.24854763  0.56978721  1
  Se  Se141  1  0.59430243  0.58521841  0.05969889  1
  Se  Se142  1  0.58321196  0.59107818  0.54763194  1
  Se  Se143  1  0.58512364  0.91250980  0.05509417  1
  Se  Se144  1  0.57964137  0.91771166  0.54912247  1
  Se  Se145  1  0.91876399  0.25408311  0.06184979  1
  Se  Se146  1  0.91807678  0.24147499  0.54391416  1
  Se  Se147  1  0.93178507  0.59062536  0.06743999  1
  Se  Se148  1  0.91805451  0.59052074  0.55653006  1
  Se  Se149  1  0.91723199  0.91606208  0.05501541  1
  Se  Se150  1  0.90897845  0.91253511  0.55274418  1
  Se  Se151  1  0.08446828  0.25118939  0.43098715  1
  Se  Se152  1  0.08645628  0.25150214  0.94700057  1
  Se  Se153  1  0.07248133  0.59252074  0.44151766  1
  Se  Se154  1  0.07433401  0.59528577  0.94176272  1
  Se  Se155  1  0.08210705  0.91456709  0.44713972  1
  Se  Se156  1  0.08693275  0.91595364  0.94937855  1
  Se  Se157  1  0.41522998  0.25513882  0.44353567  1
  Se  Se158  1  0.41617371  0.24751994  0.94955902  1
  Se  Se159  1  0.41581773  0.58579513  0.44916998  1
  Se  Se160  1  0.40448595  0.58835854  0.93871543  1
  Se  Se161  1  0.41678217  0.91142741  0.44865016  1
  Se  Se162  1  0.42216741  0.91692874  0.94666919  1
  Se  Se163  1  0.74788771  0.25248104  0.45211697  1
  Se  Se164  1  0.74281790  0.24969385  0.93969560  1
  Se  Se165  1  0.74085178  0.59236175  0.43188566  1
  Se  Se166  1  0.74444637  0.59242981  0.94166436  1
  Se  Se167  1  0.74939926  0.91586480  0.44228841  1
  Se  Se168  1  0.75628010  0.91802976  0.94613671  1
  Se  Se169  1  0.25392120  0.07339326  0.44261761  1
  Se  Se170  1  0.24816536  0.08625967  0.94591930  1
  Se  Se171  1  0.25804898  0.40487015  0.44163253  1
  Se  Se172  1  0.25279377  0.41559587  0.94242571  1
  Se  Se173  1  0.24327617  0.74913534  0.45184760  1
  Se  Se174  1  0.24741336  0.75799410  0.95358835  1
  Se  Se175  1  0.58991473  0.07778597  0.43742629  1
  Se  Se176  1  0.58710553  0.08280103  0.94737567  1
  Se  Se177  1  0.58140904  0.41828433  0.45189203  1
  Se  Se178  1  0.58809680  0.40963750  0.94042414  1
  Se  Se179  1  0.57798066  0.75764672  0.43939945  1
  Se  Se180  1  0.58618768  0.75224164  0.94694642  1
  Se  Se181  1  0.91326399  0.08478972  0.44479364  1
  Se  Se182  1  0.92430821  0.07477108  0.93859261  1
  Se  Se183  1  0.92465840  0.41475994  0.43344401  1
  Se  Se184  1  0.91601032  0.40745360  0.94541802  1
  Se  Se185  1  0.91098556  0.75732791  0.44511979  1
  Se  Se186  1  0.91169142  0.75475439  0.95242835  1
  Se  Se187  1  0.25422507  0.24764418  0.29985075  1
  Se  Se188  1  0.25614913  0.25399983  0.79943210  1
  Se  Se189  1  0.24746043  0.57814341  0.31582386  1
  Se  Se190  1  0.24028361  0.58544773  0.80142682  1
  Se  Se191  1  0.24909427  0.91224514  0.31186664  1
  Se  Se192  1  0.24593942  0.91098240  0.81510877  1
  Se  Se193  1  0.58178734  0.24822419  0.30464357  1
  Se  Se194  1  0.58361008  0.25505426  0.80442398  1
  Se  Se195  1  0.58339367  0.58369993  0.30250850  1
  Se  Se196  1  0.57604798  0.57751458  0.81474021  1
  Se  Se197  1  0.58587306  0.92027061  0.29896653  1
  Se  Se198  1  0.58699382  0.91977480  0.80219446  1
  Se  Se199  1  0.91450827  0.25076199  0.30312339  1
  Se  Se200  1  0.91891958  0.23656025  0.81099638  1
  Se  Se201  1  0.91952359  0.59046746  0.29995218  1
  Se  Se202  1  0.90945562  0.56982611  0.80436244  1
  Se  Se203  1  0.91692782  0.92246914  0.30460691  1
  Se  Se204  1  0.91579615  0.91371777  0.80402932  1
  Se  Se205  1  0.08132542  0.08082185  0.29828482  1
  Se  Se206  1  0.08870115  0.07922547  0.79758103  1
  Se  Se207  1  0.07961634  0.41280296  0.29526481  1
  Se  Se208  1  0.09027072  0.42218988  0.80854935  1
  Se  Se209  1  0.08040278  0.75558047  0.30365244  1
  Se  Se210  1  0.08197581  0.75600246  0.81499570  1
  Se  Se211  1  0.42142734  0.08589989  0.31177995  1
  Se  Se212  1  0.42253026  0.09112405  0.81311617  1
  Se  Se213  1  0.41870587  0.41197421  0.30509783  1
  Se  Se214  1  0.41762025  0.41782992  0.80266444  1
  Se  Se215  1  0.42043760  0.75297398  0.30614149  1
  Se  Se216  1  0.41438223  0.75343518  0.80317267  1
  Se  Se217  1  0.74663613  0.08408139  0.30388608  1
  Se  Se218  1  0.75631760  0.09243504  0.79959470  1
  Se  Se219  1  0.74914829  0.41574114  0.30639352  1
  Se  Se220  1  0.74655206  0.40709575  0.79665817  1
  Se  Se221  1  0.74948376  0.75177187  0.30120593  1
  Se  Se222  1  0.75364801  0.75197539  0.81033860  1
  Se  Se223  1  0.24357909  0.08959221  0.18710087  1
  Se  Se224  1  0.24072002  0.09140608  0.69102935  1
  Se  Se225  1  0.24325700  0.42016648  0.20436993  1
  Se  Se226  1  0.25050453  0.41831716  0.69872864  1
  Se  Se227  1  0.24912166  0.76460938  0.19075941  1
  Se  Se228  1  0.24939534  0.75063759  0.70162229  1
  Se  Se229  1  0.57909726  0.08050563  0.19671832  1
  Se  Se230  1  0.58377274  0.08147047  0.70256659  1
  Se  Se231  1  0.58631843  0.41129710  0.19899465  1
  Se  Se232  1  0.58390324  0.41787387  0.69608326  1
  Se  Se233  1  0.58854732  0.74466904  0.19577893  1
  Se  Se234  1  0.57686904  0.75980529  0.68692465  1
  Se  Se235  1  0.91574959  0.08427769  0.19745612  1
  Se  Se236  1  0.92137342  0.07192481  0.69565526  1
  Se  Se237  1  0.91400601  0.42010333  0.20052328  1
  Se  Se238  1  0.91745533  0.41644823  0.68376767  1
  Se  Se239  1  0.91854512  0.75408418  0.19802155  1
  Se  Se240  1  0.90552447  0.75232051  0.68977368  1
  Se  Se241  1  0.07876499  0.25120667  0.19554809  1
  Se  Se242  1  0.09056749  0.24261731  0.68102293  1
  Se  Se243  1  0.09508473  0.59001045  0.20601658  1
  Se  Se244  1  0.09490972  0.57089555  0.69396514  1
  Se  Se245  1  0.08060918  0.92353293  0.19654455  1
  Se  Se246  1  0.07883339  0.91360307  0.70029779  1
  Se  Se247  1  0.41269015  0.24876274  0.19579187  1
  Se  Se248  1  0.41637770  0.25483268  0.69859278  1
  Se  Se249  1  0.42539619  0.57274299  0.18684830  1
  Se  Se250  1  0.41802447  0.59214341  0.69952908  1
  Se  Se251  1  0.42173737  0.90457038  0.18728880  1
  Se  Se252  1  0.42028014  0.91636282  0.69043851  1
  Se  Se253  1  0.74564609  0.25122232  0.19810819  1
  Se  Se254  1  0.76160330  0.24885090  0.69910232  1
  Se  Se255  1  0.74881930  0.58465673  0.20048030  1
  Se  Se256  1  0.75133484  0.57372792  0.68907027  1
  Se  Se257  1  0.74644064  0.91933128  0.19869658  1
  Se  Se258  1  0.74429809  0.91642078  0.69412079  1
