# generated using pymatgen
data_In86Cu29Se144
_symmetry_space_group_name_H-M   'P 1'
_cell_length_a   17.57904754
_cell_length_b   17.57789568
_cell_length_c   23.43698559
_cell_angle_alpha   90.00669049
_cell_angle_beta   90.00822588
_cell_angle_gamma   90.01070363
_symmetry_Int_Tables_number   1
_chemical_formula_structural   In86Cu29Se144
_chemical_formula_sum   'In86 Cu29 Se144'
_cell_volume   7242.09072919
_cell_formula_units_Z   1
loop_
 _symmetry_equiv_pos_site_id
 _symmetry_equiv_pos_as_xyz
  1  'x, y, z'
loop_
 _atom_site_type_symbol
 _atom_site_label
 _atom_site_symmetry_multiplicity
 _atom_site_fract_x
 _atom_site_fract_y
 _atom_site_fract_z
 _atom_site_occupancy
  In  In0  1  -0.00099378  0.16510923  0.12314318  1
  In  In1  1  0.00352562  0.16611850  0.62263575  1
  In  In2  1  -0.01119507  0.51296679  0.13545213  1
  In  In3  1  0.01309635  0.51146535  0.61108635  1
  In  In4  1  -0.01668091  0.84587553  0.13885132  1
  In  In5  1  -0.01065470  0.82581020  0.61515068  1
  In  In6  1  0.31381558  0.17677598  0.12208978  1
  In  In7  1  0.32820660  0.17295478  0.62639833  1
  In  In8  1  0.33932836  0.50063055  0.13207875  1
  In  In9  1  0.33863138  0.50499477  0.61324863  1
  In  In10  1  0.32348010  0.83075577  0.13242427  1
  In  In11  1  0.33074161  0.82871777  0.61419262  1
  In  In12  1  0.68280401  0.14877507  0.14257415  1
  In  In13  1  0.67710430  0.16724495  0.63435617  1
  In  In14  1  0.67539976  0.49243760  0.13388130  1
  In  In15  1  0.67152116  0.50208031  0.61914994  1
  In  In16  1  0.67909342  0.82085250  0.13371999  1
  In  In17  1  0.67356729  0.83097301  0.61980698  1
  In  In18  1  0.15671085  0.01105067  0.38156521  1
  In  In19  1  0.16509865  0.00301296  0.87427014  1
  In  In20  1  0.13914580  0.34996267  0.39272594  1
  In  In21  1  0.15861858  0.33264871  0.87467140  1
  In  In22  1  0.16304439  0.66559200  0.37494030  1
  In  In23  1  0.14703353  0.67947008  0.86950997  1
  In  In24  1  0.50339857  -0.01120901  0.37552381  1
  In  In25  1  0.50439550  -0.01415299  0.87279308  1
  In  In26  1  0.51901103  0.33684425  0.37068349  1
  In  In27  1  0.51185272  0.32474177  0.87569223  1
  In  In28  1  0.50512145  0.66643561  0.38076732  1
  In  In29  1  0.50479280  0.65597405  0.86918011  1
  In  In30  1  0.82452531  -0.01230839  0.36772277  1
  In  In31  1  0.82842416  0.00727370  0.88620696  1
  In  In32  1  0.84328470  0.34678238  0.36768243  1
  In  In33  1  0.82741742  0.33909322  0.88372543  1
  In  In34  1  0.82945128  0.66363476  0.37848418  1
  In  In35  1  0.83451195  0.66676711  0.87312846  1
  In  In36  1  0.00403097  0.17267757  0.36481850  1
  In  In37  1  0.00023801  0.15929475  0.88948441  1
  In  In38  1  -0.01057887  0.50056016  0.37806005  1
  In  In39  1  -0.01409398  0.49433942  0.87280776  1
  In  In40  1  -0.00143124  0.83367481  0.37330618  1
  In  In41  1  0.00113319  0.82005481  0.87200767  1
  In  In42  1  0.32265444  0.15834360  0.37357345  1
  In  In43  1  0.32835918  0.16743230  0.88008871  1
  In  In44  1  0.32064373  0.50703396  0.38138955  1
  In  In45  1  0.33390361  0.50630636  0.87098521  1
  In  In46  1  0.34381025  0.82243579  0.38415514  1
  In  In47  1  0.32121045  0.83818648  0.87217327  1
  In  In48  1  0.66665088  0.17123904  0.35631108  1
  In  In49  1  0.67721523  0.17196575  0.87221285  1
  In  In50  1  0.67416008  0.50522111  0.38117420  1
  In  In51  1  0.67839013  0.51060759  0.86611196  1
  In  In52  1  0.66597575  0.82444033  0.38019573  1
  In  In53  1  0.67564520  0.84133559  0.86434729  1
  In  In54  1  0.14641436  0.00937560  0.12951888  1
  In  In55  1  0.16519163  0.00000218  0.61762336  1
  In  In56  1  0.16295053  0.31511160  0.12219867  1
  In  In57  1  0.16193226  0.33523904  0.61385922  1
  In  In58  1  0.16127190  0.67433921  0.14063544  1
  In  In59  1  0.16179523  0.66869733  0.61675640  1
  In  In60  1  0.51470305  0.01094780  0.13081509  1
  In  In61  1  0.51854191  0.00034880  0.62623650  1
  In  In62  1  0.49882898  0.33492246  0.13183069  1
  In  In63  1  0.51081985  0.34645979  0.61824728  1
  In  In64  1  0.50724699  0.65940188  0.13964375  1
  In  In65  1  0.53200573  0.68583200  0.59577409  1
  In  In66  1  0.83778838  -0.00330829  0.12121808  1
  In  In67  1  0.83605865  -0.01431724  0.62350569  1
  In  In68  1  0.83347325  0.33644599  0.12778205  1
  In  In69  1  0.82675932  0.33113321  0.62219486  1
  In  In70  1  0.83208220  0.66704519  0.12773317  1
  In  In71  1  0.82975943  0.66906782  0.61823559  1
  In  In72  1  0.32898455  0.33034011  0.24754880  1
  In  In73  1  0.34088036  0.33616010  0.75376815  1
  In  In74  1  -0.00463649  -0.00264733  0.75349998  1
  In  In75  1  0.33967980  0.66618303  0.73530440  1
  In  In76  1  0.49658837  0.16448868  0.49581589  1
  In  In77  1  0.50591958  0.49438567  0.01324834  1
  In  In78  1  0.84160463  0.17117299  0.49627123  1
  In  In79  1  0.15398089  0.83515274  -0.00235267  1
  In  In80  1  0.50316497  0.16807632  0.00606223  1
  In  In81  1  0.33282579  0.00055984  0.75488440  1
  In  In82  1  0.50380609  0.82721663  0.00083172  1
  In  In83  1  0.34186439  -0.00884051  0.25635820  1
  In  In84  1  0.16461539  0.49282493  -0.00215828  1
  In  In85  1  -0.00449520  0.33466401  0.74527107  1
  Cu  Cu86  1  0.15996595  0.16669850  0.25354668  1
  Cu  Cu87  1  -0.00156934  -0.00407102  0.49732432  1
  Cu  Cu88  1  0.16845050  0.50789605  0.73743786  1
  Cu  Cu89  1  0.50307370  0.82893904  0.74223278  1
  Cu  Cu90  1  -0.01110753  0.66798376  0.00331495  1
  Cu  Cu91  1  0.66931924  -0.00543950  0.49738080  1
  Cu  Cu92  1  0.82838410  0.50419010  0.25424327  1
  Cu  Cu93  1  0.33020030  0.66297724  0.00680202  1
  Cu  Cu94  1  0.83430692  0.83035517  0.25331018  1
  Cu  Cu95  1  0.82685673  0.82875294  0.74482501  1
  Cu  Cu96  1  0.83735521  0.16766663  0.24511439  1
  Cu  Cu97  1  0.83439356  0.50722125  0.74657666  1
  Cu  Cu98  1  0.33016711  0.66278698  0.49596439  1
  Cu  Cu99  1  0.49744849  0.50628395  0.25794722  1
  Cu  Cu100  1  -0.00518276  0.33196465  0.00427224  1
  Cu  Cu101  1  -0.00129296  0.66941756  0.49353145  1
  Cu  Cu102  1  0.67136784  -0.00183854  0.00159667  1
  Cu  Cu103  1  0.15902758  0.49794422  0.25980973  1
  Cu  Cu104  1  0.32848840  0.32774956  0.49848928  1
  Cu  Cu105  1  0.32288455  0.00449080  0.00202896  1
  Cu  Cu106  1  0.68104115  0.67021405  -0.00123347  1
  Cu  Cu107  1  0.67380543  0.33528039  0.49629464  1
  Cu  Cu108  1  0.50863702  0.82902180  0.25968585  1
  Cu  Cu109  1  0.33006649  -0.00194817  0.49761952  1
  Cu  Cu110  1  0.67217571  0.33354679  0.00462750  1
  Cu  Cu111  1  0.83036067  0.16642444  0.75875699  1
  Cu  Cu112  1  0.51793402  0.50126071  0.74111919  1
  Cu  Cu113  1  0.51206431  0.16950036  0.75073738  1
  Cu  Cu114  1  0.16958842  0.82928666  0.25701226  1
  Se  Se115  1  0.09118776  0.09477844  0.05276444  1
  Se  Se116  1  0.07844526  0.08209486  0.55166591  1
  Se  Se117  1  0.07332602  0.41497255  0.06447860  1
  Se  Se118  1  0.08464492  0.41763367  0.54579435  1
  Se  Se119  1  0.07498093  0.74252923  0.06259433  1
  Se  Se120  1  0.08258112  0.75364253  0.54738316  1
  Se  Se121  1  0.40875085  0.07535705  0.06361035  1
  Se  Se122  1  0.41122287  0.07527313  0.56197060  1
  Se  Se123  1  0.40289885  0.40384156  0.05903080  1
  Se  Se124  1  0.41498668  0.40958311  0.54988954  1
  Se  Se125  1  0.41216221  0.74174540  0.06511878  1
  Se  Se126  1  0.41476869  0.74862614  0.54662228  1
  Se  Se127  1  0.74855356  0.08441632  0.05715780  1
  Se  Se128  1  0.74830442  0.07968255  0.55624809  1
  Se  Se129  1  0.75265495  0.42138570  0.05637846  1
  Se  Se130  1  0.75637180  0.41743639  0.55025525  1
  Se  Se131  1  0.75835477  0.75533656  0.05442131  1
  Se  Se132  1  0.74127770  0.74157931  0.54748795  1
  Se  Se133  1  0.24765335  0.25423895  0.04514360  1
  Se  Se134  1  0.24733179  0.24445229  0.55254587  1
  Se  Se135  1  0.24700675  0.58581265  0.06453900  1
  Se  Se136  1  0.24510461  0.58235388  0.55068060  1
  Se  Se137  1  0.24790548  0.92062916  0.06195442  1
  Se  Se138  1  0.24578174  0.91446698  0.55006788  1
  Se  Se139  1  0.59412113  0.25479685  0.06680754  1
  Se  Se140  1  0.59636227  0.24803395  0.55546364  1
  Se  Se141  1  0.59712998  0.59465750  0.06087029  1
  Se  Se142  1  0.56664232  0.55757282  0.55228121  1
  Se  Se143  1  0.59063381  0.91868011  0.06132044  1
  Se  Se144  1  0.58435807  0.91521631  0.55229479  1
  Se  Se145  1  0.91132851  0.25019916  0.05815177  1
  Se  Se146  1  0.93032239  0.26237149  0.55563239  1
  Se  Se147  1  0.91047162  0.58034521  0.05643308  1
  Se  Se148  1  0.91685816  0.58735980  0.54965930  1
  Se  Se149  1  0.92264591  0.91316252  0.05456496  1
  Se  Se150  1  0.91039697  0.91341922  0.54618479  1
  Se  Se151  1  0.09070694  0.22919123  0.44296100  1
  Se  Se152  1  0.08214926  0.25590121  0.94816498  1
  Se  Se153  1  0.08127315  0.58151422  0.44349132  1
  Se  Se154  1  0.07354753  0.58984752  0.94300951  1
  Se  Se155  1  0.08376158  0.91362956  0.44457405  1
  Se  Se156  1  0.06700561  0.92694885  0.93835514  1
  Se  Se157  1  0.41065197  0.25647024  0.43429164  1
  Se  Se158  1  0.41342250  0.25934665  0.94467340  1
  Se  Se159  1  0.41685646  0.57985395  0.44549582  1
  Se  Se160  1  0.41489184  0.58717166  0.94765343  1
  Se  Se161  1  0.41969724  0.91803088  0.44869074  1
  Se  Se162  1  0.40451256  0.92092649  0.94606301  1
  Se  Se163  1  0.74566915  0.25150823  0.43400542  1
  Se  Se164  1  0.75087379  0.24667145  0.95001511  1
  Se  Se165  1  0.74603526  0.59187954  0.45308480  1
  Se  Se166  1  0.75590578  0.58013682  0.94459509  1
  Se  Se167  1  0.75346350  0.91148900  0.44578260  1
  Se  Se168  1  0.74680246  0.91034925  0.94610299  1
  Se  Se169  1  0.24692014  0.08638166  0.45073584  1
  Se  Se170  1  0.24313073  0.08531152  0.94568430  1
  Se  Se171  1  0.24601388  0.41729022  0.45004735  1
  Se  Se172  1  0.26194591  0.41007361  0.93723075  1
  Se  Se173  1  0.24548916  0.74863586  0.44587557  1
  Se  Se174  1  0.25160617  0.73904836  0.94282909  1
  Se  Se175  1  0.59622219  0.08227946  0.43798778  1
  Se  Se176  1  0.58637966  0.07485557  0.94162751  1
  Se  Se177  1  0.58583874  0.41752078  0.44704698  1
  Se  Se178  1  0.59387505  0.41483873  0.94316091  1
  Se  Se179  1  0.57578416  0.75570783  0.45152653  1
  Se  Se180  1  0.59207578  0.74048861  0.93776620  1
  Se  Se181  1  0.92000040  0.07502275  0.43410769  1
  Se  Se182  1  0.90909883  0.08760208  0.95464691  1
  Se  Se183  1  0.91562490  0.41175987  0.44833870  1
  Se  Se184  1  0.91546020  0.41923480  0.95079822  1
  Se  Se185  1  0.91428186  0.75369231  0.44281977  1
  Se  Se186  1  0.91335668  0.75193058  0.94464387  1
  Se  Se187  1  0.23636884  0.25135923  0.31288492  1
  Se  Se188  1  0.24392793  0.24496507  0.80519815  1
  Se  Se189  1  0.24751086  0.58302800  0.30435898  1
  Se  Se190  1  0.24396003  0.58590486  0.80402720  1
  Se  Se191  1  0.24696563  0.91169673  0.31833104  1
  Se  Se192  1  0.22982444  0.90627845  0.80032473  1
  Se  Se193  1  0.57895939  0.25400531  0.29346487  1
  Se  Se194  1  0.59472510  0.25507688  0.80232552  1
  Se  Se195  1  0.58629783  0.58360998  0.31033196  1
  Se  Se196  1  0.59259096  0.58979012  0.79686443  1
  Se  Se197  1  0.59272303  0.91566449  0.30745685  1
  Se  Se198  1  0.58282383  0.91547763  0.79681313  1
  Se  Se199  1  0.91607743  0.25340816  0.30022578  1
  Se  Se200  1  0.91565735  0.24584576  0.81456098  1
  Se  Se201  1  0.91449170  0.58637937  0.30630872  1
  Se  Se202  1  0.91991270  0.58546586  0.80248678  1
  Se  Se203  1  0.92022456  0.91762874  0.30068306  1
  Se  Se204  1  0.90225439  0.90880607  0.81068211  1
  Se  Se205  1  0.07876108  0.07501099  0.30045808  1
  Se  Se206  1  0.08486165  0.09550659  0.80675704  1
  Se  Se207  1  0.07261263  0.41412691  0.30750472  1
  Se  Se208  1  0.09169614  0.42869625  0.80227312  1
  Se  Se209  1  0.08013033  0.74704386  0.30488239  1
  Se  Se210  1  0.07696849  0.75341867  0.79259703  1
  Se  Se211  1  0.42724262  0.09067700  0.31083548  1
  Se  Se212  1  0.42852926  0.09380400  0.81211147  1
  Se  Se213  1  0.41456097  0.42044521  0.31205769  1
  Se  Se214  1  0.43670088  0.43028975  0.80853286  1
  Se  Se215  1  0.42012067  0.74699968  0.30825957  1
  Se  Se216  1  0.42080953  0.75781834  0.80850557  1
  Se  Se217  1  0.75565839  0.08267584  0.29881505  1
  Se  Se218  1  0.74917766  0.07577091  0.80680581  1
  Se  Se219  1  0.74396093  0.41869467  0.30558478  1
  Se  Se220  1  0.75988388  0.41821478  0.80403287  1
  Se  Se221  1  0.74976712  0.74860930  0.30708172  1
  Se  Se222  1  0.74752694  0.74342518  0.80157843  1
  Se  Se223  1  0.24745426  0.08461886  0.19832676  1
  Se  Se224  1  0.24238504  0.08793006  0.69400929  1
  Se  Se225  1  0.23430561  0.42214137  0.19053999  1
  Se  Se226  1  0.25169229  0.42148817  0.68765203  1
  Se  Se227  1  0.25690376  0.74633875  0.20701005  1
  Se  Se228  1  0.24189418  0.75965730  0.68955775  1
  Se  Se229  1  0.58469143  0.08307326  0.20843373  1
  Se  Se230  1  0.59213164  0.08192961  0.69946792  1
  Se  Se231  1  0.57484059  0.42382568  0.19809937  1
  Se  Se232  1  0.59745362  0.41102538  0.69245515  1
  Se  Se233  1  0.59032436  0.74625348  0.20283088  1
  Se  Se234  1  0.58564600  0.74716554  0.68795609  1
  Se  Se235  1  0.91798096  0.08090556  0.19222905  1
  Se  Se236  1  0.90676089  0.09138956  0.69143529  1
  Se  Se237  1  0.91209246  0.42009731  0.19985472  1
  Se  Se238  1  0.91427897  0.42863657  0.68378615  1
  Se  Se239  1  0.91691667  0.74363784  0.20042431  1
  Se  Se240  1  0.91252423  0.74974195  0.69071932  1
  Se  Se241  1  0.07877102  0.24876921  0.19704792  1
  Se  Se242  1  0.09374288  0.24620146  0.69217409  1
  Se  Se243  1  0.08008857  0.58527498  0.20395044  1
  Se  Se244  1  0.08083636  0.59047463  0.69036338  1
  Se  Se245  1  0.08969449  0.91111519  0.19937303  1
  Se  Se246  1  0.07846607  0.91408313  0.68468214  1
  Se  Se247  1  0.41784924  0.23394775  0.19146479  1
  Se  Se248  1  0.43088149  0.24646843  0.69006930  1
  Se  Se249  1  0.41111661  0.58591048  0.20356758  1
  Se  Se250  1  0.43417610  0.57783424  0.68191637  1
  Se  Se251  1  0.43260565  0.90471505  0.19099026  1
  Se  Se252  1  0.41900163  0.91210417  0.68790580  1
  Se  Se253  1  0.74962706  0.25641999  0.19916494  1
  Se  Se254  1  0.75653646  0.25449249  0.70131279  1
  Se  Se255  1  0.74658764  0.58827367  0.19876066  1
  Se  Se256  1  0.74994947  0.58549595  0.69048836  1
  Se  Se257  1  0.75619009  0.91627608  0.19509922  1
  Se  Se258  1  0.74631334  0.91743733  0.69427908  1
