# generated using pymatgen
data_In86Cu29Se144
_symmetry_space_group_name_H-M   'P 1'
_cell_length_a   17.58051267
_cell_length_b   17.57928160
_cell_length_c   23.43151290
_cell_angle_alpha   90.02732586
_cell_angle_beta   90.01992356
_cell_angle_gamma   89.99404295
_symmetry_Int_Tables_number   1
_chemical_formula_structural   In86Cu29Se144
_chemical_formula_sum   'In86 Cu29 Se144'
_cell_volume   7241.57296627
_cell_formula_units_Z   1
loop_
 _symmetry_equiv_pos_site_id
 _symmetry_equiv_pos_as_xyz
  1  'x, y, z'
loop_
 _atom_site_type_symbol
 _atom_site_label
 _atom_site_symmetry_multiplicity
 _atom_site_fract_x
 _atom_site_fract_y
 _atom_site_fract_z
 _atom_site_occupancy
  In  In0  1  -0.00890480  0.16139181  0.11522596  1
  In  In1  1  0.01735303  0.17085490  0.63408945  1
  In  In2  1  0.00462540  0.50951146  0.12303874  1
  In  In3  1  -0.00108249  0.50237682  0.64125566  1
  In  In4  1  -0.00516932  0.84451492  0.13105017  1
  In  In5  1  -0.00784131  0.82576754  0.62137637  1
  In  In6  1  0.32417323  0.17961267  0.14026508  1
  In  In7  1  0.32285300  0.15174383  0.62889077  1
  In  In8  1  0.33860040  0.49729518  0.12842667  1
  In  In9  1  0.34995952  0.49866833  0.62524513  1
  In  In10  1  0.33767547  0.82762401  0.12998653  1
  In  In11  1  0.32627377  0.84477651  0.62880361  1
  In  In12  1  0.67327273  0.15680390  0.13489484  1
  In  In13  1  0.66747385  0.16673215  0.63660300  1
  In  In14  1  0.65587593  0.49570354  0.11140922  1
  In  In15  1  0.65597410  0.49962081  0.62562420  1
  In  In16  1  0.67697981  0.84177916  0.11063073  1
  In  In17  1  0.68388960  0.83004807  0.62526593  1
  In  In18  1  0.15478080  -0.01563969  0.35693407  1
  In  In19  1  0.17788814  0.00390773  0.87615296  1
  In  In20  1  0.16998735  0.31388257  0.36995820  1
  In  In21  1  0.14431843  0.32756464  0.87521409  1
  In  In22  1  0.17490265  0.67876763  0.37115721  1
  In  In23  1  0.16136948  0.64805023  0.85221705  1
  In  In24  1  0.49726605  0.00309543  0.35899433  1
  In  In25  1  0.49218383  -0.01099451  0.87295564  1
  In  In26  1  0.49906293  0.33367910  0.36390402  1
  In  In27  1  0.51599995  0.33110013  0.87711058  1
  In  In28  1  0.48544390  0.66295749  0.37498806  1
  In  In29  1  0.49615174  0.67293120  0.88696267  1
  In  In30  1  0.82842730  -0.00839170  0.37126334  1
  In  In31  1  0.82622983  0.01058193  0.88197929  1
  In  In32  1  0.82445361  0.33870867  0.36940684  1
  In  In33  1  0.83343500  0.33765278  0.88386475  1
  In  In34  1  0.84948213  0.67248183  0.36959054  1
  In  In35  1  0.83569051  0.65879024  0.88832991  1
  In  In36  1  0.00736505  0.14359551  0.37205678  1
  In  In37  1  -0.00826174  0.17970919  0.89339701  1
  In  In38  1  -0.01532574  0.50323661  0.37245284  1
  In  In39  1  -0.01137173  0.49026967  0.86507743  1
  In  In40  1  0.00382807  0.83810691  0.37634130  1
  In  In41  1  0.00135573  0.81952348  0.87435596  1
  In  In42  1  0.31670107  0.15137296  0.34400488  1
  In  In43  1  0.33333235  0.15530691  0.87871629  1
  In  In44  1  0.33871141  0.50784844  0.37127775  1
  In  In45  1  0.32582685  0.51298427  0.87405042  1
  In  In46  1  0.32727186  0.82288030  0.36943401  1
  In  In47  1  0.33635029  0.83246745  0.87382987  1
  In  In48  1  0.65670941  0.16144612  0.35496080  1
  In  In49  1  0.67457169  0.17581019  0.86988215  1
  In  In50  1  0.66061506  0.48398571  0.36971959  1
  In  In51  1  0.67709767  0.49865544  0.89119755  1
  In  In52  1  0.66975862  0.84473299  0.37194276  1
  In  In53  1  0.65581009  0.83797250  0.88584987  1
  In  In54  1  0.16044158  0.01277100  0.13838175  1
  In  In55  1  0.17677326  0.00263247  0.62431531  1
  In  In56  1  0.17074766  0.33624213  0.12258841  1
  In  In57  1  0.16086378  0.31897003  0.63411735  1
  In  In58  1  0.16349383  0.66570175  0.13401892  1
  In  In59  1  0.15530192  0.67563470  0.63598044  1
  In  In60  1  0.50893422  -0.00125850  0.13320189  1
  In  In61  1  0.49730359  0.00042819  0.63298476  1
  In  In62  1  0.49118966  0.34073410  0.13165072  1
  In  In63  1  0.49948577  0.34236421  0.62717030  1
  In  In64  1  0.49453170  0.66002414  0.11276731  1
  In  In65  1  0.50640035  0.65290357  0.62286794  1
  In  In66  1  0.83223760  0.00067853  0.12302862  1
  In  In67  1  0.83648618  -0.01413600  0.63009308  1
  In  In68  1  0.82849832  0.31883647  0.11116099  1
  In  In69  1  0.83396698  0.33669805  0.63835975  1
  In  In70  1  0.83936523  0.68003824  0.11217692  1
  In  In71  1  0.83797995  0.67680303  0.62631348  1
  In  In72  1  0.33156656  0.33251837  0.75135890  1
  In  In73  1  0.66853839  0.66674545  0.75411105  1
  In  In74  1  0.66666481  0.66784868  0.23270889  1
  In  In75  1  0.00035885  0.33231854  0.24811311  1
  In  In76  1  0.49783604  0.17095101  0.48330533  1
  In  In77  1  0.16542965  0.15930782  0.50154032  1
  In  In78  1  0.82580130  0.50696063  0.50499673  1
  In  In79  1  0.83153652  0.16323532  0.49211286  1
  In  In80  1  0.50243342  0.16238196  0.00799346  1
  In  In81  1  0.50125819  0.83087830  0.49599202  1
  In  In82  1  0.17042731  0.83536024  -0.00409598  1
  In  In83  1  0.00162275  0.00525530  0.75316915  1
  In  In84  1  0.16376916  0.49353783  -0.00602420  1
  In  In85  1  0.16714867  0.50229245  0.50436709  1
  Cu  Cu86  1  0.66634248  0.00642107  0.00236136  1
  Cu  Cu87  1  0.50025789  0.83258786  0.24965786  1
  Cu  Cu88  1  -0.00448581  0.32896070  0.50797100  1
  Cu  Cu89  1  -0.00449056  -0.00226179  0.00618548  1
  Cu  Cu90  1  0.65456640  0.33361567  0.49560174  1
  Cu  Cu91  1  0.00742820  0.67537612  0.49878071  1
  Cu  Cu92  1  0.83054468  0.49861345  0.76178161  1
  Cu  Cu93  1  0.00031718  0.66928166  -0.00055620  1
  Cu  Cu94  1  0.33118573  0.66812124  0.49811059  1
  Cu  Cu95  1  0.33239269  -0.00113254  0.49734626  1
  Cu  Cu96  1  0.83253384  0.17199359  0.76073920  1
  Cu  Cu97  1  0.16833533  0.50235616  0.25029329  1
  Cu  Cu98  1  0.32903940  0.66614845  -0.00262936  1
  Cu  Cu99  1  0.49991135  0.83239515  0.75555452  1
  Cu  Cu100  1  0.66837656  0.33093784  0.00059878  1
  Cu  Cu101  1  0.67067188  0.66192994  0.50062350  1
  Cu  Cu102  1  0.83944798  0.16295976  0.24349842  1
  Cu  Cu103  1  0.33710543  0.33419640  0.00734580  1
  Cu  Cu104  1  0.67414062  -0.00665914  0.49908500  1
  Cu  Cu105  1  0.49775214  0.50620292  0.24436403  1
  Cu  Cu106  1  0.83131400  0.50014446  0.24515516  1
  Cu  Cu107  1  0.83545454  0.83692184  0.24299596  1
  Cu  Cu108  1  0.17088570  0.83611121  0.75153803  1
  Cu  Cu109  1  0.16790405  0.83278811  0.25004181  1
  Cu  Cu110  1  0.83287935  0.83266837  0.75054935  1
  Cu  Cu111  1  0.49933650  0.16058876  0.75598388  1
  Cu  Cu112  1  0.33706302  0.33555655  0.49598216  1
  Cu  Cu113  1  0.33441063  -0.00193901  0.00308559  1
  Cu  Cu114  1  0.50696017  0.49863334  0.75149186  1
  Se  Se115  1  0.08639866  0.07713296  0.05547854  1
  Se  Se116  1  0.07055641  0.07202493  0.55978275  1
  Se  Se117  1  0.07219944  0.40813133  0.05543312  1
  Se  Se118  1  0.07573246  0.41089327  0.56429282  1
  Se  Se119  1  0.08100329  0.74836365  0.05999341  1
  Se  Se120  1  0.08992399  0.75405804  0.55588906  1
  Se  Se121  1  0.40830907  0.07902643  0.06762258  1
  Se  Se122  1  0.41540622  0.08044393  0.55399179  1
  Se  Se123  1  0.42020539  0.42155678  0.05455837  1
  Se  Se124  1  0.42105500  0.41500750  0.55049581  1
  Se  Se125  1  0.40912426  0.75160114  0.05100392  1
  Se  Se126  1  0.41409951  0.74557863  0.56129229  1
  Se  Se127  1  0.75075494  0.08858367  0.05537062  1
  Se  Se128  1  0.74429664  0.07984451  0.56077744  1
  Se  Se129  1  0.75312920  0.41763184  0.05016528  1
  Se  Se130  1  0.74148923  0.40415415  0.55827787  1
  Se  Se131  1  0.73828086  0.73985319  0.04545645  1
  Se  Se132  1  0.75435520  0.74605939  0.55091255  1
  Se  Se133  1  0.25397835  0.24897060  0.05718672  1
  Se  Se134  1  0.25844004  0.25588747  0.55837239  1
  Se  Se135  1  0.24815612  0.58691701  0.05816508  1
  Se  Se136  1  0.25630460  0.59079812  0.56488806  1
  Se  Se137  1  0.25071139  0.92147587  0.06462404  1
  Se  Se138  1  0.24967313  0.91768795  0.55119879  1
  Se  Se139  1  0.59070713  0.25507606  0.06614234  1
  Se  Se140  1  0.58389187  0.24819927  0.55840331  1
  Se  Se141  1  0.58372593  0.58769834  0.04480140  1
  Se  Se142  1  0.58478540  0.57686190  0.54780005  1
  Se  Se143  1  0.57893928  0.92403023  0.05285106  1
  Se  Se144  1  0.58803108  0.92018288  0.56013285  1
  Se  Se145  1  0.92276039  0.25061284  0.04469375  1
  Se  Se146  1  0.91473840  0.24834067  0.56495110  1
  Se  Se147  1  0.91926020  0.58317918  0.05152660  1
  Se  Se148  1  0.92997950  0.58914490  0.55865760  1
  Se  Se149  1  0.91180561  0.91106109  0.05442163  1
  Se  Se150  1  0.91193305  0.91312924  0.55572768  1
  Se  Se151  1  0.07023933  0.25162695  0.44307964  1
  Se  Se152  1  0.09512941  0.24412724  0.95636422  1
  Se  Se153  1  0.07740256  0.58663301  0.43879715  1
  Se  Se154  1  0.07889212  0.59143725  0.93734227  1
  Se  Se155  1  0.09075537  0.92159129  0.44151192  1
  Se  Se156  1  0.07447286  0.92448665  0.93906810  1
  Se  Se157  1  0.39873420  0.25222176  0.42748022  1
  Se  Se158  1  0.41533143  0.25359362  0.94365577  1
  Se  Se159  1  0.41491901  0.58068422  0.45026485  1
  Se  Se160  1  0.41304710  0.57870203  0.94812706  1
  Se  Se161  1  0.41488794  0.92364780  0.43530345  1
  Se  Se162  1  0.41338549  0.91319995  0.94821638  1
  Se  Se163  1  0.73547195  0.25330278  0.43665136  1
  Se  Se164  1  0.75062123  0.24597835  0.94814878  1
  Se  Se165  1  0.74540033  0.58719640  0.43094026  1
  Se  Se166  1  0.73751594  0.59986383  0.95762126  1
  Se  Se167  1  0.75610367  0.90903690  0.44751367  1
  Se  Se168  1  0.74802241  0.92062081  0.94839425  1
  Se  Se169  1  0.25912665  0.08257599  0.43560335  1
  Se  Se170  1  0.25036025  0.08319147  0.95308588  1
  Se  Se171  1  0.24829080  0.41019493  0.43840051  1
  Se  Se172  1  0.25930231  0.40492642  0.93764425  1
  Se  Se173  1  0.24920677  0.75481925  0.44877304  1
  Se  Se174  1  0.24458488  0.73554404  0.93301357  1
  Se  Se175  1  0.59386890  0.07159273  0.43686053  1
  Se  Se176  1  0.58618343  0.08093441  0.93701024  1
  Se  Se177  1  0.57248480  0.41562528  0.44195921  1
  Se  Se178  1  0.58221757  0.41586996  0.95183046  1
  Se  Se179  1  0.59230872  0.74046427  0.43601112  1
  Se  Se180  1  0.57946852  0.75271956  0.95411391  1
  Se  Se181  1  0.92481433  0.06649240  0.44465568  1
  Se  Se182  1  0.91257783  0.08323927  0.95344159  1
  Se  Se183  1  0.91615609  0.40832858  0.44705951  1
  Se  Se184  1  0.91616281  0.42775237  0.94666961  1
  Se  Se185  1  0.91879643  0.75281221  0.44526957  1
  Se  Se186  1  0.91582639  0.75538037  0.94974991  1
  Se  Se187  1  0.25346525  0.26277186  0.29005567  1
  Se  Se188  1  0.24547517  0.24448199  0.81355529  1
  Se  Se189  1  0.25036472  0.58685583  0.30494515  1
  Se  Se190  1  0.26608006  0.58617233  0.79148120  1
  Se  Se191  1  0.25952859  0.91481329  0.29904805  1
  Se  Se192  1  0.25285309  0.91762722  0.80645658  1
  Se  Se193  1  0.59934876  0.27070029  0.29828210  1
  Se  Se194  1  0.58387849  0.24997812  0.80056306  1
  Se  Se195  1  0.58148096  0.58433741  0.30467722  1
  Se  Se196  1  0.58177506  0.57852234  0.81634097  1
  Se  Se197  1  0.58709327  0.91611545  0.29894941  1
  Se  Se198  1  0.58606414  0.91515411  0.80617729  1
  Se  Se199  1  0.91310781  0.23957094  0.31270956  1
  Se  Se200  1  0.91641184  0.25284661  0.81447226  1
  Se  Se201  1  0.91591905  0.58377643  0.29595964  1
  Se  Se202  1  0.91140075  0.59170066  0.80722411  1
  Se  Se203  1  0.91765092  0.91474310  0.30348535  1
  Se  Se204  1  0.91170653  0.91367719  0.81252205  1
  Se  Se205  1  0.10548104  0.09992837  0.29948016  1
  Se  Se206  1  0.08095989  0.09231098  0.82041343  1
  Se  Se207  1  0.08842092  0.42322551  0.31308492  1
  Se  Se208  1  0.10690167  0.44018638  0.81188895  1
  Se  Se209  1  0.08164012  0.75160693  0.30501166  1
  Se  Se210  1  0.08279559  0.75149563  0.79846952  1
  Se  Se211  1  0.44061606  0.10668890  0.29506994  1
  Se  Se212  1  0.41283239  0.07834467  0.80554115  1
  Se  Se213  1  0.41505263  0.42350517  0.30037221  1
  Se  Se214  1  0.42490763  0.41935283  0.81225468  1
  Se  Se215  1  0.41744980  0.74698225  0.30099265  1
  Se  Se216  1  0.42000620  0.74560141  0.80790487  1
  Se  Se217  1  0.75641633  0.08085501  0.30040117  1
  Se  Se218  1  0.74820189  0.08041451  0.80352962  1
  Se  Se219  1  0.74745914  0.41608934  0.29548716  1
  Se  Se220  1  0.74544898  0.41736288  0.81373222  1
  Se  Se221  1  0.75362631  0.75343963  0.30208278  1
  Se  Se222  1  0.75484306  0.75598865  0.81585418  1
  Se  Se223  1  0.26251792  0.07465728  0.20198984  1
  Se  Se224  1  0.23410301  0.08977075  0.70125392  1
  Se  Se225  1  0.24773598  0.41936597  0.19398297  1
  Se  Se226  1  0.24745978  0.42149082  0.68662709  1
  Se  Se227  1  0.25093287  0.74749577  0.19832918  1
  Se  Se228  1  0.25362545  0.75293622  0.69666131  1
  Se  Se229  1  0.58326750  0.08602688  0.20289173  1
  Se  Se230  1  0.58390250  0.07939299  0.70015518  1
  Se  Se231  1  0.58465922  0.42480554  0.19270696  1
  Se  Se232  1  0.58818147  0.41255801  0.69939400  1
  Se  Se233  1  0.57533938  0.76118949  0.17958231  1
  Se  Se234  1  0.57897263  0.75612319  0.68984512  1
  Se  Se235  1  0.92174809  0.07868697  0.19183599  1
  Se  Se236  1  0.90751880  0.09434778  0.69276498  1
  Se  Se237  1  0.91173176  0.41801203  0.18517390  1
  Se  Se238  1  0.91687154  0.41650808  0.70707834  1
  Se  Se239  1  0.91634230  0.74792800  0.19257423  1
  Se  Se240  1  0.91909628  0.74925254  0.70050513  1
  Se  Se241  1  0.08442330  0.24373953  0.18566217  1
  Se  Se242  1  0.07501528  0.25803609  0.70940940  1
  Se  Se243  1  0.07897464  0.58326239  0.20127417  1
  Se  Se244  1  0.08694124  0.58250645  0.70336705  1
  Se  Se245  1  0.08196011  0.91819198  0.20095771  1
  Se  Se246  1  0.08615760  0.91253228  0.69034963  1
  Se  Se247  1  0.42495603  0.24942789  0.20082549  1
  Se  Se248  1  0.42175240  0.23851685  0.68950958  1
  Se  Se249  1  0.41562332  0.59193764  0.19238342  1
  Se  Se250  1  0.42460857  0.58265814  0.69843232  1
  Se  Se251  1  0.41694059  0.91650443  0.19657986  1
  Se  Se252  1  0.41643060  0.91566438  0.69967768  1
  Se  Se253  1  0.75789045  0.25183831  0.19449610  1
  Se  Se254  1  0.74858876  0.25292296  0.70298714  1
  Se  Se255  1  0.75857046  0.57665572  0.17795522  1
  Se  Se256  1  0.75843252  0.57524859  0.69081073  1
  Se  Se257  1  0.74729414  0.91641547  0.19090557  1
  Se  Se258  1  0.74651561  0.91685622  0.70163975  1
