# generated using pymatgen
data_In86Cu29Se144
_symmetry_space_group_name_H-M   'P 1'
_cell_length_a   17.58839543
_cell_length_b   17.58837050
_cell_length_c   23.44888470
_cell_angle_alpha   89.98460687
_cell_angle_beta   89.98151502
_cell_angle_gamma   89.98660380
_symmetry_Int_Tables_number   1
_chemical_formula_structural   In86Cu29Se144
_chemical_formula_sum   'In86 Cu29 Se144'
_cell_volume   7253.94014299
_cell_formula_units_Z   1
loop_
 _symmetry_equiv_pos_site_id
 _symmetry_equiv_pos_as_xyz
  1  'x, y, z'
loop_
 _atom_site_type_symbol
 _atom_site_label
 _atom_site_symmetry_multiplicity
 _atom_site_fract_x
 _atom_site_fract_y
 _atom_site_fract_z
 _atom_site_occupancy
  In  In0  1  -0.02060351  0.16621729  0.12750714  1
  In  In1  1  -0.00434685  0.17121906  0.61610329  1
  In  In2  1  0.00071200  0.50182018  0.11024330  1
  In  In3  1  -0.00032755  0.48235387  0.62271550  1
  In  In4  1  -0.00010986  0.83759146  0.12501388  1
  In  In5  1  -0.00181110  0.83318364  0.61844352  1
  In  In6  1  0.34858818  0.15259548  0.12130652  1
  In  In7  1  0.32381834  0.16089521  0.61797689  1
  In  In8  1  0.33025618  0.49349783  0.11811262  1
  In  In9  1  0.32343750  0.50276198  0.62536755  1
  In  In10  1  0.31436753  0.84659831  0.12254370  1
  In  In11  1  0.34743514  0.84456877  0.61886870  1
  In  In12  1  0.67135856  0.16415830  0.12614826  1
  In  In13  1  0.66852310  0.16544999  0.62425803  1
  In  In14  1  0.66449920  0.49242717  0.11518995  1
  In  In15  1  0.66722583  0.49953648  0.63714587  1
  In  In16  1  0.68125678  0.84354555  0.12167962  1
  In  In17  1  0.66875646  0.83836036  0.62818785  1
  In  In18  1  0.15960363  0.00579277  0.38197269  1
  In  In19  1  0.16554098  -0.00832334  0.87125760  1
  In  In20  1  0.15705713  0.33596941  0.39253751  1
  In  In21  1  0.16564439  0.34526032  0.87119657  1
  In  In22  1  0.16936746  0.66814592  0.37909568  1
  In  In23  1  0.15574608  0.67026881  0.88742136  1
  In  In24  1  0.50421127  0.00219252  0.38175549  1
  In  In25  1  0.50956670  0.00941469  0.86736385  1
  In  In26  1  0.49871624  0.31823609  0.37728541  1
  In  In27  1  0.51019294  0.31854951  0.87974019  1
  In  In28  1  0.51458395  0.67362814  0.37784711  1
  In  In29  1  0.50005600  0.65305243  0.87668384  1
  In  In30  1  0.83306992  -0.00239436  0.37180474  1
  In  In31  1  0.80780593  0.01638831  0.89744450  1
  In  In32  1  0.82052873  0.33829801  0.37326150  1
  In  In33  1  0.83158930  0.33107674  0.87146950  1
  In  In34  1  0.84473603  0.67044635  0.37425821  1
  In  In35  1  0.82406895  0.68024431  0.88943030  1
  In  In36  1  0.00898421  0.15688194  0.38345993  1
  In  In37  1  -0.01681302  0.16437480  0.87326792  1
  In  In38  1  0.00343470  0.50596855  0.37512747  1
  In  In39  1  0.00651507  0.49292952  0.88110120  1
  In  In40  1  -0.01629576  0.85208801  0.38741918  1
  In  In41  1  -0.00656851  0.83503754  0.88664365  1
  In  In42  1  0.33470256  0.17543532  0.39278360  1
  In  In43  1  0.34943831  0.16630556  0.87275290  1
  In  In44  1  0.32018165  0.49497561  0.37336243  1
  In  In45  1  0.32625654  0.50636369  0.88249255  1
  In  In46  1  0.33038612  0.84257232  0.38457667  1
  In  In47  1  0.32337200  0.83573792  0.87247220  1
  In  In48  1  0.66771961  0.16651077  0.37727113  1
  In  In49  1  0.66493990  0.16590563  0.87146677  1
  In  In50  1  0.68142917  0.49866184  0.36895451  1
  In  In51  1  0.66754531  0.49625273  0.87419941  1
  In  In52  1  0.66113474  0.84494442  0.37966179  1
  In  In53  1  0.67474474  0.84241589  0.87031368  1
  In  In54  1  0.16998890  -0.01621633  0.12340989  1
  In  In55  1  0.17555828  0.00893451  0.61877166  1
  In  In56  1  0.15741728  0.33362248  0.12561590  1
  In  In57  1  0.14531028  0.31064661  0.60021529  1
  In  In58  1  0.15306415  0.66331394  0.11412276  1
  In  In59  1  0.16403067  0.66492763  0.61739792  1
  In  In60  1  0.51026223  0.01677157  0.11316007  1
  In  In61  1  0.50393521  0.00048774  0.62728241  1
  In  In62  1  0.51017439  0.33733944  0.11611394  1
  In  In63  1  0.51433144  0.33534612  0.62523978  1
  In  In64  1  0.50966829  0.66415077  0.12099700  1
  In  In65  1  0.50078127  0.67883450  0.62808243  1
  In  In66  1  0.82705400  0.00170415  0.12948053  1
  In  In67  1  0.82276648  -0.00522483  0.62074686  1
  In  In68  1  0.81983836  0.31726245  0.11593583  1
  In  In69  1  0.83973907  0.32327372  0.63178916  1
  In  In70  1  0.84972592  0.67513444  0.10603830  1
  In  In71  1  0.82330249  0.66981995  0.62970010  1
  In  In72  1  0.33435180  0.66995734  0.25698406  1
  In  In73  1  0.33519756  0.66630176  0.75264030  1
  In  In74  1  0.33173925  0.32681225  0.25427986  1
  In  In75  1  0.49976175  0.83888813  0.00266677  1
  In  In76  1  0.49565433  0.50142886  0.50069652  1
  In  In77  1  -0.00622149  0.33190108  0.25571190  1
  In  In78  1  0.33465652  0.33316226  0.74798072  1
  In  In79  1  0.33954858  -0.00033216  0.24928134  1
  In  In80  1  0.00054832  0.66792004  0.24029384  1
  In  In81  1  0.67473833  0.66744576  0.24618716  1
  In  In82  1  -0.00515510  0.66605758  0.76400655  1
  In  In83  1  0.83800467  0.49929227  0.49869762  1
  In  In84  1  -0.00582365  -0.00146924  0.75409266  1
  In  In85  1  0.17052636  0.16655753  0.00238421  1
  Cu  Cu86  1  0.33844596  -0.00371876  0.50336825  1
  Cu  Cu87  1  0.15648500  0.83082453  0.25030858  1
  Cu  Cu88  1  0.82735971  0.83560211  0.75711074  1
  Cu  Cu89  1  0.16352968  0.15843511  0.25875003  1
  Cu  Cu90  1  0.00371746  0.66893325  0.49818146  1
  Cu  Cu91  1  0.83006533  0.49808534  0.75330621  1
  Cu  Cu92  1  0.33764664  0.33332342  -0.00479601  1
  Cu  Cu93  1  0.66766403  0.32808062  -0.00507761  1
  Cu  Cu94  1  0.66796813  0.68017834  0.50505021  1
  Cu  Cu95  1  0.50561654  0.16223260  0.74826852  1
  Cu  Cu96  1  0.50915280  0.16582736  0.25171984  1
  Cu  Cu97  1  0.66789480  0.33081093  0.50037330  1
  Cu  Cu98  1  0.15733118  0.49676967  0.74919957  1
  Cu  Cu99  1  0.66102459  0.65939686  -0.00088256  1
  Cu  Cu100  1  0.32992454  0.66756012  -0.00002376  1
  Cu  Cu101  1  0.50812618  0.83761628  0.74712468  1
  Cu  Cu102  1  0.82657031  0.16699782  0.75193456  1
  Cu  Cu103  1  -0.00371062  -0.00268368  0.00392270  1
  Cu  Cu104  1  0.33182146  0.67019410  0.50202966  1
  Cu  Cu105  1  0.16487904  0.17147780  0.73827080  1
  Cu  Cu106  1  0.82937226  0.49243308  0.23694655  1
  Cu  Cu107  1  0.17404749  0.83769060  0.74619686  1
  Cu  Cu108  1  0.66830877  0.00445919  0.50148857  1
  Cu  Cu109  1  0.82585902  0.16032968  0.25120788  1
  Cu  Cu110  1  -0.00098144  0.33334319  -0.00185989  1
  Cu  Cu111  1  0.50298358  0.49223215  0.24083853  1
  Cu  Cu112  1  0.50559828  0.84609775  0.25156715  1
  Cu  Cu113  1  -0.00376030  -0.00154796  0.50064928  1
  Cu  Cu114  1  0.50428396  0.49364601  0.75695750  1
  Se  Se115  1  0.07639157  0.08062464  0.06349212  1
  Se  Se116  1  0.08050425  0.08163281  0.55399732  1
  Se  Se117  1  0.08801846  0.41227676  0.04932543  1
  Se  Se118  1  0.09426588  0.43080850  0.54988053  1
  Se  Se119  1  0.08528038  0.76265844  0.05414777  1
  Se  Se120  1  0.08548602  0.75378171  0.55161404  1
  Se  Se121  1  0.41067357  0.07197814  0.04450727  1
  Se  Se122  1  0.41919905  0.08088476  0.55735261  1
  Se  Se123  1  0.41916291  0.41674062  0.05161676  1
  Se  Se124  1  0.41143312  0.41151029  0.56298366  1
  Se  Se125  1  0.40671428  0.74754077  0.06346312  1
  Se  Se126  1  0.42072857  0.74951664  0.55264739  1
  Se  Se127  1  0.76638475  0.09707665  0.05812921  1
  Se  Se128  1  0.75397577  0.08875329  0.55238314  1
  Se  Se129  1  0.75140146  0.41260580  0.04805854  1
  Se  Se130  1  0.74394812  0.41610230  0.56068063  1
  Se  Se131  1  0.74141595  0.74551472  0.05235418  1
  Se  Se132  1  0.75568947  0.75789802  0.55765485  1
  Se  Se133  1  0.26241954  0.25697687  0.06354446  1
  Se  Se134  1  0.25713530  0.25089421  0.54705883  1
  Se  Se135  1  0.24862399  0.58256825  0.05427532  1
  Se  Se136  1  0.24973269  0.58261083  0.55100901  1
  Se  Se137  1  0.25371606  0.92770225  0.04422317  1
  Se  Se138  1  0.24940249  0.91369832  0.55378353  1
  Se  Se139  1  0.58782189  0.24486858  0.05340210  1
  Se  Se140  1  0.58475117  0.24847253  0.55371026  1
  Se  Se141  1  0.57621167  0.57543798  0.04951198  1
  Se  Se142  1  0.59156540  0.58887032  0.56025826  1
  Se  Se143  1  0.60105478  0.92936112  0.04967433  1
  Se  Se144  1  0.58720144  0.91901071  0.55691855  1
  Se  Se145  1  0.91620563  0.24735059  0.04900294  1
  Se  Se146  1  0.91509614  0.26011829  0.55141889  1
  Se  Se147  1  0.91212100  0.57447252  0.04318681  1
  Se  Se148  1  0.92325169  0.59205454  0.56269739  1
  Se  Se149  1  0.91166131  0.91821584  0.05911840  1
  Se  Se150  1  0.91219756  0.91569722  0.55397450  1
  Se  Se151  1  0.08185740  0.24301577  0.45381003  1
  Se  Se152  1  0.07982291  0.25158273  0.93785410  1
  Se  Se153  1  0.08511946  0.58350274  0.44582883  1
  Se  Se154  1  0.08997469  0.57184877  0.94985274  1
  Se  Se155  1  0.08628045  0.91535757  0.45103953  1
  Se  Se156  1  0.08255296  0.92264075  0.94643870  1
  Se  Se157  1  0.42478369  0.25300646  0.45665397  1
  Se  Se158  1  0.42088057  0.24444287  0.94939046  1
  Se  Se159  1  0.40936315  0.59309548  0.43597591  1
  Se  Se160  1  0.41497262  0.58313772  0.95009660  1
  Se  Se161  1  0.42364728  0.91544553  0.44938150  1
  Se  Se162  1  0.41640843  0.92122772  0.93377932  1
  Se  Se163  1  0.75239625  0.25096133  0.44589132  1
  Se  Se164  1  0.75134726  0.24636959  0.94068178  1
  Se  Se165  1  0.74329367  0.59555087  0.44342058  1
  Se  Se166  1  0.74680342  0.57878532  0.94635708  1
  Se  Se167  1  0.75084156  0.92003439  0.44703135  1
  Se  Se168  1  0.76562078  0.89376836  0.94763274  1
  Se  Se169  1  0.25342933  0.07762057  0.44883312  1
  Se  Se170  1  0.25427262  0.08134015  0.93593687  1
  Se  Se171  1  0.26285348  0.40744347  0.44737632  1
  Se  Se172  1  0.24805057  0.41422789  0.94685201  1
  Se  Se173  1  0.24858749  0.75317438  0.44752770  1
  Se  Se174  1  0.25076905  0.75287325  0.94564619  1
  Se  Se175  1  0.58348982  0.08869836  0.44919386  1
  Se  Se176  1  0.58628915  0.08294846  0.94234339  1
  Se  Se177  1  0.59358501  0.41804252  0.43975612  1
  Se  Se178  1  0.58301299  0.41435102  0.94416988  1
  Se  Se179  1  0.58221081  0.75863069  0.45069669  1
  Se  Se180  1  0.58490453  0.74612857  0.94003420  1
  Se  Se181  1  0.91328203  0.07947957  0.44484381  1
  Se  Se182  1  0.91687203  0.08569585  0.95162753  1
  Se  Se183  1  0.92546118  0.40820016  0.43861635  1
  Se  Se184  1  0.91375280  0.41201811  0.94326914  1
  Se  Se185  1  0.91385398  0.75031844  0.45015865  1
  Se  Se186  1  0.93501879  0.73205622  0.95022191  1
  Se  Se187  1  0.23971278  0.24201347  0.31677905  1
  Se  Se188  1  0.24336111  0.24235968  0.80823518  1
  Se  Se189  1  0.23586235  0.57570855  0.30194244  1
  Se  Se190  1  0.23525554  0.58034693  0.80800390  1
  Se  Se191  1  0.24297416  0.91129838  0.30684260  1
  Se  Se192  1  0.25470852  0.92287694  0.79835425  1
  Se  Se193  1  0.58783150  0.25282129  0.30535101  1
  Se  Se194  1  0.58510158  0.25033644  0.79998380  1
  Se  Se195  1  0.57796719  0.57576417  0.30411114  1
  Se  Se196  1  0.58631091  0.58338548  0.80432117  1
  Se  Se197  1  0.58550026  0.92806987  0.30649888  1
  Se  Se198  1  0.59027253  0.92099591  0.80120477  1
  Se  Se199  1  0.90720654  0.23856178  0.31393398  1
  Se  Se200  1  0.91592105  0.25009476  0.79952794  1
  Se  Se201  1  0.90753588  0.57131886  0.30027581  1
  Se  Se202  1  0.90376316  0.57530023  0.81907678  1
  Se  Se203  1  0.91891608  0.91596698  0.30382609  1
  Se  Se204  1  0.90479453  0.91649304  0.81854128  1
  Se  Se205  1  0.07684086  0.07462558  0.30563551  1
  Se  Se206  1  0.08891994  0.09440478  0.80642921  1
  Se  Se207  1  0.09212287  0.41945577  0.30891066  1
  Se  Se208  1  0.07400819  0.41266554  0.80078925  1
  Se  Se209  1  0.07961773  0.75233488  0.31237230  1
  Se  Se210  1  0.09205893  0.76379271  0.80966150  1
  Se  Se211  1  0.41833597  0.09611168  0.31209021  1
  Se  Se212  1  0.41644616  0.08164611  0.79780885  1
  Se  Se213  1  0.42520587  0.42231724  0.30904901  1
  Se  Se214  1  0.41745451  0.42046325  0.81558556  1
  Se  Se215  1  0.42734641  0.76485728  0.31075598  1
  Se  Se216  1  0.42793035  0.75768808  0.80949790  1
  Se  Se217  1  0.74304820  0.07949784  0.30679817  1
  Se  Se218  1  0.75117723  0.07784680  0.80645933  1
  Se  Se219  1  0.74763558  0.41330143  0.29421217  1
  Se  Se220  1  0.74539857  0.41185465  0.80289978  1
  Se  Se221  1  0.75450708  0.75645650  0.31227297  1
  Se  Se222  1  0.74864723  0.74404976  0.80653935  1
  Se  Se223  1  0.24526832  0.08996746  0.19168105  1
  Se  Se224  1  0.25176445  0.08321836  0.69593656  1
  Se  Se225  1  0.24434256  0.41870002  0.19416853  1
  Se  Se226  1  0.23718660  0.41641741  0.69015344  1
  Se  Se227  1  0.24040602  0.75192309  0.19196606  1
  Se  Se228  1  0.24925926  0.75312313  0.68702275  1
  Se  Se229  1  0.58504968  0.08089681  0.19493834  1
  Se  Se230  1  0.59084435  0.08001720  0.69534925  1
  Se  Se231  1  0.58987147  0.41220365  0.19129551  1
  Se  Se232  1  0.58651304  0.41119318  0.70272848  1
  Se  Se233  1  0.57849418  0.75933710  0.19157613  1
  Se  Se234  1  0.58959690  0.74919793  0.69767987  1
  Se  Se235  1  0.91495874  0.07997555  0.20157603  1
  Se  Se236  1  0.90927798  0.08796279  0.69036361  1
  Se  Se237  1  0.91488688  0.41354659  0.18142457  1
  Se  Se238  1  0.91383306  0.41822907  0.69791786  1
  Se  Se239  1  0.90214099  0.75833347  0.19206551  1
  Se  Se240  1  0.91334871  0.75926467  0.69803877  1
  Se  Se241  1  0.08599810  0.23866835  0.19575373  1
  Se  Se242  1  0.07825025  0.25199313  0.68807114  1
  Se  Se243  1  0.08877995  0.56847763  0.18939791  1
  Se  Se244  1  0.07997993  0.58412170  0.69245009  1
  Se  Se245  1  0.08069405  0.91926364  0.19675484  1
  Se  Se246  1  0.08630522  0.91476990  0.68975611  1
  Se  Se247  1  0.42551996  0.24380395  0.19152469  1
  Se  Se248  1  0.42352200  0.24258586  0.68778607  1
  Se  Se249  1  0.42039504  0.57919570  0.19045307  1
  Se  Se250  1  0.42574909  0.57292464  0.69344858  1
  Se  Se251  1  0.42607341  0.91392159  0.18324176  1
  Se  Se252  1  0.41866142  0.91833579  0.69751434  1
  Se  Se253  1  0.74865294  0.25014227  0.19853029  1
  Se  Se254  1  0.74540839  0.25081242  0.69691217  1
  Se  Se255  1  0.75873056  0.58230658  0.17889856  1
  Se  Se256  1  0.75017697  0.58650027  0.70188900  1
  Se  Se257  1  0.74529576  0.91976270  0.20017161  1
  Se  Se258  1  0.75063164  0.92011348  0.69960822  1
