# generated using pymatgen
data_In86Cu29Se144
_symmetry_space_group_name_H-M   'P 1'
_cell_length_a   17.57746728
_cell_length_b   17.57709382
_cell_length_c   23.44070520
_cell_angle_alpha   89.98549260
_cell_angle_beta   89.98979921
_cell_angle_gamma   90.00562303
_symmetry_Int_Tables_number   1
_chemical_formula_structural   In86Cu29Se144
_chemical_formula_sum   'In86 Cu29 Se144'
_cell_volume   7242.25845142
_cell_formula_units_Z   1
loop_
 _symmetry_equiv_pos_site_id
 _symmetry_equiv_pos_as_xyz
  1  'x, y, z'
loop_
 _atom_site_type_symbol
 _atom_site_label
 _atom_site_symmetry_multiplicity
 _atom_site_fract_x
 _atom_site_fract_y
 _atom_site_fract_z
 _atom_site_occupancy
  In  In0  1  0.00077325  0.16608553  0.12086423  1
  In  In1  1  -0.00876110  0.17918053  0.63385795  1
  In  In2  1  0.00358591  0.50258536  0.11416761  1
  In  In3  1  -0.01725214  0.50019481  0.62983611  1
  In  In4  1  0.00926706  0.84282034  0.11738869  1
  In  In5  1  -0.00522963  0.84387945  0.62545691  1
  In  In6  1  0.32614431  0.17241839  0.12316494  1
  In  In7  1  0.34248689  0.15831509  0.63427606  1
  In  In8  1  0.34270094  0.50198336  0.11176513  1
  In  In9  1  0.33504320  0.50192021  0.63650891  1
  In  In10  1  0.32466431  0.84011190  0.12881252  1
  In  In11  1  0.34847166  0.82177523  0.63692430  1
  In  In12  1  0.67252022  0.15813246  0.12344240  1
  In  In13  1  0.68071021  0.19122245  0.60104765  1
  In  In14  1  0.67142056  0.50541873  0.11934665  1
  In  In15  1  0.68209065  0.48484171  0.63627743  1
  In  In16  1  0.66357293  0.82076602  0.12725925  1
  In  In17  1  0.65842236  0.83300318  0.61342404  1
  In  In18  1  0.16364570  0.00093908  0.36198472  1
  In  In19  1  0.17603499  -0.00748604  0.88279170  1
  In  In20  1  0.16311960  0.33812262  0.37155549  1
  In  In21  1  0.16910296  0.33419607  0.87744522  1
  In  In22  1  0.18160930  0.66199343  0.36552462  1
  In  In23  1  0.17047448  0.66180322  0.88316593  1
  In  In24  1  0.49063633  0.00419488  0.38241478  1
  In  In25  1  0.49239547  0.01050239  0.87461449  1
  In  In26  1  0.50170731  0.32243726  0.38660163  1
  In  In27  1  0.51041038  0.34181396  0.86682144  1
  In  In28  1  0.50543224  0.67029158  0.36880869  1
  In  In29  1  0.48974081  0.65576746  0.86828648  1
  In  In30  1  0.83232667  -0.00350295  0.37947349  1
  In  In31  1  0.83987605  -0.00224891  0.87964506  1
  In  In32  1  0.82374138  0.33635778  0.39119432  1
  In  In33  1  0.83498933  0.33145881  0.87420303  1
  In  In34  1  0.82363720  0.67658431  0.38008664  1
  In  In35  1  0.82720158  0.66892917  0.87703623  1
  In  In36  1  -0.00006460  0.15773657  0.37417272  1
  In  In37  1  -0.01137411  0.18066026  0.87816462  1
  In  In38  1  -0.00350756  0.49278794  0.37142619  1
  In  In39  1  0.01155765  0.48626420  0.88355459  1
  In  In40  1  -0.01795561  0.83757833  0.37174563  1
  In  In41  1  0.00232864  0.82972463  0.88396122  1
  In  In42  1  0.34685285  0.15618909  0.37556353  1
  In  In43  1  0.32908160  0.15635999  0.86972694  1
  In  In44  1  0.32922127  0.50695533  0.36945919  1
  In  In45  1  0.33050006  0.49804333  0.88049657  1
  In  In46  1  0.33774583  0.83906750  0.36814443  1
  In  In47  1  0.31835424  0.82128087  0.85923549  1
  In  In48  1  0.66398762  0.16350937  0.39256514  1
  In  In49  1  0.67298102  0.18048477  0.86794356  1
  In  In50  1  0.66130606  0.51120542  0.37667825  1
  In  In51  1  0.66428943  0.50133877  0.87525439  1
  In  In52  1  0.67362744  0.82685194  0.38351058  1
  In  In53  1  0.67852475  0.83014370  0.87308422  1
  In  In54  1  0.16768946  0.00079584  0.12318122  1
  In  In55  1  0.16802033  0.00296669  0.63088729  1
  In  In56  1  0.18698241  0.33772437  0.10139236  1
  In  In57  1  0.16435739  0.33654526  0.64193483  1
  In  In58  1  0.17148813  0.67151744  0.11881148  1
  In  In59  1  0.18150607  0.67431110  0.63362280  1
  In  In60  1  0.50113032  -0.00903098  0.13324431  1
  In  In61  1  0.50351024  -0.00324810  0.61360752  1
  In  In62  1  0.48425702  0.34233698  0.12152129  1
  In  In63  1  0.51281162  0.31988278  0.63701651  1
  In  In64  1  0.50876356  0.65843393  0.12980231  1
  In  In65  1  0.50189282  0.67184657  0.62994190  1
  In  In66  1  0.84586751  0.00964891  0.12107647  1
  In  In67  1  0.82524074  0.00664789  0.61259508  1
  In  In68  1  0.83511470  0.33584221  0.11511378  1
  In  In69  1  0.82634024  0.33148804  0.62801481  1
  In  In70  1  0.82673859  0.66439087  0.11893053  1
  In  In71  1  0.82289880  0.65503395  0.62249768  1
  In  In72  1  0.66390093  0.00559663  0.73956459  1
  In  In73  1  0.00372651  0.00156368  0.74555586  1
  In  In74  1  0.16189112  0.83381177  0.50374274  1
  In  In75  1  0.00115611  0.67551781  0.23809885  1
  In  In76  1  0.50424779  0.17195903  -0.00057062  1
  In  In77  1  0.66157453  -0.00245188  0.26030207  1
  In  In78  1  0.66335259  0.33146215  0.26382270  1
  In  In79  1  0.16142186  0.50108171  0.49284975  1
  In  In80  1  0.33249324  0.33246287  0.24330146  1
  In  In81  1  0.50646110  0.49330497  0.50291741  1
  In  In82  1  0.50048098  0.83462668  0.00304272  1
  In  In83  1  0.00469615  0.65885244  0.76010030  1
  In  In84  1  0.16183852  0.16435183  0.50496016  1
  In  In85  1  0.00471095  0.33089780  0.24584952  1
  Cu  Cu86  1  0.67049756  0.66171498  0.50191951  1
  Cu  Cu87  1  0.68233192  0.00306506  -0.00186201  1
  Cu  Cu88  1  0.17047875  0.50104279  0.76105324  1
  Cu  Cu89  1  0.66457451  0.66381714  -0.00012128  1
  Cu  Cu90  1  0.33515616  -0.00442331  0.50179523  1
  Cu  Cu91  1  0.49016354  0.82482494  0.25153170  1
  Cu  Cu92  1  0.16856187  0.16403601  0.24319650  1
  Cu  Cu93  1  0.49900462  0.50798299  0.75231264  1
  Cu  Cu94  1  0.49661406  0.16848656  0.74787652  1
  Cu  Cu95  1  0.83661947  0.16989018  0.24838074  1
  Cu  Cu96  1  0.83197169  0.51207927  0.24489267  1
  Cu  Cu97  1  0.82702070  0.84052219  0.25414682  1
  Cu  Cu98  1  0.49841538  0.49778922  0.24874375  1
  Cu  Cu99  1  0.33613684  0.32586200  0.50762598  1
  Cu  Cu100  1  -0.00903214  0.66888639  0.49976399  1
  Cu  Cu101  1  0.16520643  0.83504498  0.24221013  1
  Cu  Cu102  1  0.66913213  0.33771500  -0.00654326  1
  Cu  Cu103  1  0.82911283  0.48881570  0.75294736  1
  Cu  Cu104  1  0.33386816  0.66941919  -0.00467929  1
  Cu  Cu105  1  -0.00894285  0.33594602  0.50704122  1
  Cu  Cu106  1  0.83260217  0.82520054  0.74809087  1
  Cu  Cu107  1  0.16412896  0.16816297  0.75810528  1
  Cu  Cu108  1  -0.00110929  0.32810743  -0.00339084  1
  Cu  Cu109  1  0.50655629  0.83987473  0.74412018  1
  Cu  Cu110  1  -0.01134078  -0.00032967  0.49869718  1
  Cu  Cu111  1  0.00486875  0.00286112  0.00013502  1
  Cu  Cu112  1  0.33118612  -0.00204621  0.00121299  1
  Cu  Cu113  1  0.34042883  0.67138316  0.50587061  1
  Cu  Cu114  1  -0.00973698  0.66751139  -0.00008955  1
  Se  Se115  1  0.08822332  0.08633478  0.05378989  1
  Se  Se116  1  0.06831916  0.07506090  0.56341393  1
  Se  Se117  1  0.08219999  0.41427666  0.04789318  1
  Se  Se118  1  0.08021234  0.41329689  0.56192532  1
  Se  Se119  1  0.07995744  0.74721902  0.05192099  1
  Se  Se120  1  0.07560533  0.73791285  0.56393231  1
  Se  Se121  1  0.41932435  0.07315324  0.05906195  1
  Se  Se122  1  0.41193659  0.08589958  0.55364641  1
  Se  Se123  1  0.40651360  0.40453465  0.04350849  1
  Se  Se124  1  0.41168413  0.41168266  0.56537403  1
  Se  Se125  1  0.41167412  0.74435093  0.06278387  1
  Se  Se126  1  0.42436538  0.75411770  0.55627335  1
  Se  Se127  1  0.76015446  0.09040553  0.05167229  1
  Se  Se128  1  0.72693194  0.07106796  0.54793415  1
  Se  Se129  1  0.75114062  0.42076523  0.05048026  1
  Se  Se130  1  0.75698237  0.42173912  0.55645089  1
  Se  Se131  1  0.74568455  0.75219096  0.05129364  1
  Se  Se132  1  0.75265520  0.74815264  0.55399028  1
  Se  Se133  1  0.26396151  0.24369960  0.04079779  1
  Se  Se134  1  0.24804962  0.25488658  0.56671602  1
  Se  Se135  1  0.25065392  0.58575425  0.04996058  1
  Se  Se136  1  0.25538056  0.58606059  0.55724616  1
  Se  Se137  1  0.24663377  0.91333130  0.05291397  1
  Se  Se138  1  0.25601969  0.91764279  0.56425590  1
  Se  Se139  1  0.59380228  0.26194331  0.06255659  1
  Se  Se140  1  0.56874974  0.25590288  0.54854082  1
  Se  Se141  1  0.57911456  0.58048627  0.05185685  1
  Se  Se142  1  0.59225069  0.58292405  0.56506071  1
  Se  Se143  1  0.59708900  0.92770338  0.05811597  1
  Se  Se144  1  0.58509018  0.91832208  0.54315780  1
  Se  Se145  1  0.91579745  0.24638443  0.05208694  1
  Se  Se146  1  0.91186122  0.24742904  0.55712839  1
  Se  Se147  1  0.90975497  0.58042799  0.05181717  1
  Se  Se148  1  0.91430750  0.58076028  0.55329144  1
  Se  Se149  1  0.91720659  0.91914319  0.05136760  1
  Se  Se150  1  0.91016634  0.91322332  0.55261569  1
  Se  Se151  1  0.07470100  0.26050624  0.44406736  1
  Se  Se152  1  0.08607192  0.24675593  0.94509338  1
  Se  Se153  1  0.07442659  0.59846420  0.43492367  1
  Se  Se154  1  0.07817156  0.58618900  0.94841030  1
  Se  Se155  1  0.07619613  0.92522014  0.43982063  1
  Se  Se156  1  0.08606252  0.91463284  0.94922564  1
  Se  Se157  1  0.41303590  0.24157174  0.45121887  1
  Se  Se158  1  0.41935871  0.25079606  0.93088508  1
  Se  Se159  1  0.41322549  0.58530315  0.44391843  1
  Se  Se160  1  0.41823199  0.58299530  0.94738666  1
  Se  Se161  1  0.41285119  0.90896728  0.44706345  1
  Se  Se162  1  0.41027571  0.91853157  0.93951870  1
  Se  Se163  1  0.75377421  0.24308227  0.45565159  1
  Se  Se164  1  0.75155816  0.24853685  0.94603712  1
  Se  Se165  1  0.75297505  0.58010067  0.44621086  1
  Se  Se166  1  0.74907629  0.58187725  0.94575762  1
  Se  Se167  1  0.74901919  0.91830478  0.44725222  1
  Se  Se168  1  0.75562216  0.91188742  0.94494806  1
  Se  Se169  1  0.24799292  0.07222367  0.44310713  1
  Se  Se170  1  0.25166290  0.08608213  0.94900656  1
  Se  Se171  1  0.26199384  0.40630308  0.44299475  1
  Se  Se172  1  0.23472926  0.42881050  0.94682181  1
  Se  Se173  1  0.25440221  0.74443987  0.44414598  1
  Se  Se174  1  0.25172554  0.75685001  0.94540770  1
  Se  Se175  1  0.58324439  0.07058445  0.45172354  1
  Se  Se176  1  0.59623222  0.07926017  0.93952564  1
  Se  Se177  1  0.60026850  0.40476545  0.44475429  1
  Se  Se178  1  0.58004908  0.41950845  0.94584688  1
  Se  Se179  1  0.58419313  0.74009042  0.44608288  1
  Se  Se180  1  0.58502738  0.74510170  0.93881559  1
  Se  Se181  1  0.91232583  0.08882498  0.44549531  1
  Se  Se182  1  0.91962729  0.08388808  0.94636636  1
  Se  Se183  1  0.91812347  0.42290863  0.44794703  1
  Se  Se184  1  0.91363656  0.41426423  0.94688141  1
  Se  Se185  1  0.91233561  0.75635918  0.44719991  1
  Se  Se186  1  0.90892312  0.75203048  0.94655190  1
  Se  Se187  1  0.24438424  0.24150419  0.30988613  1
  Se  Se188  1  0.25129551  0.25141628  0.80677726  1
  Se  Se189  1  0.25019001  0.57606633  0.29446625  1
  Se  Se190  1  0.25350738  0.58788561  0.80973731  1
  Se  Se191  1  0.24873273  0.91511369  0.29984511  1
  Se  Se192  1  0.26145740  0.93444812  0.80425390  1
  Se  Se193  1  0.57408015  0.23229896  0.31354120  1
  Se  Se194  1  0.58417807  0.25057758  0.79796051  1
  Se  Se195  1  0.58365662  0.58208641  0.30021206  1
  Se  Se196  1  0.58849198  0.58811963  0.80312877  1
  Se  Se197  1  0.57201226  0.90216817  0.31451577  1
  Se  Se198  1  0.58173493  0.91741680  0.81089725  1
  Se  Se199  1  0.90958617  0.25382839  0.31184316  1
  Se  Se200  1  0.91242724  0.24988314  0.80130570  1
  Se  Se201  1  0.91485803  0.58816143  0.30631084  1
  Se  Se202  1  0.91072550  0.56825440  0.81452297  1
  Se  Se203  1  0.91320258  0.92685776  0.30064507  1
  Se  Se204  1  0.91469852  0.90550143  0.80561863  1
  Se  Se205  1  0.07968878  0.08770308  0.29751797  1
  Se  Se206  1  0.08454556  0.08475458  0.81610231  1
  Se  Se207  1  0.09540662  0.43070245  0.29947433  1
  Se  Se208  1  0.08321891  0.41281745  0.80451852  1
  Se  Se209  1  0.08743382  0.75952810  0.30982455  1
  Se  Se210  1  0.09250408  0.75706594  0.81143506  1
  Se  Se211  1  0.41156834  0.06973138  0.30315576  1
  Se  Se212  1  0.41512294  0.08036270  0.79741173  1
  Se  Se213  1  0.42648359  0.41441811  0.31233786  1
  Se  Se214  1  0.41650375  0.42418846  0.80655575  1
  Se  Se215  1  0.40678695  0.73908296  0.30376435  1
  Se  Se216  1  0.42646820  0.75689370  0.80192527  1
  Se  Se217  1  0.75367990  0.09605115  0.31074763  1
  Se  Se218  1  0.75644832  0.08195337  0.80792249  1
  Se  Se219  1  0.76173644  0.42808831  0.31020098  1
  Se  Se220  1  0.74287654  0.41102717  0.80812463  1
  Se  Se221  1  0.74670635  0.75155063  0.30366384  1
  Se  Se222  1  0.74806224  0.74334395  0.79997794  1
  Se  Se223  1  0.25497235  0.08184809  0.19231308  1
  Se  Se224  1  0.24474675  0.08732738  0.69946113  1
  Se  Se225  1  0.24613520  0.42252453  0.18356147  1
  Se  Se226  1  0.25337614  0.41869948  0.70469741  1
  Se  Se227  1  0.24887014  0.74712289  0.19512990  1
  Se  Se228  1  0.25469051  0.75411344  0.70511263  1
  Se  Se229  1  0.57885326  0.09146521  0.19556879  1
  Se  Se230  1  0.57699490  0.09669527  0.68129958  1
  Se  Se231  1  0.58127800  0.41609042  0.19182807  1
  Se  Se232  1  0.58049793  0.42011496  0.70038590  1
  Se  Se233  1  0.58143428  0.74777936  0.20036145  1
  Se  Se234  1  0.59144712  0.75548186  0.69388465  1
  Se  Se235  1  0.92123986  0.08885745  0.19600070  1
  Se  Se236  1  0.90174555  0.08476174  0.69263395  1
  Se  Se237  1  0.91114602  0.42573715  0.19018408  1
  Se  Se238  1  0.91525407  0.40943432  0.69916883  1
  Se  Se239  1  0.90461394  0.76569109  0.18600968  1
  Se  Se240  1  0.91817581  0.74528063  0.69148336  1
  Se  Se241  1  0.10032292  0.25303234  0.18214533  1
  Se  Se242  1  0.07893725  0.24969284  0.70463816  1
  Se  Se243  1  0.08972071  0.57696216  0.18783321  1
  Se  Se244  1  0.09301724  0.57403238  0.69108020  1
  Se  Se245  1  0.08092491  0.92146413  0.19400913  1
  Se  Se246  1  0.09601307  0.90142257  0.69625392  1
  Se  Se247  1  0.42875733  0.23933533  0.19283619  1
  Se  Se248  1  0.40879226  0.25684325  0.70068202  1
  Se  Se249  1  0.41564306  0.57655144  0.19150751  1
  Se  Se250  1  0.41606413  0.59249908  0.69891828  1
  Se  Se251  1  0.41326782  0.91413889  0.19945096  1
  Se  Se252  1  0.42462009  0.92546487  0.69209445  1
  Se  Se253  1  0.75431296  0.25195670  0.19268406  1
  Se  Se254  1  0.74054498  0.24496002  0.69153107  1
  Se  Se255  1  0.74401462  0.59005872  0.19335840  1
  Se  Se256  1  0.75201394  0.58239166  0.70273307  1
  Se  Se257  1  0.74966869  0.91956137  0.18889115  1
  Se  Se258  1  0.75764211  0.90914549  0.68736790  1
