# generated using pymatgen
data_In86Cu29Se144
_symmetry_space_group_name_H-M   'P 1'
_cell_length_a   17.58876349
_cell_length_b   17.59271578
_cell_length_c   23.44273059
_cell_angle_alpha   89.98901664
_cell_angle_beta   90.02695106
_cell_angle_gamma   89.99582814
_symmetry_Int_Tables_number   1
_chemical_formula_structural   In86Cu29Se144
_chemical_formula_sum   'In86 Cu29 Se144'
_cell_volume   7253.97968375
_cell_formula_units_Z   1
loop_
 _symmetry_equiv_pos_site_id
 _symmetry_equiv_pos_as_xyz
  1  'x, y, z'
loop_
 _atom_site_type_symbol
 _atom_site_label
 _atom_site_symmetry_multiplicity
 _atom_site_fract_x
 _atom_site_fract_y
 _atom_site_fract_z
 _atom_site_occupancy
  In  In0  1  0.01132448  0.17955671  0.11605067  1
  In  In1  1  0.00747497  0.17582311  0.63592348  1
  In  In2  1  -0.00947763  0.51530123  0.13060908  1
  In  In3  1  0.00274496  0.49732892  0.63652486  1
  In  In4  1  -0.02058920  0.83384485  0.12860743  1
  In  In5  1  -0.01126156  0.82206142  0.61912711  1
  In  In6  1  0.34061263  0.16649034  0.12219104  1
  In  In7  1  0.33549940  0.15384616  0.62613959  1
  In  In8  1  0.33609117  0.48741772  0.12051297  1
  In  In9  1  0.35076968  0.50130893  0.63224928  1
  In  In10  1  0.34659204  0.84305563  0.12624952  1
  In  In11  1  0.32418751  0.84384767  0.63029623  1
  In  In12  1  0.66505277  0.16233342  0.12831076  1
  In  In13  1  0.66095921  0.17402483  0.62921098  1
  In  In14  1  0.66091375  0.50236093  0.11252872  1
  In  In15  1  0.65926815  0.49352477  0.62816891  1
  In  In16  1  0.68683727  0.82746426  0.14339656  1
  In  In17  1  0.68510164  0.83442022  0.62140575  1
  In  In18  1  0.16574654  -0.01101665  0.37431921  1
  In  In19  1  0.17768200  0.00498075  0.87426772  1
  In  In20  1  0.16339279  0.32849921  0.36737148  1
  In  In21  1  0.15306522  0.33045023  0.87475444  1
  In  In22  1  0.16711170  0.68362389  0.37800311  1
  In  In23  1  0.17113259  0.67214162  0.86792787  1
  In  In24  1  0.50892439  0.01354956  0.36338707  1
  In  In25  1  0.50487398  0.00356836  0.87066898  1
  In  In26  1  0.49512509  0.32044013  0.35639203  1
  In  In27  1  0.50512623  0.31536523  0.88392145  1
  In  In28  1  0.50725906  0.66008902  0.36919566  1
  In  In29  1  0.49626577  0.66928075  0.88092757  1
  In  In30  1  0.82209482  -0.00997777  0.36840740  1
  In  In31  1  0.81974540  0.01467427  0.88695917  1
  In  In32  1  0.82880335  0.33142598  0.35707147  1
  In  In33  1  0.82931560  0.33440517  0.88112944  1
  In  In34  1  0.83235212  0.67285976  0.36641313  1
  In  In35  1  0.83526787  0.65594552  0.88868499  1
  In  In36  1  -0.00979025  0.16966234  0.36845097  1
  In  In37  1  -0.00828731  0.17354717  0.88539697  1
  In  In38  1  -0.01011821  0.49479100  0.36669339  1
  In  In39  1  -0.00696976  0.49649281  0.87390148  1
  In  In40  1  0.00380350  0.82778514  0.37767826  1
  In  In41  1  -0.00393469  0.81996313  0.87277065  1
  In  In42  1  0.34545993  0.17310138  0.36221265  1
  In  In43  1  0.33773264  0.15115658  0.88745488  1
  In  In44  1  0.34723547  0.49700126  0.37082589  1
  In  In45  1  0.34134839  0.51425912  0.88543909  1
  In  In46  1  0.31823071  0.83619622  0.37479248  1
  In  In47  1  0.33439739  0.83393939  0.86807284  1
  In  In48  1  0.65489887  0.15657277  0.35632873  1
  In  In49  1  0.66395989  0.16672623  0.87713967  1
  In  In50  1  0.67032024  0.49978167  0.36200072  1
  In  In51  1  0.67891175  0.49068202  0.89045560  1
  In  In52  1  0.67386471  0.83156982  0.36930058  1
  In  In53  1  0.66280555  0.84883460  0.87610433  1
  In  In54  1  0.17284608  0.01374145  0.11681829  1
  In  In55  1  0.18023674  0.00156291  0.62946787  1
  In  In56  1  0.17946317  0.32963820  0.13054986  1
  In  In57  1  0.16437687  0.31404623  0.63495144  1
  In  In58  1  0.16289889  0.65427184  0.12429343  1
  In  In59  1  0.15710979  0.67774995  0.63344916  1
  In  In60  1  0.50030155  0.01663308  0.13840625  1
  In  In61  1  0.49022658  0.00702244  0.62989002  1
  In  In62  1  0.49793502  0.32517865  0.12400767  1
  In  In63  1  0.51495524  0.33397959  0.62557728  1
  In  In64  1  0.52159758  0.67421462  0.11614948  1
  In  In65  1  0.50110763  0.65524980  0.62910108  1
  In  In66  1  0.82090080  -0.01009200  0.11901138  1
  In  In67  1  0.83587767  -0.01214391  0.62533707  1
  In  In68  1  0.83178776  0.33920856  0.12091926  1
  In  In69  1  0.83156433  0.33555790  0.63644983  1
  In  In70  1  0.82944404  0.66859821  0.11746997  1
  In  In71  1  0.83460212  0.68034404  0.62592917  1
  In  In72  1  0.82747340  0.16003444  0.49111859  1
  In  In73  1  0.50233087  0.83697606  0.49410508  1
  In  In74  1  0.16731941  0.49574010  -0.00013701  1
  In  In75  1  0.16738454  0.83464948  -0.00848499  1
  In  In76  1  0.50759011  0.50109244  0.49967416  1
  In  In77  1  0.83235321  0.50063870  0.49324578  1
  In  In78  1  0.33168028  0.33408462  0.75772640  1
  In  In79  1  0.50559266  0.84061756  0.00387436  1
  In  In80  1  -0.00054327  0.00185495  0.24797947  1
  In  In81  1  -0.00197950  0.00244242  0.75230529  1
  In  In82  1  0.16674559  0.50357949  0.50607299  1
  In  In83  1  0.33356572  0.66552885  0.24902242  1
  In  In84  1  0.66987021  0.66806283  0.75032889  1
  In  In85  1  0.16804574  0.15629621  0.50846035  1
  Cu  Cu86  1  -0.00017852  -0.01410012  0.50075164  1
  Cu  Cu87  1  0.50064951  0.16643695  0.75484660  1
  Cu  Cu88  1  0.49847734  0.83738664  0.75090959  1
  Cu  Cu89  1  0.33075779  0.67569319  0.50579829  1
  Cu  Cu90  1  0.16603469  0.83321310  0.75012098  1
  Cu  Cu91  1  0.33492910  0.00237466  0.50195700  1
  Cu  Cu92  1  0.33842628  0.32914106  0.48796179  1
  Cu  Cu93  1  0.16038817  0.49971251  0.25001635  1
  Cu  Cu94  1  0.16214252  0.83433774  0.24926886  1
  Cu  Cu95  1  0.82635752  0.17045631  0.76062995  1
  Cu  Cu96  1  0.33355298  0.32310152  0.00318732  1
  Cu  Cu97  1  0.17448598  0.16967119  0.24134015  1
  Cu  Cu98  1  -0.00317508  0.66898720  0.00209777  1
  Cu  Cu99  1  0.83455746  0.83472888  0.75022221  1
  Cu  Cu100  1  0.50563968  0.83924933  0.24855373  1
  Cu  Cu101  1  0.82706231  0.50180955  0.23964544  1
  Cu  Cu102  1  0.50212156  0.49503571  0.24110014  1
  Cu  Cu103  1  0.66117929  0.00190625  0.00583452  1
  Cu  Cu104  1  0.17046747  0.50470421  0.75721127  1
  Cu  Cu105  1  -0.00193085  0.32461732  0.50460097  1
  Cu  Cu106  1  -0.00452752  0.34053613  0.00175429  1
  Cu  Cu107  1  -0.00504636  0.00038143  0.00330231  1
  Cu  Cu108  1  0.83506758  0.49960007  0.76071207  1
  Cu  Cu109  1  0.66385187  -0.00099230  0.49154899  1
  Cu  Cu110  1  0.50498910  0.50008183  0.75560921  1
  Cu  Cu111  1  0.66128148  0.32794595  0.49590220  1
  Cu  Cu112  1  0.84087824  0.17198323  0.23932865  1
  Cu  Cu113  1  0.66641481  0.32570059  0.00493015  1
  Cu  Cu114  1  -0.00148619  0.66680855  0.49850654  1
  Se  Se115  1  0.08316226  0.08543488  0.04822865  1
  Se  Se116  1  0.06766024  0.07138878  0.56486545  1
  Se  Se117  1  0.07808315  0.41523452  0.06561801  1
  Se  Se118  1  0.07980622  0.40379508  0.56241192  1
  Se  Se119  1  0.08059141  0.74897949  0.05916452  1
  Se  Se120  1  0.08359250  0.74773475  0.55306143  1
  Se  Se121  1  0.42148920  0.07714715  0.05741102  1
  Se  Se122  1  0.42041244  0.08630367  0.55114502  1
  Se  Se123  1  0.41833399  0.40964609  0.05056611  1
  Se  Se124  1  0.41270980  0.40751571  0.55526878  1
  Se  Se125  1  0.41076574  0.74506179  0.05749568  1
  Se  Se126  1  0.41768863  0.74994323  0.56393358  1
  Se  Se127  1  0.74950422  0.08631462  0.05438327  1
  Se  Se128  1  0.74301512  0.07548984  0.55849548  1
  Se  Se129  1  0.75003459  0.41784788  0.04865141  1
  Se  Se130  1  0.74343638  0.40677607  0.55586158  1
  Se  Se131  1  0.74162500  0.75696850  0.05694646  1
  Se  Se132  1  0.75019488  0.74368360  0.55134623  1
  Se  Se133  1  0.24565162  0.24483317  0.05527965  1
  Se  Se134  1  0.26041059  0.25812515  0.55694597  1
  Se  Se135  1  0.26037840  0.58906746  0.05485951  1
  Se  Se136  1  0.26009585  0.58911992  0.56683455  1
  Se  Se137  1  0.25847783  0.92039715  0.05379259  1
  Se  Se138  1  0.24916290  0.91991811  0.55275577  1
  Se  Se139  1  0.58208578  0.24166767  0.05577594  1
  Se  Se140  1  0.58073438  0.24606571  0.55164601  1
  Se  Se141  1  0.56168123  0.57079311  0.04460576  1
  Se  Se142  1  0.59956412  0.59381685  0.55640952  1
  Se  Se143  1  0.58988727  0.92211734  0.07273209  1
  Se  Se144  1  0.58813719  0.92378548  0.56006072  1
  Se  Se145  1  0.91401094  0.25266297  0.05256447  1
  Se  Se146  1  0.91284410  0.24759386  0.56116427  1
  Se  Se147  1  0.91417311  0.58069917  0.05008612  1
  Se  Se148  1  0.92495438  0.58153945  0.55956102  1
  Se  Se149  1  0.91159126  0.91309912  0.05097759  1
  Se  Se150  1  0.90883208  0.90793157  0.55050552  1
  Se  Se151  1  0.07875657  0.24656472  0.44410707  1
  Se  Se152  1  0.08093708  0.25485509  0.95226911  1
  Se  Se153  1  0.07582919  0.58306907  0.43880245  1
  Se  Se154  1  0.08145813  0.59272271  0.94091678  1
  Se  Se155  1  0.08785618  0.90990982  0.44693065  1
  Se  Se156  1  0.07123930  0.92445135  0.93584709  1
  Se  Se157  1  0.42392804  0.24845478  0.43783805  1
  Se  Se158  1  0.41928704  0.23867743  0.95284396  1
  Se  Se159  1  0.40906119  0.59498104  0.44513055  1
  Se  Se160  1  0.43630342  0.57662711  0.95534818  1
  Se  Se161  1  0.41136864  0.92620501  0.43566594  1
  Se  Se162  1  0.41253796  0.92150958  0.93959631  1
  Se  Se163  1  0.74261623  0.25450008  0.43219943  1
  Se  Se164  1  0.74943451  0.24528429  0.94726228  1
  Se  Se165  1  0.74016220  0.58818410  0.43726428  1
  Se  Se166  1  0.74017041  0.59138723  0.95568850  1
  Se  Se167  1  0.74920763  0.91260323  0.44506086  1
  Se  Se168  1  0.74535732  0.91921800  0.95154512  1
  Se  Se169  1  0.25544070  0.08113958  0.43748991  1
  Se  Se170  1  0.24172356  0.08132043  0.95351662  1
  Se  Se171  1  0.25356475  0.41453773  0.43914494  1
  Se  Se172  1  0.25861831  0.40565731  0.93919817  1
  Se  Se173  1  0.24757671  0.75674288  0.45237940  1
  Se  Se174  1  0.26333791  0.74041238  0.94201411  1
  Se  Se175  1  0.58581647  0.08792074  0.44031045  1
  Se  Se176  1  0.58119954  0.08141295  0.94591368  1
  Se  Se177  1  0.58658035  0.41080119  0.43328449  1
  Se  Se178  1  0.58404740  0.40685514  0.94842706  1
  Se  Se179  1  0.58979696  0.74053804  0.44067878  1
  Se  Se180  1  0.59369405  0.74883269  0.94333874  1
  Se  Se181  1  0.92576133  0.06847453  0.43790238  1
  Se  Se182  1  0.91146712  0.08827352  0.95345717  1
  Se  Se183  1  0.91941450  0.39915980  0.44054887  1
  Se  Se184  1  0.91240941  0.42292879  0.94794808  1
  Se  Se185  1  0.91490732  0.74514784  0.44201970  1
  Se  Se186  1  0.91410330  0.75391398  0.94954944  1
  Se  Se187  1  0.25248497  0.25418430  0.30030204  1
  Se  Se188  1  0.24849096  0.24187975  0.81753750  1
  Se  Se189  1  0.24167924  0.57829255  0.31331235  1
  Se  Se190  1  0.25903255  0.58265571  0.80852218  1
  Se  Se191  1  0.24814389  0.91794530  0.29883999  1
  Se  Se192  1  0.24860386  0.91786827  0.80231297  1
  Se  Se193  1  0.59707467  0.26070258  0.29271360  1
  Se  Se194  1  0.58499216  0.25108735  0.80450477  1
  Se  Se195  1  0.58180414  0.58096152  0.29592451  1
  Se  Se196  1  0.58640909  0.57960037  0.81506786  1
  Se  Se197  1  0.59033134  0.91879604  0.30418384  1
  Se  Se198  1  0.58541628  0.92096202  0.79944477  1
  Se  Se199  1  0.92392890  0.25433457  0.29409035  1
  Se  Se200  1  0.91314054  0.25181562  0.81108869  1
  Se  Se201  1  0.90877678  0.57926271  0.30107247  1
  Se  Se202  1  0.91509239  0.58992126  0.80904012  1
  Se  Se203  1  0.91417547  0.90528259  0.30451266  1
  Se  Se204  1  0.90671340  0.91775760  0.81466519  1
  Se  Se205  1  0.09436451  0.09304088  0.30698801  1
  Se  Se206  1  0.08245239  0.09177706  0.81398277  1
  Se  Se207  1  0.07910974  0.41359281  0.30275986  1
  Se  Se208  1  0.08346221  0.42154076  0.80582649  1
  Se  Se209  1  0.08251897  0.74901750  0.30272390  1
  Se  Se210  1  0.08168258  0.74852453  0.80036370  1
  Se  Se211  1  0.40748148  0.07326890  0.29784200  1
  Se  Se212  1  0.41382420  0.08439379  0.80548150  1
  Se  Se213  1  0.41494903  0.41666460  0.29545939  1
  Se  Se214  1  0.42476061  0.42087936  0.81718538  1
  Se  Se215  1  0.42203452  0.76000352  0.30975469  1
  Se  Se216  1  0.42260655  0.74902990  0.80525498  1
  Se  Se217  1  0.76523294  0.09091407  0.30130227  1
  Se  Se218  1  0.74364036  0.08054015  0.80610531  1
  Se  Se219  1  0.74502808  0.41447283  0.29143240  1
  Se  Se220  1  0.74732592  0.41710609  0.80918840  1
  Se  Se221  1  0.73700080  0.73825902  0.29839185  1
  Se  Se222  1  0.75564696  0.75624574  0.81379493  1
  Se  Se223  1  0.25471240  0.08167582  0.19240989  1
  Se  Se224  1  0.23565836  0.10271534  0.69574259  1
  Se  Se225  1  0.25077313  0.42425128  0.19772923  1
  Se  Se226  1  0.24434544  0.42407844  0.69109298  1
  Se  Se227  1  0.24406551  0.75654614  0.18705183  1
  Se  Se228  1  0.25351687  0.74995368  0.69819176  1
  Se  Se229  1  0.58910265  0.08995236  0.20667248  1
  Se  Se230  1  0.58103237  0.08541959  0.69537140  1
  Se  Se231  1  0.58538618  0.41599216  0.18506954  1
  Se  Se232  1  0.58554245  0.41404333  0.70243459  1
  Se  Se233  1  0.58386475  0.74883623  0.19897458  1
  Se  Se234  1  0.57987224  0.75945101  0.68842902  1
  Se  Se235  1  0.91838289  0.08842003  0.18038210  1
  Se  Se236  1  0.90308789  0.09324880  0.69304491  1
  Se  Se237  1  0.91652897  0.41782604  0.19294330  1
  Se  Se238  1  0.91673903  0.41650328  0.70285100  1
  Se  Se239  1  0.92187821  0.73203573  0.19188122  1
  Se  Se240  1  0.91874520  0.74886651  0.70066214  1
  Se  Se241  1  0.08485811  0.25301872  0.19534013  1
  Se  Se242  1  0.07533405  0.25824958  0.70978695  1
  Se  Se243  1  0.08062565  0.58897817  0.20093130  1
  Se  Se244  1  0.08520940  0.58438067  0.70046308  1
  Se  Se245  1  0.08930980  0.91466979  0.18353244  1
  Se  Se246  1  0.08322146  0.91103174  0.68828171  1
  Se  Se247  1  0.40352975  0.26019628  0.19372066  1
  Se  Se248  1  0.42203882  0.24875538  0.69209450  1
  Se  Se249  1  0.42284414  0.58310541  0.18443726  1
  Se  Se250  1  0.42050128  0.58564192  0.70591873  1
  Se  Se251  1  0.41768131  0.92183883  0.20108040  1
  Se  Se252  1  0.41210032  0.92095576  0.69848430  1
  Se  Se253  1  0.75248357  0.25309924  0.18996129  1
  Se  Se254  1  0.74579846  0.25114729  0.69985406  1
  Se  Se255  1  0.74412601  0.58215223  0.18393360  1
  Se  Se256  1  0.76028973  0.57411761  0.69042241  1
  Se  Se257  1  0.75725094  0.92648980  0.20499536  1
  Se  Se258  1  0.74978380  0.91808716  0.69895975  1
