# generated using pymatgen
data_In86Cu29Se144
_symmetry_space_group_name_H-M   'P 1'
_cell_length_a   17.57092637
_cell_length_b   17.57289818
_cell_length_c   23.43357222
_cell_angle_alpha   90.00719978
_cell_angle_beta   89.99302781
_cell_angle_gamma   90.00178404
_symmetry_Int_Tables_number   1
_chemical_formula_structural   In86Cu29Se144
_chemical_formula_sum   'In86 Cu29 Se144'
_cell_volume   7235.63319160
_cell_formula_units_Z   1
loop_
 _symmetry_equiv_pos_site_id
 _symmetry_equiv_pos_as_xyz
  1  'x, y, z'
loop_
 _atom_site_type_symbol
 _atom_site_label
 _atom_site_symmetry_multiplicity
 _atom_site_fract_x
 _atom_site_fract_y
 _atom_site_fract_z
 _atom_site_occupancy
  In  In0  1  0.00132679  0.16353047  0.13136676  1
  In  In1  1  -0.00719636  0.17770866  0.62737058  1
  In  In2  1  -0.01386049  0.50114067  0.12758264  1
  In  In3  1  -0.00301068  0.50033313  0.62295104  1
  In  In4  1  0.01518316  0.83879295  0.11411637  1
  In  In5  1  -0.01535390  0.83117052  0.62323934  1
  In  In6  1  0.33282071  0.16657335  0.10717648  1
  In  In7  1  0.32841817  0.17369358  0.64569575  1
  In  In8  1  0.34786340  0.49220677  0.12283474  1
  In  In9  1  0.32949681  0.50320878  0.63283510  1
  In  In10  1  0.32596398  0.82777918  0.11241706  1
  In  In11  1  0.33595927  0.83047463  0.64162450  1
  In  In12  1  0.66212556  0.17501347  0.12159956  1
  In  In13  1  0.68018606  0.16515527  0.62511391  1
  In  In14  1  0.66444635  0.50153568  0.13000430  1
  In  In15  1  0.67937180  0.49465879  0.62930838  1
  In  In16  1  0.65591461  0.82121476  0.11630222  1
  In  In17  1  0.67028303  0.82848168  0.62872080  1
  In  In18  1  0.16775639  0.01846526  0.37296564  1
  In  In19  1  0.19065278  -0.01232501  0.89436784  1
  In  In20  1  0.16285567  0.35294234  0.38253155  1
  In  In21  1  0.16087421  0.32075763  0.87101225  1
  In  In22  1  0.15907643  0.65491029  0.37435790  1
  In  In23  1  0.16669941  0.66897187  0.87109363  1
  In  In24  1  0.49843830  0.01145875  0.37072900  1
  In  In25  1  0.47121095  0.01776816  0.89667866  1
  In  In26  1  0.50454082  0.32276084  0.37193351  1
  In  In27  1  0.50447566  0.33948751  0.87132954  1
  In  In28  1  0.50142117  0.66172164  0.36548278  1
  In  In29  1  0.50122517  0.66508917  0.87707989  1
  In  In30  1  0.83769562  -0.01428426  0.38071665  1
  In  In31  1  0.82582604  -0.01026649  0.87421818  1
  In  In32  1  0.83399452  0.33417752  0.37578126  1
  In  In33  1  0.83162986  0.33151912  0.86393875  1
  In  In34  1  0.83513237  0.67668110  0.38213292  1
  In  In35  1  0.83795706  0.67311987  0.86538039  1
  In  In36  1  -0.00742605  0.15718162  0.36714658  1
  In  In37  1  0.00407824  0.17793350  0.87058165  1
  In  In38  1  0.01056426  0.49787204  0.38652448  1
  In  In39  1  -0.00100297  0.49852703  0.86438009  1
  In  In40  1  -0.01279566  0.83064389  0.37179451  1
  In  In41  1  0.01304008  0.82054796  0.88981609  1
  In  In42  1  0.34224377  0.17009761  0.37605413  1
  In  In43  1  0.33679151  0.16517840  0.86934625  1
  In  In44  1  0.31698673  0.50178463  0.37712373  1
  In  In45  1  0.34275479  0.51242199  0.86778324  1
  In  In46  1  0.34748309  0.83136512  0.37214540  1
  In  In47  1  0.33558213  0.82906684  0.87973105  1
  In  In48  1  0.66053927  0.17976916  0.37425176  1
  In  In49  1  0.65024978  0.17944945  0.87527950  1
  In  In50  1  0.67752991  0.50851945  0.37043448  1
  In  In51  1  0.65367136  0.48971904  0.86729251  1
  In  In52  1  0.68502850  0.82778714  0.37391234  1
  In  In53  1  0.67136346  0.82585235  0.88165371  1
  In  In54  1  0.16217357  -0.00472467  0.11355604  1
  In  In55  1  0.17297518  0.00477455  0.62765316  1
  In  In56  1  0.16578100  0.32569255  0.12288988  1
  In  In57  1  0.16080785  0.33875182  0.63366765  1
  In  In58  1  0.17062182  0.68546488  0.12036117  1
  In  In59  1  0.17400562  0.65743214  0.63311295  1
  In  In60  1  0.48919561  -0.00408068  0.10330599  1
  In  In61  1  0.50067687  -0.00566248  0.63625536  1
  In  In62  1  0.51567338  0.33958213  0.10397182  1
  In  In63  1  0.49701710  0.33270505  0.64272899  1
  In  In64  1  0.50080538  0.66173927  0.12412772  1
  In  In65  1  0.50302266  0.66937739  0.63913202  1
  In  In66  1  0.84833568  -0.00215551  0.12821917  1
  In  In67  1  0.82235695  -0.00027452  0.60754217  1
  In  In68  1  0.82863914  0.33716752  0.13474936  1
  In  In69  1  0.83317080  0.33886577  0.62182589  1
  In  In70  1  0.82363852  0.66122707  0.12456224  1
  In  In71  1  0.83441000  0.66424597  0.62547394  1
  In  In72  1  0.00406752  -0.00055376  0.74745122  1
  In  In73  1  0.33374829  0.33183508  0.25034155  1
  In  In74  1  0.16168372  0.17399978  0.51375019  1
  In  In75  1  0.16737573  0.50298432  -0.01095455  1
  In  In76  1  0.50391517  0.17002085  0.50132815  1
  In  In77  1  0.32442875  -0.00815218  0.22732730  1
  In  In78  1  0.82923783  0.16468199  -0.00596435  1
  In  In79  1  0.50857422  0.83272318  0.51327280  1
  In  In80  1  0.65925942  0.00234408  0.75996857  1
  In  In81  1  0.66565062  -0.00177376  0.25060083  1
  In  In82  1  0.82823587  0.50478928  0.00435693  1
  In  In83  1  0.16009685  0.82451507  0.50237435  1
  In  In84  1  0.50301450  0.49940681  0.51195975  1
  In  In85  1  -0.00161633  0.66700441  0.24972992  1
  Cu  Cu86  1  0.17273330  0.15817608  0.75445590  1
  Cu  Cu87  1  0.83088752  0.17097869  0.25141382  1
  Cu  Cu88  1  0.00199194  0.00117862  0.00236579  1
  Cu  Cu89  1  0.33814456  0.33056892  -0.00748780  1
  Cu  Cu90  1  0.32820826  0.65899060  0.50400882  1
  Cu  Cu91  1  0.50589611  0.82022316  0.24662525  1
  Cu  Cu92  1  0.49950374  0.50695805  0.75170013  1
  Cu  Cu93  1  0.67065163  0.33764020  0.49933716  1
  Cu  Cu94  1  -0.00692193  -0.00359469  0.49335330  1
  Cu  Cu95  1  0.49732082  0.83702704  0.76241388  1
  Cu  Cu96  1  0.83215667  0.50268763  0.74374251  1
  Cu  Cu97  1  0.15642649  0.17490366  0.24853417  1
  Cu  Cu98  1  0.49666121  0.16734244  0.23892893  1
  Cu  Cu99  1  0.33649281  0.66315222  -0.00366595  1
  Cu  Cu100  1  -0.00488628  0.33241922  0.50215648  1
  Cu  Cu101  1  0.66502407  0.66018164  -0.00100507  1
  Cu  Cu102  1  0.50299327  0.49805158  0.24461909  1
  Cu  Cu103  1  0.16325460  0.50475846  0.25552806  1
  Cu  Cu104  1  -0.00478337  0.33395256  -0.00041594  1
  Cu  Cu105  1  0.17070569  0.84106221  0.24078976  1
  Cu  Cu106  1  0.16563888  0.49235387  0.75208614  1
  Cu  Cu107  1  0.67036553  -0.00684439  -0.00320649  1
  Cu  Cu108  1  0.83318160  0.82995687  0.75010662  1
  Cu  Cu109  1  0.83362313  0.83103666  0.25115478  1
  Cu  Cu110  1  0.33934537  0.00194064  0.50794954  1
  Cu  Cu111  1  0.83274107  0.17439966  0.74616932  1
  Cu  Cu112  1  0.83383045  0.49268642  0.25498480  1
  Cu  Cu113  1  0.16562709  0.82893090  0.76030548  1
  Cu  Cu114  1  0.67609318  0.67297968  0.50055175  1
  Se  Se115  1  0.07953713  0.09113281  0.05470002  1
  Se  Se116  1  0.06927434  0.07127690  0.56089241  1
  Se  Se117  1  0.07583038  0.41825399  0.05679823  1
  Se  Se118  1  0.08156044  0.41048890  0.55730130  1
  Se  Se119  1  0.08641665  0.74841382  0.04566768  1
  Se  Se120  1  0.07605772  0.73732236  0.56530410  1
  Se  Se121  1  0.42064517  0.09233287  0.03989218  1
  Se  Se122  1  0.41439532  0.08445038  0.56788614  1
  Se  Se123  1  0.41857204  0.41830994  0.04433049  1
  Se  Se124  1  0.41238568  0.40764805  0.56640791  1
  Se  Se125  1  0.41928334  0.74410962  0.05329640  1
  Se  Se126  1  0.40790727  0.74119012  0.56333010  1
  Se  Se127  1  0.74750542  0.07307160  0.06085161  1
  Se  Se128  1  0.75009282  0.09501183  0.54528223  1
  Se  Se129  1  0.74215313  0.40687127  0.05865084  1
  Se  Se130  1  0.75365154  0.42355033  0.55008817  1
  Se  Se131  1  0.74955233  0.74395570  0.05169388  1
  Se  Se132  1  0.75551588  0.75627917  0.55680402  1
  Se  Se133  1  0.24681311  0.25737979  0.04687438  1
  Se  Se134  1  0.26044513  0.25792830  0.56666790  1
  Se  Se135  1  0.25573071  0.58353837  0.05871008  1
  Se  Se136  1  0.24702951  0.57618997  0.55707383  1
  Se  Se137  1  0.26809254  0.93589939  0.05244498  1
  Se  Se138  1  0.25875110  0.91425964  0.56035370  1
  Se  Se139  1  0.57649769  0.23224026  0.04467641  1
  Se  Se140  1  0.58836026  0.26342442  0.56221256  1
  Se  Se141  1  0.58455761  0.57732469  0.05563926  1
  Se  Se142  1  0.59341473  0.59809848  0.56331121  1
  Se  Se143  1  0.58299217  0.91015592  0.04685972  1
  Se  Se144  1  0.59739397  0.93234590  0.56273391  1
  Se  Se145  1  0.91449038  0.25469661  0.06006429  1
  Se  Se146  1  0.91087274  0.24766277  0.55272219  1
  Se  Se147  1  0.92675174  0.59731161  0.05436312  1
  Se  Se148  1  0.90267197  0.57142772  0.55641928  1
  Se  Se149  1  0.91724064  0.91635098  0.05267039  1
  Se  Se150  1  0.91290850  0.91283493  0.54866923  1
  Se  Se151  1  0.07654663  0.25111813  0.44100051  1
  Se  Se152  1  0.08008726  0.25022713  0.94888289  1
  Se  Se153  1  0.08692824  0.58718837  0.45304024  1
  Se  Se154  1  0.06813537  0.59031006  0.93861259  1
  Se  Se155  1  0.08453103  0.92450338  0.43742743  1
  Se  Se156  1  0.08828030  0.91514042  0.95367886  1
  Se  Se157  1  0.40773606  0.26455944  0.44780678  1
  Se  Se158  1  0.42118359  0.25081222  0.93716838  1
  Se  Se159  1  0.41683242  0.58725529  0.44401192  1
  Se  Se160  1  0.42124358  0.57832917  0.94720643  1
  Se  Se161  1  0.41889171  0.92448262  0.44633516  1
  Se  Se162  1  0.41331839  0.90777915  0.95380692  1
  Se  Se163  1  0.74860938  0.25100093  0.44474350  1
  Se  Se164  1  0.74339781  0.26380364  0.94176740  1
  Se  Se165  1  0.75276804  0.58524039  0.44589110  1
  Se  Se166  1  0.74465232  0.58567816  0.93413613  1
  Se  Se167  1  0.74447804  0.91536961  0.44759340  1
  Se  Se168  1  0.75749921  0.90865681  0.95002773  1
  Se  Se169  1  0.25934072  0.08444201  0.44999954  1
  Se  Se170  1  0.23613499  0.11053064  0.94123602  1
  Se  Se171  1  0.25675790  0.41438539  0.45165767  1
  Se  Se172  1  0.25716188  0.41083421  0.93229592  1
  Se  Se173  1  0.25989280  0.74550737  0.44029080  1
  Se  Se174  1  0.24768064  0.74360137  0.94570764  1
  Se  Se175  1  0.59181942  0.07563603  0.44247077  1
  Se  Se176  1  0.59130815  0.07944337  0.94382871  1
  Se  Se177  1  0.58621490  0.41520743  0.44006400  1
  Se  Se178  1  0.58108541  0.42027817  0.94591443  1
  Se  Se179  1  0.58544776  0.74378404  0.44156292  1
  Se  Se180  1  0.58177454  0.74735596  0.94853342  1
  Se  Se181  1  0.91317860  0.08482703  0.44259226  1
  Se  Se182  1  0.92437293  0.07580659  0.93598893  1
  Se  Se183  1  0.91532871  0.41681556  0.44633373  1
  Se  Se184  1  0.91676908  0.41356499  0.93965944  1
  Se  Se185  1  0.93005110  0.74631044  0.44851220  1
  Se  Se186  1  0.89943788  0.75985150  0.94189892  1
  Se  Se187  1  0.24070437  0.24534174  0.31301007  1
  Se  Se188  1  0.25254366  0.25114461  0.80107031  1
  Se  Se189  1  0.25105660  0.58907655  0.30240801  1
  Se  Se190  1  0.24545817  0.58272004  0.80288980  1
  Se  Se191  1  0.24817691  0.91588929  0.30954683  1
  Se  Se192  1  0.25074462  0.91310362  0.81019422  1
  Se  Se193  1  0.57942255  0.24700217  0.29570962  1
  Se  Se194  1  0.58895059  0.26222806  0.79863134  1
  Se  Se195  1  0.58680924  0.58014977  0.29995494  1
  Se  Se196  1  0.58533115  0.59000619  0.80317614  1
  Se  Se197  1  0.57477752  0.90560991  0.31111404  1
  Se  Se198  1  0.57396247  0.91693764  0.82475315  1
  Se  Se199  1  0.91674539  0.25256676  0.30457684  1
  Se  Se200  1  0.92205197  0.25318618  0.79774280  1
  Se  Se201  1  0.91433277  0.57677616  0.31294635  1
  Se  Se202  1  0.91657137  0.58411353  0.79859796  1
  Se  Se203  1  0.91628429  0.91870710  0.30042083  1
  Se  Se204  1  0.91705802  0.90830531  0.80898067  1
  Se  Se205  1  0.08132692  0.08047989  0.29763259  1
  Se  Se206  1  0.09218667  0.07858137  0.81516141  1
  Se  Se207  1  0.08018551  0.42002446  0.30617594  1
  Se  Se208  1  0.08031128  0.40744416  0.80248495  1
  Se  Se209  1  0.09312116  0.76080546  0.30563185  1
  Se  Se210  1  0.07396809  0.74759303  0.80504329  1
  Se  Se211  1  0.41203741  0.08595089  0.29477397  1
  Se  Se212  1  0.42045527  0.07719902  0.80494248  1
  Se  Se213  1  0.42263391  0.42457220  0.31148474  1
  Se  Se214  1  0.41680341  0.41967358  0.80187076  1
  Se  Se215  1  0.41469182  0.74451291  0.29941184  1
  Se  Se216  1  0.41420377  0.74568128  0.80817634  1
  Se  Se217  1  0.75247181  0.08769981  0.31247355  1
  Se  Se218  1  0.75799136  0.09642941  0.81213123  1
  Se  Se219  1  0.74544758  0.41007456  0.30464834  1
  Se  Se220  1  0.75057696  0.42004990  0.80002055  1
  Se  Se221  1  0.75424448  0.74158087  0.30123015  1
  Se  Se222  1  0.74308631  0.75147000  0.80139018  1
  Se  Se223  1  0.23883572  0.09999106  0.18453978  1
  Se  Se224  1  0.25477641  0.07062252  0.70380063  1
  Se  Se225  1  0.24214729  0.42460429  0.19181442  1
  Se  Se226  1  0.25382902  0.41192401  0.70077427  1
  Se  Se227  1  0.25617756  0.75425229  0.19441849  1
  Se  Se228  1  0.24846273  0.74622800  0.70342231  1
  Se  Se229  1  0.57262143  0.07742987  0.18418410  1
  Se  Se230  1  0.58059792  0.09566839  0.69436701  1
  Se  Se231  1  0.57868667  0.40871781  0.19061449  1
  Se  Se232  1  0.58453965  0.42574082  0.69777697  1
  Se  Se233  1  0.59083977  0.73902269  0.19430931  1
  Se  Se234  1  0.58216759  0.76206449  0.70221476  1
  Se  Se235  1  0.91527560  0.08521236  0.20108950  1
  Se  Se236  1  0.90396235  0.08224354  0.68889485  1
  Se  Se237  1  0.92022836  0.41367839  0.20109071  1
  Se  Se238  1  0.91690435  0.41545446  0.69410539  1
  Se  Se239  1  0.91464719  0.75681273  0.18553130  1
  Se  Se240  1  0.91668146  0.74682859  0.69757925  1
  Se  Se241  1  0.07611811  0.26075509  0.19587470  1
  Se  Se242  1  0.08843727  0.23852442  0.69740465  1
  Se  Se243  1  0.09157199  0.58203522  0.18642762  1
  Se  Se244  1  0.08360363  0.57527189  0.69626033  1
  Se  Se245  1  0.08361171  0.92213009  0.19080455  1
  Se  Se246  1  0.09276523  0.90318489  0.68906968  1
  Se  Se247  1  0.41760989  0.25018883  0.18065071  1
  Se  Se248  1  0.42368992  0.24344642  0.70956533  1
  Se  Se249  1  0.41551128  0.58064474  0.19502605  1
  Se  Se250  1  0.41142880  0.58885493  0.70062441  1
  Se  Se251  1  0.43035331  0.90365922  0.18463499  1
  Se  Se252  1  0.41545148  0.91979573  0.70662166  1
  Se  Se253  1  0.74391057  0.24719675  0.19651561  1
  Se  Se254  1  0.74923900  0.25768339  0.69356635  1
  Se  Se255  1  0.75440216  0.57728653  0.19882435  1
  Se  Se256  1  0.74563628  0.59104015  0.69738892  1
  Se  Se257  1  0.75186868  0.90783771  0.18801582  1
  Se  Se258  1  0.75715355  0.92150696  0.69504010  1
