# generated using pymatgen
data_In86Cu29Se144
_symmetry_space_group_name_H-M   'P 1'
_cell_length_a   17.57969274
_cell_length_b   17.57967358
_cell_length_c   23.43135369
_cell_angle_alpha   89.99635254
_cell_angle_beta   90.01753925
_cell_angle_gamma   90.01757259
_symmetry_Int_Tables_number   1
_chemical_formula_structural   In86Cu29Se144
_chemical_formula_sum   'In86 Cu29 Se144'
_cell_volume   7241.34809800
_cell_formula_units_Z   1
loop_
 _symmetry_equiv_pos_site_id
 _symmetry_equiv_pos_as_xyz
  1  'x, y, z'
loop_
 _atom_site_type_symbol
 _atom_site_label
 _atom_site_symmetry_multiplicity
 _atom_site_fract_x
 _atom_site_fract_y
 _atom_site_fract_z
 _atom_site_occupancy
  In  In0  1  -0.00609752  0.17481429  0.13331677  1
  In  In1  1  0.00188409  0.16843268  0.61202641  1
  In  In2  1  0.00203320  0.50087791  0.12800162  1
  In  In3  1  0.01098699  0.51528370  0.61026579  1
  In  In4  1  0.01391316  0.82025790  0.13831325  1
  In  In5  1  -0.01150628  0.83435673  0.62047543  1
  In  In6  1  0.33252290  0.16743314  0.14010037  1
  In  In7  1  0.33196243  0.15923415  0.60861938  1
  In  In8  1  0.31074934  0.51942272  0.14296055  1
  In  In9  1  0.33227287  0.50475248  0.61285155  1
  In  In10  1  0.32980825  0.83301959  0.13222715  1
  In  In11  1  0.33850641  0.83187699  0.61247443  1
  In  In12  1  0.67739746  0.14826122  0.13046720  1
  In  In13  1  0.65772341  0.15468996  0.61297739  1
  In  In14  1  0.68396320  0.50014402  0.12929708  1
  In  In15  1  0.66412067  0.49865549  0.61383861  1
  In  In16  1  0.66073351  0.84017936  0.13397755  1
  In  In17  1  0.67068901  0.83574089  0.62120491  1
  In  In18  1  0.17741971  0.01199620  0.36838771  1
  In  In19  1  0.15493226  -0.00786600  0.87872723  1
  In  In20  1  0.16543945  0.33378165  0.37244161  1
  In  In21  1  0.17778523  0.33916153  0.87736033  1
  In  In22  1  0.15265467  0.65372743  0.37139531  1
  In  In23  1  0.15949003  0.67828398  0.88548996  1
  In  In24  1  0.49849988  -0.00390271  0.38152981  1
  In  In25  1  0.50746192  -0.00893548  0.86659791  1
  In  In26  1  0.48756868  0.34329490  0.38061743  1
  In  In27  1  0.49139467  0.33207147  0.87374213  1
  In  In28  1  0.50053570  0.66912187  0.37346007  1
  In  In29  1  0.50090206  0.66878139  0.87247590  1
  In  In30  1  0.83266458  -0.00134399  0.37109090  1
  In  In31  1  0.83134471  0.00816722  0.87763503  1
  In  In32  1  0.84317723  0.32499841  0.37849445  1
  In  In33  1  0.83838497  0.33107166  0.87982556  1
  In  In34  1  0.83656537  0.67228014  0.37882956  1
  In  In35  1  0.83490183  0.65098351  0.87847345  1
  In  In36  1  0.00144784  0.16798123  0.37158535  1
  In  In37  1  -0.00521024  0.15147960  0.87704873  1
  In  In38  1  0.00378286  0.50389187  0.37898521  1
  In  In39  1  -0.00747526  0.50863231  0.87887766  1
  In  In40  1  -0.01495086  0.82110930  0.36916846  1
  In  In41  1  0.01346744  0.83144808  0.87954395  1
  In  In42  1  0.33003620  0.16358207  0.38108253  1
  In  In43  1  0.33369426  0.17710323  0.87642802  1
  In  In44  1  0.32986829  0.50055602  0.37171604  1
  In  In45  1  0.32938491  0.49398983  0.88041219  1
  In  In46  1  0.34671165  0.84404455  0.37059910  1
  In  In47  1  0.33043254  0.82480711  0.87702160  1
  In  In48  1  0.67768966  0.15484148  0.37952023  1
  In  In49  1  0.67715961  0.16662842  0.87038756  1
  In  In50  1  0.65764912  0.50974894  0.38003407  1
  In  In51  1  0.67294560  0.50897686  0.87701753  1
  In  In52  1  0.66732203  0.83465553  0.37415857  1
  In  In53  1  0.65741074  0.84300956  0.87305432  1
  In  In54  1  0.17532923  -0.01009693  0.13641543  1
  In  In55  1  0.16109075  0.00402390  0.61621912  1
  In  In56  1  0.15406812  0.34627339  0.13595631  1
  In  In57  1  0.16337254  0.33165511  0.61746707  1
  In  In58  1  0.16833007  0.66256854  0.12680700  1
  In  In59  1  0.16795518  0.65776754  0.61938149  1
  In  In60  1  0.50103538  -0.00202181  0.13557218  1
  In  In61  1  0.50565365  0.00500123  0.61572373  1
  In  In62  1  0.49385658  0.32487590  0.13177731  1
  In  In63  1  0.50031810  0.33441226  0.61421889  1
  In  In64  1  0.49668770  0.67130188  0.13674022  1
  In  In65  1  0.49821024  0.66629137  0.61382476  1
  In  In66  1  0.82565559  0.00951574  0.13185292  1
  In  In67  1  0.82272181  -0.01329071  0.61299846  1
  In  In68  1  0.84619811  0.34269595  0.12062081  1
  In  In69  1  0.83688503  0.33640090  0.61105681  1
  In  In70  1  0.84662255  0.65580207  0.13687479  1
  In  In71  1  0.84531722  0.67609378  0.61235908  1
  In  In72  1  0.33312392  0.33513410  0.75147493  1
  In  In73  1  -0.00250755  -0.00417186  0.75191140  1
  In  In74  1  -0.00161907  0.33380337  0.74147921  1
  In  In75  1  0.33740763  0.00158309  0.73597479  1
  In  In76  1  0.16109180  0.16878906  0.00159240  1
  In  In77  1  0.50850857  0.16496280  0.00445816  1
  In  In78  1  0.66966114  0.33246489  0.73436626  1
  In  In79  1  0.66674286  0.33304853  0.25669226  1
  In  In80  1  0.49883017  0.49879990  -0.00163440  1
  In  In81  1  0.66741111  0.66844371  0.74829701  1
  In  In82  1  0.33440911  0.66647469  0.75104217  1
  In  In83  1  0.83503391  0.83381589  0.00967185  1
  In  In84  1  0.49709263  0.83441745  0.01153778  1
  In  In85  1  0.16673745  0.83648658  0.49081559  1
  Cu  Cu86  1  0.33350973  0.66415918  0.49122777  1
  Cu  Cu87  1  0.32286894  0.34511124  0.01188679  1
  Cu  Cu88  1  0.50326836  0.16368751  0.74045109  1
  Cu  Cu89  1  0.66782942  0.67086307  0.49660308  1
  Cu  Cu90  1  -0.00281888  0.33580220  0.00593252  1
  Cu  Cu91  1  0.83080459  0.83434333  0.25154128  1
  Cu  Cu92  1  0.67782623  0.32915495  0.00114499  1
  Cu  Cu93  1  0.16735007  0.16644277  0.25517029  1
  Cu  Cu94  1  0.32937830  0.33493775  0.49396175  1
  Cu  Cu95  1  -0.00189151  0.00371854  0.49130038  1
  Cu  Cu96  1  0.16279979  0.49848093  0.25346641  1
  Cu  Cu97  1  -0.00048674  -0.00262084  0.00598843  1
  Cu  Cu98  1  0.16602559  0.82774113  0.75395858  1
  Cu  Cu99  1  0.83649544  0.16667854  0.25393124  1
  Cu  Cu100  1  0.83257957  0.82773168  0.74393629  1
  Cu  Cu101  1  0.66550616  0.33139931  0.49205323  1
  Cu  Cu102  1  0.83278946  0.50463751  0.74806550  1
  Cu  Cu103  1  0.83885294  0.50469958  0.25437468  1
  Cu  Cu104  1  0.50054495  0.83483006  0.25618408  1
  Cu  Cu105  1  0.16003146  0.50571535  0.74636539  1
  Cu  Cu106  1  0.49894579  0.50275439  0.25672627  1
  Cu  Cu107  1  0.32909602  -0.00369865  0.00685844  1
  Cu  Cu108  1  0.83249499  0.15509725  0.74526113  1
  Cu  Cu109  1  0.00156507  0.66219377  0.00904018  1
  Cu  Cu110  1  0.16730092  0.83106867  0.25729943  1
  Cu  Cu111  1  0.67220316  0.66476484  0.00510919  1
  Cu  Cu112  1  0.00293617  0.33482067  0.49308092  1
  Cu  Cu113  1  0.66876609  -0.00296146  0.49536850  1
  Cu  Cu114  1  0.49638673  0.16425454  0.25868961  1
  Se  Se115  1  0.08106954  0.07757606  0.06653886  1
  Se  Se116  1  0.08435700  0.08458898  0.54426962  1
  Se  Se117  1  0.08326751  0.41838351  0.05576218  1
  Se  Se118  1  0.08576194  0.41735037  0.54919000  1
  Se  Se119  1  0.08491774  0.74883088  0.05771395  1
  Se  Se120  1  0.08066519  0.74926613  0.55612804  1
  Se  Se121  1  0.40924458  0.08011668  0.06275759  1
  Se  Se122  1  0.42317655  0.08348967  0.54639125  1
  Se  Se123  1  0.41212397  0.41895870  0.06822408  1
  Se  Se124  1  0.41453886  0.41725469  0.54865531  1
  Se  Se125  1  0.40635561  0.73759964  0.06069346  1
  Se  Se126  1  0.41686024  0.74828101  0.54380718  1
  Se  Se127  1  0.75408663  0.08238613  0.05202706  1
  Se  Se128  1  0.75350946  0.08366303  0.54710997  1
  Se  Se129  1  0.75425823  0.41920677  0.05352194  1
  Se  Se130  1  0.74746525  0.41611506  0.54665920  1
  Se  Se131  1  0.74569583  0.74339035  0.06972908  1
  Se  Se132  1  0.75130973  0.75432676  0.55077711  1
  Se  Se133  1  0.24990561  0.25354423  0.06707382  1
  Se  Se134  1  0.24741612  0.25127475  0.54934907  1
  Se  Se135  1  0.24678588  0.57775277  0.05619396  1
  Se  Se136  1  0.24689623  0.58371143  0.54446338  1
  Se  Se137  1  0.24827161  0.91248762  0.05893202  1
  Se  Se138  1  0.25758053  0.92801328  0.55113975  1
  Se  Se139  1  0.59680680  0.25729285  0.06488354  1
  Se  Se140  1  0.58313299  0.24935387  0.54880280  1
  Se  Se141  1  0.58653401  0.58688370  0.06394268  1
  Se  Se142  1  0.58270055  0.58438253  0.54714599  1
  Se  Se143  1  0.59188300  0.93152699  0.05801758  1
  Se  Se144  1  0.58648212  0.91447240  0.55108495  1
  Se  Se145  1  0.91653085  0.24560810  0.05426271  1
  Se  Se146  1  0.91772587  0.24979601  0.54509587  1
  Se  Se147  1  0.91419899  0.57909469  0.05718643  1
  Se  Se148  1  0.89957166  0.56746925  0.55154329  1
  Se  Se149  1  0.92623980  0.91805196  0.07151479  1
  Se  Se150  1  0.91870818  0.91726394  0.54590258  1
  Se  Se151  1  0.08528169  0.24802435  0.44251427  1
  Se  Se152  1  0.07249528  0.25861000  0.93771972  1
  Se  Se153  1  0.08279010  0.58422772  0.45183463  1
  Se  Se154  1  0.08183400  0.58295136  0.94759071  1
  Se  Se155  1  0.07612909  0.92300714  0.42966964  1
  Se  Se156  1  0.08463603  0.91346399  0.95519479  1
  Se  Se157  1  0.41681254  0.24893058  0.44756340  1
  Se  Se158  1  0.40654269  0.26259636  0.95441270  1
  Se  Se159  1  0.41877668  0.57988876  0.43995684  1
  Se  Se160  1  0.40914525  0.59501037  0.94239435  1
  Se  Se161  1  0.42094374  0.90923208  0.45087901  1
  Se  Se162  1  0.41342930  0.92534613  0.94280569  1
  Se  Se163  1  0.75341499  0.24736476  0.44526678  1
  Se  Se164  1  0.75444716  0.24447911  0.94426328  1
  Se  Se165  1  0.75048731  0.58560282  0.44506533  1
  Se  Se166  1  0.75325297  0.57827011  0.95345243  1
  Se  Se167  1  0.75432210  0.91499212  0.44310698  1
  Se  Se168  1  0.74538008  0.91884454  0.94529885  1
  Se  Se169  1  0.24328697  0.08451726  0.44941026  1
  Se  Se170  1  0.25622000  0.07793185  0.94174297  1
  Se  Se171  1  0.24630985  0.41961088  0.44208962  1
  Se  Se172  1  0.24276852  0.42380705  0.95343689  1
  Se  Se173  1  0.25400676  0.74484632  0.43077909  1
  Se  Se174  1  0.24995568  0.75550567  0.94989230  1
  Se  Se175  1  0.58403412  0.08393905  0.44684289  1
  Se  Se176  1  0.58980935  0.07748295  0.93808098  1
  Se  Se177  1  0.58006051  0.41934327  0.44625123  1
  Se  Se178  1  0.59273326  0.40438066  0.94016351  1
  Se  Se179  1  0.58257523  0.75240143  0.44324120  1
  Se  Se180  1  0.59078456  0.74382790  0.94654296  1
  Se  Se181  1  0.91300850  0.08710606  0.43914648  1
  Se  Se182  1  0.91620525  0.07908127  0.95217314  1
  Se  Se183  1  0.91580845  0.41886330  0.44492870  1
  Se  Se184  1  0.91663398  0.41787800  0.94640204  1
  Se  Se185  1  0.91553512  0.75382360  0.45096029  1
  Se  Se186  1  0.92187205  0.74294121  0.94575259  1
  Se  Se187  1  0.25267204  0.24817603  0.30814702  1
  Se  Se188  1  0.23789746  0.23999808  0.80396006  1
  Se  Se189  1  0.24752099  0.58483061  0.30273508  1
  Se  Se190  1  0.24207696  0.57851876  0.81081651  1
  Se  Se191  1  0.25331283  0.91770262  0.30363632  1
  Se  Se192  1  0.24751714  0.91524009  0.80636111  1
  Se  Se193  1  0.57798637  0.24490348  0.31802130  1
  Se  Se194  1  0.57760647  0.24779311  0.80330415  1
  Se  Se195  1  0.58621676  0.58779870  0.30284382  1
  Se  Se196  1  0.57599985  0.57267919  0.80569732  1
  Se  Se197  1  0.58327892  0.92092200  0.30749339  1
  Se  Se198  1  0.58646001  0.91521333  0.79518994  1
  Se  Se199  1  0.92085691  0.25415593  0.30087938  1
  Se  Se200  1  0.91124142  0.23820495  0.80411220  1
  Se  Se201  1  0.92002924  0.58774371  0.30962671  1
  Se  Se202  1  0.91797093  0.58528525  0.80142559  1
  Se  Se203  1  0.91726620  0.91794701  0.30151988  1
  Se  Se204  1  0.90871643  0.90450008  0.81282760  1
  Se  Se205  1  0.08004713  0.08114317  0.30188816  1
  Se  Se206  1  0.09343587  0.08963384  0.80542703  1
  Se  Se207  1  0.07775479  0.41653002  0.30622422  1
  Se  Se208  1  0.08669143  0.42015717  0.80771062  1
  Se  Se209  1  0.07952907  0.74641472  0.30372174  1
  Se  Se210  1  0.08098621  0.74554616  0.80490987  1
  Se  Se211  1  0.41464669  0.08008486  0.31224261  1
  Se  Se212  1  0.42108711  0.09334728  0.80714471  1
  Se  Se213  1  0.41322183  0.41568632  0.30216203  1
  Se  Se214  1  0.42536569  0.43121932  0.80514479  1
  Se  Se215  1  0.41461387  0.74769929  0.30266705  1
  Se  Se216  1  0.42791307  0.76379796  0.80369961  1
  Se  Se217  1  0.74869520  0.08146354  0.29996466  1
  Se  Se218  1  0.74877483  0.07625967  0.80044441  1
  Se  Se219  1  0.75686994  0.42426440  0.31444336  1
  Se  Se220  1  0.75551112  0.41880044  0.80549021  1
  Se  Se221  1  0.75064964  0.74934303  0.30658269  1
  Se  Se222  1  0.75786509  0.75394939  0.81402998  1
  Se  Se223  1  0.25172147  0.07984389  0.20409955  1
  Se  Se224  1  0.24070510  0.09366102  0.68734728  1
  Se  Se225  1  0.25051781  0.41213759  0.20431997  1
  Se  Se226  1  0.24322781  0.42574082  0.68905804  1
  Se  Se227  1  0.24683707  0.74807828  0.19859193  1
  Se  Se228  1  0.24674052  0.75738929  0.68768051  1
  Se  Se229  1  0.58101765  0.08742964  0.20056117  1
  Se  Se230  1  0.58743259  0.07857905  0.69226714  1
  Se  Se231  1  0.57866739  0.42423790  0.19294686  1
  Se  Se232  1  0.57221184  0.42639642  0.68861835  1
  Se  Se233  1  0.58487237  0.75165035  0.20178897  1
  Se  Se234  1  0.57595357  0.75266188  0.68741978  1
  Se  Se235  1  0.91841502  0.08210328  0.19944832  1
  Se  Se236  1  0.91518796  0.08124264  0.68305678  1
  Se  Se237  1  0.91756219  0.41906603  0.19836769  1
  Se  Se238  1  0.91080621  0.42679492  0.68477605  1
  Se  Se239  1  0.91812757  0.74823384  0.20367479  1
  Se  Se240  1  0.91899021  0.74720025  0.69378784  1
  Se  Se241  1  0.08353341  0.25009488  0.20109569  1
  Se  Se242  1  0.08965712  0.23865098  0.68988857  1
  Se  Se243  1  0.08264094  0.58422613  0.19756720  1
  Se  Se244  1  0.07955397  0.58906427  0.69240513  1
  Se  Se245  1  0.08357442  0.91706608  0.20433388  1
  Se  Se246  1  0.09074429  0.90864799  0.69014000  1
  Se  Se247  1  0.41543288  0.25198929  0.20696569  1
  Se  Se248  1  0.41857306  0.24489231  0.68632466  1
  Se  Se249  1  0.41486778  0.58655019  0.20359836  1
  Se  Se250  1  0.42052324  0.57804574  0.68805643  1
  Se  Se251  1  0.41536756  0.91530401  0.19965628  1
  Se  Se252  1  0.42682152  0.90619909  0.68502211  1
  Se  Se253  1  0.75814761  0.25043030  0.19172300  1
  Se  Se254  1  0.76127203  0.23853278  0.68125643  1
  Se  Se255  1  0.74957088  0.58585578  0.20409778  1
  Se  Se256  1  0.75300300  0.58034430  0.68508064  1
  Se  Se257  1  0.74802968  0.92054898  0.19969575  1
  Se  Se258  1  0.75196680  0.91520562  0.69433440  1
