# generated using pymatgen
data_In86Cu29Se144
_symmetry_space_group_name_H-M   'P 1'
_cell_length_a   17.60499097
_cell_length_b   17.61543508
_cell_length_c   23.47293219
_cell_angle_alpha   90.02539793
_cell_angle_beta   90.00633143
_cell_angle_gamma   90.00911219
_symmetry_Int_Tables_number   1
_chemical_formula_structural   In86Cu29Se144
_chemical_formula_sum   'In86 Cu29 Se144'
_cell_volume   7279.41491534
_cell_formula_units_Z   1
loop_
 _symmetry_equiv_pos_site_id
 _symmetry_equiv_pos_as_xyz
  1  'x, y, z'
loop_
 _atom_site_type_symbol
 _atom_site_label
 _atom_site_symmetry_multiplicity
 _atom_site_fract_x
 _atom_site_fract_y
 _atom_site_fract_z
 _atom_site_occupancy
  In  In0  1  0.00059325  0.17068884  0.13140093  1
  In  In1  1  0.00295128  0.15428985  0.62327702  1
  In  In2  1  0.00147498  0.48953265  0.12706927  1
  In  In3  1  0.01369672  0.50645424  0.62072314  1
  In  In4  1  0.02565768  0.83663022  0.13079559  1
  In  In5  1  -0.00706824  0.83006989  0.62446368  1
  In  In6  1  0.33608948  0.15317084  0.11525874  1
  In  In7  1  0.33916114  0.16409487  0.62448778  1
  In  In8  1  0.34837571  0.51118452  0.11109122  1
  In  In9  1  0.33085100  0.51192576  0.63315626  1
  In  In10  1  0.33287871  0.83848268  0.12808134  1
  In  In11  1  0.33475332  0.82587030  0.62738992  1
  In  In12  1  0.66600979  0.16797300  0.11965853  1
  In  In13  1  0.65994526  0.18063709  0.63046118  1
  In  In14  1  0.64480682  0.48592619  0.12342920  1
  In  In15  1  0.66122385  0.48363826  0.62299380  1
  In  In16  1  0.65366905  0.84841094  0.13486860  1
  In  In17  1  0.66113862  0.84910948  0.62284210  1
  In  In18  1  0.18647887  0.01047808  0.35825480  1
  In  In19  1  0.17069034  -0.01450106  0.88053653  1
  In  In20  1  0.16138581  0.34436961  0.37891665  1
  In  In21  1  0.20657225  0.32891859  0.88090963  1
  In  In22  1  0.17257010  0.66149689  0.37355370  1
  In  In23  1  0.16959911  0.66418434  0.87518066  1
  In  In24  1  0.50307284  0.00781117  0.36764581  1
  In  In25  1  0.47059641  0.02205767  0.89782188  1
  In  In26  1  0.49140504  0.31787093  0.37094428  1
  In  In27  1  0.48468815  0.33990903  0.88287507  1
  In  In28  1  0.49776507  0.67663139  0.37000987  1
  In  In29  1  0.48253257  0.68101165  0.88274892  1
  In  In30  1  0.83000505  0.00425132  0.36410390  1
  In  In31  1  0.83426940  0.01438502  0.88433770  1
  In  In32  1  0.83729006  0.33769132  0.37293992  1
  In  In33  1  0.81394040  0.33345612  0.87885301  1
  In  In34  1  0.82520015  0.65930323  0.37921641  1
  In  In35  1  0.83322423  0.65296431  0.87305589  1
  In  In36  1  0.00731016  0.17950650  0.36854110  1
  In  In37  1  0.00206751  0.15687742  0.88288729  1
  In  In38  1  0.00738411  0.49479358  0.37977792  1
  In  In39  1  0.00467462  0.50970642  0.86985260  1
  In  In40  1  -0.00082982  0.83652519  0.36849934  1
  In  In41  1  0.01677019  0.83597167  0.87818402  1
  In  In42  1  0.34336012  0.16641313  0.37846826  1
  In  In43  1  0.34489078  0.17714551  0.86452384  1
  In  In44  1  0.32240933  0.49360704  0.37261502  1
  In  In45  1  0.33106273  0.50036478  0.88219183  1
  In  In46  1  0.36803004  0.86414197  0.33261296  1
  In  In47  1  0.33452861  0.83255928  0.87146432  1
  In  In48  1  0.65546178  0.15808848  0.36774243  1
  In  In49  1  0.62625407  0.21842900  0.93040179  1
  In  In50  1  0.67877661  0.50346971  0.37875428  1
  In  In51  1  0.65935096  0.48465805  0.87081722  1
  In  In52  1  0.64893544  0.83350856  0.36931116  1
  In  In53  1  0.64889946  0.82801808  0.87793464  1
  In  In54  1  0.19285471  -0.02414622  0.15412001  1
  In  In55  1  0.17047082  0.01382525  0.61732363  1
  In  In56  1  0.15884306  0.33214039  0.12180601  1
  In  In57  1  0.17342789  0.33893310  0.61948354  1
  In  In58  1  0.19071978  0.69153969  0.11302744  1
  In  In59  1  0.17418261  0.65409156  0.63196663  1
  In  In60  1  0.48782016  0.00120907  0.11815274  1
  In  In61  1  0.48949076  -0.00689093  0.61714822  1
  In  In62  1  0.50730324  0.34401860  0.10147308  1
  In  In63  1  0.50981759  0.32975159  0.63536514  1
  In  In64  1  0.48361671  0.66170154  0.12488133  1
  In  In65  1  0.48275134  0.66853574  0.62740809  1
  In  In66  1  0.82240606  0.01492489  0.13661962  1
  In  In67  1  0.83599076  0.00002598  0.62291814  1
  In  In68  1  0.83918350  0.32303300  0.12702022  1
  In  In69  1  0.81523445  0.33163339  0.62864843  1
  In  In70  1  0.83074967  0.66489415  0.12566465  1
  In  In71  1  0.85126917  0.67047761  0.62548136  1
  In  In72  1  0.00674720  -0.00639679  0.74577877  1
  In  In73  1  0.33890312  0.33535765  0.24213958  1
  In  In74  1  0.49759879  0.49616722  0.50453953  1
  In  In75  1  0.66255461  0.65978379  0.75278393  1
  In  In76  1  0.83677998  0.83403187  0.00898008  1
  In  In77  1  0.67020973  0.00459731  0.75626372  1
  In  In78  1  0.83062008  0.83082698  0.49453323  1
  In  In79  1  0.16320717  0.16214101  0.00258917  1
  In  In80  1  0.17142394  0.83010141  0.49038023  1
  In  In81  1  0.00443353  0.33621936  0.74967442  1
  In  In82  1  0.00734568  0.66072559  0.25155783  1
  In  In83  1  0.82878599  0.49685461  0.00269110  1
  In  In84  1  0.82984819  0.16693224  0.50560513  1
  In  In85  1  0.66188871  0.66298109  0.24588515  1
  Cu  Cu86  1  0.00664803  0.66930375  -0.00284516  1
  Cu  Cu87  1  0.32757072  0.67025470  -0.00148329  1
  Cu  Cu88  1  0.17299783  0.49958290  0.75430630  1
  Cu  Cu89  1  0.17589445  0.16151429  0.74797165  1
  Cu  Cu90  1  -0.00154238  0.33311984  0.00024947  1
  Cu  Cu91  1  0.33198749  0.66776663  0.50243488  1
  Cu  Cu92  1  0.82988514  0.48775520  0.24984506  1
  Cu  Cu93  1  0.83569860  0.83413536  0.24839898  1
  Cu  Cu94  1  0.50594335  0.16819686  0.76286696  1
  Cu  Cu95  1  0.82773263  0.17201429  0.24971818  1
  Cu  Cu96  1  0.66604853  -0.00253307  0.00677435  1
  Cu  Cu97  1  0.00310132  -0.00067340  0.01189764  1
  Cu  Cu98  1  0.66524761  0.66855114  0.49730125  1
  Cu  Cu99  1  0.49415436  0.83579884  0.75000639  1
  Cu  Cu100  1  0.17227962  0.82386643  0.75165531  1
  Cu  Cu101  1  0.00847831  0.00829469  0.49203536  1
  Cu  Cu102  1  0.50270482  0.16548358  0.24285436  1
  Cu  Cu103  1  0.00964005  0.65714438  0.50087415  1
  Cu  Cu104  1  0.83532618  0.50200541  0.74890414  1
  Cu  Cu105  1  0.65818421  0.66616435  0.00431132  1
  Cu  Cu106  1  -0.00174239  0.33502431  0.49765710  1
  Cu  Cu107  1  0.16457480  0.49834654  0.24812381  1
  Cu  Cu108  1  0.65266983  0.00055106  0.49545430  1
  Cu  Cu109  1  0.82796082  0.17320033  0.75747192  1
  Cu  Cu110  1  0.66368921  0.32943802  0.50247909  1
  Cu  Cu111  1  0.33000981  0.32904808  0.50169143  1
  Cu  Cu112  1  0.16549595  0.17656279  0.24841319  1
  Cu  Cu113  1  0.84312206  0.82952908  0.75576190  1
  Cu  Cu114  1  0.33731575  -0.00049745  0.48800633  1
  Se  Se115  1  0.08676157  0.07456734  0.07173726  1
  Se  Se116  1  0.08737967  0.09121036  0.54656568  1
  Se  Se117  1  0.08065489  0.41733084  0.05125027  1
  Se  Se118  1  0.08470643  0.41606116  0.55181915  1
  Se  Se119  1  0.08566935  0.75615474  0.05039073  1
  Se  Se120  1  0.08322376  0.74546064  0.55925578  1
  Se  Se121  1  0.41457222  0.07853208  0.04066570  1
  Se  Se122  1  0.41481952  0.08169701  0.54902952  1
  Se  Se123  1  0.40244552  0.40828296  0.04337797  1
  Se  Se124  1  0.40856568  0.40776076  0.56561516  1
  Se  Se125  1  0.40977460  0.75060646  0.05643008  1
  Se  Se126  1  0.41653550  0.75323353  0.55189889  1
  Se  Se127  1  0.75307187  0.08231871  0.05363245  1
  Se  Se128  1  0.73452011  0.07328120  0.56114244  1
  Se  Se129  1  0.74268009  0.40473078  0.05967146  1
  Se  Se130  1  0.74991842  0.41392169  0.55103951  1
  Se  Se131  1  0.73620884  0.74672533  0.06398212  1
  Se  Se132  1  0.74404460  0.74587803  0.56207512  1
  Se  Se133  1  0.25470976  0.25593048  0.05643701  1
  Se  Se134  1  0.24945345  0.24408597  0.55664865  1
  Se  Se135  1  0.24556750  0.58300127  0.05111625  1
  Se  Se136  1  0.25113858  0.58136466  0.55457167  1
  Se  Se137  1  0.24315135  0.91889528  0.06202619  1
  Se  Se138  1  0.25735218  0.92261461  0.55260397  1
  Se  Se139  1  0.58273549  0.24216291  0.04582213  1
  Se  Se140  1  0.57795965  0.24921873  0.55557224  1
  Se  Se141  1  0.57730096  0.58321478  0.05836809  1
  Se  Se142  1  0.58726246  0.59182857  0.56202041  1
  Se  Se143  1  0.58003995  0.91484551  0.05458703  1
  Se  Se144  1  0.57525832  0.91189327  0.54809413  1
  Se  Se145  1  0.92191993  0.24663338  0.05455383  1
  Se  Se146  1  0.92265615  0.25870884  0.56423492  1
  Se  Se147  1  0.92457031  0.59195635  0.05691506  1
  Se  Se148  1  0.91971125  0.58188919  0.55427254  1
  Se  Se149  1  0.92050633  0.92274460  0.07239002  1
  Se  Se150  1  0.92753144  0.92728333  0.54957527  1
  Se  Se151  1  0.08334593  0.25288837  0.44569467  1
  Se  Se152  1  0.08428666  0.26009877  0.93724548  1
  Se  Se153  1  0.09278417  0.57961836  0.44419149  1
  Se  Se154  1  0.08443414  0.58147884  0.94479537  1
  Se  Se155  1  0.08465274  0.92667904  0.43276002  1
  Se  Se156  1  0.08279347  0.91890787  0.95410981  1
  Se  Se157  1  0.41928919  0.24927915  0.45167420  1
  Se  Se158  1  0.41883487  0.23689812  0.94760389  1
  Se  Se159  1  0.41176403  0.58498272  0.44041189  1
  Se  Se160  1  0.41505032  0.58546046  0.95011031  1
  Se  Se161  1  0.41587602  0.91678898  0.42973291  1
  Se  Se162  1  0.42817399  0.89674388  0.94260623  1
  Se  Se163  1  0.74262120  0.25078386  0.43971542  1
  Se  Se164  1  0.77023728  0.23611135  0.95137425  1
  Se  Se165  1  0.75329869  0.58120559  0.45518407  1
  Se  Se166  1  0.73614269  0.58729571  0.94312613  1
  Se  Se167  1  0.74161084  0.92544559  0.43924801  1
  Se  Se168  1  0.74601932  0.91467525  0.94248868  1
  Se  Se169  1  0.25021525  0.08481391  0.44102635  1
  Se  Se170  1  0.25320668  0.08616132  0.93388119  1
  Se  Se171  1  0.25011638  0.41754426  0.45007426  1
  Se  Se172  1  0.24368396  0.42717946  0.95526450  1
  Se  Se173  1  0.26645739  0.74762509  0.43352086  1
  Se  Se174  1  0.24699832  0.75375292  0.94211281  1
  Se  Se175  1  0.57534137  0.08995775  0.44479588  1
  Se  Se176  1  0.60169607  0.06995733  0.93293123  1
  Se  Se177  1  0.58514066  0.40930642  0.43948475  1
  Se  Se178  1  0.58713838  0.41066042  0.94659395  1
  Se  Se179  1  0.58126789  0.74928527  0.44432764  1
  Se  Se180  1  0.57601098  0.75137817  0.95289174  1
  Se  Se181  1  0.91725157  0.08374942  0.43844563  1
  Se  Se182  1  0.92276999  0.08211695  0.95685548  1
  Se  Se183  1  0.91474750  0.41860376  0.44565429  1
  Se  Se184  1  0.92181605  0.41428333  0.93751406  1
  Se  Se185  1  0.92944923  0.73921718  0.44129379  1
  Se  Se186  1  0.91812528  0.74442127  0.94025622  1
  Se  Se187  1  0.24862482  0.25422290  0.31041066  1
  Se  Se188  1  0.25678219  0.25254275  0.79457578  1
  Se  Se189  1  0.24887349  0.57902346  0.30090026  1
  Se  Se190  1  0.25534187  0.58460546  0.80707306  1
  Se  Se191  1  0.24173475  0.91044514  0.29019110  1
  Se  Se192  1  0.24808920  0.91550632  0.80291170  1
  Se  Se193  1  0.58099337  0.24927467  0.29970755  1
  Se  Se194  1  0.57886778  0.24724049  0.82586683  1
  Se  Se195  1  0.57956229  0.57387111  0.31135019  1
  Se  Se196  1  0.57107456  0.58397159  0.81751053  1
  Se  Se197  1  0.58251652  0.92085425  0.29970946  1
  Se  Se198  1  0.57366337  0.91560965  0.80862850  1
  Se  Se199  1  0.91394308  0.25313456  0.30292389  1
  Se  Se200  1  0.91858842  0.24707221  0.81354528  1
  Se  Se201  1  0.90738227  0.57501411  0.30756975  1
  Se  Se202  1  0.91929221  0.58589937  0.79920394  1
  Se  Se203  1  0.91661034  0.91840221  0.30183022  1
  Se  Se204  1  0.91406952  0.91631238  0.81512478  1
  Se  Se205  1  0.08548021  0.09018936  0.30224102  1
  Se  Se206  1  0.09209599  0.08592949  0.80763915  1
  Se  Se207  1  0.08048636  0.41714430  0.30276080  1
  Se  Se208  1  0.09784540  0.41420621  0.81428142  1
  Se  Se209  1  0.09452432  0.75740573  0.30515431  1
  Se  Se210  1  0.08367650  0.74835068  0.80607332  1
  Se  Se211  1  0.41467429  0.09024239  0.30045126  1
  Se  Se212  1  0.41797880  0.07628114  0.80295093  1
  Se  Se213  1  0.42502803  0.42373097  0.30826148  1
  Se  Se214  1  0.38945639  0.40086875  0.81240055  1
  Se  Se215  1  0.40385672  0.73067920  0.29682996  1
  Se  Se216  1  0.41227969  0.74722852  0.79930965  1
  Se  Se217  1  0.74363488  0.08403952  0.29846067  1
  Se  Se218  1  0.74890123  0.09735050  0.81876787  1
  Se  Se219  1  0.74392382  0.41319741  0.30645014  1
  Se  Se220  1  0.75265296  0.41821122  0.80057463  1
  Se  Se221  1  0.75675052  0.75260660  0.30811456  1
  Se  Se222  1  0.75390840  0.75595428  0.81194359  1
  Se  Se223  1  0.25479391  0.09659671  0.19792430  1
  Se  Se224  1  0.25539255  0.07712407  0.69284143  1
  Se  Se225  1  0.24637886  0.42451349  0.18436315  1
  Se  Se226  1  0.24795869  0.41781497  0.69369363  1
  Se  Se227  1  0.25810340  0.74768743  0.19866903  1
  Se  Se228  1  0.25517323  0.74224155  0.69637973  1
  Se  Se229  1  0.57983702  0.08278367  0.18415628  1
  Se  Se230  1  0.57542258  0.08600495  0.69205225  1
  Se  Se231  1  0.57277974  0.39875611  0.19144717  1
  Se  Se232  1  0.58315275  0.42239591  0.70159006  1
  Se  Se233  1  0.56763124  0.75446596  0.19497809  1
  Se  Se234  1  0.58265372  0.76007954  0.69238057  1
  Se  Se235  1  0.91669759  0.08915661  0.20116176  1
  Se  Se236  1  0.90521848  0.09178774  0.69796232  1
  Se  Se237  1  0.91751556  0.41197070  0.19578736  1
  Se  Se238  1  0.91273341  0.42119280  0.68727580  1
  Se  Se239  1  0.91519288  0.75310388  0.19046972  1
  Se  Se240  1  0.92544201  0.74915460  0.70128797  1
  Se  Se241  1  0.08027426  0.26012274  0.19859535  1
  Se  Se242  1  0.08925692  0.23921125  0.69088944  1
  Se  Se243  1  0.09450783  0.58261661  0.18288170  1
  Se  Se244  1  0.08398515  0.57967346  0.70114058  1
  Se  Se245  1  0.07068165  0.93165855  0.20556046  1
  Se  Se246  1  0.09808119  0.90521776  0.68576565  1
  Se  Se247  1  0.42414527  0.24540539  0.17987731  1
  Se  Se248  1  0.42447326  0.24080745  0.69706827  1
  Se  Se249  1  0.41709262  0.57087075  0.19617567  1
  Se  Se250  1  0.43112808  0.57406228  0.69908988  1
  Se  Se251  1  0.41593812  0.92294550  0.19568167  1
  Se  Se252  1  0.41309493  0.91734017  0.69267295  1
  Se  Se253  1  0.74471355  0.25047026  0.19288231  1
  Se  Se254  1  0.74242717  0.25315121  0.70426181  1
  Se  Se255  1  0.75341406  0.56792336  0.18848909  1
  Se  Se256  1  0.75659771  0.58109804  0.68636937  1
  Se  Se257  1  0.74920702  0.91746944  0.20021112  1
  Se  Se258  1  0.76432608  0.90865699  0.69490233  1
