# generated using pymatgen
data_In86Cu29Se144
_symmetry_space_group_name_H-M   'P 1'
_cell_length_a   17.58656274
_cell_length_b   17.58993593
_cell_length_c   23.45892338
_cell_angle_alpha   89.99911556
_cell_angle_beta   90.00036981
_cell_angle_gamma   89.98595881
_symmetry_Int_Tables_number   1
_chemical_formula_structural   In86Cu29Se144
_chemical_formula_sum   'In86 Cu29 Se144'
_cell_volume   7256.93589920
_cell_formula_units_Z   1
loop_
 _symmetry_equiv_pos_site_id
 _symmetry_equiv_pos_as_xyz
  1  'x, y, z'
loop_
 _atom_site_type_symbol
 _atom_site_label
 _atom_site_symmetry_multiplicity
 _atom_site_fract_x
 _atom_site_fract_y
 _atom_site_fract_z
 _atom_site_occupancy
  In  In0  1  -0.00585027  0.17098605  0.12921190  1
  In  In1  1  -0.01772808  0.15727264  0.62599253  1
  In  In2  1  -0.00473103  0.49663267  0.13599745  1
  In  In3  1  0.01177945  0.50545574  0.61908449  1
  In  In4  1  0.00594508  0.82682569  0.13255816  1
  In  In5  1  0.00634118  0.84766125  0.61841593  1
  In  In6  1  0.34019810  0.15063528  0.13507264  1
  In  In7  1  0.35453926  0.16706440  0.62291432  1
  In  In8  1  0.34417024  0.50092509  0.14247852  1
  In  In9  1  0.34135966  0.48432583  0.62721023  1
  In  In10  1  0.33751507  0.83682507  0.13084955  1
  In  In11  1  0.32963542  0.83070955  0.61533781  1
  In  In12  1  0.64165682  0.14269570  0.09800054  1
  In  In13  1  0.65543092  0.17453430  0.63149465  1
  In  In14  1  0.66854306  0.49922756  0.12953067  1
  In  In15  1  0.65470759  0.50361102  0.62432677  1
  In  In16  1  0.65570198  0.85008402  0.13259094  1
  In  In17  1  0.66253916  0.83082486  0.62063349  1
  In  In18  1  0.15623673  -0.00580029  0.36812687  1
  In  In19  1  0.15929333  -0.00221896  0.87449078  1
  In  In20  1  0.17628515  0.34159094  0.36522021  1
  In  In21  1  0.17757764  0.31997555  0.87394803  1
  In  In22  1  0.17726672  0.67728954  0.36983258  1
  In  In23  1  0.17638964  0.67707475  0.87985763  1
  In  In24  1  0.50557413  0.00367190  0.38008050  1
  In  In25  1  0.51447099  -0.01046553  0.89256701  1
  In  In26  1  0.49909800  0.33758533  0.38822985  1
  In  In27  1  0.50061992  0.32698878  0.87336063  1
  In  In28  1  0.50644945  0.67221297  0.36984991  1
  In  In29  1  0.50859587  0.67197816  0.87144472  1
  In  In30  1  0.81446237  -0.01801189  0.36415876  1
  In  In31  1  0.83390604  0.00463014  0.87486730  1
  In  In32  1  0.82881028  0.32508782  0.37125694  1
  In  In33  1  0.80666361  0.32442884  0.87536636  1
  In  In34  1  0.84062771  0.67755221  0.36878747  1
  In  In35  1  0.82152264  0.68009914  0.87721073  1
  In  In36  1  -0.00581606  0.16666904  0.36194534  1
  In  In37  1  -0.00095008  0.14595962  0.87500832  1
  In  In38  1  0.00182683  0.50432908  0.36560320  1
  In  In39  1  0.00046412  0.50012674  0.87579497  1
  In  In40  1  0.00038909  0.83564316  0.37442614  1
  In  In41  1  0.00065125  0.84519170  0.87748392  1
  In  In42  1  0.34425009  0.17549643  0.36562453  1
  In  In43  1  0.33706939  0.17641932  0.87063626  1
  In  In44  1  0.36308042  0.51706112  0.35239862  1
  In  In45  1  0.34839579  0.49727979  0.87522632  1
  In  In46  1  0.33416497  0.83394605  0.37585242  1
  In  In47  1  0.33328575  0.83823179  0.88169811  1
  In  In48  1  0.66222046  0.15251360  0.38177187  1
  In  In49  1  0.66435989  0.16156019  0.87695992  1
  In  In50  1  0.63289049  0.50561921  0.37567903  1
  In  In51  1  0.66080781  0.49635550  0.86442956  1
  In  In52  1  0.67185733  0.84034291  0.37944854  1
  In  In53  1  0.65935786  0.83512204  0.86632730  1
  In  In54  1  0.17600973  -0.01221463  0.13407009  1
  In  In55  1  0.16431226  -0.01477957  0.62823294  1
  In  In56  1  0.16714101  0.33050880  0.13107444  1
  In  In57  1  0.17263051  0.34607520  0.62383710  1
  In  In58  1  0.16307698  0.67429736  0.13540618  1
  In  In59  1  0.16155483  0.67552941  0.62107078  1
  In  In60  1  0.50194143  -0.00628329  0.12530873  1
  In  In61  1  0.50830920  0.00216901  0.61462898  1
  In  In62  1  0.50463818  0.31775626  0.12604682  1
  In  In63  1  0.50478124  0.32872872  0.62258063  1
  In  In64  1  0.49011288  0.67771759  0.14337876  1
  In  In65  1  0.51929138  0.68591660  0.60673629  1
  In  In66  1  0.81992255  0.01730995  0.13009542  1
  In  In67  1  0.83965540  -0.00784188  0.63198665  1
  In  In68  1  0.83263616  0.32635690  0.12533047  1
  In  In69  1  0.82502314  0.31781499  0.62331017  1
  In  In70  1  0.82878257  0.67278933  0.13739225  1
  In  In71  1  0.81126680  0.67246521  0.62790915  1
  In  In72  1  0.50323512  0.50338852  -0.00006841  1
  In  In73  1  0.66596812  0.33220080  0.24967024  1
  In  In74  1  0.34286973  0.67061451  0.74113915  1
  In  In75  1  0.83148568  0.83981834  0.00314145  1
  In  In76  1  0.82744064  0.50742417  0.50668154  1
  In  In77  1  -0.00605231  0.67114075  0.75865738  1
  In  In78  1  0.17095568  0.15881369  -0.00242489  1
  In  In79  1  0.16866321  0.50224362  0.01915032  1
  In  In80  1  0.82545476  0.15701404  0.49442976  1
  In  In81  1  0.83070792  0.49789816  0.01011812  1
  In  In82  1  0.34066058  -0.00132501  0.74757372  1
  In  In83  1  -0.00381697  0.32754101  0.74263118  1
  In  In84  1  0.17948586  0.51136625  0.48820601  1
  In  In85  1  0.17036273  0.16109377  0.49621965  1
  Cu  Cu86  1  0.50174270  0.84072715  0.25710061  1
  Cu  Cu87  1  0.83599764  0.83698657  0.25098207  1
  Cu  Cu88  1  0.17098423  0.16491020  0.74941111  1
  Cu  Cu89  1  0.34169524  -0.00310918  0.00772696  1
  Cu  Cu90  1  0.33792197  0.66414285  0.49078998  1
  Cu  Cu91  1  0.16755878  0.83285545  0.25231095  1
  Cu  Cu92  1  0.16425911  0.16565280  0.24858941  1
  Cu  Cu93  1  0.66218883  0.67103473  0.00032507  1
  Cu  Cu94  1  0.82589845  0.83257734  0.75084944  1
  Cu  Cu95  1  0.33004149  0.33498037  0.00209011  1
  Cu  Cu96  1  0.33266733  -0.00524827  0.49645816  1
  Cu  Cu97  1  0.83080374  0.16823129  0.24741745  1
  Cu  Cu98  1  0.66921837  0.66978696  0.49401806  1
  Cu  Cu99  1  0.82867698  0.50402173  0.25277226  1
  Cu  Cu100  1  -0.00373475  -0.00546967  0.49596897  1
  Cu  Cu101  1  0.00536363  -0.00687163  0.00391708  1
  Cu  Cu102  1  0.49878418  0.49309328  0.74652332  1
  Cu  Cu103  1  0.82523727  0.49541702  0.74396330  1
  Cu  Cu104  1  0.82658460  0.16097230  0.75084969  1
  Cu  Cu105  1  0.33549295  0.68308526  0.00897893  1
  Cu  Cu106  1  0.50475651  0.16154604  0.24801916  1
  Cu  Cu107  1  0.16221652  0.49469977  0.24916974  1
  Cu  Cu108  1  0.01150022  0.67184043  0.00889599  1
  Cu  Cu109  1  -0.00293842  0.68370257  0.49781615  1
  Cu  Cu110  1  0.17682631  0.49699211  0.75124184  1
  Cu  Cu111  1  0.34548984  0.33075695  0.49775725  1
  Cu  Cu112  1  0.50452919  0.16736076  0.75080249  1
  Cu  Cu113  1  -0.01356710  0.32456548  -0.00021073  1
  Cu  Cu114  1  0.00093467  0.33434252  0.48654492  1
  Se  Se115  1  0.08347135  0.07639183  0.06401639  1
  Se  Se116  1  0.07289168  0.07781714  0.55710229  1
  Se  Se117  1  0.06733227  0.40431010  0.06010230  1
  Se  Se118  1  0.08349735  0.41318070  0.54520767  1
  Se  Se119  1  0.09334372  0.75646749  0.05864656  1
  Se  Se120  1  0.08673804  0.75934161  0.55107041  1
  Se  Se121  1  0.42092447  0.08533380  0.05732221  1
  Se  Se122  1  0.41546995  0.07981808  0.54819845  1
  Se  Se123  1  0.41059425  0.41588805  0.06093832  1
  Se  Se124  1  0.42406902  0.41673574  0.55230296  1
  Se  Se125  1  0.42650312  0.75605249  0.06239460  1
  Se  Se126  1  0.41490849  0.75245621  0.54630057  1
  Se  Se127  1  0.75629017  0.08375959  0.04489329  1
  Se  Se128  1  0.74780141  0.08120402  0.56971586  1
  Se  Se129  1  0.73462261  0.40339429  0.05764445  1
  Se  Se130  1  0.74217765  0.40761610  0.55922941  1
  Se  Se131  1  0.74386326  0.74672725  0.06223242  1
  Se  Se132  1  0.75142573  0.75289982  0.54854234  1
  Se  Se133  1  0.25568939  0.24928758  0.06135483  1
  Se  Se134  1  0.25638657  0.25761402  0.55651713  1
  Se  Se135  1  0.26612564  0.59361265  0.06864039  1
  Se  Se136  1  0.26268400  0.59008801  0.56186263  1
  Se  Se137  1  0.25384579  0.91556756  0.05763739  1
  Se  Se138  1  0.24534954  0.91848353  0.55114430  1
  Se  Se139  1  0.58140690  0.25708554  0.04612980  1
  Se  Se140  1  0.57483767  0.23755354  0.55270901  1
  Se  Se141  1  0.58544902  0.59395963  0.06462818  1
  Se  Se142  1  0.58640404  0.58215055  0.54519434  1
  Se  Se143  1  0.58905627  0.92198133  0.05273360  1
  Se  Se144  1  0.57455905  0.90368904  0.54971642  1
  Se  Se145  1  0.90874080  0.24068445  0.05438236  1
  Se  Se146  1  0.92391144  0.25471738  0.54958896  1
  Se  Se147  1  0.92417946  0.59356316  0.06345475  1
  Se  Se148  1  0.92494941  0.60001885  0.56173831  1
  Se  Se149  1  0.92158084  0.92178520  0.06762649  1
  Se  Se150  1  0.91005026  0.91652333  0.55165893  1
  Se  Se151  1  0.08260871  0.25171403  0.43268858  1
  Se  Se152  1  0.07564069  0.25300896  0.94085837  1
  Se  Se153  1  0.07375934  0.59643991  0.43985270  1
  Se  Se154  1  0.08285301  0.58616594  0.94670495  1
  Se  Se155  1  0.08610219  0.91511597  0.44557555  1
  Se  Se156  1  0.08980124  0.91348574  0.95007946  1
  Se  Se157  1  0.42135982  0.23787639  0.44780898  1
  Se  Se158  1  0.41155469  0.25518926  0.94549665  1
  Se  Se159  1  0.42366390  0.58374066  0.43875657  1
  Se  Se160  1  0.40861721  0.59957852  0.94509818  1
  Se  Se161  1  0.41893293  0.91524239  0.44383952  1
  Se  Se162  1  0.42040318  0.90971377  0.95332259  1
  Se  Se163  1  0.73780704  0.25880703  0.44389237  1
  Se  Se164  1  0.76187633  0.22686201  0.94741669  1
  Se  Se165  1  0.74689716  0.58688124  0.43350454  1
  Se  Se166  1  0.74111672  0.58513933  0.94317555  1
  Se  Se167  1  0.74857191  0.92569521  0.45049721  1
  Se  Se168  1  0.74096643  0.92137703  0.94015592  1
  Se  Se169  1  0.25750411  0.07623645  0.43281516  1
  Se  Se170  1  0.26524486  0.07184663  0.93885532  1
  Se  Se171  1  0.26651247  0.41187797  0.43810626  1
  Se  Se172  1  0.25057466  0.41832052  0.94467430  1
  Se  Se173  1  0.25030092  0.75117155  0.44739257  1
  Se  Se174  1  0.24837731  0.75893076  0.95262225  1
  Se  Se175  1  0.58879655  0.07487644  0.45553705  1
  Se  Se176  1  0.56266709  0.10628121  0.94704501  1
  Se  Se177  1  0.59092734  0.41325214  0.45297122  1
  Se  Se178  1  0.59189431  0.41168633  0.94180045  1
  Se  Se179  1  0.58424756  0.75291049  0.44260344  1
  Se  Se180  1  0.58431991  0.75391824  0.94307753  1
  Se  Se181  1  0.92136600  0.07617650  0.43415932  1
  Se  Se182  1  0.92057052  0.07413290  0.95047265  1
  Se  Se183  1  0.91556756  0.41955235  0.43798988  1
  Se  Se184  1  0.91422764  0.41073243  0.93954053  1
  Se  Se185  1  0.90958601  0.76074620  0.44470715  1
  Se  Se186  1  0.92531046  0.74311957  0.94550443  1
  Se  Se187  1  0.25056176  0.24909137  0.29965126  1
  Se  Se188  1  0.25488328  0.25171916  0.79622752  1
  Se  Se189  1  0.24306657  0.57617479  0.30538937  1
  Se  Se190  1  0.25224844  0.58135959  0.81033352  1
  Se  Se191  1  0.25066734  0.91606071  0.30548889  1
  Se  Se192  1  0.24585826  0.91168564  0.80685896  1
  Se  Se193  1  0.57930209  0.24228207  0.31252512  1
  Se  Se194  1  0.58794104  0.25011544  0.80495930  1
  Se  Se195  1  0.58098332  0.58812719  0.29595988  1
  Se  Se196  1  0.57624236  0.58116402  0.80075520  1
  Se  Se197  1  0.58847755  0.92242358  0.30842551  1
  Se  Se198  1  0.57828042  0.92827180  0.80559131  1
  Se  Se199  1  0.91282650  0.25611447  0.29730479  1
  Se  Se200  1  0.91313651  0.24258155  0.81050269  1
  Se  Se201  1  0.91699819  0.58756214  0.30043861  1
  Se  Se202  1  0.89956710  0.57306489  0.81112730  1
  Se  Se203  1  0.92104985  0.91993928  0.30299998  1
  Se  Se204  1  0.90958938  0.91170552  0.80721840  1
  Se  Se205  1  0.07984459  0.08138320  0.29889899  1
  Se  Se206  1  0.08726653  0.08175909  0.80030918  1
  Se  Se207  1  0.07697857  0.41092965  0.30142051  1
  Se  Se208  1  0.08939187  0.41702189  0.80761021  1
  Se  Se209  1  0.08207460  0.75010498  0.30518092  1
  Se  Se210  1  0.09264051  0.75936289  0.80975263  1
  Se  Se211  1  0.42256902  0.07967012  0.30463029  1
  Se  Se212  1  0.42609728  0.08632122  0.81092405  1
  Se  Se213  1  0.41488250  0.39424888  0.30883350  1
  Se  Se214  1  0.41779731  0.41189883  0.80349683  1
  Se  Se215  1  0.41587639  0.75376682  0.30437082  1
  Se  Se216  1  0.42200070  0.76205391  0.80667148  1
  Se  Se217  1  0.74899839  0.08941109  0.30549311  1
  Se  Se218  1  0.74502893  0.07804661  0.80508422  1
  Se  Se219  1  0.74706080  0.42740126  0.31443207  1
  Se  Se220  1  0.74557873  0.41138947  0.79889456  1
  Se  Se221  1  0.74932748  0.75682697  0.30484491  1
  Se  Se222  1  0.74191964  0.74561661  0.80013318  1
  Se  Se223  1  0.25025161  0.07754481  0.20285464  1
  Se  Se224  1  0.24972416  0.08948371  0.68451532  1
  Se  Se225  1  0.24945599  0.41433862  0.19757668  1
  Se  Se226  1  0.25696176  0.41069750  0.70025147  1
  Se  Se227  1  0.25484394  0.75136439  0.20009735  1
  Se  Se228  1  0.24025782  0.75956591  0.69297985  1
  Se  Se229  1  0.58699281  0.08372984  0.19016306  1
  Se  Se230  1  0.57818082  0.07951559  0.69415230  1
  Se  Se231  1  0.57106751  0.42163889  0.19335513  1
  Se  Se232  1  0.58486408  0.41164275  0.69427103  1
  Se  Se233  1  0.58658306  0.75802158  0.20221591  1
  Se  Se234  1  0.58661134  0.74386495  0.69196775  1
  Se  Se235  1  0.91758521  0.08267568  0.19804793  1
  Se  Se236  1  0.91702354  0.07871179  0.70403421  1
  Se  Se237  1  0.90348987  0.41494749  0.19706336  1
  Se  Se238  1  0.91194555  0.42549157  0.68168800  1
  Se  Se239  1  0.92004459  0.74876072  0.20197605  1
  Se  Se240  1  0.91080829  0.75427107  0.68979160  1
  Se  Se241  1  0.08028579  0.25100731  0.19737707  1
  Se  Se242  1  0.09090082  0.24016723  0.68190734  1
  Se  Se243  1  0.08113910  0.58226387  0.19797624  1
  Se  Se244  1  0.09199803  0.57962997  0.69715244  1
  Se  Se245  1  0.08174742  0.91640413  0.20081447  1
  Se  Se246  1  0.07586922  0.91833392  0.69919055  1
  Se  Se247  1  0.41824622  0.24569035  0.19724455  1
  Se  Se248  1  0.42112414  0.25141257  0.69730924  1
  Se  Se249  1  0.42068314  0.58424438  0.21096945  1
  Se  Se250  1  0.43123621  0.58004143  0.68270478  1
  Se  Se251  1  0.41822710  0.92174034  0.20018209  1
  Se  Se252  1  0.42142348  0.90939726  0.68319848  1
  Se  Se253  1  0.74190743  0.23687941  0.18552228  1
  Se  Se254  1  0.74737944  0.24970685  0.70053067  1
  Se  Se255  1  0.74386416  0.58491545  0.19958049  1
  Se  Se256  1  0.74069387  0.58162402  0.69542136  1
  Se  Se257  1  0.75267220  0.92107471  0.19758165  1
  Se  Se258  1  0.74569144  0.91201636  0.69314693  1
