# generated using pymatgen
data_In86Cu29Se144
_symmetry_space_group_name_H-M   'P 1'
_cell_length_a   17.59688722
_cell_length_b   17.59471465
_cell_length_c   23.45819512
_cell_angle_alpha   90.02229023
_cell_angle_beta   89.98858765
_cell_angle_gamma   90.00001467
_symmetry_Int_Tables_number   1
_chemical_formula_structural   In86Cu29Se144
_chemical_formula_sum   'In86 Cu29 Se144'
_cell_volume   7262.94292389
_cell_formula_units_Z   1
loop_
 _symmetry_equiv_pos_site_id
 _symmetry_equiv_pos_as_xyz
  1  'x, y, z'
loop_
 _atom_site_type_symbol
 _atom_site_label
 _atom_site_symmetry_multiplicity
 _atom_site_fract_x
 _atom_site_fract_y
 _atom_site_fract_z
 _atom_site_occupancy
  In  In0  1  -0.01394298  0.14599568  0.10535536  1
  In  In1  1  0.01014725  0.17560573  0.61832990  1
  In  In2  1  0.00843821  0.50536625  0.12084402  1
  In  In3  1  -0.01565092  0.49267463  0.62305322  1
  In  In4  1  -0.01642387  0.85079260  0.13153201  1
  In  In5  1  0.00469545  0.83523026  0.62464212  1
  In  In6  1  0.33787662  0.16147273  0.12323371  1
  In  In7  1  0.34834448  0.18149427  0.60930127  1
  In  In8  1  0.32367765  0.49147074  0.11554112  1
  In  In9  1  0.32923627  0.48318127  0.62564303  1
  In  In10  1  0.34918475  0.83941042  0.11829510  1
  In  In11  1  0.34300762  0.83254735  0.62383555  1
  In  In12  1  0.66270436  0.16752574  0.13018477  1
  In  In13  1  0.66508495  0.16379514  0.61111721  1
  In  In14  1  0.65716832  0.48806474  0.12074614  1
  In  In15  1  0.66621147  0.49160336  0.61584635  1
  In  In16  1  0.67434009  0.83926414  0.12641284  1
  In  In17  1  0.65578227  0.84803555  0.62254658  1
  In  In18  1  0.18134033  0.01899441  0.35409652  1
  In  In19  1  0.17606404  0.01122230  0.88649239  1
  In  In20  1  0.16765034  0.31338383  0.37381453  1
  In  In21  1  0.16765460  0.33282930  0.87688829  1
  In  In22  1  0.16747945  0.68017979  0.36830848  1
  In  In23  1  0.15522854  0.66587653  0.87900698  1
  In  In24  1  0.49958202  0.00569099  0.37407939  1
  In  In25  1  0.47249003  0.01466158  0.90646647  1
  In  In26  1  0.50038614  0.32798516  0.37223922  1
  In  In27  1  0.49846803  0.33290536  0.87655790  1
  In  In28  1  0.50190146  0.66371591  0.38002948  1
  In  In29  1  0.48818191  0.67326240  0.89169384  1
  In  In30  1  0.83928819  0.00926686  0.36915443  1
  In  In31  1  0.82848792  0.00876533  0.89496889  1
  In  In32  1  0.82431819  0.33902823  0.37641708  1
  In  In33  1  0.84317937  0.32488276  0.88498320  1
  In  In34  1  0.83353163  0.65429626  0.36847955  1
  In  In35  1  0.83326536  0.66541164  0.88687003  1
  In  In36  1  0.00995831  0.15955034  0.37729481  1
  In  In37  1  -0.01206557  0.17568352  0.88650422  1
  In  In38  1  -0.01424718  0.49477789  0.36686998  1
  In  In39  1  0.01025287  0.49090136  0.88646228  1
  In  In40  1  0.00265781  0.83692614  0.36258323  1
  In  In41  1  -0.00102248  0.82640658  0.87892313  1
  In  In42  1  0.33176609  0.16466480  0.37223266  1
  In  In43  1  0.32759922  0.17150612  0.88362654  1
  In  In44  1  0.34941192  0.50046948  0.37207998  1
  In  In45  1  0.34805645  0.48631222  0.88738847  1
  In  In46  1  0.33878898  0.85130571  0.37140840  1
  In  In47  1  0.33538757  0.85249511  0.88434404  1
  In  In48  1  0.66075905  0.16532141  0.37305558  1
  In  In49  1  0.66403402  0.16999294  0.88124629  1
  In  In50  1  0.67086320  0.49257274  0.37602708  1
  In  In51  1  0.66180445  0.50428114  0.88488464  1
  In  In52  1  0.65061422  0.84115419  0.37708028  1
  In  In53  1  0.65681955  0.84523981  0.88449683  1
  In  In54  1  0.15746339  0.01134094  0.12408357  1
  In  In55  1  0.16448133  0.00642389  0.62351841  1
  In  In56  1  0.17459043  0.33319844  0.12150859  1
  In  In57  1  0.17575358  0.32397772  0.63705228  1
  In  In58  1  0.16633043  0.65190946  0.11973446  1
  In  In59  1  0.17231252  0.67678594  0.62990957  1
  In  In60  1  0.49870143  0.00574725  0.12775732  1
  In  In61  1  0.50630364  0.01039759  0.60322988  1
  In  In62  1  0.49947754  0.32672986  0.12744290  1
  In  In63  1  0.48663647  0.32559802  0.62059815  1
  In  In64  1  0.49395651  0.66063386  0.11383512  1
  In  In65  1  0.51101991  0.66997210  0.62103701  1
  In  In66  1  0.83016521  0.00082115  0.12689277  1
  In  In67  1  0.82135480  0.00836160  0.62073372  1
  In  In68  1  0.82152044  0.32275584  0.12174684  1
  In  In69  1  0.83373706  0.33313920  0.62088582  1
  In  In70  1  0.84241942  0.67600068  0.12210778  1
  In  In71  1  0.84826907  0.65952615  0.62203583  1
  In  In72  1  0.82537436  0.82985307  0.49761522  1
  In  In73  1  0.66169872  0.00664382  0.74228459  1
  In  In74  1  0.16918562  0.83730511  0.50190349  1
  In  In75  1  0.33280975  0.66200808  0.75892184  1
  In  In76  1  0.00356461  0.00062999  0.75108595  1
  In  In77  1  0.00612061  0.65490486  0.75948767  1
  In  In78  1  0.33284181  0.00710089  0.75490649  1
  In  In79  1  0.66237867  0.33076821  0.75221900  1
  In  In80  1  0.00165282  0.32854107  0.24480990  1
  In  In81  1  0.33202659  0.66902106  0.23840115  1
  In  In82  1  0.66889980  0.65891408  0.75381322  1
  In  In83  1  0.16480687  0.49726221  0.50365461  1
  In  In84  1  0.66859356  0.67251795  0.24996342  1
  In  In85  1  0.16426179  0.83145024  0.00070592  1
  Cu  Cu86  1  0.49041647  0.49694300  0.75367734  1
  Cu  Cu87  1  0.33326689  0.33474536  0.49705136  1
  Cu  Cu88  1  0.83271270  0.16515216  0.24697494  1
  Cu  Cu89  1  -0.00449191  0.65545891  0.49288642  1
  Cu  Cu90  1  0.83485372  0.84270229  0.24836172  1
  Cu  Cu91  1  0.66627514  0.00014207  0.01051374  1
  Cu  Cu92  1  0.00249312  -0.00066737  0.49370210  1
  Cu  Cu93  1  0.49956919  0.83791402  0.24847309  1
  Cu  Cu94  1  0.16351423  0.49343588  0.75579369  1
  Cu  Cu95  1  0.33742729  0.32952004  0.00154785  1
  Cu  Cu96  1  0.50077282  0.84807492  0.75482087  1
  Cu  Cu97  1  0.34305454  0.66898836  0.50082137  1
  Cu  Cu98  1  0.16843408  0.16751476  0.24229976  1
  Cu  Cu99  1  0.17085055  0.49688046  0.24419483  1
  Cu  Cu100  1  -0.00721447  0.66862493  0.00299392  1
  Cu  Cu101  1  0.50253857  0.48716328  0.24782041  1
  Cu  Cu102  1  0.83367723  0.50472451  0.24601905  1
  Cu  Cu103  1  0.67152953  0.66576991  0.00634069  1
  Cu  Cu104  1  0.83374597  0.48652374  0.75048152  1
  Cu  Cu105  1  0.00610902  0.33675297  0.00460830  1
  Cu  Cu106  1  0.83674031  0.16925483  0.75430863  1
  Cu  Cu107  1  0.16654167  0.17014296  0.75393517  1
  Cu  Cu108  1  0.66598685  0.33103864  0.00149762  1
  Cu  Cu109  1  -0.00718588  0.33009147  0.49661716  1
  Cu  Cu110  1  0.66513212  0.33372630  0.49426993  1
  Cu  Cu111  1  0.67127922  0.65952862  0.49659858  1
  Cu  Cu112  1  0.83753880  0.83050060  0.75825408  1
  Cu  Cu113  1  0.49716088  0.16567711  0.25161895  1
  Cu  Cu114  1  0.16065724  0.83623976  0.24304414  1
  Se  Se115  1  0.09449287  0.09024796  0.04418219  1
  Se  Se116  1  0.08309906  0.08157606  0.55145994  1
  Se  Se117  1  0.09171511  0.41985656  0.05511891  1
  Se  Se118  1  0.07612738  0.40503394  0.56092481  1
  Se  Se119  1  0.07205951  0.74778045  0.06520021  1
  Se  Se120  1  0.07382106  0.73605205  0.55384652  1
  Se  Se121  1  0.43009748  0.09176943  0.05354152  1
  Se  Se122  1  0.40652312  0.08049541  0.54424101  1
  Se  Se123  1  0.42011251  0.41201647  0.05617252  1
  Se  Se124  1  0.41555759  0.41930033  0.55082688  1
  Se  Se125  1  0.40946820  0.74348150  0.05005036  1
  Se  Se126  1  0.42473333  0.75260398  0.55490944  1
  Se  Se127  1  0.74840598  0.08836550  0.05994316  1
  Se  Se128  1  0.74629850  0.07861374  0.54523584  1
  Se  Se129  1  0.75028785  0.41553829  0.05299333  1
  Se  Se130  1  0.75256329  0.41343650  0.54934389  1
  Se  Se131  1  0.75177991  0.75353539  0.05664010  1
  Se  Se132  1  0.74254956  0.73939683  0.56549945  1
  Se  Se133  1  0.25390604  0.24599133  0.05407714  1
  Se  Se134  1  0.24492833  0.25830881  0.55270459  1
  Se  Se135  1  0.25701519  0.58848849  0.04912660  1
  Se  Se136  1  0.25780711  0.59305153  0.56020996  1
  Se  Se137  1  0.25128470  0.92259596  0.06004945  1
  Se  Se138  1  0.26121951  0.92645064  0.55855841  1
  Se  Se139  1  0.58405841  0.24806307  0.05627598  1
  Se  Se140  1  0.58179971  0.25683393  0.55295398  1
  Se  Se141  1  0.58505244  0.57923648  0.05221612  1
  Se  Se142  1  0.58513857  0.58114352  0.55245637  1
  Se  Se143  1  0.58204236  0.91599983  0.06140477  1
  Se  Se144  1  0.58520072  0.91510456  0.54350436  1
  Se  Se145  1  0.91655736  0.25543698  0.05306007  1
  Se  Se146  1  0.91324464  0.24612242  0.55302382  1
  Se  Se147  1  0.91351956  0.58035437  0.05568615  1
  Se  Se148  1  0.91223130  0.57416955  0.54678816  1
  Se  Se149  1  0.90839835  0.91900844  0.05423921  1
  Se  Se150  1  0.92214181  0.92044522  0.55630910  1
  Se  Se151  1  0.08237357  0.24857930  0.44860439  1
  Se  Se152  1  0.08481810  0.25223302  0.94772600  1
  Se  Se153  1  0.08295093  0.58480797  0.43330219  1
  Se  Se154  1  0.08119142  0.58641010  0.95306133  1
  Se  Se155  1  0.08407959  0.92047496  0.43511844  1
  Se  Se156  1  0.07468616  0.92477039  0.94250363  1
  Se  Se157  1  0.41256561  0.25074843  0.44132139  1
  Se  Se158  1  0.42228470  0.24803803  0.94767022  1
  Se  Se159  1  0.42022764  0.57987222  0.44825853  1
  Se  Se160  1  0.41684168  0.57913141  0.95466507  1
  Se  Se161  1  0.43209309  0.90700599  0.44220084  1
  Se  Se162  1  0.43069221  0.89512035  0.96044094  1
  Se  Se163  1  0.74727091  0.24885892  0.44196477  1
  Se  Se164  1  0.75117461  0.24704825  0.94928000  1
  Se  Se165  1  0.75451760  0.57965939  0.44228964  1
  Se  Se166  1  0.75155838  0.57956333  0.95203499  1
  Se  Se167  1  0.74622444  0.92545496  0.43780983  1
  Se  Se168  1  0.74727243  0.91537597  0.95413172  1
  Se  Se169  1  0.24136797  0.08532675  0.43856233  1
  Se  Se170  1  0.28069906  0.06343390  0.95113281  1
  Se  Se171  1  0.25238716  0.41485154  0.43676352  1
  Se  Se172  1  0.25016157  0.41224972  0.94879958  1
  Se  Se173  1  0.26136596  0.74603919  0.44086416  1
  Se  Se174  1  0.25520153  0.74407008  0.93896005  1
  Se  Se175  1  0.56575343  0.10130173  0.44294737  1
  Se  Se176  1  0.58845838  0.08307437  0.95131341  1
  Se  Se177  1  0.58006626  0.41651237  0.44176562  1
  Se  Se178  1  0.58136608  0.41335048  0.94692806  1
  Se  Se179  1  0.58828810  0.74457213  0.44599223  1
  Se  Se180  1  0.58872627  0.74767449  0.94993749  1
  Se  Se181  1  0.91737495  0.08509543  0.44494933  1
  Se  Se182  1  0.92187435  0.08354044  0.95619997  1
  Se  Se183  1  0.91541804  0.41750045  0.44369722  1
  Se  Se184  1  0.91662740  0.41749023  0.95219450  1
  Se  Se185  1  0.92249380  0.74587061  0.43649518  1
  Se  Se186  1  0.91294333  0.75569691  0.95078779  1
  Se  Se187  1  0.25105397  0.24832365  0.29843345  1
  Se  Se188  1  0.25188677  0.24931539  0.80829401  1
  Se  Se189  1  0.24774827  0.57863285  0.30712798  1
  Se  Se190  1  0.24222691  0.57207911  0.81700464  1
  Se  Se191  1  0.24946135  0.91251092  0.29679845  1
  Se  Se192  1  0.23989905  0.91495056  0.81100765  1
  Se  Se193  1  0.58406193  0.25074891  0.30060196  1
  Se  Se194  1  0.57334813  0.23572124  0.80582156  1
  Se  Se195  1  0.57758688  0.57620231  0.30490182  1
  Se  Se196  1  0.56748003  0.58079387  0.81301923  1
  Se  Se197  1  0.58140130  0.92095492  0.30141774  1
  Se  Se198  1  0.57526540  0.93041484  0.81501966  1
  Se  Se199  1  0.91223389  0.24538309  0.30984878  1
  Se  Se200  1  0.91927373  0.25204852  0.80654087  1
  Se  Se201  1  0.92126784  0.58682110  0.29486629  1
  Se  Se202  1  0.90757288  0.57081926  0.81434181  1
  Se  Se203  1  0.92101255  0.92584249  0.29986855  1
  Se  Se204  1  0.90944804  0.91840616  0.81587448  1
  Se  Se205  1  0.07766690  0.08810711  0.29432229  1
  Se  Se206  1  0.08815119  0.09051265  0.81434091  1
  Se  Se207  1  0.09225766  0.41847549  0.30850055  1
  Se  Se208  1  0.07817904  0.41269929  0.80799492  1
  Se  Se209  1  0.08208901  0.74851722  0.29566221  1
  Se  Se210  1  0.09348913  0.76083834  0.80379340  1
  Se  Se211  1  0.41195309  0.08035625  0.30208986  1
  Se  Se212  1  0.42597798  0.09023022  0.81538669  1
  Se  Se213  1  0.41499011  0.41006155  0.30132820  1
  Se  Se214  1  0.41175955  0.41029853  0.80538782  1
  Se  Se215  1  0.42159872  0.75004925  0.30585619  1
  Se  Se216  1  0.42210477  0.76259122  0.81121635  1
  Se  Se217  1  0.74818638  0.08574952  0.30307893  1
  Se  Se218  1  0.75655542  0.08692378  0.81028438  1
  Se  Se219  1  0.75265655  0.42113895  0.30058007  1
  Se  Se220  1  0.75088476  0.41807441  0.81514562  1
  Se  Se221  1  0.75686410  0.76276850  0.31214490  1
  Se  Se222  1  0.75175148  0.75527663  0.81504892  1
  Se  Se223  1  0.25201878  0.08055553  0.19298859  1
  Se  Se224  1  0.24624612  0.09440330  0.69086119  1
  Se  Se225  1  0.25504665  0.41328278  0.19467635  1
  Se  Se226  1  0.25221453  0.41453571  0.70353145  1
  Se  Se227  1  0.24086210  0.75954490  0.18128478  1
  Se  Se228  1  0.25092998  0.76287652  0.69903825  1
  Se  Se229  1  0.58296844  0.08269527  0.20010052  1
  Se  Se230  1  0.56980587  0.09569233  0.68492742  1
  Se  Se231  1  0.58870502  0.40657686  0.19679329  1
  Se  Se232  1  0.57657296  0.42448841  0.69180949  1
  Se  Se233  1  0.57170388  0.75095469  0.18817467  1
  Se  Se234  1  0.58082985  0.76109048  0.69949854  1
  Se  Se235  1  0.91818405  0.08564620  0.19278100  1
  Se  Se236  1  0.91203746  0.08826026  0.68990594  1
  Se  Se237  1  0.91210424  0.42075730  0.18651687  1
  Se  Se238  1  0.91704376  0.40621350  0.69683290  1
  Se  Se239  1  0.91561846  0.75273072  0.19948071  1
  Se  Se240  1  0.91656387  0.75254313  0.69701301  1
  Se  Se241  1  0.08286108  0.23956674  0.18032360  1
  Se  Se242  1  0.07872634  0.24868732  0.69990338  1
  Se  Se243  1  0.08570295  0.58246556  0.19710957  1
  Se  Se244  1  0.09191024  0.57197173  0.68808296  1
  Se  Se245  1  0.07956311  0.92543053  0.19448620  1
  Se  Se246  1  0.09651146  0.90737432  0.69413777  1
  Se  Se247  1  0.41356499  0.24741895  0.19637857  1
  Se  Se248  1  0.40848700  0.25184099  0.69429036  1
  Se  Se249  1  0.42311305  0.56975353  0.18938329  1
  Se  Se250  1  0.42087013  0.58088361  0.68881306  1
  Se  Se251  1  0.41454567  0.91929342  0.19653008  1
  Se  Se252  1  0.42634165  0.92372361  0.68907275  1
  Se  Se253  1  0.74712201  0.25145033  0.20012987  1
  Se  Se254  1  0.75150126  0.23959821  0.69088482  1
  Se  Se255  1  0.75066704  0.58170738  0.18586892  1
  Se  Se256  1  0.76038832  0.57169335  0.69095670  1
  Se  Se257  1  0.74547559  0.92327534  0.20010765  1
  Se  Se258  1  0.75996625  0.90674753  0.69400035  1
