# generated using pymatgen
data_In86Cu29Se144
_symmetry_space_group_name_H-M   'P 1'
_cell_length_a   17.58635870
_cell_length_b   17.58560067
_cell_length_c   23.44341452
_cell_angle_alpha   90.00110516
_cell_angle_beta   89.99267686
_cell_angle_gamma   90.02003991
_symmetry_Int_Tables_number   1
_chemical_formula_structural   In86Cu29Se144
_chemical_formula_sum   'In86 Cu29 Se144'
_cell_volume   7250.26650499
_cell_formula_units_Z   1
loop_
 _symmetry_equiv_pos_site_id
 _symmetry_equiv_pos_as_xyz
  1  'x, y, z'
loop_
 _atom_site_type_symbol
 _atom_site_label
 _atom_site_symmetry_multiplicity
 _atom_site_fract_x
 _atom_site_fract_y
 _atom_site_fract_z
 _atom_site_occupancy
  In  In0  1  -0.00939378  0.15675794  0.11711887  1
  In  In1  1  0.00227847  0.16450209  0.62427698  1
  In  In2  1  -0.00810362  0.51211800  0.11714871  1
  In  In3  1  0.01410747  0.49981697  0.62467394  1
  In  In4  1  0.00753249  0.83792406  0.11326485  1
  In  In5  1  0.00834362  0.81947264  0.63388438  1
  In  In6  1  0.32736329  0.17781125  0.12008576  1
  In  In7  1  0.31845352  0.14517900  0.62401382  1
  In  In8  1  0.34847881  0.50360656  0.12046814  1
  In  In9  1  0.32851113  0.51786848  0.62498365  1
  In  In10  1  0.32211158  0.82527185  0.11894811  1
  In  In11  1  0.33562019  0.82861570  0.62340986  1
  In  In12  1  0.66599703  0.15068310  0.12578350  1
  In  In13  1  0.66938687  0.16417160  0.62711172  1
  In  In14  1  0.67182980  0.50876926  0.11051387  1
  In  In15  1  0.66798352  0.49735696  0.63652726  1
  In  In16  1  0.67404751  0.84183662  0.11349538  1
  In  In17  1  0.65425059  0.84375243  0.63510858  1
  In  In18  1  0.16082471  0.00286007  0.38236770  1
  In  In19  1  0.16959862  -0.00791672  0.87537373  1
  In  In20  1  0.16795044  0.32793408  0.38482458  1
  In  In21  1  0.15909788  0.33094968  0.87616825  1
  In  In22  1  0.18081414  0.65765083  0.38922080  1
  In  In23  1  0.17758977  0.68729019  0.85796606  1
  In  In24  1  0.50970788  -0.00381584  0.38093772  1
  In  In25  1  0.49368903  -0.00848448  0.86962358  1
  In  In26  1  0.48780262  0.33292379  0.38138855  1
  In  In27  1  0.51101153  0.32759538  0.87546045  1
  In  In28  1  0.49604797  0.68234453  0.38129195  1
  In  In29  1  0.49716421  0.67036355  0.87447448  1
  In  In30  1  0.84580135  0.00327703  0.36812481  1
  In  In31  1  0.82236189  0.00647335  0.87742854  1
  In  In32  1  0.82269020  0.32702782  0.37169624  1
  In  In33  1  0.82799514  0.33631559  0.88035983  1
  In  In34  1  0.83631985  0.66554204  0.37313182  1
  In  In35  1  0.83244120  0.66886902  0.87740798  1
  In  In36  1  0.00683974  0.15500090  0.38188234  1
  In  In37  1  -0.00381008  0.16433972  0.88116447  1
  In  In38  1  0.00518166  0.51238163  0.37119473  1
  In  In39  1  -0.01240911  0.50807488  0.88000618  1
  In  In40  1  0.00040760  0.84525390  0.37530467  1
  In  In41  1  0.00963018  0.81543446  0.88815755  1
  In  In42  1  0.33105779  0.16823085  0.38984127  1
  In  In43  1  0.32990613  0.14980632  0.86950242  1
  In  In44  1  0.32533129  0.49843822  0.37581255  1
  In  In45  1  0.32394974  0.51937439  0.87451171  1
  In  In46  1  0.33902737  0.82546385  0.38363272  1
  In  In47  1  0.33311826  0.84106011  0.87203798  1
  In  In48  1  0.68037814  0.15491082  0.38493583  1
  In  In49  1  0.67820687  0.17013956  0.85916106  1
  In  In50  1  0.66778642  0.49930918  0.37179692  1
  In  In51  1  0.66334353  0.49902182  0.87499935  1
  In  In52  1  0.65267667  0.83540280  0.37837795  1
  In  In53  1  0.66493462  0.83374392  0.87532538  1
  In  In54  1  0.15476780  -0.01055992  0.11854885  1
  In  In55  1  0.17780479  0.00307057  0.62895505  1
  In  In56  1  0.18706776  0.32605073  0.11801829  1
  In  In57  1  0.16245507  0.32992011  0.62057267  1
  In  In58  1  0.16437235  0.68535866  0.12261561  1
  In  In59  1  0.17519485  0.66740250  0.62243829  1
  In  In60  1  0.51509861  0.00258682  0.12542903  1
  In  In61  1  0.49773950  -0.00366979  0.62329221  1
  In  In62  1  0.49078856  0.34654742  0.11910329  1
  In  In63  1  0.51688594  0.33008583  0.62975242  1
  In  In64  1  0.49561554  0.66676286  0.11479797  1
  In  In65  1  0.47813865  0.69053334  0.64018706  1
  In  In66  1  0.83383548  0.00182293  0.12162881  1
  In  In67  1  0.82208013  0.00452446  0.63358144  1
  In  In68  1  0.83654200  0.33580800  0.11541411  1
  In  In69  1  0.83173017  0.31725378  0.63126072  1
  In  In70  1  0.83875518  0.66313600  0.10249612  1
  In  In71  1  0.83296644  0.66623707  0.63841656  1
  In  In72  1  0.33459928  -0.00130539  0.25271781  1
  In  In73  1  0.16434374  0.49956702  -0.00212837  1
  In  In74  1  -0.00102264  0.67913688  0.24335808  1
  In  In75  1  0.00160018  0.32989672  0.23828095  1
  In  In76  1  0.83790616  0.49594047  0.49183147  1
  In  In77  1  0.33509401  0.33467926  0.25149120  1
  In  In78  1  -0.00377481  0.33725700  0.75186134  1
  In  In79  1  0.33871714  0.33079170  0.75310505  1
  In  In80  1  0.83588314  0.84007781  0.50681711  1
  In  In81  1  -0.00193604  -0.00464464  0.75145170  1
  In  In82  1  0.66691454  0.33222665  0.25126858  1
  In  In83  1  0.49988203  0.50089291  0.50620863  1
  In  In84  1  0.49962767  0.16425596  -0.00257166  1
  In  In85  1  0.67137082  0.67478256  0.23563705  1
  Cu  Cu86  1  0.50373740  0.15963855  0.74591251  1
  Cu  Cu87  1  0.67215672  0.32334062  0.50465154  1
  Cu  Cu88  1  0.50606723  0.51624249  0.24306620  1
  Cu  Cu89  1  0.65878391  0.67014544  0.51014155  1
  Cu  Cu90  1  0.66603943  0.33202979  -0.00409182  1
  Cu  Cu91  1  0.33446216  0.32784152  0.50733737  1
  Cu  Cu92  1  0.50312461  0.50362853  0.75303811  1
  Cu  Cu93  1  0.00220560  0.00236911  0.50489366  1
  Cu  Cu94  1  0.83765649  0.15960392  0.24863591  1
  Cu  Cu95  1  0.50063537  0.83322067  0.75176426  1
  Cu  Cu96  1  0.16773653  0.50998898  0.74608456  1
  Cu  Cu97  1  -0.00342773  -0.00029239  -0.00424761  1
  Cu  Cu98  1  0.66618341  0.00175266  0.50643011  1
  Cu  Cu99  1  0.32955094  -0.00424430  -0.00400805  1
  Cu  Cu100  1  0.83274232  0.83224211  0.75841690  1
  Cu  Cu101  1  0.50702757  0.16381122  0.25391159  1
  Cu  Cu102  1  0.66705522  -0.00015336  -0.00319580  1
  Cu  Cu103  1  0.33304385  0.67328194  -0.00684645  1
  Cu  Cu104  1  -0.00080874  0.32734094  -0.00075024  1
  Cu  Cu105  1  0.16392071  0.83513298  0.24824750  1
  Cu  Cu106  1  0.16136515  0.15531127  0.25254023  1
  Cu  Cu107  1  0.00745950  0.66538022  0.50454358  1
  Cu  Cu108  1  0.16719248  0.50624728  0.25548190  1
  Cu  Cu109  1  0.82741156  0.84089834  0.24249999  1
  Cu  Cu110  1  0.49594045  0.83700156  0.25504150  1
  Cu  Cu111  1  0.82946034  0.50124540  0.75873306  1
  Cu  Cu112  1  0.00081839  0.32750224  0.50259778  1
  Cu  Cu113  1  0.33474841  -0.00485708  0.50273389  1
  Cu  Cu114  1  0.65964280  0.66513559  -0.00877727  1
  Se  Se115  1  0.08253183  0.08183047  0.05074509  1
  Se  Se116  1  0.08827251  0.08142712  0.55979489  1
  Se  Se117  1  0.07788622  0.40625383  0.06275982  1
  Se  Se118  1  0.08382982  0.41532173  0.55098465  1
  Se  Se119  1  0.07223034  0.73791556  0.04883919  1
  Se  Se120  1  0.08683413  0.75262579  0.55530471  1
  Se  Se121  1  0.40900467  0.07414338  0.06053958  1
  Se  Se122  1  0.41588811  0.08222520  0.55479183  1
  Se  Se123  1  0.40460360  0.41139118  0.04703605  1
  Se  Se124  1  0.41204299  0.40937994  0.56790688  1
  Se  Se125  1  0.41492659  0.75574990  0.04971423  1
  Se  Se126  1  0.41899279  0.74896932  0.55184350  1
  Se  Se127  1  0.74969836  0.08445010  0.05081978  1
  Se  Se128  1  0.75419207  0.08368233  0.55537303  1
  Se  Se129  1  0.75103805  0.41621518  0.04811318  1
  Se  Se130  1  0.74877691  0.41404114  0.55902618  1
  Se  Se131  1  0.74344302  0.74695979  0.04666501  1
  Se  Se132  1  0.74687849  0.74758662  0.56554717  1
  Se  Se133  1  0.25213336  0.24517370  0.04196748  1
  Se  Se134  1  0.24877107  0.24399687  0.55766703  1
  Se  Se135  1  0.25485318  0.59293788  0.05777255  1
  Se  Se136  1  0.24117982  0.57566219  0.54992792  1
  Se  Se137  1  0.24500002  0.91372391  0.05160270  1
  Se  Se138  1  0.24988813  0.91551443  0.55716611  1
  Se  Se139  1  0.58861635  0.25529773  0.06242952  1
  Se  Se140  1  0.58386484  0.24446130  0.55531413  1
  Se  Se141  1  0.57688287  0.58161239  0.04709598  1
  Se  Se142  1  0.58411919  0.58847172  0.57073834  1
  Se  Se143  1  0.57964501  0.91900775  0.04875599  1
  Se  Se144  1  0.58299053  0.91307234  0.55364120  1
  Se  Se145  1  0.91209070  0.24472849  0.05003917  1
  Se  Se146  1  0.91701283  0.24811184  0.55736434  1
  Se  Se147  1  0.92185546  0.57934222  0.03677634  1
  Se  Se148  1  0.91724432  0.58810564  0.55889493  1
  Se  Se149  1  0.91351736  0.91768761  0.05167400  1
  Se  Se150  1  0.92628778  0.92419156  0.57049481  1
  Se  Se151  1  0.08507751  0.24259085  0.44956221  1
  Se  Se152  1  0.08419325  0.24653682  0.94698716  1
  Se  Se153  1  0.08392798  0.57718706  0.44918391  1
  Se  Se154  1  0.09258813  0.59183686  0.93017414  1
  Se  Se155  1  0.08083188  0.91558740  0.45094320  1
  Se  Se156  1  0.08428428  0.91659870  0.94679021  1
  Se  Se157  1  0.42132288  0.24740655  0.45526759  1
  Se  Se158  1  0.40896132  0.24889620  0.93529275  1
  Se  Se159  1  0.41127007  0.58677301  0.44335272  1
  Se  Se160  1  0.41568702  0.58484349  0.94541072  1
  Se  Se161  1  0.42007589  0.91746736  0.44582463  1
  Se  Se162  1  0.41857607  0.91578437  0.94640911  1
  Se  Se163  1  0.75982073  0.24632763  0.45004318  1
  Se  Se164  1  0.74389227  0.24437276  0.94223201  1
  Se  Se165  1  0.73801039  0.59540924  0.44502092  1
  Se  Se166  1  0.74769060  0.58084990  0.94352073  1
  Se  Se167  1  0.74622072  0.92321072  0.44165167  1
  Se  Se168  1  0.75012919  0.91390577  0.94597269  1
  Se  Se169  1  0.24798332  0.07982928  0.45153782  1
  Se  Se170  1  0.24702332  0.08142438  0.94563031  1
  Se  Se171  1  0.25664082  0.41063318  0.44793576  1
  Se  Se172  1  0.25638573  0.41182072  0.93787040  1
  Se  Se173  1  0.23632885  0.76618586  0.44825827  1
  Se  Se174  1  0.24861576  0.75571583  0.94064093  1
  Se  Se175  1  0.58363544  0.08555810  0.45044655  1
  Se  Se176  1  0.58908284  0.08033221  0.93436252  1
  Se  Se177  1  0.59399882  0.40851210  0.44478402  1
  Se  Se178  1  0.58049999  0.41612722  0.94667556  1
  Se  Se179  1  0.58101831  0.75446624  0.45381210  1
  Se  Se180  1  0.57704703  0.75500888  0.94471082  1
  Se  Se181  1  0.91487120  0.07862002  0.44839080  1
  Se  Se182  1  0.90977563  0.08394559  0.94749942  1
  Se  Se183  1  0.92945637  0.40424879  0.43318242  1
  Se  Se184  1  0.91869650  0.41377645  0.94697777  1
  Se  Se185  1  0.92254583  0.74320574  0.44506991  1
  Se  Se186  1  0.90785609  0.75108502  0.95058145  1
  Se  Se187  1  0.24368775  0.23906267  0.30859835  1
  Se  Se188  1  0.24065926  0.24386197  0.80669620  1
  Se  Se189  1  0.25258341  0.58785617  0.30639033  1
  Se  Se190  1  0.25602333  0.59267369  0.79438128  1
  Se  Se191  1  0.24354053  0.91127120  0.31207477  1
  Se  Se192  1  0.26337205  0.93370567  0.80207005  1
  Se  Se193  1  0.58011002  0.24654956  0.31684501  1
  Se  Se194  1  0.58065281  0.24855792  0.79894220  1
  Se  Se195  1  0.58389396  0.59124304  0.30774867  1
  Se  Se196  1  0.58416205  0.58738218  0.80738951  1
  Se  Se197  1  0.58403538  0.91913357  0.30319421  1
  Se  Se198  1  0.58598974  0.91706947  0.80279150  1
  Se  Se199  1  0.91661200  0.24369883  0.30684264  1
  Se  Se200  1  0.90868120  0.24498345  0.80972906  1
  Se  Se201  1  0.90968149  0.57903811  0.29967170  1
  Se  Se202  1  0.91575399  0.58720094  0.80468113  1
  Se  Se203  1  0.91805711  0.91276854  0.29880254  1
  Se  Se204  1  0.91373522  0.91063913  0.81852690  1
  Se  Se205  1  0.07832260  0.07413837  0.30557882  1
  Se  Se206  1  0.08563889  0.08868798  0.81055193  1
  Se  Se207  1  0.09044509  0.41596019  0.30768949  1
  Se  Se208  1  0.08869549  0.43135126  0.80848803  1
  Se  Se209  1  0.08934683  0.75238330  0.31304147  1
  Se  Se210  1  0.07264545  0.75494959  0.80006485  1
  Se  Se211  1  0.41910078  0.09292181  0.31404373  1
  Se  Se212  1  0.41843536  0.07923012  0.79891702  1
  Se  Se213  1  0.43056732  0.43100198  0.30499087  1
  Se  Se214  1  0.42104550  0.42584412  0.81457755  1
  Se  Se215  1  0.41427549  0.75062595  0.30489989  1
  Se  Se216  1  0.41452226  0.75232984  0.80505203  1
  Se  Se217  1  0.75140797  0.08203964  0.30465763  1
  Se  Se218  1  0.74670789  0.07118221  0.79630007  1
  Se  Se219  1  0.76214417  0.42985659  0.30138474  1
  Se  Se220  1  0.74735555  0.41327915  0.80711911  1
  Se  Se221  1  0.75517073  0.76009203  0.30824113  1
  Se  Se222  1  0.74641698  0.74730299  0.80734260  1
  Se  Se223  1  0.24613353  0.08496172  0.18848291  1
  Se  Se224  1  0.25473439  0.07464120  0.70740673  1
  Se  Se225  1  0.24609838  0.42687610  0.19178904  1
  Se  Se226  1  0.24503599  0.41953006  0.69166908  1
  Se  Se227  1  0.24952677  0.75127166  0.19864478  1
  Se  Se228  1  0.25832145  0.74316532  0.69375230  1
  Se  Se229  1  0.58868068  0.07878785  0.20308143  1
  Se  Se230  1  0.58560775  0.07575783  0.69181745  1
  Se  Se231  1  0.58235078  0.42710566  0.18861203  1
  Se  Se232  1  0.58483849  0.41451955  0.70449638  1
  Se  Se233  1  0.57368552  0.76422357  0.18539320  1
  Se  Se234  1  0.58722283  0.74655738  0.70220879  1
  Se  Se235  1  0.92069240  0.07777053  0.19441119  1
  Se  Se236  1  0.90990965  0.09430499  0.69729894  1
  Se  Se237  1  0.90936275  0.42675589  0.18940214  1
  Se  Se238  1  0.90756521  0.42807930  0.68932101  1
  Se  Se239  1  0.90255529  0.75752077  0.18124995  1
  Se  Se240  1  0.91671988  0.75078651  0.70356522  1
  Se  Se241  1  0.09647572  0.23914412  0.18498832  1
  Se  Se242  1  0.08934600  0.24503787  0.69671211  1
  Se  Se243  1  0.08953546  0.57889900  0.18939993  1
  Se  Se244  1  0.08227331  0.59100119  0.69315370  1
  Se  Se245  1  0.07767252  0.91294490  0.19414345  1
  Se  Se246  1  0.09513719  0.90892722  0.69650901  1
  Se  Se247  1  0.42908262  0.24310101  0.19226790  1
  Se  Se248  1  0.42014983  0.24067117  0.68716751  1
  Se  Se249  1  0.41635030  0.59311946  0.19245344  1
  Se  Se250  1  0.41588496  0.58218751  0.69990794  1
  Se  Se251  1  0.42013277  0.91258095  0.18732199  1
  Se  Se252  1  0.41824801  0.91312012  0.69359543  1
  Se  Se253  1  0.75877479  0.24350466  0.19001928  1
  Se  Se254  1  0.73698562  0.25595914  0.69893953  1
  Se  Se255  1  0.76269898  0.58062261  0.18345611  1
  Se  Se256  1  0.74658751  0.58459984  0.70384373  1
  Se  Se257  1  0.74353222  0.92302992  0.19037928  1
  Se  Se258  1  0.75132954  0.91306427  0.70135473  1
