# generated using pymatgen
data_In86Cu29Se144
_symmetry_space_group_name_H-M   'P 1'
_cell_length_a   17.58618548
_cell_length_b   17.57689150
_cell_length_c   23.43935108
_cell_angle_alpha   90.00599937
_cell_angle_beta   89.99827916
_cell_angle_gamma   89.99130242
_symmetry_Int_Tables_number   1
_chemical_formula_structural   In86Cu29Se144
_chemical_formula_sum   'In86 Cu29 Se144'
_cell_volume   7245.34879793
_cell_formula_units_Z   1
loop_
 _symmetry_equiv_pos_site_id
 _symmetry_equiv_pos_as_xyz
  1  'x, y, z'
loop_
 _atom_site_type_symbol
 _atom_site_label
 _atom_site_symmetry_multiplicity
 _atom_site_fract_x
 _atom_site_fract_y
 _atom_site_fract_z
 _atom_site_occupancy
  In  In0  1  -0.03744776  0.12417608  0.08208781  1
  In  In1  1  0.01427674  0.15244621  0.64097037  1
  In  In2  1  0.00879607  0.49330275  0.12265085  1
  In  In3  1  0.00633646  0.48776834  0.63222019  1
  In  In4  1  0.01347736  0.85228018  0.11112658  1
  In  In5  1  0.01010837  0.84229031  0.62283458  1
  In  In6  1  0.32732996  0.15938318  0.11422570  1
  In  In7  1  0.32052836  0.17022667  0.63167535  1
  In  In8  1  0.33373073  0.51607941  0.12728552  1
  In  In9  1  0.33561472  0.51239642  0.61943236  1
  In  In10  1  0.32937650  0.82662366  0.12310419  1
  In  In11  1  0.33206405  0.83657510  0.62523740  1
  In  In12  1  0.66911932  0.16010711  0.12200618  1
  In  In13  1  0.66923478  0.15950308  0.62679097  1
  In  In14  1  0.65218362  0.50968552  0.13482998  1
  In  In15  1  0.68038466  0.50832590  0.62449685  1
  In  In16  1  0.66313319  0.83704337  0.11613004  1
  In  In17  1  0.65464618  0.82546787  0.61571915  1
  In  In18  1  0.15982103  0.00530205  0.37919352  1
  In  In19  1  0.16630035  -0.00530343  0.88010545  1
  In  In20  1  0.16932997  0.32709212  0.38662690  1
  In  In21  1  0.16244514  0.33983574  0.87376563  1
  In  In22  1  0.17336347  0.66981010  0.38359231  1
  In  In23  1  0.17171289  0.66259853  0.87698945  1
  In  In24  1  0.49900099  -0.02066657  0.36854660  1
  In  In25  1  0.48793386  0.00659699  0.88373951  1
  In  In26  1  0.50064504  0.32340088  0.36991563  1
  In  In27  1  0.49372266  0.31766000  0.87402570  1
  In  In28  1  0.50415970  0.68096229  0.36363288  1
  In  In29  1  0.50404668  0.67436638  0.86576309  1
  In  In30  1  0.82285050  -0.00856998  0.36303860  1
  In  In31  1  0.84175758  -0.00796910  0.89598175  1
  In  In32  1  0.82865214  0.33767113  0.37108511  1
  In  In33  1  0.83961641  0.31550574  0.88036909  1
  In  In34  1  0.83461858  0.68216736  0.37398489  1
  In  In35  1  0.83007633  0.68673642  0.87796888  1
  In  In36  1  0.00929159  0.16089897  0.37329348  1
  In  In37  1  0.00185711  0.16130362  0.87824894  1
  In  In38  1  0.01077241  0.50641610  0.37746565  1
  In  In39  1  0.01850709  0.50487830  0.87133315  1
  In  In40  1  -0.00762483  0.84063999  0.38082111  1
  In  In41  1  -0.00354480  0.85049084  0.88768833  1
  In  In42  1  0.32583551  0.15586064  0.37642346  1
  In  In43  1  0.34757252  0.14825247  0.88077867  1
  In  In44  1  0.31309843  0.51016629  0.38452127  1
  In  In45  1  0.32101629  0.50136174  0.86771017  1
  In  In46  1  0.33596151  0.82503820  0.38405021  1
  In  In47  1  0.33124594  0.83249070  0.87464417  1
  In  In48  1  0.66321543  0.15934575  0.35743867  1
  In  In49  1  0.66556181  0.15421649  0.89125663  1
  In  In50  1  0.66133317  0.50188978  0.36617177  1
  In  In51  1  0.65537899  0.50824617  0.87484377  1
  In  In52  1  0.66812304  0.83404805  0.36900205  1
  In  In53  1  0.66967640  0.83300479  0.88368681  1
  In  In54  1  0.15189694  -0.01020759  0.11233712  1
  In  In55  1  0.16491643  0.00122503  0.62912359  1
  In  In56  1  0.15826697  0.32459541  0.11870368  1
  In  In57  1  0.16355742  0.31702208  0.61711034  1
  In  In58  1  0.18607657  0.68559124  0.11772061  1
  In  In59  1  0.19082394  0.68803235  0.60581360  1
  In  In60  1  0.50868301  -0.00050331  0.11473831  1
  In  In61  1  0.50545726  -0.01736536  0.62655180  1
  In  In62  1  0.50728871  0.32768002  0.12552868  1
  In  In63  1  0.48948561  0.33290229  0.62660294  1
  In  In64  1  0.48379616  0.68481754  0.13786897  1
  In  In65  1  0.47813828  0.68776125  0.63709913  1
  In  In66  1  0.83071681  -0.00906318  0.11879765  1
  In  In67  1  0.84661396  -0.00007543  0.62974956  1
  In  In68  1  0.83036326  0.31938192  0.12210630  1
  In  In69  1  0.84011578  0.34665692  0.63036513  1
  In  In70  1  0.81688502  0.67781972  0.12805720  1
  In  In71  1  0.82373005  0.67268073  0.62696311  1
  In  In72  1  0.84084932  0.50347737  0.49771446  1
  In  In73  1  -0.00358331  0.32397536  0.24744897  1
  In  In74  1  0.49261377  0.49738959  0.00164407  1
  In  In75  1  0.00710863  0.67442582  0.74972571  1
  In  In76  1  0.48998106  0.15869510  0.49462716  1
  In  In77  1  0.83735186  0.16399490  0.50498557  1
  In  In78  1  0.32930799  0.33629473  0.25822442  1
  In  In79  1  0.83732040  0.49968542  0.00943800  1
  In  In80  1  0.49832796  0.51020584  0.50474938  1
  In  In81  1  -0.00164343  0.66871872  0.25410743  1
  In  In82  1  0.33694859  -0.01199285  0.24780498  1
  In  In83  1  0.66478398  -0.00180025  0.75930099  1
  In  In84  1  0.33126369  0.33334142  0.74922375  1
  In  In85  1  0.67274225  0.33392346  0.76238434  1
  Cu  Cu86  1  0.66420966  0.32714657  0.00502799  1
  Cu  Cu87  1  0.66180090  0.32470171  0.49541155  1
  Cu  Cu88  1  0.16558483  0.16294339  0.75573937  1
  Cu  Cu89  1  0.01226682  0.33879834  -0.00410291  1
  Cu  Cu90  1  0.33075588  0.32905632  -0.00741524  1
  Cu  Cu91  1  0.83352918  0.83620355  0.24625375  1
  Cu  Cu92  1  0.33227114  -0.00891289  -0.00047765  1
  Cu  Cu93  1  0.83309410  0.15712335  0.23493678  1
  Cu  Cu94  1  0.83758322  0.50683037  0.75076105  1
  Cu  Cu95  1  0.00400001  0.66638093  0.49838382  1
  Cu  Cu96  1  0.32553727  -0.00176026  0.50213852  1
  Cu  Cu97  1  0.49232474  0.82946843  0.74937386  1
  Cu  Cu98  1  0.00053371  -0.00070682  0.50392529  1
  Cu  Cu99  1  0.50761628  0.50430412  0.74487217  1
  Cu  Cu100  1  0.84096034  0.16568588  0.75682531  1
  Cu  Cu101  1  0.16958300  0.83983128  0.74942024  1
  Cu  Cu102  1  0.66407606  0.67232408  0.00139804  1
  Cu  Cu103  1  0.49669174  0.50595846  0.25021372  1
  Cu  Cu104  1  0.16882484  0.50688534  0.74506674  1
  Cu  Cu105  1  0.82695071  0.84148795  0.75751099  1
  Cu  Cu106  1  0.15446086  0.15336773  0.24434096  1
  Cu  Cu107  1  0.66674056  -0.01413616  0.49163485  1
  Cu  Cu108  1  0.00745598  0.32549259  0.50703401  1
  Cu  Cu109  1  0.66545157  0.67619398  0.49844596  1
  Cu  Cu110  1  0.82261182  0.49562855  0.24984935  1
  Cu  Cu111  1  0.33273682  0.67044626  -0.00070804  1
  Cu  Cu112  1  0.50307439  0.16588881  0.24208571  1
  Cu  Cu113  1  0.16778694  0.50344008  0.25278755  1
  Cu  Cu114  1  0.00315432  0.66894624  -0.00393834  1
  Se  Se115  1  0.10435486  0.10686047  0.05675923  1
  Se  Se116  1  0.08190945  0.08462674  0.55776314  1
  Se  Se117  1  0.09346995  0.42297422  0.04982700  1
  Se  Se118  1  0.08576049  0.41648992  0.55664589  1
  Se  Se119  1  0.08686987  0.75011396  0.05165426  1
  Se  Se120  1  0.08219112  0.75569789  0.55103945  1
  Se  Se121  1  0.41562247  0.07789592  0.05064436  1
  Se  Se122  1  0.41011281  0.07393752  0.56438796  1
  Se  Se123  1  0.40345462  0.40642408  0.06254898  1
  Se  Se124  1  0.40823637  0.40841478  0.55333266  1
  Se  Se125  1  0.41925696  0.75128914  0.05223890  1
  Se  Se126  1  0.41348645  0.75416698  0.55469215  1
  Se  Se127  1  0.77580274  0.10478682  0.05812859  1
  Se  Se128  1  0.74136854  0.06684280  0.55588051  1
  Se  Se129  1  0.73486607  0.41596395  0.06387488  1
  Se  Se130  1  0.74466413  0.40673561  0.55259640  1
  Se  Se131  1  0.75344275  0.75565261  0.04786585  1
  Se  Se132  1  0.75451794  0.75467410  0.55151068  1
  Se  Se133  1  0.24796959  0.25007452  0.05014622  1
  Se  Se134  1  0.25861996  0.24701568  0.55196286  1
  Se  Se135  1  0.25093515  0.58354463  0.05148106  1
  Se  Se136  1  0.25153962  0.58066275  0.54645572  1
  Se  Se137  1  0.24852058  0.90941422  0.05319220  1
  Se  Se138  1  0.24299563  0.91724120  0.55814284  1
  Se  Se139  1  0.57924827  0.24228086  0.05447781  1
  Se  Se140  1  0.58458103  0.24906662  0.55857600  1
  Se  Se141  1  0.57988907  0.59229177  0.05793075  1
  Se  Se142  1  0.59120482  0.59726491  0.56394562  1
  Se  Se143  1  0.60402226  0.93525012  0.04232665  1
  Se  Se144  1  0.57695798  0.91135840  0.54605894  1
  Se  Se145  1  0.92478969  0.26299198  0.05068302  1
  Se  Se146  1  0.92436692  0.25225700  0.56889084  1
  Se  Se147  1  0.92502858  0.59654454  0.06496464  1
  Se  Se148  1  0.92601451  0.58963329  0.56429476  1
  Se  Se149  1  0.91984631  0.92180364  0.04553925  1
  Se  Se150  1  0.91522536  0.91606485  0.55544915  1
  Se  Se151  1  0.08208170  0.24024020  0.44870986  1
  Se  Se152  1  0.08824230  0.25015827  0.94200640  1
  Se  Se153  1  0.08891639  0.58097420  0.45017350  1
  Se  Se154  1  0.08777557  0.58285121  0.94819219  1
  Se  Se155  1  0.08283476  0.91712137  0.44849698  1
  Se  Se156  1  0.08290119  0.92481647  0.95579404  1
  Se  Se157  1  0.40345422  0.25801183  0.43994556  1
  Se  Se158  1  0.42028506  0.24289726  0.95002344  1
  Se  Se159  1  0.41794358  0.59503019  0.43642178  1
  Se  Se160  1  0.40984089  0.58754539  0.93694824  1
  Se  Se161  1  0.41383176  0.92220885  0.44732807  1
  Se  Se162  1  0.41660092  0.90767668  0.94703265  1
  Se  Se163  1  0.74386369  0.24577946  0.43789824  1
  Se  Se164  1  0.74931395  0.24828314  0.95048880  1
  Se  Se165  1  0.74235767  0.58815423  0.44090320  1
  Se  Se166  1  0.74554687  0.58702515  0.94550554  1
  Se  Se167  1  0.75750674  0.90938508  0.44099505  1
  Se  Se168  1  0.73065023  0.93069845  0.95301597  1
  Se  Se169  1  0.24418067  0.08494569  0.45055163  1
  Se  Se170  1  0.25235767  0.07998951  0.94739244  1
  Se  Se171  1  0.24728132  0.41515923  0.45035649  1
  Se  Se172  1  0.25159700  0.41848214  0.94214456  1
  Se  Se173  1  0.24935943  0.75206326  0.45491248  1
  Se  Se174  1  0.24712258  0.75145888  0.94549727  1
  Se  Se175  1  0.59020470  0.07703755  0.43709179  1
  Se  Se176  1  0.58561115  0.06615813  0.95560601  1
  Se  Se177  1  0.58456993  0.41218188  0.44108109  1
  Se  Se178  1  0.58655230  0.40605228  0.94181104  1
  Se  Se179  1  0.58420557  0.75427597  0.44013868  1
  Se  Se180  1  0.57747460  0.74757315  0.94440371  1
  Se  Se181  1  0.91844531  0.07440898  0.43962418  1
  Se  Se182  1  0.91379862  0.09603186  0.95352654  1
  Se  Se183  1  0.92953316  0.40295492  0.44189522  1
  Se  Se184  1  0.92469240  0.41905301  0.93922863  1
  Se  Se185  1  0.91623233  0.74929829  0.44967374  1
  Se  Se186  1  0.91640784  0.75470890  0.94975317  1
  Se  Se187  1  0.23343834  0.23584394  0.30526042  1
  Se  Se188  1  0.25061878  0.24165014  0.81425010  1
  Se  Se189  1  0.24661815  0.58921841  0.30592734  1
  Se  Se190  1  0.25017883  0.59135155  0.79794349  1
  Se  Se191  1  0.24604073  0.91321583  0.31560463  1
  Se  Se192  1  0.25208972  0.92047311  0.80676971  1
  Se  Se193  1  0.58287910  0.25310828  0.29573427  1
  Se  Se194  1  0.58465380  0.23286308  0.81044624  1
  Se  Se195  1  0.58487041  0.58936904  0.29919176  1
  Se  Se196  1  0.58873297  0.58906938  0.79839306  1
  Se  Se197  1  0.59943215  0.92867178  0.30025995  1
  Se  Se198  1  0.57106784  0.90699715  0.81324229  1
  Se  Se199  1  0.90315754  0.23392284  0.30730762  1
  Se  Se200  1  0.92594236  0.25126612  0.80582862  1
  Se  Se201  1  0.90607430  0.57109427  0.31127457  1
  Se  Se202  1  0.91405965  0.58808235  0.81359849  1
  Se  Se203  1  0.91957717  0.91502887  0.30120137  1
  Se  Se204  1  0.91071185  0.92091565  0.81313032  1
  Se  Se205  1  0.07507293  0.07158532  0.30078783  1
  Se  Se206  1  0.08359509  0.07826819  0.80902780  1
  Se  Se207  1  0.08964885  0.41531779  0.30755967  1
  Se  Se208  1  0.08829213  0.42045814  0.79749847  1
  Se  Se209  1  0.08620852  0.75603247  0.31525798  1
  Se  Se210  1  0.08845398  0.76451029  0.81475861  1
  Se  Se211  1  0.42377925  0.08940138  0.30644080  1
  Se  Se212  1  0.42233648  0.07982852  0.80224579  1
  Se  Se213  1  0.41851784  0.42972051  0.31600199  1
  Se  Se214  1  0.42956500  0.42360604  0.80745783  1
  Se  Se215  1  0.41893549  0.76918076  0.30297480  1
  Se  Se216  1  0.40712623  0.74572224  0.80165702  1
  Se  Se217  1  0.74870231  0.07792468  0.29229738  1
  Se  Se218  1  0.75996006  0.08647433  0.81628331  1
  Se  Se219  1  0.74108697  0.40985929  0.30182788  1
  Se  Se220  1  0.76329233  0.42799635  0.81868275  1
  Se  Se221  1  0.75201090  0.74934002  0.29898629  1
  Se  Se222  1  0.74254762  0.75435681  0.80530785  1
  Se  Se223  1  0.24732974  0.08104386  0.18974054  1
  Se  Se224  1  0.24883640  0.08150059  0.70068141  1
  Se  Se225  1  0.24284768  0.41978591  0.19051940  1
  Se  Se226  1  0.24587140  0.42156630  0.68525965  1
  Se  Se227  1  0.25493914  0.75010099  0.20007211  1
  Se  Se228  1  0.24804223  0.75288255  0.69520155  1
  Se  Se229  1  0.58336604  0.07944437  0.19064023  1
  Se  Se230  1  0.57700500  0.08590488  0.69366694  1
  Se  Se231  1  0.57458453  0.41615400  0.19840144  1
  Se  Se232  1  0.58651687  0.41807832  0.68943865  1
  Se  Se233  1  0.60306767  0.73695668  0.18540693  1
  Se  Se234  1  0.58494647  0.75243891  0.69702031  1
  Se  Se235  1  0.92146549  0.07768697  0.18373936  1
  Se  Se236  1  0.92018351  0.07706561  0.70536664  1
  Se  Se237  1  0.90728784  0.42210650  0.19010223  1
  Se  Se238  1  0.92056626  0.41705240  0.70588448  1
  Se  Se239  1  0.91770745  0.75788921  0.18698761  1
  Se  Se240  1  0.90940142  0.76298359  0.69461314  1
  Se  Se241  1  0.07770727  0.23486901  0.18416876  1
  Se  Se242  1  0.08931228  0.25304320  0.70052331  1
  Se  Se243  1  0.08854314  0.58192458  0.19104212  1
  Se  Se244  1  0.09326356  0.59071455  0.68364302  1
  Se  Se245  1  0.08895149  0.91302763  0.19339308  1
  Se  Se246  1  0.07993961  0.92084135  0.70024363  1
  Se  Se247  1  0.41090702  0.24419697  0.19130389  1
  Se  Se248  1  0.42716864  0.23791092  0.69839665  1
  Se  Se249  1  0.40891549  0.59015932  0.20324418  1
  Se  Se250  1  0.41375574  0.58159749  0.69758306  1
  Se  Se251  1  0.43078501  0.90771458  0.18505729  1
  Se  Se252  1  0.41338567  0.91820048  0.69773903  1
  Se  Se253  1  0.74596136  0.24874282  0.19463410  1
  Se  Se254  1  0.75978143  0.24349722  0.69447611  1
  Se  Se255  1  0.74768930  0.58570379  0.19725621  1
  Se  Se256  1  0.75131876  0.58812640  0.70058504  1
  Se  Se257  1  0.74772874  0.91425082  0.19000987  1
  Se  Se258  1  0.74818402  0.91304824  0.68912256  1
