# generated using pymatgen
data_In86Cu29Se144
_symmetry_space_group_name_H-M   'P 1'
_cell_length_a   17.57988454
_cell_length_b   17.57703725
_cell_length_c   23.43818590
_cell_angle_alpha   90.00818807
_cell_angle_beta   89.98566222
_cell_angle_gamma   90.00844693
_symmetry_Int_Tables_number   1
_chemical_formula_structural   In86Cu29Se144
_chemical_formula_sum   'In86 Cu29 Se144'
_cell_volume   7242.45262849
_cell_formula_units_Z   1
loop_
 _symmetry_equiv_pos_site_id
 _symmetry_equiv_pos_as_xyz
  1  'x, y, z'
loop_
 _atom_site_type_symbol
 _atom_site_label
 _atom_site_symmetry_multiplicity
 _atom_site_fract_x
 _atom_site_fract_y
 _atom_site_fract_z
 _atom_site_occupancy
  In  In0  1  0.00888568  0.15877873  0.13492717  1
  In  In1  1  0.01282550  0.15960936  0.62715108  1
  In  In2  1  -0.00670088  0.50732376  0.13067137  1
  In  In3  1  -0.00889428  0.51239224  0.62940885  1
  In  In4  1  -0.00797837  0.84024513  0.12779044  1
  In  In5  1  -0.00484859  0.84045973  0.62971253  1
  In  In6  1  0.34091989  0.16223843  0.12978789  1
  In  In7  1  0.33096202  0.16633582  0.62192238  1
  In  In8  1  0.34099589  0.49280131  0.13132349  1
  In  In9  1  0.32402937  0.48632263  0.62462787  1
  In  In10  1  0.32736356  0.84060538  0.13760601  1
  In  In11  1  0.34108265  0.84862104  0.62758302  1
  In  In12  1  0.65784701  0.17875125  0.11834007  1
  In  In13  1  0.66202554  0.17069670  0.62957960  1
  In  In14  1  0.67701624  0.51838367  0.10394669  1
  In  In15  1  0.67335925  0.49501672  0.63129360  1
  In  In16  1  0.66892428  0.81263761  0.11881378  1
  In  In17  1  0.65281317  0.83649986  0.65051297  1
  In  In18  1  0.17363346  0.00581633  0.37001918  1
  In  In19  1  0.17111442  0.00294675  0.86568202  1
  In  In20  1  0.16647356  0.32527003  0.37658355  1
  In  In21  1  0.16195991  0.32836612  0.86636675  1
  In  In22  1  0.16413472  0.67079909  0.35901576  1
  In  In23  1  0.16365531  0.67982409  0.87502016  1
  In  In24  1  0.49275437  0.01658595  0.37974885  1
  In  In25  1  0.50344099  0.00106451  0.87055259  1
  In  In26  1  0.48857702  0.32938267  0.37689405  1
  In  In27  1  0.49857990  0.33194547  0.86988238  1
  In  In28  1  0.50419125  0.66563722  0.36238729  1
  In  In29  1  0.50519248  0.64813594  0.88334643  1
  In  In30  1  0.83176663  -0.00676354  0.37820442  1
  In  In31  1  0.82478876  -0.01043477  0.86616745  1
  In  In32  1  0.85045612  0.33496227  0.37975963  1
  In  In33  1  0.83569669  0.33847309  0.86995416  1
  In  In34  1  0.83432101  0.66648116  0.37049393  1
  In  In35  1  0.82909647  0.66117750  0.88080935  1
  In  In36  1  0.00759199  0.17481885  0.37489495  1
  In  In37  1  -0.00327264  0.16388400  0.86374233  1
  In  In38  1  -0.00292929  0.49629450  0.37198688  1
  In  In39  1  -0.01480654  0.49001835  0.87241124  1
  In  In40  1  0.00938886  0.84251490  0.35643140  1
  In  In41  1  -0.00955037  0.82153745  0.86678286  1
  In  In42  1  0.33562822  0.16865325  0.37544335  1
  In  In43  1  0.33548624  0.16776691  0.87075303  1
  In  In44  1  0.33152097  0.49184732  0.36651541  1
  In  In45  1  0.34595039  0.49821744  0.87629554  1
  In  In46  1  0.33135076  0.83839513  0.35855221  1
  In  In47  1  0.33057063  0.83924845  0.87478368  1
  In  In48  1  0.64640905  0.16057017  0.38622202  1
  In  In49  1  0.65267531  0.15377234  0.86413817  1
  In  In50  1  0.67213365  0.51625920  0.37667536  1
  In  In51  1  0.66967928  0.49880768  0.87423372  1
  In  In52  1  0.67734026  0.82762964  0.37364460  1
  In  In53  1  0.67098931  0.83918552  0.87098204  1
  In  In54  1  0.16703125  -0.00435656  0.13400206  1
  In  In55  1  0.15476894  0.01936913  0.62476753  1
  In  In56  1  0.16895984  0.32922092  0.13527800  1
  In  In57  1  0.17740442  0.31732573  0.63164379  1
  In  In58  1  0.15938777  0.68164738  0.14471846  1
  In  In59  1  0.16200544  0.65438107  0.62465315  1
  In  In60  1  0.48647845  0.00474850  0.11897665  1
  In  In61  1  0.49039148  0.00175792  0.63712838  1
  In  In62  1  0.49480423  0.33098732  0.11652514  1
  In  In63  1  0.50330298  0.32495907  0.62866053  1
  In  In64  1  0.51157112  0.65637279  0.12907436  1
  In  In65  1  0.50704375  0.68256507  0.63449692  1
  In  In66  1  0.84723374  -0.00439337  0.12337157  1
  In  In67  1  0.83487413  -0.00096622  0.63127270  1
  In  In68  1  0.83325387  0.34525103  0.12377079  1
  In  In69  1  0.82312122  0.34606722  0.63103257  1
  In  In70  1  0.83160392  0.66503372  0.11896582  1
  In  In71  1  0.83505757  0.66683678  0.63064277  1
  In  In72  1  0.16119261  0.49096212  0.49000760  1
  In  In73  1  0.16945141  0.16575087  -0.00380729  1
  In  In74  1  0.83558702  0.17136526  0.50616649  1
  In  In75  1  0.83299226  0.83613069  0.50547823  1
  In  In76  1  0.66573558  -0.00146217  0.25716987  1
  In  In77  1  0.16554982  0.83803922  0.01239600  1
  In  In78  1  0.82733982  0.16643163  -0.00538649  1
  In  In79  1  0.50478612  0.82979003  -0.00240180  1
  In  In80  1  0.16686141  0.50298651  0.00875849  1
  In  In81  1  0.50484098  0.49132019  0.50892488  1
  In  In82  1  0.50261805  0.84046092  0.50731470  1
  In  In83  1  0.33556780  0.66534987  0.75340072  1
  In  In84  1  0.67004798  0.33967276  0.24345342  1
  In  In85  1  0.16673318  0.83417845  0.48593010  1
  Cu  Cu86  1  0.32799824  0.00606434  0.50053002  1
  Cu  Cu87  1  -0.00807073  0.65892394  -0.00165218  1
  Cu  Cu88  1  -0.00087339  -0.01133915  -0.00427100  1
  Cu  Cu89  1  0.49422200  0.16808066  0.74893664  1
  Cu  Cu90  1  0.83984740  0.83150068  0.75275176  1
  Cu  Cu91  1  0.17100148  0.49686457  0.25237661  1
  Cu  Cu92  1  0.50148780  0.83504019  0.24283171  1
  Cu  Cu93  1  0.66650707  -0.00027748  -0.00831321  1
  Cu  Cu94  1  0.16805916  0.17072945  0.25551245  1
  Cu  Cu95  1  0.66941264  0.33638717  0.50717902  1
  Cu  Cu96  1  0.83592062  0.50287009  0.24553980  1
  Cu  Cu97  1  0.84224081  0.16370348  0.25339715  1
  Cu  Cu98  1  0.49305299  0.16778217  0.24957037  1
  Cu  Cu99  1  0.83509987  0.17305243  0.74506540  1
  Cu  Cu100  1  0.49988407  0.49506092  0.75074246  1
  Cu  Cu101  1  0.15936059  0.49764558  0.74923610  1
  Cu  Cu102  1  0.67321293  0.66970910  0.50173969  1
  Cu  Cu103  1  0.33809002  0.33720674  -0.00318062  1
  Cu  Cu104  1  0.50427929  0.49835585  0.24631481  1
  Cu  Cu105  1  0.83069591  0.82686355  0.24662916  1
  Cu  Cu106  1  -0.00628955  0.67287738  0.50059447  1
  Cu  Cu107  1  0.00078800  0.34164660  0.50298214  1
  Cu  Cu108  1  -0.00935018  0.33392247  0.00128097  1
  Cu  Cu109  1  0.33613457  0.66590882  0.01114742  1
  Cu  Cu110  1  0.16947083  0.16439239  0.74688611  1
  Cu  Cu111  1  0.65659221  0.33572106  -0.00655736  1
  Cu  Cu112  1  0.34109293  0.65904486  0.49211193  1
  Cu  Cu113  1  0.16870856  0.83747398  0.74737361  1
  Cu  Cu114  1  0.83122152  0.50640894  0.75398805  1
  Se  Se115  1  0.07748960  0.07198989  0.05528343  1
  Se  Se116  1  0.08494907  0.09214273  0.54599661  1
  Se  Se117  1  0.07628764  0.40603553  0.06259330  1
  Se  Se118  1  0.08150004  0.41720725  0.56713644  1
  Se  Se119  1  0.07306389  0.73801554  0.05971058  1
  Se  Se120  1  0.08140875  0.74834847  0.55708117  1
  Se  Se121  1  0.42330268  0.09983414  0.05137054  1
  Se  Se122  1  0.41710088  0.07666632  0.55870645  1
  Se  Se123  1  0.41639128  0.42364254  0.05109371  1
  Se  Se124  1  0.40624964  0.40004218  0.55612481  1
  Se  Se125  1  0.41315947  0.75258829  0.06737700  1
  Se  Se126  1  0.40805942  0.74162123  0.55875579  1
  Se  Se127  1  0.74261934  0.07597847  0.06036394  1
  Se  Se128  1  0.74536591  0.07850015  0.56145483  1
  Se  Se129  1  0.74613411  0.40873001  0.04944261  1
  Se  Se130  1  0.75250332  0.42524175  0.55287775  1
  Se  Se131  1  0.75561974  0.74835283  0.04669573  1
  Se  Se132  1  0.73849068  0.75448715  0.56763163  1
  Se  Se133  1  0.25500470  0.25903718  0.05714389  1
  Se  Se134  1  0.24507042  0.24483790  0.55255233  1
  Se  Se135  1  0.24895652  0.59530153  0.07201044  1
  Se  Se136  1  0.25606271  0.58446600  0.55111522  1
  Se  Se137  1  0.26325391  0.93151420  0.05921218  1
  Se  Se138  1  0.24875915  0.91988534  0.55671513  1
  Se  Se139  1  0.57540973  0.24898900  0.04490796  1
  Se  Se140  1  0.58514943  0.25024378  0.55435463  1
  Se  Se141  1  0.57442011  0.58699746  0.04522478  1
  Se  Se142  1  0.58827767  0.59457087  0.56246175  1
  Se  Se143  1  0.59198632  0.92314401  0.06111456  1
  Se  Se144  1  0.59230779  0.92295752  0.56983596  1
  Se  Se145  1  0.92087183  0.24501921  0.06220696  1
  Se  Se146  1  0.92277684  0.26248224  0.56656746  1
  Se  Se147  1  0.91309219  0.57333925  0.05256615  1
  Se  Se148  1  0.91256898  0.58953118  0.55439997  1
  Se  Se149  1  0.91303056  0.90901239  0.04839866  1
  Se  Se150  1  0.92778346  0.93142015  0.55481827  1
  Se  Se151  1  0.08109831  0.25508452  0.45085314  1
  Se  Se152  1  0.07029225  0.25445694  0.94176857  1
  Se  Se153  1  0.07860218  0.59703232  0.43919024  1
  Se  Se154  1  0.08041899  0.58590538  0.93992580  1
  Se  Se155  1  0.07205689  0.92745853  0.43698546  1
  Se  Se156  1  0.08408703  0.91486205  0.93576309  1
  Se  Se157  1  0.43648553  0.22849456  0.44418621  1
  Se  Se158  1  0.41446785  0.25105259  0.94095339  1
  Se  Se159  1  0.42363702  0.57900423  0.43703021  1
  Se  Se160  1  0.41119279  0.58153757  0.95345156  1
  Se  Se161  1  0.40413911  0.91738361  0.44214659  1
  Se  Se162  1  0.41188261  0.92354496  0.94497437  1
  Se  Se163  1  0.74366846  0.25701092  0.44006214  1
  Se  Se164  1  0.73743898  0.25320469  0.93352097  1
  Se  Se165  1  0.75766819  0.58958838  0.44816256  1
  Se  Se166  1  0.75734150  0.56750014  0.94693621  1
  Se  Se167  1  0.73496164  0.92453526  0.44823232  1
  Se  Se168  1  0.75351735  0.91525580  0.94564539  1
  Se  Se169  1  0.24775649  0.08722401  0.44377706  1
  Se  Se170  1  0.25865617  0.07233359  0.94189331  1
  Se  Se171  1  0.26506803  0.40418560  0.44366974  1
  Se  Se172  1  0.24780443  0.41190647  0.94069502  1
  Se  Se173  1  0.26180634  0.73925902  0.43333390  1
  Se  Se174  1  0.25767312  0.74525013  0.95016215  1
  Se  Se175  1  0.58254045  0.06959541  0.45614716  1
  Se  Se176  1  0.57973630  0.08359834  0.94495008  1
  Se  Se177  1  0.59346205  0.41198079  0.43806446  1
  Se  Se178  1  0.57540460  0.41956732  0.93935827  1
  Se  Se179  1  0.58595006  0.74370766  0.44278966  1
  Se  Se180  1  0.59659956  0.74101523  0.94114106  1
  Se  Se181  1  0.91937270  0.08297024  0.44059070  1
  Se  Se182  1  0.92187325  0.07551555  0.93854149  1
  Se  Se183  1  0.91784502  0.42571509  0.45104851  1
  Se  Se184  1  0.90760984  0.41607637  0.94911017  1
  Se  Se185  1  0.92319959  0.75701439  0.43676030  1
  Se  Se186  1  0.91675726  0.74949054  0.94519131  1
  Se  Se187  1  0.25531581  0.25338634  0.30551461  1
  Se  Se188  1  0.25045743  0.24856215  0.80197027  1
  Se  Se189  1  0.25587899  0.58341521  0.30118121  1
  Se  Se190  1  0.24103320  0.57543318  0.81281177  1
  Se  Se191  1  0.23326115  0.90964247  0.29869466  1
  Se  Se192  1  0.25553810  0.91719358  0.79996166  1
  Se  Se193  1  0.58259893  0.24563589  0.30451409  1
  Se  Se194  1  0.58165668  0.25092384  0.79956851  1
  Se  Se195  1  0.59070028  0.58082776  0.29834754  1
  Se  Se196  1  0.58171783  0.57867155  0.80439591  1
  Se  Se197  1  0.57245305  0.90898246  0.31543682  1
  Se  Se198  1  0.59172441  0.92445233  0.80404421  1
  Se  Se199  1  0.92054696  0.25361127  0.30468578  1
  Se  Se200  1  0.91767871  0.25513871  0.80071228  1
  Se  Se201  1  0.91838593  0.58303824  0.30344258  1
  Se  Se202  1  0.91725371  0.58794742  0.80722187  1
  Se  Se203  1  0.90504899  0.91815758  0.30104255  1
  Se  Se204  1  0.92423770  0.92117989  0.80129395  1
  Se  Se205  1  0.08210963  0.08636245  0.30520198  1
  Se  Se206  1  0.08339852  0.08108298  0.79898590  1
  Se  Se207  1  0.08862282  0.41558103  0.30953992  1
  Se  Se208  1  0.07638474  0.41540304  0.80431499  1
  Se  Se209  1  0.06973080  0.73970330  0.29413820  1
  Se  Se210  1  0.08629455  0.75095838  0.79868244  1
  Se  Se211  1  0.41202034  0.08171511  0.30194618  1
  Se  Se212  1  0.41480450  0.08087839  0.80297279  1
  Se  Se213  1  0.42299804  0.41401957  0.30077075  1
  Se  Se214  1  0.41120659  0.41393203  0.80059234  1
  Se  Se215  1  0.41931829  0.75038783  0.29837282  1
  Se  Se216  1  0.42374115  0.74802378  0.81842551  1
  Se  Se217  1  0.75285158  0.09664019  0.31518727  1
  Se  Se218  1  0.75589444  0.08814088  0.80180630  1
  Se  Se219  1  0.75896223  0.42248383  0.31049840  1
  Se  Se220  1  0.74819955  0.41593534  0.80142243  1
  Se  Se221  1  0.74712498  0.74420693  0.30010184  1
  Se  Se222  1  0.75676520  0.75058408  0.80859360  1
  Se  Se223  1  0.24711777  0.08931014  0.19552894  1
  Se  Se224  1  0.25344870  0.08001536  0.69384692  1
  Se  Se225  1  0.25443516  0.41340168  0.19935922  1
  Se  Se226  1  0.24670833  0.41407633  0.70044689  1
  Se  Se227  1  0.25334250  0.75525353  0.20693110  1
  Se  Se228  1  0.24683958  0.75284401  0.68701494  1
  Se  Se229  1  0.58081057  0.08991704  0.19206626  1
  Se  Se230  1  0.58213409  0.08553303  0.69863110  1
  Se  Se231  1  0.58392104  0.42565247  0.17980948  1
  Se  Se232  1  0.58327338  0.41383106  0.69481460  1
  Se  Se233  1  0.58730893  0.74838970  0.19697493  1
  Se  Se234  1  0.58801083  0.73700571  0.71474842  1
  Se  Se235  1  0.91899843  0.07659240  0.19866742  1
  Se  Se236  1  0.91901506  0.08664151  0.69448866  1
  Se  Se237  1  0.91858515  0.41306666  0.19795557  1
  Se  Se238  1  0.91370750  0.42389920  0.69751857  1
  Se  Se239  1  0.91311519  0.74594318  0.19046866  1
  Se  Se240  1  0.92177595  0.74944054  0.69669753  1
  Se  Se241  1  0.08036825  0.25146704  0.20194042  1
  Se  Se242  1  0.08100310  0.25042361  0.69953486  1
  Se  Se243  1  0.08425648  0.57781326  0.20000037  1
  Se  Se244  1  0.07983686  0.58790724  0.70050088  1
  Se  Se245  1  0.08107124  0.91277484  0.19601186  1
  Se  Se246  1  0.08694073  0.92065037  0.69195653  1
  Se  Se247  1  0.41821815  0.25647364  0.19405121  1
  Se  Se248  1  0.41042835  0.25010742  0.69427872  1
  Se  Se249  1  0.41837350  0.58458676  0.19709497  1
  Se  Se250  1  0.42004922  0.57408157  0.68709948  1
  Se  Se251  1  0.41940850  0.92622801  0.19770059  1
  Se  Se252  1  0.43435993  0.89580513  0.70245170  1
  Se  Se253  1  0.76066515  0.23922993  0.19037138  1
  Se  Se254  1  0.74617596  0.25473181  0.69638204  1
  Se  Se255  1  0.74995808  0.57903548  0.18896158  1
  Se  Se256  1  0.74758843  0.58737890  0.69806747  1
  Se  Se257  1  0.75024503  0.91309269  0.18907596  1
  Se  Se258  1  0.75535982  0.91745280  0.70233642  1
