# generated using pymatgen
data_In86Cu29Se144
_symmetry_space_group_name_H-M   'P 1'
_cell_length_a   17.55817337
_cell_length_b   17.55746246
_cell_length_c   23.40874405
_cell_angle_alpha   89.99461134
_cell_angle_beta   90.00094138
_cell_angle_gamma   89.98625514
_symmetry_Int_Tables_number   1
_chemical_formula_structural   In86Cu29Se144
_chemical_formula_sum   'In86 Cu29 Se144'
_cell_volume   7216.37644427
_cell_formula_units_Z   1
loop_
 _symmetry_equiv_pos_site_id
 _symmetry_equiv_pos_as_xyz
  1  'x, y, z'
loop_
 _atom_site_type_symbol
 _atom_site_label
 _atom_site_symmetry_multiplicity
 _atom_site_fract_x
 _atom_site_fract_y
 _atom_site_fract_z
 _atom_site_occupancy
  In  In0  1  -0.00408488  0.17540448  0.12138569  1
  In  In1  1  0.00544207  0.16286664  0.63517969  1
  In  In2  1  0.00834883  0.50350759  0.11757510  1
  In  In3  1  0.00389736  0.50278613  0.63308651  1
  In  In4  1  -0.01378588  0.82988068  0.12113210  1
  In  In5  1  0.00180044  0.83534629  0.63705467  1
  In  In6  1  0.33166968  0.16929517  0.13572771  1
  In  In7  1  0.35043241  0.15755416  0.62439847  1
  In  In8  1  0.32383061  0.49332371  0.11638422  1
  In  In9  1  0.32972416  0.49932298  0.62616946  1
  In  In10  1  0.34139829  0.84649787  0.12559266  1
  In  In11  1  0.33445398  0.83406700  0.63940715  1
  In  In12  1  0.67790152  0.16976937  0.12072638  1
  In  In13  1  0.65479640  0.17877135  0.63348101  1
  In  In14  1  0.65017637  0.48396856  0.10424696  1
  In  In15  1  0.65907683  0.50734395  0.63599959  1
  In  In16  1  0.67456498  0.82602522  0.11567404  1
  In  In17  1  0.66882998  0.81544444  0.64422273  1
  In  In18  1  0.17016738  -0.00170602  0.37215666  1
  In  In19  1  0.16387300  -0.01145268  0.85209917  1
  In  In20  1  0.18812116  0.32994498  0.37554732  1
  In  In21  1  0.17891783  0.34315202  0.86952193  1
  In  In22  1  0.15570992  0.66843372  0.38212759  1
  In  In23  1  0.15937202  0.65570020  0.85816727  1
  In  In24  1  0.49604475  0.01876900  0.38929768  1
  In  In25  1  0.49226649  -0.00980175  0.85812008  1
  In  In26  1  0.49459713  0.33595663  0.37671048  1
  In  In27  1  0.51973921  0.35197627  0.86679033  1
  In  In28  1  0.48594276  0.65347706  0.38451876  1
  In  In29  1  0.49310657  0.65430979  0.86179903  1
  In  In30  1  0.82078417  -0.00313513  0.38424178  1
  In  In31  1  0.82829225  -0.00036876  0.87404255  1
  In  In32  1  0.82998367  0.34828983  0.36797733  1
  In  In33  1  0.82962093  0.33194039  0.87871519  1
  In  In34  1  0.84665332  0.66482999  0.37917570  1
  In  In35  1  0.83592863  0.66451011  0.87427163  1
  In  In36  1  0.00438534  0.15637262  0.37803837  1
  In  In37  1  -0.01274489  0.15790415  0.86879783  1
  In  In38  1  -0.00383490  0.51371856  0.37715624  1
  In  In39  1  0.00300637  0.49995299  0.87353128  1
  In  In40  1  0.00679346  0.81585403  0.38419746  1
  In  In41  1  -0.00637357  0.81304803  0.85452937  1
  In  In42  1  0.33561257  0.17702468  0.37236967  1
  In  In43  1  0.32623905  0.16435793  0.86765696  1
  In  In44  1  0.34734885  0.49496198  0.39361171  1
  In  In45  1  0.33587856  0.49881956  0.87274198  1
  In  In46  1  0.32234973  0.83370657  0.37817532  1
  In  In47  1  0.33077452  0.82556908  0.84407076  1
  In  In48  1  0.65459957  0.16594638  0.37647783  1
  In  In49  1  0.68028987  0.17800562  0.86948261  1
  In  In50  1  0.66441808  0.48550311  0.37339865  1
  In  In51  1  0.66781073  0.49267214  0.87742761  1
  In  In52  1  0.67080606  0.84356024  0.38556193  1
  In  In53  1  0.67177002  0.84273368  0.86095809  1
  In  In54  1  0.17599953  0.00522148  0.12130082  1
  In  In55  1  0.17393082  -0.01450375  0.64181884  1
  In  In56  1  0.16804298  0.33992652  0.12349649  1
  In  In57  1  0.15971758  0.34469942  0.63287702  1
  In  In58  1  0.16471745  0.64878232  0.12564626  1
  In  In59  1  0.17263077  0.66152648  0.63455260  1
  In  In60  1  0.48700992  -0.00139386  0.12552315  1
  In  In61  1  0.49054890  0.01011099  0.63118879  1
  In  In62  1  0.49505614  0.33905517  0.12555251  1
  In  In63  1  0.50041900  0.33188966  0.62720008  1
  In  In64  1  0.51042677  0.66566340  0.12158262  1
  In  In65  1  0.50420650  0.65907603  0.63427143  1
  In  In66  1  0.83130924  -0.00257528  0.11213176  1
  In  In67  1  0.84579808  -0.01621999  0.63717068  1
  In  In68  1  0.82066203  0.32465709  0.10880876  1
  In  In69  1  0.83220409  0.33865774  0.63708403  1
  In  In70  1  0.84071709  0.67046496  0.11585735  1
  In  In71  1  0.83169715  0.67246260  0.63376013  1
  In  In72  1  0.00511604  -0.00408684  0.25686660  1
  In  In73  1  0.82879752  0.16698166  0.50669726  1
  In  In74  1  0.17363590  0.16576111  0.50046197  1
  In  In75  1  0.50374501  0.17091951  -0.00871439  1
  In  In76  1  0.50541287  0.82969665  -0.00558530  1
  In  In77  1  0.66417828  0.01061315  0.24279114  1
  In  In78  1  0.15992845  0.17125731  0.00103546  1
  In  In79  1  0.16141041  0.82253878  -0.02298667  1
  In  In80  1  0.17541183  0.82590478  0.51629807  1
  In  In81  1  0.50011656  0.82783197  0.51822684  1
  In  In82  1  0.32450638  0.66449247  0.25473599  1
  In  In83  1  0.82258315  0.50609923  0.51111803  1
  In  In84  1  0.00614517  0.33578406  0.23949644  1
  In  In85  1  0.66742288  0.66674329  0.24275411  1
  Cu  Cu86  1  0.82610903  0.16628231  0.75250973  1
  Cu  Cu87  1  -0.01343383  -0.00379020  -0.00856812  1
  Cu  Cu88  1  0.84001003  0.82581795  0.24987493  1
  Cu  Cu89  1  0.49457365  0.18044472  0.25713296  1
  Cu  Cu90  1  0.83552675  0.83080299  0.75526309  1
  Cu  Cu91  1  0.17232048  0.50131429  0.75118855  1
  Cu  Cu92  1  0.49538965  0.49643907  0.24704009  1
  Cu  Cu93  1  0.83816421  0.17611219  0.24261578  1
  Cu  Cu94  1  0.49804571  0.16787780  0.75344382  1
  Cu  Cu95  1  0.00337995  0.34211622  0.50803845  1
  Cu  Cu96  1  0.83035647  0.50178903  0.24552433  1
  Cu  Cu97  1  0.66572760  0.66759460  0.51130245  1
  Cu  Cu98  1  0.67299201  -0.00409296  0.51250310  1
  Cu  Cu99  1  0.00393991  0.66829840  -0.01025362  1
  Cu  Cu100  1  0.16493615  0.49760329  0.25139324  1
  Cu  Cu101  1  0.33639062  0.65646320  -0.00779281  1
  Cu  Cu102  1  0.49745447  0.49121804  0.75000582  1
  Cu  Cu103  1  0.33039199  -0.00304000  -0.00982226  1
  Cu  Cu104  1  0.49432845  0.84964222  0.25545088  1
  Cu  Cu105  1  0.67132078  0.66505160  -0.00668722  1
  Cu  Cu106  1  0.16220301  0.82938657  0.25491934  1
  Cu  Cu107  1  0.16612936  0.17851879  0.74672210  1
  Cu  Cu108  1  0.65249429  0.32919064  0.49998906  1
  Cu  Cu109  1  0.33772527  0.33370847  0.50480726  1
  Cu  Cu110  1  -0.00219175  0.33449924  -0.00385730  1
  Cu  Cu111  1  0.34055913  0.34104891  -0.00602025  1
  Cu  Cu112  1  0.00439724  -0.01258430  0.51390503  1
  Cu  Cu113  1  0.83760481  0.50252059  0.75605082  1
  Cu  Cu114  1  0.66933187  0.00194820  -0.01269132  1
  Se  Se115  1  0.06955705  0.07001126  0.05476410  1
  Se  Se116  1  0.08619145  0.07507978  0.56410160  1
  Se  Se117  1  0.08601155  0.41311424  0.05014131  1
  Se  Se118  1  0.08554405  0.42635691  0.55820438  1
  Se  Se119  1  0.08272057  0.74467680  0.05624350  1
  Se  Se120  1  0.07425832  0.74153075  0.56630794  1
  Se  Se121  1  0.40627817  0.08123085  0.05097244  1
  Se  Se122  1  0.42162595  0.07883508  0.54834850  1
  Se  Se123  1  0.42076163  0.42217159  0.05178168  1
  Se  Se124  1  0.41953431  0.41786161  0.55908402  1
  Se  Se125  1  0.40788579  0.74299611  0.05659955  1
  Se  Se126  1  0.40363743  0.73692072  0.56902504  1
  Se  Se127  1  0.74748651  0.08327040  0.04749837  1
  Se  Se128  1  0.74948629  0.07891002  0.57398132  1
  Se  Se129  1  0.76533825  0.43397484  0.04951992  1
  Se  Se130  1  0.73512974  0.40563701  0.56304321  1
  Se  Se131  1  0.75578224  0.75012346  0.04458261  1
  Se  Se132  1  0.74770585  0.75115073  0.56261245  1
  Se  Se133  1  0.26322302  0.25595522  0.05470851  1
  Se  Se134  1  0.25377997  0.25734439  0.56564994  1
  Se  Se135  1  0.24702958  0.58289213  0.04838971  1
  Se  Se136  1  0.23834359  0.57540848  0.55975370  1
  Se  Se137  1  0.24917937  0.91217905  0.04726345  1
  Se  Se138  1  0.26558525  0.92765291  0.56256042  1
  Se  Se139  1  0.58848549  0.25718935  0.05653367  1
  Se  Se140  1  0.57431455  0.24296513  0.55388948  1
  Se  Se141  1  0.57919350  0.58757713  0.04462091  1
  Se  Se142  1  0.58220454  0.58102772  0.55858591  1
  Se  Se143  1  0.58909525  0.92895111  0.05618029  1
  Se  Se144  1  0.59365654  0.91761440  0.57356953  1
  Se  Se145  1  0.91608607  0.24563338  0.04641010  1
  Se  Se146  1  0.92282451  0.25788384  0.56329163  1
  Se  Se147  1  0.92473307  0.58610520  0.04936627  1
  Se  Se148  1  0.92078642  0.59179027  0.56241196  1
  Se  Se149  1  0.91059681  0.90831202  0.04628673  1
  Se  Se150  1  0.91570532  0.90493079  0.55989059  1
  Se  Se151  1  0.07604482  0.25714762  0.44416856  1
  Se  Se152  1  0.07798313  0.25632813  0.93369402  1
  Se  Se153  1  0.07728475  0.58422911  0.45026737  1
  Se  Se154  1  0.09100375  0.58482076  0.94027348  1
  Se  Se155  1  0.08753987  0.91808609  0.44690180  1
  Se  Se156  1  0.07204808  0.92370631  0.92942026  1
  Se  Se157  1  0.41677884  0.25022882  0.44732276  1
  Se  Se158  1  0.41164619  0.25760794  0.93111079  1
  Se  Se159  1  0.41500320  0.58568188  0.46379824  1
  Se  Se160  1  0.42521455  0.57688082  0.94200681  1
  Se  Se161  1  0.41712299  0.91127308  0.44524998  1
  Se  Se162  1  0.40693079  0.91036753  0.93312189  1
  Se  Se163  1  0.74589707  0.26038459  0.44118418  1
  Se  Se164  1  0.74808893  0.24985127  0.94921793  1
  Se  Se165  1  0.73753908  0.59020581  0.43951624  1
  Se  Se166  1  0.75526291  0.57959074  0.94257364  1
  Se  Se167  1  0.75561326  0.91177137  0.46043488  1
  Se  Se168  1  0.74954879  0.90862675  0.94177652  1
  Se  Se169  1  0.26137101  0.07432748  0.44067611  1
  Se  Se170  1  0.24154657  0.07592395  0.93677102  1
  Se  Se171  1  0.24953427  0.41433859  0.45259536  1
  Se  Se172  1  0.24966663  0.42300082  0.94636112  1
  Se  Se173  1  0.25934197  0.73733420  0.44890702  1
  Se  Se174  1  0.26683958  0.74045851  0.92691662  1
  Se  Se175  1  0.59538553  0.08207977  0.45617658  1
  Se  Se176  1  0.58192542  0.07362737  0.92843481  1
  Se  Se177  1  0.57719010  0.42044451  0.44716507  1
  Se  Se178  1  0.58353819  0.41799029  0.95077250  1
  Se  Se179  1  0.58544510  0.74400625  0.44500234  1
  Se  Se180  1  0.58953338  0.74209084  0.93075856  1
  Se  Se181  1  0.92520495  0.07033616  0.45197503  1
  Se  Se182  1  0.90575112  0.08743322  0.94484012  1
  Se  Se183  1  0.91320097  0.41448707  0.44749721  1
  Se  Se184  1  0.91732881  0.42015592  0.94232419  1
  Se  Se185  1  0.90639385  0.75802795  0.45020846  1
  Se  Se186  1  0.92053265  0.75428064  0.93992393  1
  Se  Se187  1  0.25100785  0.24852465  0.29916481  1
  Se  Se188  1  0.25430841  0.25640125  0.79957317  1
  Se  Se189  1  0.24347770  0.57239194  0.31779757  1
  Se  Se190  1  0.26233070  0.58522583  0.79920181  1
  Se  Se191  1  0.24889142  0.91288099  0.30270434  1
  Se  Se192  1  0.27270238  0.93858365  0.78962503  1
  Se  Se193  1  0.58562969  0.25783620  0.30774255  1
  Se  Se194  1  0.58574839  0.25048730  0.80301643  1
  Se  Se195  1  0.57405694  0.58135336  0.30698492  1
  Se  Se196  1  0.58699535  0.57094087  0.80270820  1
  Se  Se197  1  0.58198218  0.92322059  0.31362684  1
  Se  Se198  1  0.58019693  0.91248767  0.79287372  1
  Se  Se199  1  0.91851602  0.24678750  0.30948810  1
  Se  Se200  1  0.91045851  0.25105524  0.80486222  1
  Se  Se201  1  0.91182444  0.58190583  0.30143685  1
  Se  Se202  1  0.92443982  0.58777325  0.80435229  1
  Se  Se203  1  0.90918250  0.90979333  0.31518181  1
  Se  Se204  1  0.91721330  0.92105838  0.80455285  1
  Se  Se205  1  0.09854504  0.09736559  0.30321336  1
  Se  Se206  1  0.08467494  0.09241088  0.80065810  1
  Se  Se207  1  0.08477366  0.41826169  0.31361773  1
  Se  Se208  1  0.08627689  0.41814100  0.80340987  1
  Se  Se209  1  0.07959118  0.74421472  0.30430053  1
  Se  Se210  1  0.11604991  0.77434900  0.80059729  1
  Se  Se211  1  0.42097394  0.08586403  0.30875507  1
  Se  Se212  1  0.40884409  0.08324962  0.79846987  1
  Se  Se213  1  0.41220334  0.42277538  0.30937369  1
  Se  Se214  1  0.41218353  0.40927790  0.80370194  1
  Se  Se215  1  0.42347137  0.75492121  0.31089588  1
  Se  Se216  1  0.43349522  0.74973653  0.78891745  1
  Se  Se217  1  0.76024219  0.09419454  0.30716446  1
  Se  Se218  1  0.74362718  0.07774042  0.80261177  1
  Se  Se219  1  0.74435367  0.41769647  0.29479744  1
  Se  Se220  1  0.75307242  0.41571744  0.80534774  1
  Se  Se221  1  0.74953332  0.75653870  0.31047606  1
  Se  Se222  1  0.75076951  0.74285076  0.80337297  1
  Se  Se223  1  0.26102179  0.06893029  0.19498372  1
  Se  Se224  1  0.24749957  0.09527887  0.69088215  1
  Se  Se225  1  0.24990460  0.41940521  0.19506637  1
  Se  Se226  1  0.25458078  0.41440819  0.69972676  1
  Se  Se227  1  0.24406779  0.75640412  0.18722649  1
  Se  Se228  1  0.22953921  0.76712822  0.70027835  1
  Se  Se229  1  0.56812918  0.10184673  0.18708563  1
  Se  Se230  1  0.58221672  0.08485285  0.69972473  1
  Se  Se231  1  0.58375351  0.42090672  0.19177600  1
  Se  Se232  1  0.58582157  0.40962631  0.69839803  1
  Se  Se233  1  0.57301414  0.77010313  0.19223158  1
  Se  Se234  1  0.57121172  0.74580004  0.70925431  1
  Se  Se235  1  0.91284907  0.08251815  0.18985157  1
  Se  Se236  1  0.91342963  0.08605897  0.69958109  1
  Se  Se237  1  0.90987844  0.42016423  0.18289063  1
  Se  Se238  1  0.92103809  0.41856309  0.70159448  1
  Se  Se239  1  0.92006892  0.74189295  0.19533175  1
  Se  Se240  1  0.92110889  0.74636139  0.70368944  1
  Se  Se241  1  0.09808038  0.23575695  0.18989619  1
  Se  Se242  1  0.07542666  0.26021483  0.69972051  1
  Se  Se243  1  0.07877275  0.57923462  0.19905747  1
  Se  Se244  1  0.08286463  0.58598514  0.70433339  1
  Se  Se245  1  0.08824608  0.90917068  0.18710880  1
  Se  Se246  1  0.06179525  0.93856473  0.70193718  1
  Se  Se247  1  0.41371410  0.25982267  0.19740251  1
  Se  Se248  1  0.41623988  0.24968898  0.69627423  1
  Se  Se249  1  0.41834475  0.58271670  0.18836822  1
  Se  Se250  1  0.41481768  0.57660235  0.69805730  1
  Se  Se251  1  0.40786951  0.92871455  0.20285760  1
  Se  Se252  1  0.42798187  0.91275322  0.69999148  1
  Se  Se253  1  0.74999430  0.25655549  0.19298960  1
  Se  Se254  1  0.74557504  0.25455260  0.70058554  1
  Se  Se255  1  0.75125746  0.57778815  0.17976799  1
  Se  Se256  1  0.75223013  0.58346588  0.70027613  1
  Se  Se257  1  0.75760160  0.90918815  0.19086803  1
  Se  Se258  1  0.74929907  0.91329833  0.70292475  1
