# generated using pymatgen
data_In86Cu29Se144
_symmetry_space_group_name_H-M   'P 1'
_cell_length_a   17.58205805
_cell_length_b   17.58038821
_cell_length_c   23.44194880
_cell_angle_alpha   89.98717332
_cell_angle_beta   90.01443556
_cell_angle_gamma   90.01318090
_symmetry_Int_Tables_number   1
_chemical_formula_structural   In86Cu29Se144
_chemical_formula_sum   'In86 Cu29 Se144'
_cell_volume   7245.89184979
_cell_formula_units_Z   1
loop_
 _symmetry_equiv_pos_site_id
 _symmetry_equiv_pos_as_xyz
  1  'x, y, z'
loop_
 _atom_site_type_symbol
 _atom_site_label
 _atom_site_symmetry_multiplicity
 _atom_site_fract_x
 _atom_site_fract_y
 _atom_site_fract_z
 _atom_site_occupancy
  In  In0  1  -0.00379401  0.15362322  0.10293615  1
  In  In1  1  0.00779954  0.15891030  0.63531547  1
  In  In2  1  0.00413645  0.50277791  0.12647599  1
  In  In3  1  0.00892388  0.48819183  0.63393258  1
  In  In4  1  -0.03340034  0.82727424  0.11759679  1
  In  In5  1  0.03853121  0.80800711  0.66739526  1
  In  In6  1  0.33933091  0.17454797  0.12031130  1
  In  In7  1  0.33992743  0.17863018  0.61015958  1
  In  In8  1  0.32278940  0.49309206  0.12141704  1
  In  In9  1  0.34096546  0.50833840  0.61251309  1
  In  In10  1  0.33460290  0.81554198  0.12132850  1
  In  In11  1  0.31242887  0.82683148  0.62529872  1
  In  In12  1  0.65799431  0.15739717  0.11896863  1
  In  In13  1  0.66225972  0.16723900  0.63355121  1
  In  In14  1  0.66029216  0.51748019  0.12961483  1
  In  In15  1  0.65089876  0.49814040  0.62236755  1
  In  In16  1  0.67019412  0.83887698  0.12253714  1
  In  In17  1  0.67709115  0.83552505  0.63020461  1
  In  In18  1  0.16267897  -0.00556466  0.38639336  1
  In  In19  1  0.16818029  0.00980149  0.87139690  1
  In  In20  1  0.18308980  0.32658153  0.38885034  1
  In  In21  1  0.16500651  0.34380640  0.87551730  1
  In  In22  1  0.17354028  0.66626830  0.38874869  1
  In  In23  1  0.15327598  0.66294897  0.86729594  1
  In  In24  1  0.51224787  0.00179257  0.37425137  1
  In  In25  1  0.50787986  -0.00646502  0.88015963  1
  In  In26  1  0.48595656  0.34553197  0.38628908  1
  In  In27  1  0.50514273  0.32491528  0.88146185  1
  In  In28  1  0.49856987  0.64096325  0.36760596  1
  In  In29  1  0.49624559  0.67461198  0.88017235  1
  In  In30  1  0.83071601  0.00272043  0.36729217  1
  In  In31  1  0.83650995  0.00643024  0.88088039  1
  In  In32  1  0.83466280  0.32788932  0.37250390  1
  In  In33  1  0.82524683  0.32398344  0.86954116  1
  In  In34  1  0.83532653  0.66557421  0.35278733  1
  In  In35  1  0.85025776  0.67101960  0.87878388  1
  In  In36  1  0.00680815  0.16981956  0.37602151  1
  In  In37  1  -0.00075475  0.16804441  0.87341677  1
  In  In38  1  0.00985972  0.51526856  0.37659351  1
  In  In39  1  0.00879739  0.50687300  0.86886122  1
  In  In40  1  0.00739169  0.82763608  0.37942043  1
  In  In41  1  -0.00326205  0.82821362  0.87345150  1
  In  In42  1  0.32622732  0.17798637  0.38299967  1
  In  In43  1  0.33462821  0.16874070  0.88249402  1
  In  In44  1  0.34950048  0.49001461  0.39991313  1
  In  In45  1  0.32692943  0.50813470  0.87948166  1
  In  In46  1  0.32577014  0.81536706  0.37995576  1
  In  In47  1  0.33940539  0.83693921  0.86960115  1
  In  In48  1  0.66258985  0.15425974  0.37042926  1
  In  In49  1  0.66760287  0.16646969  0.87876757  1
  In  In50  1  0.65244939  0.49955093  0.36613351  1
  In  In51  1  0.66575506  0.48667313  0.87796948  1
  In  In52  1  0.67018163  0.83196606  0.35845839  1
  In  In53  1  0.66381029  0.84659953  0.88194696  1
  In  In54  1  0.14619780  0.00034722  0.11801225  1
  In  In55  1  0.15952286  -0.00187863  0.62215476  1
  In  In56  1  0.16664898  0.33779319  0.11897972  1
  In  In57  1  0.16739372  0.32649237  0.61466360  1
  In  In58  1  0.16731744  0.65118022  0.12677814  1
  In  In59  1  0.17016009  0.66296893  0.62694178  1
  In  In60  1  0.51124291  0.00648052  0.11873092  1
  In  In61  1  0.49680497  0.01087371  0.62923045  1
  In  In62  1  0.48961240  0.32906277  0.12255610  1
  In  In63  1  0.50229224  0.34112947  0.62055789  1
  In  In64  1  0.50382135  0.67283796  0.11700297  1
  In  In65  1  0.49671301  0.64977783  0.62162073  1
  In  In66  1  0.81984506  -0.01629535  0.10415973  1
  In  In67  1  0.83838716  -0.00426408  0.63697577  1
  In  In68  1  0.84465041  0.33226775  0.11807410  1
  In  In69  1  0.83414417  0.32832263  0.63580294  1
  In  In70  1  0.81496659  0.68820792  0.14810631  1
  In  In71  1  0.83860865  0.68046221  0.62558660  1
  In  In72  1  0.32676151  -0.00186104  0.74600628  1
  In  In73  1  0.16874315  0.83470931  -0.00460089  1
  In  In74  1  0.33487253  0.00211408  0.24626269  1
  In  In75  1  0.33497658  0.65613773  0.25733053  1
  In  In76  1  0.83621250  0.16340855  0.49467882  1
  In  In77  1  0.00412072  0.33437212  0.24241834  1
  In  In78  1  0.66068216  0.33853785  0.24772228  1
  In  In79  1  0.83931887  0.83887807  0.49972172  1
  In  In80  1  0.83517489  0.50086943  0.49316495  1
  In  In81  1  0.66764107  0.66114911  0.74735007  1
  In  In82  1  0.83511152  0.50247392  0.00206221  1
  In  In83  1  -0.00533371  -0.00623160  0.24412188  1
  In  In84  1  0.33432201  0.33681314  0.74071897  1
  In  In85  1  0.49548109  0.83339040  0.49599398  1
  Cu  Cu86  1  0.00384667  0.33381158  -0.00502312  1
  Cu  Cu87  1  0.00417309  0.66935715  0.50753564  1
  Cu  Cu88  1  0.65886254  0.66278701  0.49161777  1
  Cu  Cu89  1  0.16484955  0.50283780  0.74963620  1
  Cu  Cu90  1  0.82548074  0.15959822  0.24201654  1
  Cu  Cu91  1  0.00608173  -0.00586415  0.51210602  1
  Cu  Cu92  1  0.16963014  0.49216329  0.25159995  1
  Cu  Cu93  1  0.16099533  0.82869677  0.25805751  1
  Cu  Cu94  1  0.33141201  0.00598675  0.50265096  1
  Cu  Cu95  1  0.50785694  0.83362380  0.24382754  1
  Cu  Cu96  1  0.33680907  0.66101089  -0.00058407  1
  Cu  Cu97  1  0.16482531  0.17174714  0.74633102  1
  Cu  Cu98  1  0.49755838  0.82881947  0.75588270  1
  Cu  Cu99  1  0.00746356  0.32772435  0.50295534  1
  Cu  Cu100  1  0.82990135  0.83877431  0.75799736  1
  Cu  Cu101  1  0.00062396  0.66818946  -0.00039811  1
  Cu  Cu102  1  0.83415066  0.49946254  0.75574071  1
  Cu  Cu103  1  0.66696705  0.00276826  -0.00316879  1
  Cu  Cu104  1  0.33282334  0.33662741  -0.00086972  1
  Cu  Cu105  1  0.83019643  0.16701657  0.75794790  1
  Cu  Cu106  1  0.16897066  0.16987217  0.25001224  1
  Cu  Cu107  1  0.50989971  0.16230040  0.75587194  1
  Cu  Cu108  1  0.67150594  0.67395090  0.00486728  1
  Cu  Cu109  1  0.49681679  0.17170525  0.24563489  1
  Cu  Cu110  1  0.66364818  0.00506426  0.50143033  1
  Cu  Cu111  1  0.33984284  -0.00173532  -0.00160360  1
  Cu  Cu112  1  0.66008839  0.33627178  0.50293113  1
  Cu  Cu113  1  0.49683713  0.49413514  0.74699164  1
  Cu  Cu114  1  0.65950953  0.33262885  0.00142300  1
  Se  Se115  1  0.10406595  0.09598321  0.04246706  1
  Se  Se116  1  0.08426125  0.09138939  0.55493982  1
  Se  Se117  1  0.07836985  0.41973692  0.05340446  1
  Se  Se118  1  0.08264318  0.41973287  0.55368610  1
  Se  Se119  1  0.08242685  0.74708584  0.06230205  1
  Se  Se120  1  0.07663571  0.75384035  0.56839345  1
  Se  Se121  1  0.41788071  0.08378007  0.05491115  1
  Se  Se122  1  0.42316090  0.08344905  0.55145146  1
  Se  Se123  1  0.41518819  0.41944781  0.05365438  1
  Se  Se124  1  0.41650917  0.41298475  0.55081138  1
  Se  Se125  1  0.41902163  0.75164219  0.04566285  1
  Se  Se126  1  0.41142302  0.74698599  0.56135854  1
  Se  Se127  1  0.75031946  0.09037138  0.04823150  1
  Se  Se128  1  0.75137228  0.07678374  0.56103476  1
  Se  Se129  1  0.74015528  0.41413926  0.06167579  1
  Se  Se130  1  0.74992368  0.41110582  0.55938462  1
  Se  Se131  1  0.75872338  0.75198506  0.05789602  1
  Se  Se132  1  0.73879800  0.74273132  0.55198468  1
  Se  Se133  1  0.24986638  0.25192601  0.05296309  1
  Se  Se134  1  0.25783979  0.25969481  0.54388651  1
  Se  Se135  1  0.24739565  0.58177206  0.05060622  1
  Se  Se136  1  0.24252619  0.58144674  0.55278225  1
  Se  Se137  1  0.25818046  0.92161860  0.06162621  1
  Se  Se138  1  0.24950526  0.92142009  0.55503869  1
  Se  Se139  1  0.57702463  0.24852001  0.05571366  1
  Se  Se140  1  0.58711776  0.24817481  0.55976535  1
  Se  Se141  1  0.58548990  0.58570143  0.04923466  1
  Se  Se142  1  0.57959073  0.57903975  0.54641675  1
  Se  Se143  1  0.58493506  0.91608492  0.05054087  1
  Se  Se144  1  0.58851970  0.91868343  0.56035431  1
  Se  Se145  1  0.91582222  0.25106932  0.04424184  1
  Se  Se146  1  0.92053978  0.25165092  0.56016697  1
  Se  Se147  1  0.91777860  0.59478896  0.06360793  1
  Se  Se148  1  0.91992679  0.58590068  0.56230498  1
  Se  Se149  1  0.94828021  0.94655150  0.05791439  1
  Se  Se150  1  0.92638512  0.91299956  0.56987599  1
  Se  Se151  1  0.08760591  0.24238790  0.44864572  1
  Se  Se152  1  0.08714043  0.25234427  0.94019534  1
  Se  Se153  1  0.08552250  0.58336581  0.45555619  1
  Se  Se154  1  0.08283403  0.58457803  0.94602085  1
  Se  Se155  1  0.08198882  0.90867131  0.45349510  1
  Se  Se156  1  0.07868424  0.92500354  0.93857994  1
  Se  Se157  1  0.42943815  0.23772315  0.44655608  1
  Se  Se158  1  0.41774500  0.24899828  0.95084537  1
  Se  Se159  1  0.39942675  0.61576998  0.44417119  1
  Se  Se160  1  0.42234702  0.57995404  0.94577067  1
  Se  Se161  1  0.40570005  0.92650870  0.43595664  1
  Se  Se162  1  0.41798122  0.91152078  0.94460718  1
  Se  Se163  1  0.73876846  0.25641822  0.44146829  1
  Se  Se164  1  0.74715937  0.25454823  0.94782414  1
  Se  Se165  1  0.74771050  0.59148631  0.43248857  1
  Se  Se166  1  0.74480152  0.59215275  0.93892469  1
  Se  Se167  1  0.74108256  0.92355484  0.44012952  1
  Se  Se168  1  0.75590511  0.91793517  0.95003074  1
  Se  Se169  1  0.24601817  0.08499016  0.44670853  1
  Se  Se170  1  0.25361865  0.07869328  0.94571485  1
  Se  Se171  1  0.23723341  0.43124322  0.45386134  1
  Se  Se172  1  0.24794622  0.42062684  0.94706058  1
  Se  Se173  1  0.23888702  0.76354682  0.45695762  1
  Se  Se174  1  0.25611770  0.74109614  0.93683637  1
  Se  Se175  1  0.58130146  0.08792314  0.44884459  1
  Se  Se176  1  0.57957037  0.08654489  0.94724951  1
  Se  Se177  1  0.58535417  0.42335208  0.44638363  1
  Se  Se178  1  0.57766835  0.41874966  0.95010300  1
  Se  Se179  1  0.58629060  0.74888185  0.43159669  1
  Se  Se180  1  0.58750838  0.75193698  0.94565687  1
  Se  Se181  1  0.92943410  0.06627263  0.44170035  1
  Se  Se182  1  0.91020653  0.10049525  0.94570684  1
  Se  Se183  1  0.92878214  0.40457151  0.43919512  1
  Se  Se184  1  0.91999066  0.41512536  0.93605340  1
  Se  Se185  1  0.91640288  0.73505538  0.44216822  1
  Se  Se186  1  0.91733384  0.75758496  0.95289833  1
  Se  Se187  1  0.24895803  0.25182539  0.30584775  1
  Se  Se188  1  0.25013514  0.24673173  0.80625882  1
  Se  Se189  1  0.24540589  0.56931861  0.31757948  1
  Se  Se190  1  0.24824050  0.58355536  0.80474298  1
  Se  Se191  1  0.24547202  0.91234122  0.31006054  1
  Se  Se192  1  0.23731478  0.90717982  0.80445922  1
  Se  Se193  1  0.57529256  0.24876705  0.31111436  1
  Se  Se194  1  0.58716404  0.25204591  0.80745561  1
  Se  Se195  1  0.59304936  0.59247822  0.29388814  1
  Se  Se196  1  0.57689461  0.57487308  0.80907160  1
  Se  Se197  1  0.58415536  0.92254024  0.29825637  1
  Se  Se198  1  0.58201307  0.91450271  0.80409158  1
  Se  Se199  1  0.91062053  0.23556874  0.30162964  1
  Se  Se200  1  0.91953393  0.25363630  0.80251722  1
  Se  Se201  1  0.92083795  0.56992666  0.30153425  1
  Se  Se202  1  0.91758171  0.58702788  0.80351394  1
  Se  Se203  1  0.91171398  0.90311927  0.30932113  1
  Se  Se204  1  0.91523355  0.91986623  0.81034307  1
  Se  Se205  1  0.09014409  0.08327846  0.30584361  1
  Se  Se206  1  0.08465899  0.08870405  0.80171994  1
  Se  Se207  1  0.08987521  0.41159766  0.31386707  1
  Se  Se208  1  0.08291641  0.41541853  0.80039675  1
  Se  Se209  1  0.08822202  0.74037185  0.31391094  1
  Se  Se210  1  0.07981570  0.75441615  0.80044876  1
  Se  Se211  1  0.42029255  0.09043040  0.30967147  1
  Se  Se212  1  0.41899681  0.08492985  0.80921970  1
  Se  Se213  1  0.41707888  0.43092707  0.31334030  1
  Se  Se214  1  0.41851391  0.41758489  0.81183075  1
  Se  Se215  1  0.42657099  0.75839296  0.30735077  1
  Se  Se216  1  0.41349004  0.74304209  0.80317019  1
  Se  Se217  1  0.74458592  0.07839486  0.29771765  1
  Se  Se218  1  0.74733427  0.08130059  0.80960558  1
  Se  Se219  1  0.75879208  0.42115053  0.30767166  1
  Se  Se220  1  0.74665901  0.41583023  0.80312547  1
  Se  Se221  1  0.75570540  0.75584672  0.29147099  1
  Se  Se222  1  0.75039843  0.75080785  0.81325812  1
  Se  Se223  1  0.23972336  0.08550874  0.18613743  1
  Se  Se224  1  0.25048658  0.09877138  0.68466852  1
  Se  Se225  1  0.24842322  0.40953183  0.19520096  1
  Se  Se226  1  0.24323474  0.42690079  0.68445366  1
  Se  Se227  1  0.24307878  0.75038688  0.19727178  1
  Se  Se228  1  0.24211769  0.74996194  0.70052720  1
  Se  Se229  1  0.58111171  0.08500728  0.19720475  1
  Se  Se230  1  0.58784373  0.07457340  0.70169999  1
  Se  Se231  1  0.56895316  0.42551469  0.18970018  1
  Se  Se232  1  0.58446377  0.41250714  0.69735894  1
  Se  Se233  1  0.58647081  0.75004147  0.18838531  1
  Se  Se234  1  0.57473100  0.75206775  0.68865935  1
  Se  Se235  1  0.91082764  0.08613742  0.18244534  1
  Se  Se236  1  0.91480241  0.08702626  0.70204298  1
  Se  Se237  1  0.90556163  0.42532395  0.19307523  1
  Se  Se238  1  0.91621085  0.41498912  0.70067695  1
  Se  Se239  1  0.93588405  0.73754910  0.19902488  1
  Se  Se240  1  0.90993831  0.75086245  0.70520314  1
  Se  Se241  1  0.08331690  0.23562145  0.18364398  1
  Se  Se242  1  0.08569332  0.25946740  0.69307965  1
  Se  Se243  1  0.08637062  0.57784100  0.20109340  1
  Se  Se244  1  0.07920662  0.58631541  0.69741270  1
  Se  Se245  1  0.08640262  0.89985105  0.18896051  1
  Se  Se246  1  0.07369781  0.94192881  0.70050125  1
  Se  Se247  1  0.40896892  0.25426862  0.19837293  1
  Se  Se248  1  0.42915085  0.23899083  0.69222578  1
  Se  Se249  1  0.41760497  0.58118471  0.18388223  1
  Se  Se250  1  0.41352557  0.57868646  0.69548037  1
  Se  Se251  1  0.42073185  0.90807323  0.18567846  1
  Se  Se252  1  0.42054895  0.90557397  0.68891375  1
  Se  Se253  1  0.75211339  0.24906226  0.18581289  1
  Se  Se254  1  0.74682680  0.24851427  0.70124482  1
  Se  Se255  1  0.75482766  0.57498136  0.20019653  1
  Se  Se256  1  0.75903349  0.57339424  0.68515615  1
  Se  Se257  1  0.75886445  0.91808002  0.18936407  1
  Se  Se258  1  0.74590368  0.91962590  0.70360945  1
