# generated using pymatgen
data_In86Cu29Se144
_symmetry_space_group_name_H-M   'P 1'
_cell_length_a   17.65246771
_cell_length_b   17.64523912
_cell_length_c   23.52082098
_cell_angle_alpha   89.98616385
_cell_angle_beta   90.00450587
_cell_angle_gamma   90.01824169
_symmetry_Int_Tables_number   1
_chemical_formula_structural   In86Cu29Se144
_chemical_formula_sum   'In86 Cu29 Se144'
_cell_volume   7326.31207746
_cell_formula_units_Z   1
loop_
 _symmetry_equiv_pos_site_id
 _symmetry_equiv_pos_as_xyz
  1  'x, y, z'
loop_
 _atom_site_type_symbol
 _atom_site_label
 _atom_site_symmetry_multiplicity
 _atom_site_fract_x
 _atom_site_fract_y
 _atom_site_fract_z
 _atom_site_occupancy
  In  In0  1  0.01188636  0.17669885  0.12391365  1
  In  In1  1  -0.00607373  0.18420710  0.61946174  1
  In  In2  1  -0.00316590  0.50084802  0.12863866  1
  In  In3  1  -0.00319422  0.50277402  0.60480511  1
  In  In4  1  -0.01187011  0.82516777  0.12061205  1
  In  In5  1  -0.01003126  0.81535028  0.61015821  1
  In  In6  1  0.31778720  0.17842558  0.12585631  1
  In  In7  1  0.33207107  0.15732515  0.62629307  1
  In  In8  1  0.34290445  0.50582557  0.11921572  1
  In  In9  1  0.33845447  0.51189926  0.62192947  1
  In  In10  1  0.31542719  0.83368650  0.12922858  1
  In  In11  1  0.32277321  0.81270097  0.62138264  1
  In  In12  1  0.67085204  0.16101593  0.13507914  1
  In  In13  1  0.67671724  0.16025293  0.62891046  1
  In  In14  1  0.66100210  0.49968665  0.12242459  1
  In  In15  1  0.66566809  0.49869276  0.62416821  1
  In  In16  1  0.68376657  0.82542237  0.13220220  1
  In  In17  1  0.66793009  0.83106559  0.61787151  1
  In  In18  1  0.15222650  -0.01053865  0.37032201  1
  In  In19  1  0.16387676  -0.00424384  0.88532931  1
  In  In20  1  0.16222399  0.35678346  0.37290426  1
  In  In21  1  0.16446459  0.34656752  0.88639167  1
  In  In22  1  0.16747897  0.66015477  0.37388622  1
  In  In23  1  0.17134806  0.66233518  0.88323323  1
  In  In24  1  0.51112616  -0.02524654  0.37911992  1
  In  In25  1  0.50479293  -0.00968332  0.86954580  1
  In  In26  1  0.51533624  0.33690288  0.37331999  1
  In  In27  1  0.51477051  0.33783470  0.87035457  1
  In  In28  1  0.50012865  0.66791213  0.38360688  1
  In  In29  1  0.49441203  0.65927037  0.86537234  1
  In  In30  1  0.83553436  0.00218200  0.37487359  1
  In  In31  1  0.82506783  -0.00659640  0.87097078  1
  In  In32  1  0.83189154  0.34517121  0.37145426  1
  In  In33  1  0.83404430  0.34526941  0.87453787  1
  In  In34  1  0.86027832  0.62906273  0.43210346  1
  In  In35  1  0.82811010  0.67272871  0.87871006  1
  In  In36  1  -0.01430861  0.17243290  0.37409636  1
  In  In37  1  0.00062514  0.17983681  0.88040076  1
  In  In38  1  -0.00865315  0.51162535  0.36877414  1
  In  In39  1  -0.00100205  0.50400488  0.88367553  1
  In  In40  1  0.00760188  0.80337326  0.40306263  1
  In  In41  1  -0.00110344  0.83194623  0.88498325  1
  In  In42  1  0.33331991  0.16591109  0.37155812  1
  In  In43  1  0.32780318  0.16526030  0.87689059  1
  In  In44  1  0.31875000  0.51146679  0.38137977  1
  In  In45  1  0.31930251  0.52006406  0.88663712  1
  In  In46  1  0.34450614  0.81403082  0.37724520  1
  In  In47  1  0.33039704  0.82343932  0.87264945  1
  In  In48  1  0.68327973  0.17783782  0.36633707  1
  In  In49  1  0.66877089  0.16447290  0.86652180  1
  In  In50  1  0.68716411  0.49021708  0.39478935  1
  In  In51  1  0.66881807  0.50287517  0.87379175  1
  In  In52  1  0.66918632  0.82795638  0.38111381  1
  In  In53  1  0.67066157  0.83507407  0.86585497  1
  In  In54  1  0.14505651  -0.00739959  0.10959262  1
  In  In55  1  0.17311025  -0.01223435  0.62827135  1
  In  In56  1  0.16304959  0.33196176  0.11794589  1
  In  In57  1  0.16442808  0.34866688  0.62400278  1
  In  In58  1  0.16417883  0.66428859  0.13031411  1
  In  In59  1  0.16409771  0.66905681  0.61821211  1
  In  In60  1  0.50562452  0.00090034  0.12630155  1
  In  In61  1  0.51581898  -0.00200655  0.62665830  1
  In  In62  1  0.50112526  0.34660734  0.12647136  1
  In  In63  1  0.50376352  0.35220710  0.62283445  1
  In  In64  1  0.50336994  0.65347240  0.12583611  1
  In  In65  1  0.50519415  0.66192513  0.61846028  1
  In  In66  1  0.83579129  -0.01383965  0.12916452  1
  In  In67  1  0.81832215  -0.00727905  0.61463202  1
  In  In68  1  0.81915229  0.35098820  0.14010545  1
  In  In69  1  0.83449290  0.32428172  0.61248003  1
  In  In70  1  0.83671979  0.67134625  0.12322600  1
  In  In71  1  0.81021782  0.65089624  0.60095207  1
  In  In72  1  -0.01007027  -0.00152055  0.24866379  1
  In  In73  1  0.84294010  0.16093852  0.00091966  1
  In  In74  1  0.17234364  0.16343460  0.49696756  1
  In  In75  1  0.33477230  -0.00144202  0.24322917  1
  In  In76  1  -0.00102681  0.34240721  0.75226725  1
  In  In77  1  0.34139934  -0.00747031  0.75760857  1
  In  In78  1  -0.00523606  0.66265505  0.74042608  1
  In  In79  1  0.49830745  0.16561325  0.50365792  1
  In  In80  1  0.49780822  0.17212070  -0.00222284  1
  In  In81  1  0.34004274  0.34113249  0.74762144  1
  In  In82  1  0.68022790  0.65604115  0.26617720  1
  In  In83  1  0.33747922  0.33936508  0.24102088  1
  In  In84  1  0.49757006  0.83151103  -0.00874508  1
  In  In85  1  -0.00498675  -0.00252307  0.74712125  1
  Cu  Cu86  1  0.33028569  -0.01733661  0.49797943  1
  Cu  Cu87  1  0.50112355  0.50206082  0.25014500  1
  Cu  Cu88  1  0.82270157  0.82573340  0.74256707  1
  Cu  Cu89  1  0.32935524  0.66201526  0.49983910  1
  Cu  Cu90  1  0.50642944  0.83060485  0.74199233  1
  Cu  Cu91  1  0.50727631  0.50402985  0.74800313  1
  Cu  Cu92  1  0.16726579  0.17277285  0.24671943  1
  Cu  Cu93  1  0.67031541  0.33588845  0.00047452  1
  Cu  Cu94  1  0.67217429  0.33378375  0.49747337  1
  Cu  Cu95  1  -0.00219349  0.34024405  0.00447657  1
  Cu  Cu96  1  0.83990512  0.83202534  0.25613505  1
  Cu  Cu97  1  0.66905557  0.66235994  0.00102438  1
  Cu  Cu98  1  0.16422168  0.16913802  0.75711477  1
  Cu  Cu99  1  0.82716395  0.16257368  0.74431731  1
  Cu  Cu100  1  0.00248659  0.66632071  0.00528556  1
  Cu  Cu101  1  0.16132039  0.82064491  0.74651414  1
  Cu  Cu102  1  0.33677845  0.33971691  0.50214034  1
  Cu  Cu103  1  0.16177098  0.82621072  0.25594594  1
  Cu  Cu104  1  0.16047710  0.50713927  0.25105773  1
  Cu  Cu105  1  0.66422936  0.00867859  0.49790887  1
  Cu  Cu106  1  0.50912033  0.82186561  0.25692451  1
  Cu  Cu107  1  0.33238270  0.67433978  0.00165406  1
  Cu  Cu108  1  0.00654779  0.00596034  0.49746660  1
  Cu  Cu109  1  0.51044076  0.17573852  0.74751726  1
  Cu  Cu110  1  0.83084566  0.17392592  0.25334624  1
  Cu  Cu111  1  0.67142594  -0.01210260  -0.00367362  1
  Cu  Cu112  1  0.32327883  0.00907857  0.00174258  1
  Cu  Cu113  1  0.50665515  0.15671834  0.25205892  1
  Cu  Cu114  1  0.82875181  0.50081753  0.74272368  1
  Se  Se115  1  0.07744585  0.09273465  0.05005037  1
  Se  Se116  1  0.08407010  0.07990425  0.56477651  1
  Se  Se117  1  0.08201758  0.42390348  0.05620739  1
  Se  Se118  1  0.06441513  0.39247499  0.55398533  1
  Se  Se119  1  0.08479075  0.74870333  0.05971026  1
  Se  Se120  1  0.08487467  0.74717907  0.54586033  1
  Se  Se121  1  0.40911969  0.08077448  0.06154059  1
  Se  Se122  1  0.40710323  0.06617900  0.55715611  1
  Se  Se123  1  0.40900158  0.40481952  0.05613539  1
  Se  Se124  1  0.41815800  0.42476804  0.55363333  1
  Se  Se125  1  0.41480293  0.75071220  0.06346596  1
  Se  Se126  1  0.41468087  0.74384610  0.55323892  1
  Se  Se127  1  0.74344137  0.07362984  0.05775930  1
  Se  Se128  1  0.75076451  0.09167817  0.54878988  1
  Se  Se129  1  0.75015933  0.41822349  0.05625102  1
  Se  Se130  1  0.75081569  0.41802536  0.55441452  1
  Se  Se131  1  0.75025742  0.74996754  0.05262787  1
  Se  Se132  1  0.77467482  0.77776396  0.55150137  1
  Se  Se133  1  0.25439478  0.25852414  0.05079781  1
  Se  Se134  1  0.26007026  0.25548281  0.56079869  1
  Se  Se135  1  0.25303163  0.59101183  0.05860099  1
  Se  Se136  1  0.24463714  0.57936855  0.55297994  1
  Se  Se137  1  0.24933561  0.91807461  0.05460819  1
  Se  Se138  1  0.24724276  0.90762633  0.55634671  1
  Se  Se139  1  0.59409653  0.25104743  0.06085596  1
  Se  Se140  1  0.58934829  0.25662971  0.55995974  1
  Se  Se141  1  0.58120237  0.58076056  0.05036823  1
  Se  Se142  1  0.60289711  0.59365749  0.55171628  1
  Se  Se143  1  0.58896289  0.91281645  0.05849661  1
  Se  Se144  1  0.58536633  0.92032534  0.55067802  1
  Se  Se145  1  0.91358977  0.26160701  0.06333292  1
  Se  Se146  1  0.92179353  0.25255769  0.54175564  1
  Se  Se147  1  0.91692423  0.58405149  0.05697550  1
  Se  Se148  1  0.92157907  0.59637424  0.54126540  1
  Se  Se149  1  0.92721203  0.92902716  0.05750739  1
  Se  Se150  1  0.92662844  0.92864802  0.55769080  1
  Se  Se151  1  0.08769590  0.25128552  0.43433628  1
  Se  Se152  1  0.08115057  0.25778994  0.94963979  1
  Se  Se153  1  0.10035122  0.55873139  0.43564511  1
  Se  Se154  1  0.08472669  0.58376008  0.95024834  1
  Se  Se155  1  0.08530110  0.91515681  0.44950087  1
  Se  Se156  1  0.08579032  0.90981440  0.94964050  1
  Se  Se157  1  0.40936656  0.25616123  0.44126543  1
  Se  Se158  1  0.41337404  0.26041886  0.93489077  1
  Se  Se159  1  0.41536132  0.57953342  0.44768176  1
  Se  Se160  1  0.41903597  0.59468746  0.94726128  1
  Se  Se161  1  0.41799991  0.90556167  0.44574664  1
  Se  Se162  1  0.40311916  0.93013288  0.94014637  1
  Se  Se163  1  0.75556732  0.25399594  0.44248893  1
  Se  Se164  1  0.74720452  0.25029079  0.94141895  1
  Se  Se165  1  0.71716107  0.60630314  0.45959820  1
  Se  Se166  1  0.75232623  0.58115067  0.94516927  1
  Se  Se167  1  0.74596801  0.92722435  0.44278311  1
  Se  Se168  1  0.75279106  0.90614575  0.94213138  1
  Se  Se169  1  0.25847714  0.06732696  0.43676356  1
  Se  Se170  1  0.24273134  0.09077238  0.94625409  1
  Se  Se171  1  0.24883372  0.41691479  0.44951243  1
  Se  Se172  1  0.25632420  0.42004686  0.94981037  1
  Se  Se173  1  0.24942856  0.74584816  0.44344845  1
  Se  Se174  1  0.24847073  0.75592164  0.94845693  1
  Se  Se175  1  0.58545579  0.08640906  0.43512065  1
  Se  Se176  1  0.58994239  0.07386998  0.94155540  1
  Se  Se177  1  0.58090710  0.41582913  0.45147725  1
  Se  Se178  1  0.58877816  0.41730358  0.94482185  1
  Se  Se179  1  0.56952604  0.76552233  0.44667014  1
  Se  Se180  1  0.59049227  0.74103991  0.93722688  1
  Se  Se181  1  0.91933397  0.08342174  0.44502459  1
  Se  Se182  1  0.92418940  0.07190333  0.93433955  1
  Se  Se183  1  0.89795580  0.44111469  0.43935420  1
  Se  Se184  1  0.91372007  0.41906934  0.94794957  1
  Se  Se185  1  0.88154607  0.77525539  0.45510896  1
  Se  Se186  1  0.91643794  0.74533846  0.94899223  1
  Se  Se187  1  0.24754876  0.25132560  0.30602745  1
  Se  Se188  1  0.24445384  0.25489407  0.80961562  1
  Se  Se189  1  0.25278790  0.58480688  0.30022522  1
  Se  Se190  1  0.25499821  0.59695845  0.80760893  1
  Se  Se191  1  0.24894098  0.90962197  0.30855317  1
  Se  Se192  1  0.23542260  0.90798935  0.80556499  1
  Se  Se193  1  0.58261789  0.24696934  0.30327633  1
  Se  Se194  1  0.59458357  0.25617706  0.80044127  1
  Se  Se195  1  0.58024337  0.57054816  0.31867644  1
  Se  Se196  1  0.59056800  0.58717180  0.80193957  1
  Se  Se197  1  0.59320354  0.90859866  0.30320761  1
  Se  Se198  1  0.58508172  0.91656581  0.79771138  1
  Se  Se199  1  0.91490285  0.25792810  0.30304973  1
  Se  Se200  1  0.90665363  0.24267007  0.80522261  1
  Se  Se201  1  0.89173876  0.60468567  0.32649479  1
  Se  Se202  1  0.91023735  0.57576562  0.80688613  1
  Se  Se203  1  0.92600050  0.90396729  0.31940169  1
  Se  Se204  1  0.90892772  0.89963072  0.80313590  1
  Se  Se205  1  0.08552433  0.09227665  0.30491700  1
  Se  Se206  1  0.08319319  0.08656116  0.81123671  1
  Se  Se207  1  0.07507522  0.42359251  0.30086637  1
  Se  Se208  1  0.09067438  0.43092849  0.80954228  1
  Se  Se209  1  0.07752674  0.75011021  0.31380113  1
  Se  Se210  1  0.07792031  0.74887788  0.80910373  1
  Se  Se211  1  0.42514551  0.07957503  0.31143044  1
  Se  Se212  1  0.42941367  0.09709805  0.80817199  1
  Se  Se213  1  0.41857249  0.42176403  0.31173969  1
  Se  Se214  1  0.42405668  0.42926621  0.81062018  1
  Se  Se215  1  0.42202700  0.73783185  0.30308992  1
  Se  Se216  1  0.42151029  0.75758537  0.80238227  1
  Se  Se217  1  0.75398873  0.08020042  0.30197530  1
  Se  Se218  1  0.75006534  0.07803399  0.80056003  1
  Se  Se219  1  0.73320254  0.41635296  0.30786054  1
  Se  Se220  1  0.75125624  0.41921671  0.80273763  1
  Se  Se221  1  0.76722793  0.75083107  0.31954318  1
  Se  Se222  1  0.74736553  0.74195413  0.80131805  1
  Se  Se223  1  0.23451914  0.08228640  0.18733125  1
  Se  Se224  1  0.24398660  0.08544649  0.70101713  1
  Se  Se225  1  0.24133951  0.42845339  0.18870326  1
  Se  Se226  1  0.24588552  0.43028294  0.69348009  1
  Se  Se227  1  0.24771153  0.74750385  0.20133139  1
  Se  Se228  1  0.24594031  0.73776656  0.69664254  1
  Se  Se229  1  0.58821199  0.07180798  0.19934838  1
  Se  Se230  1  0.58689984  0.08502278  0.69684651  1
  Se  Se231  1  0.58481207  0.41926893  0.19808850  1
  Se  Se232  1  0.58818520  0.41622322  0.69807082  1
  Se  Se233  1  0.58846963  0.74217637  0.19493439  1
  Se  Se234  1  0.58657492  0.74843680  0.68715170  1
  Se  Se235  1  0.90896483  0.09643527  0.18804330  1
  Se  Se236  1  0.91187573  0.08901596  0.68427750  1
  Se  Se237  1  0.92540314  0.41114484  0.19876312  1
  Se  Se238  1  0.91260347  0.42369176  0.68422669  1
  Se  Se239  1  0.91705985  0.74849627  0.19771200  1
  Se  Se240  1  0.89771425  0.74437309  0.68167634  1
  Se  Se241  1  0.08591825  0.25927639  0.19613650  1
  Se  Se242  1  0.09065653  0.24712482  0.69371499  1
  Se  Se243  1  0.07490587  0.58908419  0.19857765  1
  Se  Se244  1  0.08262962  0.57093671  0.68270299  1
  Se  Se245  1  0.08680994  0.90965811  0.19365154  1
  Se  Se246  1  0.07964293  0.90014920  0.68860479  1
  Se  Se247  1  0.42738719  0.23636369  0.19095650  1
  Se  Se248  1  0.42474056  0.24340566  0.68599126  1
  Se  Se249  1  0.41636837  0.58248603  0.19731265  1
  Se  Se250  1  0.42335302  0.58487217  0.69314411  1
  Se  Se251  1  0.42917315  0.90080422  0.19257104  1
  Se  Se252  1  0.41887840  0.90892828  0.68613664  1
  Se  Se253  1  0.74273088  0.25363088  0.20124449  1
  Se  Se254  1  0.75491608  0.25525390  0.69083472  1
  Se  Se255  1  0.75595921  0.57746985  0.18985860  1
  Se  Se256  1  0.75034578  0.58761760  0.68940319  1
  Se  Se257  1  0.75420168  0.91340548  0.20379172  1
  Se  Se258  1  0.74500715  0.91698523  0.69146978  1
