# generated using pymatgen
data_In86Cu29Se144
_symmetry_space_group_name_H-M   'P 1'
_cell_length_a   17.58356638
_cell_length_b   17.58148406
_cell_length_c   23.44034046
_cell_angle_alpha   90.01470069
_cell_angle_beta   90.01906050
_cell_angle_gamma   90.01849380
_symmetry_Int_Tables_number   1
_chemical_formula_structural   In86Cu29Se144
_chemical_formula_sum   'In86 Cu29 Se144'
_cell_volume   7246.46753361
_cell_formula_units_Z   1
loop_
 _symmetry_equiv_pos_site_id
 _symmetry_equiv_pos_as_xyz
  1  'x, y, z'
loop_
 _atom_site_type_symbol
 _atom_site_label
 _atom_site_symmetry_multiplicity
 _atom_site_fract_x
 _atom_site_fract_y
 _atom_site_fract_z
 _atom_site_occupancy
  In  In0  1  0.00634688  0.16636504  0.13380085  1
  In  In1  1  0.01586914  0.15805053  0.62783494  1
  In  In2  1  -0.00354191  0.50130341  0.13033474  1
  In  In3  1  -0.00081535  0.49962456  0.62640152  1
  In  In4  1  -0.00387565  0.83519665  0.14208024  1
  In  In5  1  -0.00157573  0.82551353  0.62218468  1
  In  In6  1  0.35210911  0.17509403  0.11674760  1
  In  In7  1  0.31222390  0.18568510  0.63722762  1
  In  In8  1  0.31617941  0.49877015  0.12165139  1
  In  In9  1  0.31590133  0.47612446  0.60780517  1
  In  In10  1  0.34254752  0.83416232  0.11812236  1
  In  In11  1  0.32814986  0.84770323  0.63065149  1
  In  In12  1  0.66333348  0.17791170  0.11916665  1
  In  In13  1  0.66239037  0.16483986  0.62355045  1
  In  In14  1  0.68375662  0.48495263  0.12863710  1
  In  In15  1  0.67905437  0.51307351  0.61472809  1
  In  In16  1  0.66361549  0.83683260  0.12756830  1
  In  In17  1  0.66997639  0.81294988  0.62789884  1
  In  In18  1  0.15664948  0.00569575  0.38195233  1
  In  In19  1  0.16190886  -0.00287945  0.86415174  1
  In  In20  1  0.16734012  0.33855629  0.37908863  1
  In  In21  1  0.17627803  0.34420176  0.87198084  1
  In  In22  1  0.15757721  0.67153347  0.38592047  1
  In  In23  1  0.14842423  0.66490940  0.87288720  1
  In  In24  1  0.49962622  0.00696151  0.37206771  1
  In  In25  1  0.47901867  0.01628680  0.89807379  1
  In  In26  1  0.50581815  0.34327426  0.36352525  1
  In  In27  1  0.47951351  0.33021050  0.88145900  1
  In  In28  1  0.49680001  0.65513510  0.36966901  1
  In  In29  1  0.51628070  0.66164373  0.87313575  1
  In  In30  1  0.84305180  -0.02370965  0.37815414  1
  In  In31  1  0.83755316  -0.00846246  0.87192016  1
  In  In32  1  0.84340204  0.34596157  0.36944473  1
  In  In33  1  0.84846924  0.33097964  0.87758056  1
  In  In34  1  0.83417482  0.66704337  0.37121967  1
  In  In35  1  0.82524538  0.66412977  0.86789818  1
  In  In36  1  0.00871751  0.17857629  0.36939594  1
  In  In37  1  0.00468735  0.16994807  0.86618165  1
  In  In38  1  -0.00052587  0.49973403  0.37920684  1
  In  In39  1  0.00066764  0.50022701  0.87762623  1
  In  In40  1  0.00017082  0.82992350  0.37319171  1
  In  In41  1  -0.01611545  0.82866664  0.85423023  1
  In  In42  1  0.31673078  0.17731157  0.38175673  1
  In  In43  1  0.33268091  0.17090016  0.87487273  1
  In  In44  1  0.33997760  0.48933889  0.38760445  1
  In  In45  1  0.32750089  0.47942337  0.87521814  1
  In  In46  1  0.33116444  0.82409177  0.37880011  1
  In  In47  1  0.33145354  0.84972054  0.87437885  1
  In  In48  1  0.65779359  0.17158126  0.36876419  1
  In  In49  1  0.65549255  0.15877412  0.88534143  1
  In  In50  1  0.66822458  0.50525396  0.36896455  1
  In  In51  1  0.66533525  0.51291709  0.87451117  1
  In  In52  1  0.68998774  0.82475659  0.37387008  1
  In  In53  1  0.66628751  0.82594136  0.87734216  1
  In  In54  1  0.16554045  -0.00657585  0.12545878  1
  In  In55  1  0.16615216  0.00016141  0.62119395  1
  In  In56  1  0.15669284  0.34288996  0.13573448  1
  In  In57  1  0.16779680  0.32967298  0.62348896  1
  In  In58  1  0.16217123  0.65566538  0.12897107  1
  In  In59  1  0.15088348  0.65006590  0.61720985  1
  In  In60  1  0.51220394  0.00865197  0.09622218  1
  In  In61  1  0.49386863  -0.01038138  0.62935738  1
  In  In62  1  0.50646062  0.33061570  0.12573981  1
  In  In63  1  0.48327392  0.33253729  0.62553413  1
  In  In64  1  0.50790623  0.67949347  0.12405729  1
  In  In65  1  0.51313460  0.66023854  0.62970453  1
  In  In66  1  0.83994748  0.00608150  0.12720360  1
  In  In67  1  0.85410228  -0.01077811  0.63053435  1
  In  In68  1  0.82310599  0.34207525  0.13261716  1
  In  In69  1  0.83437255  0.35317982  0.62109712  1
  In  In70  1  0.84806982  0.65832701  0.13895457  1
  In  In71  1  0.83981566  0.66709639  0.62547584  1
  In  In72  1  0.32935698  0.66233086  0.24954565  1
  In  In73  1  0.82851682  0.83117160  -0.00471390  1
  In  In74  1  0.66608950  0.33816517  0.75226091  1
  In  In75  1  0.49702602  0.16790766  0.50003820  1
  In  In76  1  0.50118122  0.49829261  -0.00067698  1
  In  In77  1  0.82800379  0.17320511  0.00558157  1
  In  In78  1  0.66550253  -0.00357117  0.76048679  1
  In  In79  1  0.33240152  0.00450907  0.23988180  1
  In  In80  1  0.17070017  0.17218565  -0.00536682  1
  In  In81  1  0.33395477  0.66006463  0.74464888  1
  In  In82  1  0.67414081  0.00495078  0.24299346  1
  In  In83  1  0.16471685  0.82755423  -0.00250475  1
  In  In84  1  0.84043747  0.17090939  0.49654730  1
  In  In85  1  0.49879084  0.82651658  0.50607874  1
  Cu  Cu86  1  0.83831211  0.17403410  0.74867380  1
  Cu  Cu87  1  0.16528886  0.16260013  0.74846593  1
  Cu  Cu88  1  0.50130491  0.49604490  0.75091533  1
  Cu  Cu89  1  0.16085900  0.50133321  0.25648787  1
  Cu  Cu90  1  0.32925783  0.66654732  0.50181489  1
  Cu  Cu91  1  0.67447121  0.66393353  0.00004591  1
  Cu  Cu92  1  0.83705264  0.16315823  0.24932007  1
  Cu  Cu93  1  -0.00362040  0.65858303  0.00362203  1
  Cu  Cu94  1  -0.00015180  -0.00282061  -0.00587679  1
  Cu  Cu95  1  0.51058394  0.83929830  0.24427116  1
  Cu  Cu96  1  0.16840333  0.17466542  0.25441548  1
  Cu  Cu97  1  0.50009338  0.49964279  0.24710664  1
  Cu  Cu98  1  0.15955411  0.83255005  0.74371624  1
  Cu  Cu99  1  0.00587147  0.33495904  0.49792739  1
  Cu  Cu100  1  -0.00640913  0.66416279  0.49969491  1
  Cu  Cu101  1  0.83978990  0.50620653  0.74680359  1
  Cu  Cu102  1  0.83507464  0.49757986  0.25426615  1
  Cu  Cu103  1  0.66431339  0.34626130  0.49182499  1
  Cu  Cu104  1  0.33016259  0.00295236  0.50391580  1
  Cu  Cu105  1  0.33447450  0.66406681  0.00046234  1
  Cu  Cu106  1  0.49641957  0.17445130  0.24570027  1
  Cu  Cu107  1  0.68103277  -0.00471083  0.50193650  1
  Cu  Cu108  1  0.16283270  0.49561448  0.74464256  1
  Cu  Cu109  1  0.00367881  -0.00683719  0.50194335  1
  Cu  Cu110  1  0.48932772  0.16358198  0.75707829  1
  Cu  Cu111  1  0.66993931  0.66319936  0.49679020  1
  Cu  Cu112  1  0.16551153  0.83662630  0.25438132  1
  Cu  Cu113  1  0.49829871  0.83481612  0.75348388  1
  Cu  Cu114  1  0.00040522  0.34610376  0.00540043  1
  Se  Se115  1  0.07797629  0.07789269  0.05474791  1
  Se  Se116  1  0.08640621  0.08339144  0.54894526  1
  Se  Se117  1  0.08540957  0.42478184  0.06017377  1
  Se  Se118  1  0.08350071  0.41718256  0.55804214  1
  Se  Se119  1  0.07177635  0.74672148  0.06281097  1
  Se  Se120  1  0.08201521  0.74662356  0.55091289  1
  Se  Se121  1  0.39800704  0.07139018  0.04874570  1
  Se  Se122  1  0.41117610  0.08024937  0.56459794  1
  Se  Se123  1  0.40947581  0.41327216  0.05971763  1
  Se  Se124  1  0.42719689  0.41987320  0.54946642  1
  Se  Se125  1  0.41990948  0.74696150  0.05044467  1
  Se  Se126  1  0.40722520  0.74153134  0.56825113  1
  Se  Se127  1  0.74189012  0.07234273  0.05904680  1
  Se  Se128  1  0.75495633  0.07941758  0.56202505  1
  Se  Se129  1  0.74971952  0.40605012  0.05085040  1
  Se  Se130  1  0.75297116  0.42274802  0.54554957  1
  Se  Se131  1  0.75273407  0.74089728  0.06446304  1
  Se  Se132  1  0.75191934  0.74496694  0.55295572  1
  Se  Se133  1  0.24675598  0.25928762  0.06465228  1
  Se  Se134  1  0.25370757  0.25289950  0.55247282  1
  Se  Se135  1  0.24440587  0.58842979  0.05182294  1
  Se  Se136  1  0.24486518  0.57939124  0.54977342  1
  Se  Se137  1  0.25549684  0.92305137  0.05221919  1
  Se  Se138  1  0.24878547  0.91353657  0.55233542  1
  Se  Se139  1  0.57214240  0.24498170  0.05032189  1
  Se  Se140  1  0.59281956  0.26181959  0.55545397  1
  Se  Se141  1  0.59276477  0.58478691  0.06131929  1
  Se  Se142  1  0.58117745  0.58476871  0.54953401  1
  Se  Se143  1  0.58705398  0.90139970  0.04905516  1
  Se  Se144  1  0.59367099  0.92053619  0.56126043  1
  Se  Se145  1  0.92648696  0.25641155  0.06375392  1
  Se  Se146  1  0.92560881  0.25706398  0.56236377  1
  Se  Se147  1  0.91148433  0.57958589  0.05812604  1
  Se  Se148  1  0.91448324  0.57868366  0.55552778  1
  Se  Se149  1  0.92516486  0.91717420  0.05767739  1
  Se  Se150  1  0.91638840  0.91064211  0.55073367  1
  Se  Se151  1  0.08679125  0.24798165  0.44710465  1
  Se  Se152  1  0.07239384  0.26156319  0.94176561  1
  Se  Se153  1  0.08155583  0.57968207  0.45118531  1
  Se  Se154  1  0.08460794  0.58106057  0.94979697  1
  Se  Se155  1  0.08495372  0.90916143  0.44571339  1
  Se  Se156  1  0.07230645  0.91192410  0.93361990  1
  Se  Se157  1  0.41717296  0.26072223  0.43784306  1
  Se  Se158  1  0.41043289  0.24290132  0.95157964  1
  Se  Se159  1  0.41665761  0.58969156  0.44721926  1
  Se  Se160  1  0.41093704  0.58609292  0.93520420  1
  Se  Se161  1  0.41380816  0.92496280  0.44353812  1
  Se  Se162  1  0.42453521  0.89822183  0.94968843  1
  Se  Se163  1  0.74351095  0.25666997  0.43768217  1
  Se  Se164  1  0.74251432  0.25971738  0.94000305  1
  Se  Se165  1  0.75230953  0.58196442  0.44096707  1
  Se  Se166  1  0.75609348  0.58239613  0.94513452  1
  Se  Se167  1  0.75762765  0.90589300  0.45147253  1
  Se  Se168  1  0.73954019  0.92997386  0.94334517  1
  Se  Se169  1  0.24763803  0.08351455  0.44816045  1
  Se  Se170  1  0.24898671  0.07017532  0.93827356  1
  Se  Se171  1  0.24251563  0.42205904  0.45138607  1
  Se  Se172  1  0.24756997  0.41470969  0.95238331  1
  Se  Se173  1  0.24801272  0.75377594  0.45124094  1
  Se  Se174  1  0.25521925  0.74004862  0.93489108  1
  Se  Se175  1  0.59610673  0.07389175  0.44535105  1
  Se  Se176  1  0.58038361  0.08388373  0.95947567  1
  Se  Se177  1  0.57952264  0.42507188  0.43776889  1
  Se  Se178  1  0.58786209  0.41089877  0.93526210  1
  Se  Se179  1  0.58631419  0.74538294  0.43810551  1
  Se  Se180  1  0.58656426  0.74390053  0.94861341  1
  Se  Se181  1  0.92728994  0.07668869  0.43869964  1
  Se  Se182  1  0.92002248  0.08466415  0.94086406  1
  Se  Se183  1  0.91584139  0.41635131  0.44963947  1
  Se  Se184  1  0.91416379  0.42210210  0.94906009  1
  Se  Se185  1  0.91581130  0.74876576  0.44277859  1
  Se  Se186  1  0.92586264  0.74423388  0.93986308  1
  Se  Se187  1  0.25123674  0.25925430  0.30531369  1
  Se  Se188  1  0.24484168  0.24627753  0.80597818  1
  Se  Se189  1  0.24469926  0.57981336  0.31675888  1
  Se  Se190  1  0.24319314  0.57489908  0.80862937  1
  Se  Se191  1  0.25176054  0.91573733  0.31005021  1
  Se  Se192  1  0.24563514  0.91221832  0.79764936  1
  Se  Se193  1  0.58566744  0.25424306  0.29618583  1
  Se  Se194  1  0.57646040  0.24436747  0.81093822  1
  Se  Se195  1  0.58309450  0.58575224  0.29760430  1
  Se  Se196  1  0.58779939  0.58314973  0.79592975  1
  Se  Se197  1  0.58574945  0.91615874  0.31054219  1
  Se  Se198  1  0.56858461  0.91601969  0.81981586  1
  Se  Se199  1  0.91547377  0.25114066  0.30324019  1
  Se  Se200  1  0.92263241  0.25719104  0.80013125  1
  Se  Se201  1  0.91991628  0.58017368  0.30666565  1
  Se  Se202  1  0.92055238  0.58500543  0.80692313  1
  Se  Se203  1  0.92475212  0.91556818  0.30137751  1
  Se  Se204  1  0.91843178  0.93164989  0.79387269  1
  Se  Se205  1  0.08738033  0.08541655  0.30460039  1
  Se  Se206  1  0.07751649  0.07953656  0.79795552  1
  Se  Se207  1  0.07941134  0.41468426  0.30913299  1
  Se  Se208  1  0.08225295  0.41731957  0.80639899  1
  Se  Se209  1  0.08872446  0.74674606  0.30587874  1
  Se  Se210  1  0.07983981  0.74630571  0.79682223  1
  Se  Se211  1  0.41609631  0.09580618  0.30725546  1
  Se  Se212  1  0.41170169  0.07665545  0.81057030  1
  Se  Se213  1  0.41135092  0.42483189  0.30249922  1
  Se  Se214  1  0.41711367  0.41290201  0.80218811  1
  Se  Se215  1  0.42428300  0.76106400  0.30246849  1
  Se  Se216  1  0.41836896  0.74874662  0.81126717  1
  Se  Se217  1  0.76010481  0.08564018  0.31476564  1
  Se  Se218  1  0.75652854  0.09872782  0.81128782  1
  Se  Se219  1  0.74634564  0.41319983  0.30250431  1
  Se  Se220  1  0.76109619  0.42524140  0.81019153  1
  Se  Se221  1  0.74968792  0.74166482  0.29779236  1
  Se  Se222  1  0.76294974  0.77018119  0.80748293  1
  Se  Se223  1  0.24196718  0.09930977  0.18507479  1
  Se  Se224  1  0.24916664  0.07773950  0.69540276  1
  Se  Se225  1  0.24801864  0.42321780  0.20166716  1
  Se  Se226  1  0.25075293  0.41354089  0.69486092  1
  Se  Se227  1  0.24550605  0.76115098  0.18904314  1
  Se  Se228  1  0.24011186  0.74797281  0.68605230  1
  Se  Se229  1  0.57147726  0.08646821  0.18707889  1
  Se  Se230  1  0.57445609  0.08869694  0.69650836  1
  Se  Se231  1  0.58462310  0.41650883  0.19434763  1
  Se  Se232  1  0.58287523  0.42257633  0.68448898  1
  Se  Se233  1  0.59229217  0.74794930  0.19939156  1
  Se  Se234  1  0.58093008  0.74954979  0.70263210  1
  Se  Se235  1  0.92290035  0.07971373  0.19927146  1
  Se  Se236  1  0.91855602  0.08907150  0.69490540  1
  Se  Se237  1  0.91709753  0.41367822  0.19898020  1
  Se  Se238  1  0.91858853  0.41508255  0.69810517  1
  Se  Se239  1  0.92226596  0.74593030  0.20728466  1
  Se  Se240  1  0.91450953  0.75332299  0.69568702  1
  Se  Se241  1  0.07873725  0.25508458  0.20359790  1
  Se  Se242  1  0.08503830  0.25117070  0.69649984  1
  Se  Se243  1  0.07873990  0.58488360  0.20198707  1
  Se  Se244  1  0.07825649  0.58356032  0.69902552  1
  Se  Se245  1  0.08577218  0.92374164  0.20110107  1
  Se  Se246  1  0.08055552  0.91706051  0.68775754  1
  Se  Se247  1  0.41209496  0.25892541  0.19559417  1
  Se  Se248  1  0.41369602  0.25172337  0.70190680  1
  Se  Se249  1  0.42111551  0.57950771  0.18442008  1
  Se  Se250  1  0.41839991  0.56711275  0.68484884  1
  Se  Se251  1  0.43200753  0.91933834  0.18452225  1
  Se  Se252  1  0.41286071  0.91904370  0.70455215  1
  Se  Se253  1  0.75004381  0.24161657  0.19497904  1
  Se  Se254  1  0.75447938  0.24767569  0.68811126  1
  Se  Se255  1  0.75092893  0.57844274  0.19829370  1
  Se  Se256  1  0.75118126  0.58504088  0.69438412  1
  Se  Se257  1  0.76585717  0.90741457  0.19353358  1
  Se  Se258  1  0.74781601  0.91458536  0.69023886  1
