# generated using pymatgen
data_In86Cu29Se144
_symmetry_space_group_name_H-M   'P 1'
_cell_length_a   17.57284755
_cell_length_b   17.57449203
_cell_length_c   23.43434266
_cell_angle_alpha   90.01260134
_cell_angle_beta   89.99360470
_cell_angle_gamma   90.01081733
_symmetry_Int_Tables_number   1
_chemical_formula_structural   In86Cu29Se144
_chemical_formula_sum   'In86 Cu29 Se144'
_cell_volume   7237.31836898
_cell_formula_units_Z   1
loop_
 _symmetry_equiv_pos_site_id
 _symmetry_equiv_pos_as_xyz
  1  'x, y, z'
loop_
 _atom_site_type_symbol
 _atom_site_label
 _atom_site_symmetry_multiplicity
 _atom_site_fract_x
 _atom_site_fract_y
 _atom_site_fract_z
 _atom_site_occupancy
  In  In0  1  0.00320355  0.15280977  0.12741787  1
  In  In1  1  -0.00362632  0.16738215  0.62799137  1
  In  In2  1  -0.00756473  0.51884323  0.11111451  1
  In  In3  1  -0.02161847  0.51526969  0.65221814  1
  In  In4  1  0.01732972  0.83167726  0.11881249  1
  In  In5  1  0.00452420  0.82907846  0.63410604  1
  In  In6  1  0.32571094  0.15458843  0.11248094  1
  In  In7  1  0.33575355  0.17945691  0.61262155  1
  In  In8  1  0.35200803  0.49183597  0.12078111  1
  In  In9  1  0.34472965  0.49940632  0.62532261  1
  In  In10  1  0.32640969  0.84387730  0.13712204  1
  In  In11  1  0.32713791  0.82591927  0.62381708  1
  In  In12  1  0.65851036  0.16948030  0.12592131  1
  In  In13  1  0.66446483  0.16562995  0.62544492  1
  In  In14  1  0.66784723  0.50696214  0.11651637  1
  In  In15  1  0.66982329  0.49787644  0.63139680  1
  In  In16  1  0.65281166  0.83733650  0.14048459  1
  In  In17  1  0.67054945  0.83047661  0.63396417  1
  In  In18  1  0.17508905  0.00984966  0.36397637  1
  In  In19  1  0.16048245  0.00697844  0.88452238  1
  In  In20  1  0.15819489  0.32875032  0.37785575  1
  In  In21  1  0.15658479  0.33360870  0.87596257  1
  In  In22  1  0.17970784  0.65981120  0.37341073  1
  In  In23  1  0.17338042  0.66600823  0.86981191  1
  In  In24  1  0.50920428  0.00623566  0.36572784  1
  In  In25  1  0.51222296  0.00833777  0.87849558  1
  In  In26  1  0.50444948  0.33133052  0.38606271  1
  In  In27  1  0.50772249  0.32397816  0.88150995  1
  In  In28  1  0.50104656  0.66102368  0.36986087  1
  In  In29  1  0.49090825  0.65897966  0.87163524  1
  In  In30  1  0.83977272  0.00363674  0.37080899  1
  In  In31  1  0.83601207  0.00056422  0.86701320  1
  In  In32  1  0.83002059  0.33549959  0.38920972  1
  In  In33  1  0.84744694  0.35752426  0.84885481  1
  In  In34  1  0.82631099  0.66984218  0.38215194  1
  In  In35  1  0.82757827  0.65162542  0.86128035  1
  In  In36  1  0.00566972  0.15625279  0.38919454  1
  In  In37  1  0.00822349  0.17308839  0.86936202  1
  In  In38  1  -0.00068318  0.49366960  0.38141482  1
  In  In39  1  0.00142957  0.49327915  0.85877754  1
  In  In40  1  -0.01136454  0.83897061  0.37723825  1
  In  In41  1  0.00764811  0.84023676  0.87124474  1
  In  In42  1  0.33486647  0.16500746  0.37745367  1
  In  In43  1  0.33684868  0.16986815  0.89267947  1
  In  In44  1  0.34288165  0.51486964  0.36912453  1
  In  In45  1  0.32619440  0.51342300  0.87737856  1
  In  In46  1  0.34298420  0.83393950  0.35910650  1
  In  In47  1  0.32885963  0.81624772  0.88061093  1
  In  In48  1  0.67306296  0.16219354  0.38384738  1
  In  In49  1  0.66710104  0.16998675  0.87038189  1
  In  In50  1  0.66644724  0.50381922  0.38529422  1
  In  In51  1  0.66848854  0.50177447  0.86810353  1
  In  In52  1  0.65773109  0.82709934  0.36229895  1
  In  In53  1  0.66896625  0.83759402  0.86835812  1
  In  In54  1  0.17096427  0.00137998  0.12723523  1
  In  In55  1  0.15258339  0.00482345  0.62674136  1
  In  In56  1  0.16988795  0.31354854  0.11892271  1
  In  In57  1  0.16232723  0.32261050  0.62762145  1
  In  In58  1  0.16131042  0.68930070  0.11624389  1
  In  In59  1  0.16254438  0.65997925  0.63877069  1
  In  In60  1  0.48842438  0.00693580  0.13928882  1
  In  In61  1  0.50186088  0.01547115  0.62092403  1
  In  In62  1  0.48875096  0.32900326  0.10165324  1
  In  In63  1  0.50614948  0.34428000  0.61905016  1
  In  In64  1  0.50894691  0.66092532  0.13083870  1
  In  In65  1  0.51463155  0.65434760  0.63499277  1
  In  In66  1  0.83377340  -0.00357365  0.13451649  1
  In  In67  1  0.82534930  0.00806585  0.62917519  1
  In  In68  1  0.82619779  0.34150873  0.11866383  1
  In  In69  1  0.83316769  0.33311758  0.63232051  1
  In  In70  1  0.82799388  0.65693664  0.11811526  1
  In  In71  1  0.84100582  0.65276646  0.63835454  1
  In  In72  1  0.16257892  0.49360109  0.50548749  1
  In  In73  1  0.32936546  0.33830927  0.75391267  1
  In  In74  1  0.83296547  0.83512997  0.49652373  1
  In  In75  1  -0.00246088  0.67501660  0.24645768  1
  In  In76  1  0.66632395  0.33616397  0.24631806  1
  In  In77  1  -0.00344900  0.32942777  0.24623101  1
  In  In78  1  0.83311541  0.82511048  -0.00613999  1
  In  In79  1  0.49478230  0.83442638  0.00878443  1
  In  In80  1  0.33274310  0.32836524  0.24706538  1
  In  In81  1  0.83548023  0.17551108  -0.01011809  1
  In  In82  1  0.49981348  0.83294418  0.48947323  1
  In  In83  1  0.33839067  -0.00254386  0.74956576  1
  In  In84  1  0.16636108  0.49449830  -0.00717471  1
  In  In85  1  0.16461027  0.83442022  0.50666709  1
  Cu  Cu86  1  0.50690317  0.50044729  0.24669856  1
  Cu  Cu87  1  0.01026736  -0.00309904  0.00216892  1
  Cu  Cu88  1  0.34104785  0.66498172  0.49645832  1
  Cu  Cu89  1  0.33014617  0.33422422  0.49828453  1
  Cu  Cu90  1  0.82935254  0.83428071  0.25169245  1
  Cu  Cu91  1  0.66173730  0.66737090  -0.00295511  1
  Cu  Cu92  1  0.49828352  0.83327011  0.75732017  1
  Cu  Cu93  1  0.49873676  0.16555243  0.24885214  1
  Cu  Cu94  1  0.00021794  0.33315006  -0.01050802  1
  Cu  Cu95  1  0.50539364  0.16975039  0.74903538  1
  Cu  Cu96  1  0.32837253  0.01335180  0.49331589  1
  Cu  Cu97  1  0.67350037  0.65331902  0.50843536  1
  Cu  Cu98  1  0.82989520  0.16101610  0.74653282  1
  Cu  Cu99  1  -0.00266766  0.00543843  0.50193310  1
  Cu  Cu100  1  0.83727259  0.83285151  0.75163687  1
  Cu  Cu101  1  0.16620941  0.15939462  0.75085937  1
  Cu  Cu102  1  0.33304015  -0.00611845  0.00795392  1
  Cu  Cu103  1  0.17215679  0.50453152  0.24505706  1
  Cu  Cu104  1  0.67278430  0.34605615  -0.00705856  1
  Cu  Cu105  1  0.17063758  0.83182259  0.75132169  1
  Cu  Cu106  1  0.16416104  0.83933201  0.24777054  1
  Cu  Cu107  1  0.66488162  0.01189098  0.00176646  1
  Cu  Cu108  1  0.66397561  0.00126023  0.49828556  1
  Cu  Cu109  1  0.66604129  0.33154076  0.51015807  1
  Cu  Cu110  1  -0.00984006  0.33571227  0.50903016  1
  Cu  Cu111  1  0.82798370  0.50786384  0.24704499  1
  Cu  Cu112  1  0.83618274  0.16159144  0.25878214  1
  Cu  Cu113  1  0.32588779  0.66690311  0.00207242  1
  Cu  Cu114  1  0.50085137  0.50066788  0.75045754  1
  Se  Se115  1  0.08970606  0.08445028  0.05462811  1
  Se  Se116  1  0.08168752  0.08917680  0.55427229  1
  Se  Se117  1  0.07506079  0.40792877  0.05987094  1
  Se  Se118  1  0.07033162  0.41539220  0.56963713  1
  Se  Se119  1  0.05189644  0.72494383  0.04894673  1
  Se  Se120  1  0.07880371  0.73738311  0.56163172  1
  Se  Se121  1  0.42567316  0.07607905  0.05371745  1
  Se  Se122  1  0.41667756  0.08809608  0.54938803  1
  Se  Se123  1  0.42131265  0.42707955  0.03853157  1
  Se  Se124  1  0.41467161  0.41795823  0.54998752  1
  Se  Se125  1  0.40560114  0.74272978  0.06673115  1
  Se  Se126  1  0.42036727  0.74362938  0.55918921  1
  Se  Se127  1  0.75471510  0.08479710  0.05917085  1
  Se  Se128  1  0.74677852  0.08215555  0.55396984  1
  Se  Se129  1  0.75572032  0.42748707  0.04773183  1
  Se  Se130  1  0.75088422  0.41509889  0.56125199  1
  Se  Se131  1  0.73334215  0.75307067  0.05940772  1
  Se  Se132  1  0.74971827  0.74484911  0.56149549  1
  Se  Se133  1  0.26711953  0.26021567  0.04921638  1
  Se  Se134  1  0.24108410  0.25399424  0.54821861  1
  Se  Se135  1  0.24781305  0.58276866  0.06299460  1
  Se  Se136  1  0.25567300  0.59165648  0.55849019  1
  Se  Se137  1  0.24751037  0.91053513  0.05786543  1
  Se  Se138  1  0.25865169  0.93165469  0.55977868  1
  Se  Se139  1  0.59834913  0.25710461  0.04998039  1
  Se  Se140  1  0.57790067  0.24538101  0.55599266  1
  Se  Se141  1  0.57678851  0.58470992  0.05008079  1
  Se  Se142  1  0.58230925  0.57465911  0.55741406  1
  Se  Se143  1  0.58858645  0.92821840  0.06179695  1
  Se  Se144  1  0.58805671  0.91626490  0.55776288  1
  Se  Se145  1  0.92596092  0.25627380  0.05950674  1
  Se  Se146  1  0.90998699  0.24712356  0.55980223  1
  Se  Se147  1  0.90323541  0.58519894  0.04137074  1
  Se  Se148  1  0.91966253  0.57882458  0.56387626  1
  Se  Se149  1  0.91829160  0.92143389  0.05634625  1
  Se  Se150  1  0.92307300  0.91924814  0.56193944  1
  Se  Se151  1  0.07574589  0.25756497  0.45166027  1
  Se  Se152  1  0.08708565  0.24341079  0.94780737  1
  Se  Se153  1  0.08221535  0.59191245  0.44237681  1
  Se  Se154  1  0.07705784  0.58231953  0.93361973  1
  Se  Se155  1  0.07904307  0.92424094  0.44245043  1
  Se  Se156  1  0.08904956  0.90883005  0.94951523  1
  Se  Se157  1  0.41465045  0.24849664  0.44766234  1
  Se  Se158  1  0.42826455  0.24682681  0.95436582  1
  Se  Se159  1  0.42542532  0.58077459  0.44604876  1
  Se  Se160  1  0.41234160  0.58764387  0.94913517  1
  Se  Se161  1  0.40611100  0.92704127  0.43668435  1
  Se  Se162  1  0.41100082  0.92166999  0.93910622  1
  Se  Se163  1  0.74822192  0.24863411  0.45373594  1
  Se  Se164  1  0.75302827  0.26912265  0.93028958  1
  Se  Se165  1  0.76057924  0.57671719  0.45241232  1
  Se  Se166  1  0.74491846  0.58812172  0.94077211  1
  Se  Se167  1  0.73760027  0.91829343  0.43547262  1
  Se  Se168  1  0.74290577  0.92897214  0.94329801  1
  Se  Se169  1  0.23809034  0.09143498  0.44372438  1
  Se  Se170  1  0.25190648  0.07947452  0.95283748  1
  Se  Se171  1  0.25698393  0.41761826  0.43453203  1
  Se  Se172  1  0.26129640  0.40350072  0.93919126  1
  Se  Se173  1  0.26107361  0.75215891  0.44225760  1
  Se  Se174  1  0.23882160  0.74738654  0.95123330  1
  Se  Se175  1  0.57740019  0.08302658  0.44576938  1
  Se  Se176  1  0.58566071  0.09675269  0.94777204  1
  Se  Se177  1  0.58695345  0.41556726  0.45172270  1
  Se  Se178  1  0.58410522  0.42423292  0.94067510  1
  Se  Se179  1  0.59820467  0.73607480  0.44391873  1
  Se  Se180  1  0.58249285  0.75240184  0.93966874  1
  Se  Se181  1  0.90537872  0.08283395  0.45085019  1
  Se  Se182  1  0.92721898  0.07473866  0.94126844  1
  Se  Se183  1  0.91392509  0.42296039  0.45322070  1
  Se  Se184  1  0.92057119  0.41629008  0.93478221  1
  Se  Se185  1  0.93008052  0.73888531  0.44826613  1
  Se  Se186  1  0.91676973  0.74267880  0.92763520  1
  Se  Se187  1  0.23933702  0.24377628  0.30739948  1
  Se  Se188  1  0.24893975  0.23596053  0.81199088  1
  Se  Se189  1  0.25650291  0.58675706  0.29669204  1
  Se  Se190  1  0.24896454  0.57921358  0.79988034  1
  Se  Se191  1  0.25286039  0.91975592  0.29885771  1
  Se  Se192  1  0.24834822  0.91336222  0.81325638  1
  Se  Se193  1  0.57974643  0.24599030  0.30900420  1
  Se  Se194  1  0.58554004  0.25576733  0.80200632  1
  Se  Se195  1  0.59066580  0.57530457  0.30649534  1
  Se  Se196  1  0.58184466  0.58884019  0.80245029  1
  Se  Se197  1  0.57048626  0.90724234  0.29912292  1
  Se  Se198  1  0.58069463  0.92226476  0.80497166  1
  Se  Se199  1  0.91096657  0.24865866  0.31625370  1
  Se  Se200  1  0.91462615  0.24173265  0.80124512  1
  Se  Se201  1  0.91433138  0.57935615  0.30921318  1
  Se  Se202  1  0.91550494  0.57666511  0.79305166  1
  Se  Se203  1  0.91734687  0.91666042  0.30107067  1
  Se  Se204  1  0.92174925  0.91878877  0.80165783  1
  Se  Se205  1  0.06956989  0.08110763  0.30873857  1
  Se  Se206  1  0.08401779  0.07645121  0.80524166  1
  Se  Se207  1  0.09025248  0.42603795  0.30393471  1
  Se  Se208  1  0.08876797  0.40562856  0.79731132  1
  Se  Se209  1  0.09007876  0.75755213  0.31269767  1
  Se  Se210  1  0.08584271  0.75010814  0.80452385  1
  Se  Se211  1  0.41373018  0.08626189  0.30424283  1
  Se  Se212  1  0.42083125  0.09440282  0.81020186  1
  Se  Se213  1  0.42869854  0.41599460  0.30686519  1
  Se  Se214  1  0.42287674  0.42264318  0.81460828  1
  Se  Se215  1  0.41136329  0.73219536  0.30134271  1
  Se  Se216  1  0.41136948  0.74878220  0.80462333  1
  Se  Se217  1  0.74475392  0.08195675  0.30742571  1
  Se  Se218  1  0.74604710  0.08073576  0.80355406  1
  Se  Se219  1  0.75804138  0.42089396  0.30908954  1
  Se  Se220  1  0.73833831  0.41779523  0.79289098  1
  Se  Se221  1  0.75377159  0.74398671  0.30441911  1
  Se  Se222  1  0.74904951  0.75177460  0.80225891  1
  Se  Se223  1  0.26069979  0.08069087  0.19265086  1
  Se  Se224  1  0.25284969  0.09103861  0.68759707  1
  Se  Se225  1  0.24330430  0.41866599  0.18430676  1
  Se  Se226  1  0.24388537  0.42313019  0.68815814  1
  Se  Se227  1  0.24235893  0.74866980  0.19663498  1
  Se  Se228  1  0.25337736  0.74807567  0.69804695  1
  Se  Se229  1  0.58857621  0.08462040  0.19881194  1
  Se  Se230  1  0.58431609  0.08016089  0.69763687  1
  Se  Se231  1  0.57454614  0.41567127  0.18125428  1
  Se  Se232  1  0.58126996  0.41363936  0.69812011  1
  Se  Se233  1  0.58700622  0.73867831  0.20346190  1
  Se  Se234  1  0.58185501  0.75280857  0.70044140  1
  Se  Se235  1  0.91755044  0.08219671  0.20005859  1
  Se  Se236  1  0.91914413  0.07850489  0.69709254  1
  Se  Se237  1  0.91160564  0.43028231  0.18815906  1
  Se  Se238  1  0.91684985  0.40456936  0.70671598  1
  Se  Se239  1  0.90600339  0.75967542  0.18378148  1
  Se  Se240  1  0.92082636  0.74731605  0.70096114  1
  Se  Se241  1  0.09293896  0.23655462  0.19707126  1
  Se  Se242  1  0.08258647  0.24478944  0.70016845  1
  Se  Se243  1  0.08681325  0.58162940  0.18695346  1
  Se  Se244  1  0.08739906  0.57836130  0.70927546  1
  Se  Se245  1  0.07957659  0.91928029  0.19342021  1
  Se  Se246  1  0.08691413  0.91672718  0.69956389  1
  Se  Se247  1  0.42494346  0.24489671  0.18425614  1
  Se  Se248  1  0.42019093  0.24911449  0.69126632  1
  Se  Se249  1  0.41686954  0.57840199  0.19523836  1
  Se  Se250  1  0.41487590  0.58408506  0.69914466  1
  Se  Se251  1  0.43061107  0.90154008  0.20104454  1
  Se  Se252  1  0.42671196  0.90879350  0.68642689  1
  Se  Se253  1  0.76383411  0.24293148  0.19276346  1
  Se  Se254  1  0.74539539  0.24632417  0.69630841  1
  Se  Se255  1  0.74356278  0.58677677  0.19281291  1
  Se  Se256  1  0.72950907  0.60083413  0.69723965  1
  Se  Se257  1  0.74489204  0.92039965  0.20172784  1
  Se  Se258  1  0.75258297  0.91727108  0.69866660  1
