# generated using pymatgen
data_In86Cu29Se144
_symmetry_space_group_name_H-M   'P 1'
_cell_length_a   17.58338601
_cell_length_b   17.57971249
_cell_length_c   23.44464354
_cell_angle_alpha   90.01005824
_cell_angle_beta   89.99405249
_cell_angle_gamma   90.01365861
_symmetry_Int_Tables_number   1
_chemical_formula_structural   In86Cu29Se144
_chemical_formula_sum   'In86 Cu29 Se144'
_cell_volume   7246.99382280
_cell_formula_units_Z   1
loop_
 _symmetry_equiv_pos_site_id
 _symmetry_equiv_pos_as_xyz
  1  'x, y, z'
loop_
 _atom_site_type_symbol
 _atom_site_label
 _atom_site_symmetry_multiplicity
 _atom_site_fract_x
 _atom_site_fract_y
 _atom_site_fract_z
 _atom_site_occupancy
  In  In0  1  0.00453389  0.15651261  0.12042723  1
  In  In1  1  -0.00520087  0.17753362  0.62481880  1
  In  In2  1  0.02150124  0.53113900  0.10170409  1
  In  In3  1  0.00390697  0.49460336  0.62039114  1
  In  In4  1  -0.00382636  0.81434258  0.11791696  1
  In  In5  1  -0.00093276  0.83250262  0.62059082  1
  In  In6  1  0.33386351  0.16753818  0.11425775  1
  In  In7  1  0.32928364  0.14919380  0.62816143  1
  In  In8  1  0.34558433  0.50876321  0.11628989  1
  In  In9  1  0.32808834  0.51485478  0.63063612  1
  In  In10  1  0.32406381  0.82285280  0.11891221  1
  In  In11  1  0.33077592  0.82680675  0.62768827  1
  In  In12  1  0.67076264  0.17758236  0.12375113  1
  In  In13  1  0.66352593  0.16501248  0.62622444  1
  In  In14  1  0.66418551  0.50222242  0.12153170  1
  In  In15  1  0.65539782  0.50605287  0.63733117  1
  In  In16  1  0.64775535  0.82850445  0.11859754  1
  In  In17  1  0.66489398  0.83674876  0.62831965  1
  In  In18  1  0.15521001  -0.00729342  0.37606763  1
  In  In19  1  0.18952638  -0.02296559  0.88965420  1
  In  In20  1  0.18502873  0.34169894  0.37545142  1
  In  In21  1  0.16434166  0.34065993  0.88129237  1
  In  In22  1  0.16775301  0.66843395  0.37585034  1
  In  In23  1  0.17606229  0.65935215  0.87749597  1
  In  In24  1  0.50271988  -0.00035653  0.38460613  1
  In  In25  1  0.50442407  -0.00267049  0.87345809  1
  In  In26  1  0.50084790  0.32355852  0.37819762  1
  In  In27  1  0.50974663  0.32434158  0.87803207  1
  In  In28  1  0.50799171  0.67194207  0.36838897  1
  In  In29  1  0.50014332  0.66874842  0.87682942  1
  In  In30  1  0.83366523  -0.00038360  0.38769947  1
  In  In31  1  0.82867989  0.00204115  0.86852900  1
  In  In32  1  0.81827064  0.33907686  0.37593986  1
  In  In33  1  0.83200498  0.34492936  0.87802766  1
  In  In34  1  0.83792787  0.66737721  0.36958467  1
  In  In35  1  0.82030692  0.67252977  0.87704027  1
  In  In36  1  0.00140071  0.15022362  0.37737717  1
  In  In37  1  -0.00064452  0.16917720  0.88021095  1
  In  In38  1  0.00372267  0.51800073  0.37069571  1
  In  In39  1  0.00682793  0.50104040  0.89030198  1
  In  In40  1  0.00810189  0.82491142  0.38521658  1
  In  In41  1  0.01138177  0.83414061  0.88289678  1
  In  In42  1  0.34824002  0.17716461  0.38318193  1
  In  In43  1  0.34960713  0.15413031  0.87853631  1
  In  In44  1  0.31858144  0.50155514  0.37824707  1
  In  In45  1  0.32189596  0.52115490  0.87902021  1
  In  In46  1  0.34503313  0.82336791  0.38290068  1
  In  In47  1  0.33394135  0.83436971  0.86829666  1
  In  In48  1  0.65930689  0.17396768  0.38221238  1
  In  In49  1  0.65122735  0.15021196  0.86177733  1
  In  In50  1  0.66878302  0.50276565  0.36331873  1
  In  In51  1  0.66541475  0.50026786  0.87725145  1
  In  In52  1  0.67204172  0.82944572  0.38164871  1
  In  In53  1  0.66456716  0.82195374  0.86674799  1
  In  In54  1  0.15409272  -0.01019595  0.10137125  1
  In  In55  1  0.18313204  -0.00813095  0.63580384  1
  In  In56  1  0.17371477  0.34026574  0.11585456  1
  In  In57  1  0.16291497  0.33599196  0.62362203  1
  In  In58  1  0.17276800  0.67022508  0.12414486  1
  In  In59  1  0.17191889  0.67284658  0.62303299  1
  In  In60  1  0.50028343  -0.00589605  0.10871348  1
  In  In61  1  0.49814047  -0.00396238  0.62694821  1
  In  In62  1  0.50743334  0.34182501  0.11664286  1
  In  In63  1  0.51271701  0.33701739  0.62743992  1
  In  In64  1  0.49856501  0.66652721  0.12395633  1
  In  In65  1  0.48635736  0.67757855  0.63322875  1
  In  In66  1  0.82836650  -0.00227557  0.12178020  1
  In  In67  1  0.81457509  -0.01671364  0.61928506  1
  In  In68  1  0.81548859  0.34214709  0.12932612  1
  In  In69  1  0.83264499  0.32257914  0.62169833  1
  In  In70  1  0.84275166  0.65813234  0.12951453  1
  In  In71  1  0.81636998  0.67348434  0.63155474  1
  In  In72  1  0.83493155  0.83217856  -0.00631233  1
  In  In73  1  0.83660809  0.50285387  0.49776945  1
  In  In74  1  -0.01135101  0.33990376  0.24531759  1
  In  In75  1  0.33750367  0.33680429  0.75120441  1
  In  In76  1  -0.00614074  -0.01159227  0.24204018  1
  In  In77  1  0.82893037  0.16658929  0.00100172  1
  In  In78  1  0.49309035  0.49661071  0.50443602  1
  In  In79  1  -0.00217157  0.33715288  0.75917650  1
  In  In80  1  0.16883041  0.15893830  0.50094133  1
  In  In81  1  0.00107141  0.66527045  0.75567609  1
  In  In82  1  0.33044779  -0.00231300  0.24772400  1
  In  In83  1  0.66515212  -0.00464245  0.24401600  1
  In  In84  1  0.33940651  0.34018043  0.25283036  1
  In  In85  1  -0.00062982  -0.00216365  0.75138866  1
  Cu  Cu86  1  0.17178928  0.16629642  0.23907951  1
  Cu  Cu87  1  0.33780470  0.67280149  -0.00163831  1
  Cu  Cu88  1  0.50327771  0.16059429  0.75122005  1
  Cu  Cu89  1  0.66452462  0.00399834  0.50654607  1
  Cu  Cu90  1  0.50521761  0.17246284  0.25138887  1
  Cu  Cu91  1  0.82241526  0.16390282  0.74385454  1
  Cu  Cu92  1  0.50222379  0.50361505  0.24207611  1
  Cu  Cu93  1  0.33357954  0.33457047  -0.00710717  1
  Cu  Cu94  1  -0.00267541  0.33442412  0.00211462  1
  Cu  Cu95  1  0.16530786  0.82245644  0.25117348  1
  Cu  Cu96  1  0.33555323  -0.00594081  0.50640660  1
  Cu  Cu97  1  0.49983317  0.83342819  0.74969794  1
  Cu  Cu98  1  0.33852700  0.00126057  -0.00670687  1
  Cu  Cu99  1  0.83220941  0.50296700  0.24213494  1
  Cu  Cu100  1  0.66381459  0.66490621  -0.00142012  1
  Cu  Cu101  1  0.83203588  0.82226554  0.25491735  1
  Cu  Cu102  1  -0.00233236  -0.00081518  0.50529901  1
  Cu  Cu103  1  0.00488776  0.33297141  0.49919655  1
  Cu  Cu104  1  0.49511906  0.82746628  0.24854343  1
  Cu  Cu105  1  0.82418467  0.17107872  0.25580518  1
  Cu  Cu106  1  0.66897083  0.33219319  0.50308365  1
  Cu  Cu107  1  0.17122567  0.16255596  0.75876247  1
  Cu  Cu108  1  0.00230153  0.67041731  0.49804658  1
  Cu  Cu109  1  0.66080224  0.67605270  0.50134401  1
  Cu  Cu110  1  0.32963836  0.66989394  0.50346125  1
  Cu  Cu111  1  0.16441221  0.51022014  0.24786135  1
  Cu  Cu112  1  0.66456620  0.33226949  -0.00192291  1
  Cu  Cu113  1  0.50200919  0.50188469  0.75833149  1
  Cu  Cu114  1  0.82707622  0.50146670  0.75409822  1
  Se  Se115  1  0.08617673  0.09400798  0.04427567  1
  Se  Se116  1  0.08034993  0.07515484  0.56794013  1
  Se  Se117  1  0.08711101  0.41912483  0.04857666  1
  Se  Se118  1  0.08745763  0.41729256  0.54983651  1
  Se  Se119  1  0.09687905  0.75637380  0.05355849  1
  Se  Se120  1  0.08526023  0.75117744  0.55402120  1
  Se  Se121  1  0.41945826  0.08653928  0.04765224  1
  Se  Se122  1  0.41737149  0.08198869  0.55568043  1
  Se  Se123  1  0.41692926  0.41557908  0.04934802  1
  Se  Se124  1  0.40616202  0.41133795  0.56872483  1
  Se  Se125  1  0.42204742  0.75422516  0.05367805  1
  Se  Se126  1  0.41694507  0.75227809  0.55345211  1
  Se  Se127  1  0.73493053  0.07263377  0.05572293  1
  Se  Se128  1  0.75166156  0.08769432  0.55626086  1
  Se  Se129  1  0.74656054  0.41795313  0.05066866  1
  Se  Se130  1  0.74231289  0.42078430  0.56234090  1
  Se  Se131  1  0.74753736  0.74419362  0.05944737  1
  Se  Se132  1  0.74780444  0.75426452  0.55524532  1
  Se  Se133  1  0.25002256  0.25194058  0.04844998  1
  Se  Se134  1  0.25520074  0.24990938  0.56188268  1
  Se  Se135  1  0.25472240  0.58780798  0.05279130  1
  Se  Se136  1  0.24719490  0.58239012  0.55282825  1
  Se  Se137  1  0.25760036  0.91552223  0.04763838  1
  Se  Se138  1  0.24865481  0.91281298  0.55699496  1
  Se  Se139  1  0.58328098  0.24730027  0.05201527  1
  Se  Se140  1  0.58326240  0.25077347  0.55515827  1
  Se  Se141  1  0.57866846  0.58284674  0.05312883  1
  Se  Se142  1  0.58354338  0.59160674  0.56069380  1
  Se  Se143  1  0.58670436  0.91463271  0.04417639  1
  Se  Se144  1  0.58219195  0.91594224  0.55641190  1
  Se  Se145  1  0.91659333  0.25804134  0.06497195  1
  Se  Se146  1  0.91754148  0.25086899  0.54821380  1
  Se  Se147  1  0.90457145  0.58147290  0.04831961  1
  Se  Se148  1  0.91988044  0.59482933  0.56161405  1
  Se  Se149  1  0.92400311  0.92346349  0.05765208  1
  Se  Se150  1  0.91256405  0.91335443  0.55403485  1
  Se  Se151  1  0.08385581  0.25311613  0.43619451  1
  Se  Se152  1  0.08020743  0.25446650  0.94643010  1
  Se  Se153  1  0.08536785  0.58425249  0.44685407  1
  Se  Se154  1  0.08943629  0.58931415  0.95086866  1
  Se  Se155  1  0.08358073  0.91649586  0.45276987  1
  Se  Se156  1  0.08034742  0.92380921  0.95171337  1
  Se  Se157  1  0.41918223  0.25959975  0.45488917  1
  Se  Se158  1  0.41994447  0.24850782  0.94587006  1
  Se  Se159  1  0.41203828  0.59140126  0.44129266  1
  Se  Se160  1  0.41961338  0.58475106  0.94765769  1
  Se  Se161  1  0.41972188  0.91443172  0.44963319  1
  Se  Se162  1  0.41793416  0.91424492  0.93998731  1
  Se  Se163  1  0.75271628  0.25035640  0.44866305  1
  Se  Se164  1  0.74143531  0.25037704  0.93569612  1
  Se  Se165  1  0.73883289  0.59028564  0.44242750  1
  Se  Se166  1  0.74961660  0.58256287  0.94708091  1
  Se  Se167  1  0.74568697  0.91823575  0.45115519  1
  Se  Se168  1  0.74187108  0.92083254  0.93743237  1
  Se  Se169  1  0.26065591  0.07132604  0.43734524  1
  Se  Se170  1  0.25122728  0.08885163  0.94599068  1
  Se  Se171  1  0.25857024  0.41230022  0.45235737  1
  Se  Se172  1  0.25069021  0.42389387  0.94558963  1
  Se  Se173  1  0.24694415  0.75257582  0.44679840  1
  Se  Se174  1  0.25447796  0.75254185  0.94194333  1
  Se  Se175  1  0.58217075  0.08707374  0.45033034  1
  Se  Se176  1  0.57651069  0.09001692  0.94263829  1
  Se  Se177  1  0.59395489  0.41759755  0.44219659  1
  Se  Se178  1  0.58102875  0.41763480  0.94625072  1
  Se  Se179  1  0.57571255  0.75418877  0.44553448  1
  Se  Se180  1  0.58538405  0.75238602  0.94524246  1
  Se  Se181  1  0.91721402  0.08611420  0.45323212  1
  Se  Se182  1  0.91829140  0.07313141  0.94364947  1
  Se  Se183  1  0.92736656  0.41302883  0.43574336  1
  Se  Se184  1  0.91340722  0.41830826  0.95089566  1
  Se  Se185  1  0.91064411  0.74712033  0.44560788  1
  Se  Se186  1  0.92719675  0.73591638  0.94302153  1
  Se  Se187  1  0.24909138  0.23750248  0.30560108  1
  Se  Se188  1  0.24972679  0.24792386  0.81527544  1
  Se  Se189  1  0.25023910  0.58671109  0.30438425  1
  Se  Se190  1  0.25593766  0.59418607  0.79761060  1
  Se  Se191  1  0.24320351  0.90749553  0.31037769  1
  Se  Se192  1  0.24952658  0.91920350  0.80138369  1
  Se  Se193  1  0.58790093  0.25443430  0.30498987  1
  Se  Se194  1  0.58432456  0.25245509  0.79829411  1
  Se  Se195  1  0.58488098  0.58648658  0.29833101  1
  Se  Se196  1  0.58705007  0.58725449  0.80816337  1
  Se  Se197  1  0.57458030  0.91097409  0.30812846  1
  Se  Se198  1  0.58528571  0.91464319  0.80270411  1
  Se  Se199  1  0.91372722  0.24321915  0.31335394  1
  Se  Se200  1  0.90262374  0.23940505  0.80812235  1
  Se  Se201  1  0.91585052  0.58383662  0.29814854  1
  Se  Se202  1  0.91243405  0.57253885  0.81529966  1
  Se  Se203  1  0.90885565  0.90912291  0.31285601  1
  Se  Se204  1  0.91382028  0.90350735  0.81137443  1
  Se  Se205  1  0.09007731  0.08531267  0.29792176  1
  Se  Se206  1  0.08701983  0.08427814  0.81532893  1
  Se  Se207  1  0.09122008  0.41995867  0.30582315  1
  Se  Se208  1  0.09062026  0.43238553  0.80852878  1
  Se  Se209  1  0.07772712  0.74695619  0.30697042  1
  Se  Se210  1  0.09417459  0.75656133  0.80963042  1
  Se  Se211  1  0.42387167  0.08920741  0.30782613  1
  Se  Se212  1  0.41829123  0.07629540  0.80083628  1
  Se  Se213  1  0.42863480  0.43008623  0.31358329  1
  Se  Se214  1  0.41946727  0.42366307  0.81805874  1
  Se  Se215  1  0.41169900  0.74606009  0.30299004  1
  Se  Se216  1  0.41961026  0.74774528  0.80388687  1
  Se  Se217  1  0.75051635  0.08194561  0.31231421  1
  Se  Se218  1  0.74493994  0.07537924  0.79628673  1
  Se  Se219  1  0.75257221  0.41750525  0.29707709  1
  Se  Se220  1  0.74582234  0.41455972  0.80558696  1
  Se  Se221  1  0.74236302  0.74552214  0.30695219  1
  Se  Se222  1  0.75712337  0.75031693  0.79871243  1
  Se  Se223  1  0.24215538  0.07943823  0.17959077  1
  Se  Se224  1  0.25494762  0.07886006  0.70736863  1
  Se  Se225  1  0.24751292  0.42682834  0.19148056  1
  Se  Se226  1  0.23911122  0.42268689  0.69562892  1
  Se  Se227  1  0.25567757  0.74673293  0.19871548  1
  Se  Se228  1  0.26341538  0.73173403  0.69717211  1
  Se  Se229  1  0.57441264  0.08805716  0.18728750  1
  Se  Se230  1  0.58495803  0.07829346  0.69471662  1
  Se  Se231  1  0.58452821  0.41565051  0.19305666  1
  Se  Se232  1  0.58227509  0.41487374  0.70532968  1
  Se  Se233  1  0.58245105  0.74715935  0.19628818  1
  Se  Se234  1  0.58374262  0.74901531  0.69653491  1
  Se  Se235  1  0.90265649  0.09310522  0.19313721  1
  Se  Se236  1  0.91047786  0.08680649  0.68785118  1
  Se  Se237  1  0.91784101  0.43375739  0.17818550  1
  Se  Se238  1  0.90743854  0.42268325  0.69210166  1
  Se  Se239  1  0.91962416  0.74769790  0.19811694  1
  Se  Se240  1  0.91256436  0.75516802  0.69401573  1
  Se  Se241  1  0.08735810  0.25079212  0.18807354  1
  Se  Se242  1  0.09100617  0.24292599  0.69912111  1
  Se  Se243  1  0.08190588  0.58995920  0.19208857  1
  Se  Se244  1  0.08583749  0.57733024  0.68978382  1
  Se  Se245  1  0.09325197  0.90572036  0.18703724  1
  Se  Se246  1  0.08983715  0.90380297  0.69525728  1
  Se  Se247  1  0.42070788  0.24621151  0.18965702  1
  Se  Se248  1  0.42220838  0.24177161  0.69049973  1
  Se  Se249  1  0.41349194  0.58638102  0.19532961  1
  Se  Se250  1  0.41939731  0.58105340  0.70138479  1
  Se  Se251  1  0.42274636  0.91217371  0.18739967  1
  Se  Se252  1  0.41374933  0.91369883  0.69481358  1
  Se  Se253  1  0.74412184  0.25398961  0.20106953  1
  Se  Se254  1  0.74505143  0.25505259  0.69370719  1
  Se  Se255  1  0.74445258  0.58596603  0.19267605  1
  Se  Se256  1  0.74463354  0.58614721  0.70216678  1
  Se  Se257  1  0.75708776  0.90031810  0.18949908  1
  Se  Se258  1  0.74877052  0.91383355  0.70044399  1
