# generated using pymatgen
data_In86Cu29Se144
_symmetry_space_group_name_H-M   'P 1'
_cell_length_a   17.58093109
_cell_length_b   17.57639955
_cell_length_c   23.44058022
_cell_angle_alpha   89.97854215
_cell_angle_beta   89.98709814
_cell_angle_gamma   90.00664319
_symmetry_Int_Tables_number   1
_chemical_formula_structural   In86Cu29Se144
_chemical_formula_sum   'In86 Cu29 Se144'
_cell_volume   7243.36051138
_cell_formula_units_Z   1
loop_
 _symmetry_equiv_pos_site_id
 _symmetry_equiv_pos_as_xyz
  1  'x, y, z'
loop_
 _atom_site_type_symbol
 _atom_site_label
 _atom_site_symmetry_multiplicity
 _atom_site_fract_x
 _atom_site_fract_y
 _atom_site_fract_z
 _atom_site_occupancy
  In  In0  1  0.00797065  0.19178727  0.12979025  1
  In  In1  1  0.02577298  0.19258097  0.59785126  1
  In  In2  1  0.00024388  0.50021175  0.11805455  1
  In  In3  1  0.00974496  0.49208278  0.62951368  1
  In  In4  1  -0.00282898  0.80068166  0.12095216  1
  In  In5  1  -0.01066874  0.82684664  0.62399044  1
  In  In6  1  0.33467593  0.15751081  0.12540750  1
  In  In7  1  0.33445076  0.17152226  0.62925235  1
  In  In8  1  0.34269127  0.51440670  0.09650206  1
  In  In9  1  0.33101977  0.49816451  0.62855774  1
  In  In10  1  0.30088136  0.79666911  0.08363501  1
  In  In11  1  0.33620249  0.82837087  0.63909420  1
  In  In12  1  0.67057209  0.17466330  0.12674615  1
  In  In13  1  0.66794085  0.17025081  0.61675065  1
  In  In14  1  0.66313525  0.49027192  0.12085382  1
  In  In15  1  0.66476798  0.51716648  0.62719155  1
  In  In16  1  0.65412718  0.83622792  0.11973903  1
  In  In17  1  0.66914554  0.82279551  0.62993475  1
  In  In18  1  0.17661573  0.00543612  0.37455172  1
  In  In19  1  0.16907427  -0.01606601  0.87473333  1
  In  In20  1  0.14687392  0.35572408  0.39676716  1
  In  In21  1  0.18499679  0.35641766  0.86419414  1
  In  In22  1  0.15067126  0.64885233  0.36214257  1
  In  In23  1  0.17085747  0.66128669  0.88054614  1
  In  In24  1  0.50944594  0.00511962  0.37411682  1
  In  In25  1  0.49095808  0.01698864  0.88635911  1
  In  In26  1  0.50478429  0.33412588  0.38003583  1
  In  In27  1  0.46446590  0.36003925  0.90596359  1
  In  In28  1  0.48266139  0.66628715  0.36964860  1
  In  In29  1  0.49372676  0.66340816  0.87892586  1
  In  In30  1  0.83470037  -0.00560008  0.38289728  1
  In  In31  1  0.82750612  0.00045094  0.87283384  1
  In  In32  1  0.82642393  0.34255960  0.36621589  1
  In  In33  1  0.85106459  0.33822201  0.86681688  1
  In  In34  1  0.87474718  0.65358952  0.38798105  1
  In  In35  1  0.82609665  0.65812793  0.87304693  1
  In  In36  1  -0.01968120  0.19165595  0.39763480  1
  In  In37  1  -0.00581698  0.17604720  0.86944370  1
  In  In38  1  0.00271726  0.50401452  0.36846403  1
  In  In39  1  0.00553732  0.50641683  0.87866052  1
  In  In40  1  0.00259820  0.80818926  0.37752925  1
  In  In41  1  0.01816037  0.81954469  0.88527341  1
  In  In42  1  0.32764913  0.17837564  0.38799992  1
  In  In43  1  0.34209756  0.18130497  0.86437858  1
  In  In44  1  0.32475156  0.50414708  0.38091432  1
  In  In45  1  0.32754455  0.50531884  0.88251194  1
  In  In46  1  0.33930275  0.82515640  0.36972657  1
  In  In47  1  0.33006570  0.82901084  0.87522356  1
  In  In48  1  0.65792129  0.17686241  0.37938985  1
  In  In49  1  0.65160910  0.16285536  0.87249732  1
  In  In50  1  0.67479022  0.48729113  0.37194972  1
  In  In51  1  0.65289683  0.50946801  0.88189721  1
  In  In52  1  0.66433112  0.84293915  0.37220418  1
  In  In53  1  0.67055908  0.82083617  0.87786654  1
  In  In54  1  0.17835938  0.00125717  0.12485868  1
  In  In55  1  0.17078206  0.00933836  0.62897876  1
  In  In56  1  0.15757333  0.34035757  0.12762479  1
  In  In57  1  0.16881050  0.33883010  0.62539036  1
  In  In58  1  0.16093352  0.65645499  0.11327791  1
  In  In59  1  0.16857770  0.66075783  0.62997586  1
  In  In60  1  0.49328853  -0.01383506  0.11047118  1
  In  In61  1  0.49145367  0.00563489  0.63381741  1
  In  In62  1  0.50574543  0.34548100  0.11194243  1
  In  In63  1  0.49450974  0.32760037  0.62121931  1
  In  In64  1  0.48706430  0.65841474  0.10958213  1
  In  In65  1  0.50012589  0.66160991  0.63191073  1
  In  In66  1  0.82616043  -0.00114385  0.13012477  1
  In  In67  1  0.83575889  0.00571272  0.61811934  1
  In  In68  1  0.82368753  0.34654286  0.14176514  1
  In  In69  1  0.85843029  0.33563087  0.61800574  1
  In  In70  1  0.85104633  0.65518965  0.12945489  1
  In  In71  1  0.82951670  0.66800525  0.63160123  1
  In  In72  1  0.16630468  0.83131352  0.50388848  1
  In  In73  1  0.66227236  0.33805809  0.75011248  1
  In  In74  1  0.50223788  0.83850331  0.50243268  1
  In  In75  1  0.00468094  0.00135486  0.24612214  1
  In  In76  1  0.00248481  -0.00446259  0.74742032  1
  In  In77  1  0.82698665  0.16950025  0.00220481  1
  In  In78  1  0.34020468  -0.00388808  0.24991003  1
  In  In79  1  0.66276921  0.00134250  0.24641413  1
  In  In80  1  0.16735843  0.17123425  0.00073498  1
  In  In81  1  0.32771052  0.34066989  0.24718004  1
  In  In82  1  0.83248942  0.49901698  0.50168732  1
  In  In83  1  0.83066241  0.82424554  -0.00290989  1
  In  In84  1  0.67226567  0.66203980  0.25059037  1
  In  In85  1  0.66379377  -0.00430828  0.75281696  1
  Cu  Cu86  1  0.33547617  0.00410799  -0.00585097  1
  Cu  Cu87  1  0.67411627  0.32604131  0.00201657  1
  Cu  Cu88  1  -0.00554423  -0.00146333  0.00525149  1
  Cu  Cu89  1  0.48211292  0.82225678  0.23722490  1
  Cu  Cu90  1  0.33904894  0.00987509  0.50663974  1
  Cu  Cu91  1  0.83842964  0.81932655  0.25704466  1
  Cu  Cu92  1  0.32891947  0.66091596  0.50036385  1
  Cu  Cu93  1  0.50184885  0.17437407  0.25106670  1
  Cu  Cu94  1  0.49976606  0.82838942  0.75724883  1
  Cu  Cu95  1  0.49227452  0.17750264  0.75408772  1
  Cu  Cu96  1  0.16959957  0.82094447  0.75582747  1
  Cu  Cu97  1  0.83615960  0.17443981  0.25850983  1
  Cu  Cu98  1  0.48916463  0.50101827  0.75858690  1
  Cu  Cu99  1  0.84092607  0.82752703  0.75417749  1
  Cu  Cu100  1  0.84223690  0.17202480  0.74054314  1
  Cu  Cu101  1  0.66708119  0.67099620  0.50290563  1
  Cu  Cu102  1  0.16001436  0.17674076  0.26282484  1
  Cu  Cu103  1  0.00090019  -0.00578323  0.50262000  1
  Cu  Cu104  1  0.66582973  0.33586935  0.49783329  1
  Cu  Cu105  1  0.16959516  0.50685712  0.24722966  1
  Cu  Cu106  1  0.33692249  0.33645996  0.50585065  1
  Cu  Cu107  1  0.00219806  0.34322663  -0.00354452  1
  Cu  Cu108  1  0.66746088  0.65920625  0.00008149  1
  Cu  Cu109  1  0.49467682  0.50112476  0.23834009  1
  Cu  Cu110  1  0.83764676  0.50440065  0.75057252  1
  Cu  Cu111  1  0.16986039  0.81902019  0.23668782  1
  Cu  Cu112  1  0.16643799  0.50094985  0.75295105  1
  Cu  Cu113  1  0.16731355  0.16757535  0.74468662  1
  Cu  Cu114  1  0.66745722  0.00492479  0.49815401  1
  Se  Se115  1  0.07298764  0.08320551  0.06408208  1
  Se  Se116  1  0.09048089  0.07471754  0.55122158  1
  Se  Se117  1  0.09051237  0.42039318  0.04953726  1
  Se  Se118  1  0.06973319  0.40045877  0.55591408  1
  Se  Se119  1  0.09734526  0.76286305  0.04872750  1
  Se  Se120  1  0.07551456  0.73852402  0.55824153  1
  Se  Se121  1  0.41584227  0.08516236  0.05143854  1
  Se  Se122  1  0.42310486  0.09032078  0.55983550  1
  Se  Se123  1  0.40927277  0.40486612  0.04246516  1
  Se  Se124  1  0.41907784  0.42252213  0.55753576  1
  Se  Se125  1  0.43712687  0.77062855  0.04971540  1
  Se  Se126  1  0.40896704  0.74688586  0.55815411  1
  Se  Se127  1  0.73902394  0.07193018  0.05792805  1
  Se  Se128  1  0.75233334  0.08791794  0.55053795  1
  Se  Se129  1  0.75576015  0.40980728  0.05624603  1
  Se  Se130  1  0.74134427  0.41125347  0.56559311  1
  Se  Se131  1  0.74457631  0.73688968  0.06529338  1
  Se  Se132  1  0.75202289  0.75027546  0.55670485  1
  Se  Se133  1  0.25546590  0.25605805  0.06466558  1
  Se  Se134  1  0.25351167  0.25222233  0.55817010  1
  Se  Se135  1  0.24480245  0.58752827  0.03649290  1
  Se  Se136  1  0.24772160  0.58075570  0.55735462  1
  Se  Se137  1  0.24621152  0.92619078  0.04601642  1
  Se  Se138  1  0.26335080  0.91927797  0.56241714  1
  Se  Se139  1  0.58648543  0.24647120  0.05389415  1
  Se  Se140  1  0.58243201  0.25234626  0.55151181  1
  Se  Se141  1  0.58298290  0.57512150  0.05238706  1
  Se  Se142  1  0.58041140  0.59017412  0.55420959  1
  Se  Se143  1  0.58917604  0.91858078  0.04508849  1
  Se  Se144  1  0.59151690  0.92708214  0.56541812  1
  Se  Se145  1  0.92086245  0.26056513  0.05526083  1
  Se  Se146  1  0.90668756  0.23893672  0.54436074  1
  Se  Se147  1  0.91987812  0.58588265  0.04944471  1
  Se  Se148  1  0.91949796  0.58448163  0.56548183  1
  Se  Se149  1  0.91656189  0.91574199  0.06410785  1
  Se  Se150  1  0.91477684  0.91373247  0.55431912  1
  Se  Se151  1  0.10504595  0.23106422  0.44550624  1
  Se  Se152  1  0.08039034  0.25912555  0.93717279  1
  Se  Se153  1  0.07456424  0.58816558  0.44255958  1
  Se  Se154  1  0.10488274  0.56457908  0.94958830  1
  Se  Se155  1  0.07989666  0.91913925  0.43653470  1
  Se  Se156  1  0.08068680  0.92114178  0.95041755  1
  Se  Se157  1  0.42110342  0.25469788  0.45059733  1
  Se  Se158  1  0.42442458  0.23011556  0.94749616  1
  Se  Se159  1  0.41789065  0.58338388  0.44654998  1
  Se  Se160  1  0.42300753  0.57524040  0.95005809  1
  Se  Se161  1  0.40863075  0.92657236  0.43994971  1
  Se  Se162  1  0.41461139  0.91514988  0.94268830  1
  Se  Se163  1  0.75026352  0.25899536  0.44002740  1
  Se  Se164  1  0.74835401  0.25604835  0.93088326  1
  Se  Se165  1  0.74616784  0.59194383  0.43855130  1
  Se  Se166  1  0.75233195  0.57675033  0.94792212  1
  Se  Se167  1  0.74461275  0.91380601  0.44773348  1
  Se  Se168  1  0.74293509  0.92380084  0.94394460  1
  Se  Se169  1  0.25015131  0.08306351  0.45034361  1
  Se  Se170  1  0.25235867  0.08358563  0.93447262  1
  Se  Se171  1  0.25233236  0.42198415  0.45520286  1
  Se  Se172  1  0.25443128  0.40964532  0.95028397  1
  Se  Se173  1  0.25286361  0.74412873  0.43900638  1
  Se  Se174  1  0.23984286  0.76047532  0.94652234  1
  Se  Se175  1  0.58054582  0.08681996  0.44763880  1
  Se  Se176  1  0.59456432  0.07882103  0.94957267  1
  Se  Se177  1  0.58570226  0.42380633  0.44614354  1
  Se  Se178  1  0.59083300  0.40928400  0.94896591  1
  Se  Se179  1  0.58459430  0.74555473  0.43856360  1
  Se  Se180  1  0.58573289  0.74322172  0.94648295  1
  Se  Se181  1  0.91611558  0.07824253  0.45051845  1
  Se  Se182  1  0.92209547  0.07861973  0.94188264  1
  Se  Se183  1  0.92102356  0.41247284  0.43935222  1
  Se  Se184  1  0.91391500  0.42205200  0.94381343  1
  Se  Se185  1  0.90643391  0.76499372  0.45370326  1
  Se  Se186  1  0.92410245  0.73321369  0.94436366  1
  Se  Se187  1  0.24311660  0.26022652  0.31779518  1
  Se  Se188  1  0.24702356  0.25347005  0.79931942  1
  Se  Se189  1  0.25706964  0.58412117  0.30208878  1
  Se  Se190  1  0.25137411  0.58281449  0.80619657  1
  Se  Se191  1  0.23952926  0.90290544  0.30268296  1
  Se  Se192  1  0.25158076  0.91296955  0.80090200  1
  Se  Se193  1  0.58388647  0.25680040  0.30423149  1
  Se  Se194  1  0.57005835  0.25896651  0.81419019  1
  Se  Se195  1  0.57290106  0.57564900  0.30659098  1
  Se  Se196  1  0.57825440  0.58476100  0.80547503  1
  Se  Se197  1  0.56337796  0.90412550  0.29803645  1
  Se  Se198  1  0.57695552  0.91124290  0.81729743  1
  Se  Se199  1  0.92308282  0.25600693  0.30834612  1
  Se  Se200  1  0.92584402  0.25634411  0.79271296  1
  Se  Se201  1  0.90772424  0.57453201  0.30125469  1
  Se  Se202  1  0.92057726  0.58541893  0.80701983  1
  Se  Se203  1  0.91694993  0.91041987  0.30967841  1
  Se  Se204  1  0.91818763  0.90775226  0.81559055  1
  Se  Se205  1  0.07915863  0.09003116  0.31667884  1
  Se  Se206  1  0.09101497  0.08788257  0.80958397  1
  Se  Se207  1  0.09396291  0.42096727  0.30563381  1
  Se  Se208  1  0.07783319  0.41865282  0.80441276  1
  Se  Se209  1  0.08226384  0.74704950  0.29610303  1
  Se  Se210  1  0.08399191  0.73997733  0.80769272  1
  Se  Se211  1  0.41998936  0.09602149  0.31143013  1
  Se  Se212  1  0.41753023  0.08106020  0.80296568  1
  Se  Se213  1  0.42140140  0.42462862  0.30881040  1
  Se  Se214  1  0.40976507  0.41583197  0.81288691  1
  Se  Se215  1  0.40322087  0.73947298  0.29355368  1
  Se  Se216  1  0.41341707  0.74520260  0.80676291  1
  Se  Se217  1  0.75448308  0.08482507  0.31156700  1
  Se  Se218  1  0.75976065  0.09662649  0.80177756  1
  Se  Se219  1  0.74556056  0.41716761  0.29324775  1
  Se  Se220  1  0.75258319  0.42697395  0.81087242  1
  Se  Se221  1  0.75525795  0.74703769  0.31905699  1
  Se  Se222  1  0.74985622  0.74725266  0.80324393  1
  Se  Se223  1  0.24023968  0.09532047  0.20327058  1
  Se  Se224  1  0.25610750  0.08248986  0.69932171  1
  Se  Se225  1  0.25152893  0.43502267  0.18221043  1
  Se  Se226  1  0.24926062  0.41616854  0.69912233  1
  Se  Se227  1  0.25214727  0.74146042  0.17944365  1
  Se  Se228  1  0.25329498  0.73947312  0.70056521  1
  Se  Se229  1  0.56896540  0.08645211  0.18681143  1
  Se  Se230  1  0.58135598  0.09997568  0.69689177  1
  Se  Se231  1  0.57976754  0.41288294  0.19349154  1
  Se  Se232  1  0.57160165  0.42958444  0.69193759  1
  Se  Se233  1  0.57682106  0.74563517  0.18832506  1
  Se  Se234  1  0.58176456  0.74923097  0.69850186  1
  Se  Se235  1  0.90978538  0.09758565  0.19083744  1
  Se  Se236  1  0.92334977  0.08947168  0.68448653  1
  Se  Se237  1  0.94434218  0.39730315  0.18793092  1
  Se  Se238  1  0.91715861  0.41719988  0.69841356  1
  Se  Se239  1  0.92305921  0.73829193  0.20441384  1
  Se  Se240  1  0.92177485  0.74410164  0.70006824  1
  Se  Se241  1  0.08518749  0.26268754  0.20641702  1
  Se  Se242  1  0.08267942  0.24770186  0.68995261  1
  Se  Se243  1  0.08256593  0.58304159  0.19010686  1
  Se  Se244  1  0.08169075  0.58265926  0.69904336  1
  Se  Se245  1  0.08927259  0.90787506  0.18327725  1
  Se  Se246  1  0.09425941  0.90205847  0.68948961  1
  Se  Se247  1  0.41982265  0.24938304  0.18847345  1
  Se  Se248  1  0.41238536  0.26039867  0.69839044  1
  Se  Se249  1  0.40972785  0.57942672  0.18355233  1
  Se  Se250  1  0.41142988  0.58388624  0.69847537  1
  Se  Se251  1  0.40488597  0.90438167  0.17808780  1
  Se  Se252  1  0.42089035  0.91521876  0.70242004  1
  Se  Se253  1  0.74656378  0.24881952  0.20284794  1
  Se  Se254  1  0.75548540  0.25273567  0.68659418  1
  Se  Se255  1  0.75692140  0.56970612  0.19041764  1
  Se  Se256  1  0.74805748  0.58608677  0.70211164  1
  Se  Se257  1  0.75506314  0.89735463  0.19727065  1
  Se  Se258  1  0.76291699  0.91233866  0.69473555  1
