# generated using pymatgen
data_In86Cu29Se144
_symmetry_space_group_name_H-M   'P 1'
_cell_length_a   17.64309142
_cell_length_b   17.63918795
_cell_length_c   23.48937221
_cell_angle_alpha   89.97373799
_cell_angle_beta   90.02090610
_cell_angle_gamma   90.03995736
_symmetry_Int_Tables_number   1
_chemical_formula_structural   In86Cu29Se144
_chemical_formula_sum   'In86 Cu29 Se144'
_cell_volume   7310.11992718
_cell_formula_units_Z   1
loop_
 _symmetry_equiv_pos_site_id
 _symmetry_equiv_pos_as_xyz
  1  'x, y, z'
loop_
 _atom_site_type_symbol
 _atom_site_label
 _atom_site_symmetry_multiplicity
 _atom_site_fract_x
 _atom_site_fract_y
 _atom_site_fract_z
 _atom_site_occupancy
  In  In0  1  0.00100427  0.17690450  0.12071938  1
  In  In1  1  0.01506407  0.19453339  0.60146971  1
  In  In2  1  0.00964291  0.48944139  0.13098517  1
  In  In3  1  0.00135518  0.47651677  0.62073016  1
  In  In4  1  -0.01191197  0.83826070  0.12845250  1
  In  In5  1  -0.00737750  0.84199603  0.62436697  1
  In  In6  1  0.32786715  0.17829380  0.12136661  1
  In  In7  1  0.34138840  0.16713512  0.63083991  1
  In  In8  1  0.32928869  0.51316038  0.12297987  1
  In  In9  1  0.32994979  0.50227378  0.62367060  1
  In  In10  1  0.33183065  0.82931236  0.12302156  1
  In  In11  1  0.34802508  0.82339638  0.63894428  1
  In  In12  1  0.66177390  0.15191563  0.12895852  1
  In  In13  1  0.67017028  0.16031748  0.61758374  1
  In  In14  1  0.66765070  0.49316617  0.12519073  1
  In  In15  1  0.64922739  0.50652644  0.61718618  1
  In  In16  1  0.67094696  0.84401489  0.12237809  1
  In  In17  1  0.66531412  0.84374626  0.60947336  1
  In  In18  1  0.18189823  0.00657828  0.38208009  1
  In  In19  1  0.18082400  0.00449021  0.87046368  1
  In  In20  1  0.16083926  0.33059456  0.38631294  1
  In  In21  1  0.16645900  0.33278701  0.87138771  1
  In  In22  1  0.16469954  0.65746574  0.36848257  1
  In  In23  1  0.16822783  0.65855448  0.87703162  1
  In  In24  1  0.51777006  -0.03000399  0.43875436  1
  In  In25  1  0.50419468  -0.01378167  0.86078817  1
  In  In26  1  0.50413441  0.33124156  0.39075933  1
  In  In27  1  0.49307418  0.32110047  0.85793357  1
  In  In28  1  0.48636652  0.67698453  0.38652643  1
  In  In29  1  0.49896877  0.68280529  0.87332749  1
  In  In30  1  0.81619708  0.00012237  0.38354507  1
  In  In31  1  0.82903239  0.00632988  0.87542284  1
  In  In32  1  0.84058314  0.31845966  0.37992540  1
  In  In33  1  0.82189334  0.31426533  0.86208913  1
  In  In34  1  0.84584240  0.66688500  0.37177184  1
  In  In35  1  0.83866057  0.67006653  0.87983788  1
  In  In36  1  -0.00252109  0.16970197  0.38081325  1
  In  In37  1  -0.00602460  0.17145575  0.87422518  1
  In  In38  1  0.01201415  0.50399162  0.36962069  1
  In  In39  1  0.01159120  0.49617124  0.87877841  1
  In  In40  1  0.00410640  0.81851610  0.37055517  1
  In  In41  1  -0.00934985  0.82972914  0.87997198  1
  In  In42  1  0.33148413  0.15544308  0.39343420  1
  In  In43  1  0.32389038  0.16103146  0.86119837  1
  In  In44  1  0.32472345  0.50103562  0.38186123  1
  In  In45  1  0.32359308  0.48905585  0.86669966  1
  In  In46  1  0.36332027  0.83253187  0.37971014  1
  In  In47  1  0.35299093  0.84627764  0.85658650  1
  In  In48  1  0.66879577  0.13844390  0.40477377  1
  In  In49  1  0.67140587  0.16104562  0.86275298  1
  In  In50  1  0.66655924  0.49300171  0.38165977  1
  In  In51  1  0.67087737  0.48839606  0.87040599  1
  In  In52  1  0.64916868  0.83583319  0.39669428  1
  In  In53  1  0.65889575  0.84494107  0.87988451  1
  In  In54  1  0.15905610  0.00771226  0.11879272  1
  In  In55  1  0.17782876  0.02335167  0.62492642  1
  In  In56  1  0.15304293  0.33034261  0.11419591  1
  In  In57  1  0.16611002  0.33265479  0.62840096  1
  In  In58  1  0.17493356  0.65827145  0.13052858  1
  In  In59  1  0.17981612  0.66822548  0.62643890  1
  In  In60  1  0.51319413  0.00186936  0.12947277  1
  In  In61  1  0.49743371  -0.00314438  0.62243990  1
  In  In62  1  0.49606933  0.33698920  0.12666975  1
  In  In63  1  0.49613350  0.33853802  0.62859710  1
  In  In64  1  0.48635453  0.67436479  0.12933392  1
  In  In65  1  0.49380267  0.66301584  0.61133972  1
  In  In66  1  0.82606704  -0.00626547  0.12150648  1
  In  In67  1  0.82240377  -0.00119083  0.61027886  1
  In  In68  1  0.84257852  0.33783806  0.12321861  1
  In  In69  1  0.84969811  0.31539273  0.62913280  1
  In  In70  1  0.82811800  0.68435120  0.12849112  1
  In  In71  1  0.81840428  0.67304021  0.61609577  1
  In  In72  1  0.16822240  0.83607126  0.50145503  1
  In  In73  1  0.49743462  0.16357107  -0.00784586  1
  In  In74  1  0.66080636  0.67261466  0.74272806  1
  In  In75  1  -0.00105605  -0.00120967  0.24598881  1
  In  In76  1  0.67414655  0.32334072  0.26509076  1
  In  In77  1  0.16651281  0.83565668  -0.00422780  1
  In  In78  1  0.83655486  0.50241257  0.00271801  1
  In  In79  1  0.83823500  0.49703230  0.49967540  1
  In  In80  1  -0.00073189  0.00780174  0.74348887  1
  In  In81  1  0.49782840  0.50443123  0.00066995  1
  In  In82  1  0.66692741  0.66998202  0.25297935  1
  In  In83  1  0.33038502  0.33201661  0.25448757  1
  In  In84  1  0.33984272  -0.00286158  0.25835840  1
  In  In85  1  0.00146031  0.66102373  0.75773289  1
  Cu  Cu86  1  0.32886853  0.66566033  0.50020346  1
  Cu  Cu87  1  0.00725489  0.65930233  0.49461439  1
  Cu  Cu88  1  0.17177773  0.49555018  0.25256949  1
  Cu  Cu89  1  0.33301182  0.67097245  -0.00039224  1
  Cu  Cu90  1  0.33095245  0.33855089  0.51154925  1
  Cu  Cu91  1  0.82863831  0.16357240  0.26009390  1
  Cu  Cu92  1  0.67110063  -0.00168685  0.00069711  1
  Cu  Cu93  1  0.82952367  0.83760810  0.24835407  1
  Cu  Cu94  1  0.82983882  0.48922610  0.74663771  1
  Cu  Cu95  1  0.84555850  0.50313159  0.25066375  1
  Cu  Cu96  1  0.16688658  0.16857789  0.24838932  1
  Cu  Cu97  1  0.17623118  0.82233485  0.25009732  1
  Cu  Cu98  1  0.66053469  0.32138885  -0.01046181  1
  Cu  Cu99  1  -0.00903153  -0.00141580  0.49727491  1
  Cu  Cu100  1  0.33986455  0.00700839  -0.01271291  1
  Cu  Cu101  1  0.66522660  0.33985174  0.50643163  1
  Cu  Cu102  1  -0.00483958  0.33204633  -0.00459030  1
  Cu  Cu103  1  0.50977587  0.16363715  0.74054296  1
  Cu  Cu104  1  0.82706324  0.83512111  0.74321819  1
  Cu  Cu105  1  0.31902426  0.33559465  -0.00589543  1
  Cu  Cu106  1  -0.00447488  0.67381812  0.00439349  1
  Cu  Cu107  1  0.49930102  0.49824437  0.25378314  1
  Cu  Cu108  1  0.83167996  0.15454543  0.74060640  1
  Cu  Cu109  1  -0.00277899  0.01028325  0.00028286  1
  Cu  Cu110  1  0.17369379  0.83635710  0.74814806  1
  Cu  Cu111  1  0.66497725  0.67561708  0.00241981  1
  Cu  Cu112  1  0.50092636  0.16099808  0.26047195  1
  Cu  Cu113  1  0.49768893  0.50812531  0.74345296  1
  Cu  Cu114  1  0.16509917  0.49789777  0.74877663  1
  Se  Se115  1  0.08235072  0.09252413  0.05136030  1
  Se  Se116  1  0.07366657  0.07343366  0.55651399  1
  Se  Se117  1  0.07663002  0.42069028  0.04719973  1
  Se  Se118  1  0.08960800  0.41139816  0.55145412  1
  Se  Se119  1  0.08072383  0.75078584  0.06323118  1
  Se  Se120  1  0.07631608  0.74377007  0.56133762  1
  Se  Se121  1  0.41145232  0.07858391  0.06054225  1
  Se  Se122  1  0.43688257  0.10313527  0.55848831  1
  Se  Se123  1  0.40314147  0.40859462  0.05623578  1
  Se  Se124  1  0.41964287  0.42375520  0.55683721  1
  Se  Se125  1  0.41673330  0.75343355  0.05195216  1
  Se  Se126  1  0.40839477  0.75465349  0.55113860  1
  Se  Se127  1  0.74812203  0.08544782  0.05581328  1
  Se  Se128  1  0.74796034  0.08624233  0.54118900  1
  Se  Se129  1  0.73828741  0.40373707  0.05175179  1
  Se  Se130  1  0.74928762  0.41556128  0.56601067  1
  Se  Se131  1  0.75041645  0.75745698  0.05377554  1
  Se  Se132  1  0.75879664  0.76584809  0.54629284  1
  Se  Se133  1  0.24309231  0.24896033  0.04995822  1
  Se  Se134  1  0.25471223  0.24972052  0.56367055  1
  Se  Se135  1  0.24789909  0.58678394  0.04968718  1
  Se  Se136  1  0.24559185  0.58270646  0.55244806  1
  Se  Se137  1  0.25857282  0.93005173  0.05286893  1
  Se  Se138  1  0.25160867  0.91080796  0.57332288  1
  Se  Se139  1  0.58378410  0.25400782  0.05981652  1
  Se  Se140  1  0.58499744  0.25849338  0.56178983  1
  Se  Se141  1  0.58993830  0.59167998  0.06288234  1
  Se  Se142  1  0.60073906  0.60747626  0.54698373  1
  Se  Se143  1  0.58208392  0.92047488  0.05371839  1
  Se  Se144  1  0.56959034  0.91723759  0.54366736  1
  Se  Se145  1  0.91157946  0.25151204  0.05096466  1
  Se  Se146  1  0.91003551  0.25568082  0.54066520  1
  Se  Se147  1  0.91999611  0.59188617  0.06702725  1
  Se  Se148  1  0.92525928  0.58908242  0.56270943  1
  Se  Se149  1  0.91943681  0.92178459  0.05383489  1
  Se  Se150  1  0.91283189  0.91083357  0.54956158  1
  Se  Se151  1  0.10053135  0.22419963  0.44672204  1
  Se  Se152  1  0.08059434  0.25293808  0.94059923  1
  Se  Se153  1  0.09207392  0.57843149  0.44492411  1
  Se  Se154  1  0.07519018  0.59288292  0.94758586  1
  Se  Se155  1  0.07554296  0.92176999  0.43748783  1
  Se  Se156  1  0.07619332  0.93052487  0.93792996  1
  Se  Se157  1  0.40705356  0.25705111  0.45153233  1
  Se  Se158  1  0.40746246  0.25859371  0.93895158  1
  Se  Se159  1  0.41287406  0.57993130  0.44902096  1
  Se  Se160  1  0.40975802  0.58856113  0.93720621  1
  Se  Se161  1  0.37258698  0.94434358  0.44838088  1
  Se  Se162  1  0.42047410  0.91942508  0.93828399  1
  Se  Se163  1  0.73751304  0.25891718  0.44357557  1
  Se  Se164  1  0.74600081  0.24051737  0.93936999  1
  Se  Se165  1  0.75196923  0.58910342  0.43962469  1
  Se  Se166  1  0.73791818  0.58829199  0.94313055  1
  Se  Se167  1  0.76362976  0.89436005  0.44901632  1
  Se  Se168  1  0.75426063  0.91725628  0.94487813  1
  Se  Se169  1  0.24389806  0.08078200  0.46305291  1
  Se  Se170  1  0.25126836  0.09119623  0.94323033  1
  Se  Se171  1  0.24837021  0.41412861  0.44956740  1
  Se  Se172  1  0.24024795  0.42347707  0.94345599  1
  Se  Se173  1  0.25288726  0.74684668  0.43627355  1
  Se  Se174  1  0.25974928  0.75346270  0.93453786  1
  Se  Se175  1  0.54583158  0.11207350  0.46312162  1
  Se  Se176  1  0.58971381  0.07403847  0.93731910  1
  Se  Se177  1  0.58136451  0.42434054  0.45496565  1
  Se  Se178  1  0.57814493  0.40699303  0.93812104  1
  Se  Se179  1  0.59172352  0.72435068  0.45464846  1
  Se  Se180  1  0.58194658  0.75426015  0.94672799  1
  Se  Se181  1  0.91074627  0.08250945  0.44251967  1
  Se  Se182  1  0.91292892  0.08739466  0.94313761  1
  Se  Se183  1  0.92881279  0.41223837  0.43819065  1
  Se  Se184  1  0.91046305  0.40904794  0.93545524  1
  Se  Se185  1  0.92435169  0.74532694  0.44560248  1
  Se  Se186  1  0.90946774  0.75466746  0.95338525  1
  Se  Se187  1  0.24889344  0.23755847  0.31380540  1
  Se  Se188  1  0.26716111  0.27189885  0.80544843  1
  Se  Se189  1  0.25694969  0.57951327  0.30273204  1
  Se  Se190  1  0.24587138  0.58353630  0.80262787  1
  Se  Se191  1  0.24574775  0.90467366  0.31335657  1
  Se  Se192  1  0.25519057  0.92413536  0.79808091  1
  Se  Se193  1  0.58015526  0.23849617  0.32190968  1
  Se  Se194  1  0.59055693  0.24849738  0.79662631  1
  Se  Se195  1  0.58150822  0.57587394  0.31209761  1
  Se  Se196  1  0.57938624  0.57878856  0.81017006  1
  Se  Se197  1  0.56161520  0.92130665  0.33858460  1
  Se  Se198  1  0.59234096  0.90685592  0.79576096  1
  Se  Se199  1  0.92021898  0.24577568  0.30448869  1
  Se  Se200  1  0.91277779  0.23933055  0.79595632  1
  Se  Se201  1  0.92783607  0.58730120  0.30212020  1
  Se  Se202  1  0.90424377  0.56876306  0.81148542  1
  Se  Se203  1  0.91212512  0.91380945  0.31106721  1
  Se  Se204  1  0.91286159  0.90960266  0.80351521  1
  Se  Se205  1  0.09234592  0.08202139  0.30780476  1
  Se  Se206  1  0.08907837  0.09092736  0.80711996  1
  Se  Se207  1  0.09236459  0.41018552  0.30718880  1
  Se  Se208  1  0.08004345  0.41676723  0.80281634  1
  Se  Se209  1  0.08550506  0.74258088  0.29860503  1
  Se  Se210  1  0.09008945  0.76261527  0.81055778  1
  Se  Se211  1  0.42163329  0.08541112  0.32138285  1
  Se  Se212  1  0.42922108  0.08956134  0.80522236  1
  Se  Se213  1  0.42452802  0.41605201  0.31395213  1
  Se  Se214  1  0.41967771  0.42249980  0.79981672  1
  Se  Se215  1  0.42262238  0.74717528  0.30380872  1
  Se  Se216  1  0.41608534  0.74219463  0.79603931  1
  Se  Se217  1  0.74075089  0.08792359  0.31444471  1
  Se  Se218  1  0.74992163  0.07145429  0.79615468  1
  Se  Se219  1  0.76551518  0.42469129  0.31169058  1
  Se  Se220  1  0.74423356  0.40753582  0.79809875  1
  Se  Se221  1  0.75314483  0.75966542  0.31379220  1
  Se  Se222  1  0.75597481  0.75218133  0.80819910  1
  Se  Se223  1  0.24824003  0.08674883  0.19152839  1
  Se  Se224  1  0.25359267  0.09242271  0.70159830  1
  Se  Se225  1  0.24570587  0.41663512  0.18720964  1
  Se  Se226  1  0.25131484  0.41901641  0.69447483  1
  Se  Se227  1  0.25997067  0.74378103  0.19468490  1
  Se  Se228  1  0.25310176  0.74452835  0.70184577  1
  Se  Se229  1  0.58460343  0.08155745  0.20599881  1
  Se  Se230  1  0.58875248  0.07794527  0.68783431  1
  Se  Se231  1  0.58232971  0.41502372  0.19944587  1
  Se  Se232  1  0.58356995  0.42491977  0.69431273  1
  Se  Se233  1  0.58075842  0.75918015  0.19107286  1
  Se  Se234  1  0.57767366  0.75772933  0.67794829  1
  Se  Se235  1  0.90808461  0.09213328  0.19097998  1
  Se  Se236  1  0.91381473  0.08659663  0.67510917  1
  Se  Se237  1  0.91955937  0.41251778  0.19791500  1
  Se  Se238  1  0.91876845  0.41056605  0.69730927  1
  Se  Se239  1  0.91646129  0.75219877  0.20119831  1
  Se  Se240  1  0.91135534  0.74765392  0.69273971  1
  Se  Se241  1  0.08638105  0.25030335  0.19305374  1
  Se  Se242  1  0.07342673  0.25162101  0.69117744  1
  Se  Se243  1  0.08758545  0.57871369  0.19699562  1
  Se  Se244  1  0.08366129  0.57791891  0.68878132  1
  Se  Se245  1  0.09828203  0.90756795  0.19143272  1
  Se  Se246  1  0.09306216  0.91336692  0.68838536  1
  Se  Se247  1  0.42650148  0.23933023  0.19704480  1
  Se  Se248  1  0.42170047  0.25366614  0.70038365  1
  Se  Se249  1  0.41997712  0.57665253  0.19529184  1
  Se  Se250  1  0.41715633  0.58918994  0.68812557  1
  Se  Se251  1  0.42306467  0.91155322  0.19118036  1
  Se  Se252  1  0.41188103  0.92914659  0.69654377  1
  Se  Se253  1  0.75571701  0.24399680  0.19210350  1
  Se  Se254  1  0.75028297  0.24347629  0.69010481  1
  Se  Se255  1  0.75697482  0.57423907  0.19178736  1
  Se  Se256  1  0.75471255  0.57666675  0.68976029  1
  Se  Se257  1  0.74596283  0.92275712  0.19824392  1
  Se  Se258  1  0.75008080  0.91409988  0.68447179  1
