# generated using pymatgen
data_In86Cu29Se144
_symmetry_space_group_name_H-M   'P 1'
_cell_length_a   17.58614493
_cell_length_b   17.58593315
_cell_length_c   23.44188789
_cell_angle_alpha   90.01622029
_cell_angle_beta   90.03163721
_cell_angle_gamma   89.99922357
_symmetry_Int_Tables_number   1
_chemical_formula_structural   In86Cu29Se144
_chemical_formula_sum   'In86 Cu29 Se144'
_cell_volume   7249.84241922
_cell_formula_units_Z   1
loop_
 _symmetry_equiv_pos_site_id
 _symmetry_equiv_pos_as_xyz
  1  'x, y, z'
loop_
 _atom_site_type_symbol
 _atom_site_label
 _atom_site_symmetry_multiplicity
 _atom_site_fract_x
 _atom_site_fract_y
 _atom_site_fract_z
 _atom_site_occupancy
  In  In0  1  -0.01023456  0.17078729  0.13007593  1
  In  In1  1  0.03441383  0.14097166  0.66260697  1
  In  In2  1  -0.00765866  0.50130244  0.13060171  1
  In  In3  1  0.00909707  0.49155841  0.63203221  1
  In  In4  1  -0.00726283  0.83745665  0.12503493  1
  In  In5  1  0.02442248  0.81370642  0.64960066  1
  In  In6  1  0.33409426  0.16053313  0.11701427  1
  In  In7  1  0.31329222  0.16842997  0.63233941  1
  In  In8  1  0.34330754  0.50876018  0.11896019  1
  In  In9  1  0.32828771  0.51623265  0.62809908  1
  In  In10  1  0.32489332  0.82619971  0.12524096  1
  In  In11  1  0.29420507  0.85658549  0.65947229  1
  In  In12  1  0.68390005  0.18157772  0.11081217  1
  In  In13  1  0.66931983  0.16771868  0.63860215  1
  In  In14  1  0.66942803  0.50089508  0.13046557  1
  In  In15  1  0.67033077  0.49714254  0.63701889  1
  In  In16  1  0.67858679  0.81641596  0.12426386  1
  In  In17  1  0.67082177  0.83010129  0.63948999  1
  In  In18  1  0.15880896  0.00641284  0.38741043  1
  In  In19  1  0.14984587  -0.01195075  0.84334756  1
  In  In20  1  0.16081776  0.33775162  0.38375120  1
  In  In21  1  0.15369641  0.32664939  0.86267589  1
  In  In22  1  0.16339969  0.66463423  0.37602950  1
  In  In23  1  0.17140266  0.67450919  0.86124483  1
  In  In24  1  0.49291481  0.01299036  0.37300111  1
  In  In25  1  0.50964675  0.00702438  0.86648004  1
  In  In26  1  0.51214939  0.34301826  0.36460623  1
  In  In27  1  0.51183632  0.32433700  0.88601273  1
  In  In28  1  0.49202776  0.65714183  0.35815848  1
  In  In29  1  0.49612267  0.65274410  0.87950895  1
  In  In30  1  0.83951937  -0.01575217  0.37274423  1
  In  In31  1  0.83918796  0.00862280  0.88397212  1
  In  In32  1  0.84583000  0.34922646  0.34889581  1
  In  In33  1  0.83513867  0.34248565  0.88462881  1
  In  In34  1  0.83916472  0.66349908  0.35566628  1
  In  In35  1  0.83379314  0.66928049  0.87817130  1
  In  In36  1  0.00511992  0.16791801  0.37287393  1
  In  In37  1  -0.00769015  0.16310942  0.87458976  1
  In  In38  1  0.00702686  0.50656077  0.36446019  1
  In  In39  1  -0.01472068  0.49663096  0.87228588  1
  In  In40  1  0.00856518  0.83781470  0.37228863  1
  In  In41  1  -0.00104014  0.83009737  0.86811427  1
  In  In42  1  0.32634356  0.15667498  0.37570113  1
  In  In43  1  0.33593488  0.16775407  0.86936004  1
  In  In44  1  0.32511892  0.49870897  0.37505046  1
  In  In45  1  0.33596716  0.51384189  0.88305866  1
  In  In46  1  0.32605943  0.82194620  0.37708354  1
  In  In47  1  0.32773211  0.83155141  0.86131008  1
  In  In48  1  0.66084026  0.17920874  0.37202617  1
  In  In49  1  0.66694965  0.16962079  0.88032168  1
  In  In50  1  0.67654343  0.51016233  0.35178208  1
  In  In51  1  0.67086209  0.49984027  0.88188841  1
  In  In52  1  0.67827795  0.82589712  0.37466132  1
  In  In53  1  0.67701576  0.84272329  0.87342620  1
  In  In54  1  0.16197988  -0.01461101  0.12314125  1
  In  In55  1  0.16157335  -0.00299585  0.62658451  1
  In  In56  1  0.15263598  0.32651645  0.12873904  1
  In  In57  1  0.15697150  0.32589544  0.61536978  1
  In  In58  1  0.16661178  0.66112617  0.13330900  1
  In  In59  1  0.16703544  0.66481997  0.62360380  1
  In  In60  1  0.49873760  0.01322563  0.11322659  1
  In  In61  1  0.49904621  -0.00152573  0.63767097  1
  In  In62  1  0.52072405  0.36052437  0.10377491  1
  In  In63  1  0.50906821  0.34250798  0.62887624  1
  In  In64  1  0.50771822  0.65603320  0.13481246  1
  In  In65  1  0.49302948  0.67346574  0.63512597  1
  In  In66  1  0.85596083  0.01334562  0.10249885  1
  In  In67  1  0.84488693  -0.00536278  0.63997512  1
  In  In68  1  0.83952291  0.32770464  0.12396412  1
  In  In69  1  0.84099110  0.32519650  0.63688321  1
  In  In70  1  0.83679345  0.66057197  0.12082414  1
  In  In71  1  0.83404401  0.66628517  0.63437663  1
  In  In72  1  0.48969658  0.82810173  0.50161593  1
  In  In73  1  0.15994448  0.49693498  -0.00019324  1
  In  In74  1  0.83798760  0.50191026  0.49062385  1
  In  In75  1  0.16361336  0.15858804  -0.01260096  1
  In  In76  1  0.33565094  0.33564303  0.24720944  1
  In  In77  1  0.16334350  0.83521950  -0.01572808  1
  In  In78  1  0.50149111  0.82886143  0.00094490  1
  In  In79  1  0.83942258  0.17316672  0.50135189  1
  In  In80  1  0.48750702  0.17421169  0.50014269  1
  In  In81  1  0.33718973  0.33789887  0.75161055  1
  In  In82  1  0.67033366  -0.00678223  0.24670740  1
  In  In83  1  0.49541261  0.49754762  0.49768040  1
  In  In84  1  0.84064283  0.83163856  0.50401102  1
  In  In85  1  0.32916193  -0.00411311  0.24939692  1
  Cu  Cu86  1  0.31862052  0.67361025  0.50381024  1
  Cu  Cu87  1  0.00451775  0.00079721  0.51113000  1
  Cu  Cu88  1  0.66744620  -0.00137199  -0.00816168  1
  Cu  Cu89  1  0.50905382  0.18141979  0.23588724  1
  Cu  Cu90  1  0.66929082  0.33801569  0.00244063  1
  Cu  Cu91  1  0.82779693  0.83807061  0.75952505  1
  Cu  Cu92  1  0.66354488  0.00538562  0.51329345  1
  Cu  Cu93  1  0.33664803  0.00303593  -0.01256168  1
  Cu  Cu94  1  0.16605437  0.49739844  0.25305120  1
  Cu  Cu95  1  0.49911489  0.83375308  0.24677590  1
  Cu  Cu96  1  0.83140493  0.50715174  0.75731307  1
  Cu  Cu97  1  0.50897366  0.82063961  0.75849319  1
  Cu  Cu98  1  0.15989538  0.82520589  0.24907459  1
  Cu  Cu99  1  0.50249968  0.16413247  0.75567284  1
  Cu  Cu100  1  0.83185356  0.15794719  0.24141994  1
  Cu  Cu101  1  0.15728278  0.16153334  0.25246676  1
  Cu  Cu102  1  0.00406324  0.66703410  0.50186601  1
  Cu  Cu103  1  0.16515797  0.50445645  0.75162834  1
  Cu  Cu104  1  0.65826602  0.66280112  0.50031990  1
  Cu  Cu105  1  0.00444200  0.66927435  -0.00290281  1
  Cu  Cu106  1  0.67296826  0.66187164  0.00371652  1
  Cu  Cu107  1  0.83891663  0.83144942  0.24356157  1
  Cu  Cu108  1  0.00552940  0.32817776  0.50183193  1
  Cu  Cu109  1  0.32880290  0.32997640  -0.00618622  1
  Cu  Cu110  1  0.32476165  0.33309082  0.49810160  1
  Cu  Cu111  1  0.67642517  0.33712299  0.50010366  1
  Cu  Cu112  1  0.82142398  0.17737630  0.76440718  1
  Cu  Cu113  1  0.51043113  0.49413187  0.75687709  1
  Cu  Cu114  1  0.32101612  -0.00311248  0.50974239  1
  Se  Se115  1  0.08304267  0.08113771  0.06176006  1
  Se  Se116  1  0.08157110  0.09187477  0.56315294  1
  Se  Se117  1  0.06977418  0.40694069  0.05718204  1
  Se  Se118  1  0.08255681  0.42218693  0.55079428  1
  Se  Se119  1  0.08707251  0.74625288  0.05755633  1
  Se  Se120  1  0.08142305  0.75190446  0.55833514  1
  Se  Se121  1  0.41529755  0.08864580  0.04144986  1
  Se  Se122  1  0.41075577  0.07651846  0.56347502  1
  Se  Se123  1  0.40760367  0.41781917  0.04611213  1
  Se  Se124  1  0.40637406  0.40816825  0.56086276  1
  Se  Se125  1  0.41425978  0.74128197  0.06251248  1
  Se  Se126  1  0.40079538  0.74768924  0.56601105  1
  Se  Se127  1  0.74929532  0.08152085  0.04623240  1
  Se  Se128  1  0.75131485  0.08204919  0.56636420  1
  Se  Se129  1  0.75121275  0.41578828  0.06108822  1
  Se  Se130  1  0.75424970  0.41564225  0.56155519  1
  Se  Se131  1  0.76027150  0.74906009  0.04851730  1
  Se  Se132  1  0.74095183  0.74207645  0.55866656  1
  Se  Se133  1  0.24710578  0.25440925  0.05508788  1
  Se  Se134  1  0.24781701  0.24483602  0.55128858  1
  Se  Se135  1  0.24964854  0.59234538  0.05367869  1
  Se  Se136  1  0.24343547  0.57779056  0.55085112  1
  Se  Se137  1  0.26064912  0.92256241  0.05025202  1
  Se  Se138  1  0.24441615  0.90721598  0.56137328  1
  Se  Se139  1  0.58044731  0.24789007  0.04807505  1
  Se  Se140  1  0.59279344  0.25617610  0.55669556  1
  Se  Se141  1  0.58645514  0.58392720  0.05814353  1
  Se  Se142  1  0.58447661  0.58364233  0.56362237  1
  Se  Se143  1  0.59383049  0.92077759  0.05999362  1
  Se  Se144  1  0.58619240  0.91470471  0.56380496  1
  Se  Se145  1  0.90437568  0.23105257  0.05332382  1
  Se  Se146  1  0.93066690  0.25108134  0.56595186  1
  Se  Se147  1  0.92604536  0.58288569  0.05169889  1
  Se  Se148  1  0.92054279  0.58832407  0.55997952  1
  Se  Se149  1  0.92629373  0.91022092  0.04432806  1
  Se  Se150  1  0.92992789  0.91413733  0.56884789  1
  Se  Se151  1  0.08613576  0.24140346  0.44767225  1
  Se  Se152  1  0.07350406  0.26117912  0.94300325  1
  Se  Se153  1  0.07884549  0.58003138  0.44401157  1
  Se  Se154  1  0.08426513  0.59290672  0.93383359  1
  Se  Se155  1  0.07884501  0.91453505  0.45141565  1
  Se  Se156  1  0.07539099  0.93422365  0.93432403  1
  Se  Se157  1  0.40893238  0.26582881  0.43133783  1
  Se  Se158  1  0.41246879  0.24467290  0.94398502  1
  Se  Se159  1  0.40699249  0.59756696  0.44360349  1
  Se  Se160  1  0.42097949  0.58009850  0.95688982  1
  Se  Se161  1  0.40584355  0.92929170  0.44220362  1
  Se  Se162  1  0.41609972  0.91553248  0.93328886  1
  Se  Se163  1  0.75473319  0.26195207  0.43528818  1
  Se  Se164  1  0.74968670  0.25346997  0.94818311  1
  Se  Se165  1  0.74206172  0.59294967  0.43575846  1
  Se  Se166  1  0.75721936  0.58229730  0.94875731  1
  Se  Se167  1  0.74154866  0.92479994  0.44950253  1
  Se  Se168  1  0.75748174  0.91459915  0.94792711  1
  Se  Se169  1  0.24813993  0.08686366  0.45290300  1
  Se  Se170  1  0.24747232  0.06653879  0.92494167  1
  Se  Se171  1  0.24606588  0.42338715  0.44857622  1
  Se  Se172  1  0.24659351  0.40640188  0.93308034  1
  Se  Se173  1  0.23702177  0.75520763  0.44818517  1
  Se  Se174  1  0.26235755  0.74134568  0.93917415  1
  Se  Se175  1  0.58901568  0.08209080  0.44615915  1
  Se  Se176  1  0.57941072  0.08315017  0.94553240  1
  Se  Se177  1  0.59828514  0.41903076  0.43954219  1
  Se  Se178  1  0.58230003  0.42069414  0.95119875  1
  Se  Se179  1  0.58144865  0.74220500  0.43742203  1
  Se  Se180  1  0.59514555  0.74414465  0.94096914  1
  Se  Se181  1  0.92164334  0.06996068  0.44403701  1
  Se  Se182  1  0.91395571  0.09721521  0.95397757  1
  Se  Se183  1  0.92650867  0.40399811  0.43695624  1
  Se  Se184  1  0.91139857  0.43223461  0.95265294  1
  Se  Se185  1  0.91855675  0.73804077  0.43773713  1
  Se  Se186  1  0.92238657  0.75382511  0.94409110  1
  Se  Se187  1  0.24403284  0.24333236  0.30728365  1
  Se  Se188  1  0.24172992  0.24027998  0.79774466  1
  Se  Se189  1  0.24728237  0.58261365  0.30586852  1
  Se  Se190  1  0.25656861  0.57981543  0.80349484  1
  Se  Se191  1  0.23790034  0.91047423  0.31014258  1
  Se  Se192  1  0.25302666  0.91253190  0.78855181  1
  Se  Se193  1  0.58989426  0.25808221  0.29502843  1
  Se  Se194  1  0.58380074  0.24993483  0.80742010  1
  Se  Se195  1  0.59064385  0.59660117  0.29266545  1
  Se  Se196  1  0.58804945  0.58176362  0.81046665  1
  Se  Se197  1  0.57455790  0.91181726  0.31335469  1
  Se  Se198  1  0.58813316  0.91527664  0.80300554  1
  Se  Se199  1  0.91554017  0.23661800  0.30088996  1
  Se  Se200  1  0.91289126  0.25744227  0.81247905  1
  Se  Se201  1  0.89549001  0.55162415  0.30086756  1
  Se  Se202  1  0.91868578  0.59329558  0.80428565  1
  Se  Se203  1  0.92108502  0.91237504  0.29988206  1
  Se  Se204  1  0.91283185  0.92277903  0.80955090  1
  Se  Se205  1  0.08117608  0.07339731  0.30720998  1
  Se  Se206  1  0.08131570  0.10214886  0.79744064  1
  Se  Se207  1  0.08650570  0.40906358  0.30456714  1
  Se  Se208  1  0.07820277  0.42398137  0.80290256  1
  Se  Se209  1  0.07750381  0.74274760  0.30480482  1
  Se  Se210  1  0.09720426  0.76879657  0.79916171  1
  Se  Se211  1  0.42442786  0.10168255  0.29596214  1
  Se  Se212  1  0.41389446  0.08047688  0.80129779  1
  Se  Se213  1  0.42419589  0.43273549  0.30384795  1
  Se  Se214  1  0.42515033  0.41986464  0.81767711  1
  Se  Se215  1  0.41169066  0.75681900  0.30204499  1
  Se  Se216  1  0.42102978  0.74053275  0.80857962  1
  Se  Se217  1  0.75423784  0.08621861  0.31288722  1
  Se  Se218  1  0.74782057  0.08238309  0.81321335  1
  Se  Se219  1  0.72897144  0.39747132  0.29560238  1
  Se  Se220  1  0.75187447  0.41935506  0.81002386  1
  Se  Se221  1  0.75042725  0.75294361  0.29669897  1
  Se  Se222  1  0.74732102  0.74687486  0.80709930  1
  Se  Se223  1  0.23976635  0.08895912  0.18926042  1
  Se  Se224  1  0.25946782  0.06470517  0.69554613  1
  Se  Se225  1  0.24248600  0.42238688  0.18599742  1
  Se  Se226  1  0.24317552  0.42116922  0.68988707  1
  Se  Se227  1  0.25099617  0.74745511  0.19911503  1
  Se  Se228  1  0.27277246  0.71883228  0.69053843  1
  Se  Se229  1  0.58701780  0.08978331  0.18455481  1
  Se  Se230  1  0.58684414  0.08023030  0.70257373  1
  Se  Se231  1  0.57661023  0.41855530  0.19328985  1
  Se  Se232  1  0.59192792  0.40874101  0.70469985  1
  Se  Se233  1  0.58610070  0.75412454  0.19570239  1
  Se  Se234  1  0.59116485  0.73839144  0.70234661  1
  Se  Se235  1  0.91600736  0.07153265  0.19378934  1
  Se  Se236  1  0.90315628  0.10004404  0.70304645  1
  Se  Se237  1  0.92391055  0.40374394  0.19510734  1
  Se  Se238  1  0.91159148  0.42513787  0.69879445  1
  Se  Se239  1  0.92036773  0.74454890  0.19169846  1
  Se  Se240  1  0.90895133  0.75481223  0.70279850  1
  Se  Se241  1  0.07560216  0.24768809  0.20134142  1
  Se  Se242  1  0.07279122  0.27493245  0.69644044  1
  Se  Se243  1  0.08086314  0.58044540  0.19930106  1
  Se  Se244  1  0.08223430  0.58741811  0.69653800  1
  Se  Se245  1  0.08146791  0.91328455  0.19665733  1
  Se  Se246  1  0.05997863  0.94050586  0.69686452  1
  Se  Se247  1  0.42032092  0.25296616  0.17804190  1
  Se  Se248  1  0.42596800  0.24280795  0.68977489  1
  Se  Se249  1  0.40432395  0.59012055  0.19681026  1
  Se  Se250  1  0.42639693  0.57181030  0.69893939  1
  Se  Se251  1  0.42522749  0.91583885  0.18501961  1
  Se  Se252  1  0.42685527  0.89985536  0.69890026  1
  Se  Se253  1  0.75058537  0.24743007  0.19475982  1
  Se  Se254  1  0.74347526  0.25964892  0.70433755  1
  Se  Se255  1  0.74593342  0.59562046  0.19287618  1
  Se  Se256  1  0.74685740  0.58807824  0.70190033  1
  Se  Se257  1  0.76309950  0.91592120  0.18212649  1
  Se  Se258  1  0.74720894  0.92312553  0.70332775  1
