# generated using pymatgen
data_In86Cu29Se144
_symmetry_space_group_name_H-M   'P 1'
_cell_length_a   17.58677333
_cell_length_b   17.58404519
_cell_length_c   23.44515290
_cell_angle_alpha   90.00654412
_cell_angle_beta   90.01022932
_cell_angle_gamma   89.98532186
_symmetry_Int_Tables_number   1
_chemical_formula_structural   In86Cu29Se144
_chemical_formula_sum   'In86 Cu29 Se144'
_cell_volume   7250.33381628
_cell_formula_units_Z   1
loop_
 _symmetry_equiv_pos_site_id
 _symmetry_equiv_pos_as_xyz
  1  'x, y, z'
loop_
 _atom_site_type_symbol
 _atom_site_label
 _atom_site_symmetry_multiplicity
 _atom_site_fract_x
 _atom_site_fract_y
 _atom_site_fract_z
 _atom_site_occupancy
  In  In0  1  -0.00508220  0.17544600  0.12209755  1
  In  In1  1  0.00613761  0.15165210  0.62292674  1
  In  In2  1  0.01128194  0.51409481  0.12062345  1
  In  In3  1  0.00737388  0.51309932  0.61684487  1
  In  In4  1  -0.01230075  0.82283818  0.11505059  1
  In  In5  1  0.00056359  0.81074826  0.62789214  1
  In  In6  1  0.34696731  0.14956384  0.13220684  1
  In  In7  1  0.33818550  0.16482660  0.62669982  1
  In  In8  1  0.33001908  0.49706426  0.12643759  1
  In  In9  1  0.32280863  0.49903829  0.62809455  1
  In  In10  1  0.34787339  0.85639098  0.10150392  1
  In  In11  1  0.33443434  0.84785080  0.62556360  1
  In  In12  1  0.65873603  0.16687714  0.12605640  1
  In  In13  1  0.65507901  0.16719221  0.62458841  1
  In  In14  1  0.65636485  0.48667953  0.12027579  1
  In  In15  1  0.66872506  0.49095738  0.61671761  1
  In  In16  1  0.67481281  0.84358271  0.12079193  1
  In  In17  1  0.68274074  0.84172345  0.63133742  1
  In  In18  1  0.18018264  -0.00389296  0.37607968  1
  In  In19  1  0.16964337  -0.01551265  0.87956923  1
  In  In20  1  0.17610125  0.32581376  0.38179638  1
  In  In21  1  0.18222922  0.32974721  0.87567703  1
  In  In22  1  0.15589843  0.67622058  0.38687546  1
  In  In23  1  0.15240077  0.67474112  0.87733936  1
  In  In24  1  0.51052282  0.00789794  0.36580179  1
  In  In25  1  0.49415141  0.00000852  0.88027999  1
  In  In26  1  0.48365302  0.32709707  0.36062121  1
  In  In27  1  0.49458842  0.33505665  0.88352030  1
  In  In28  1  0.51163255  0.66835185  0.37355184  1
  In  In29  1  0.50043681  0.66331796  0.89176561  1
  In  In30  1  0.82641381  0.00486353  0.36720714  1
  In  In31  1  0.83136528  0.00113551  0.88794342  1
  In  In32  1  0.83714924  0.34502361  0.36842808  1
  In  In33  1  0.82759705  0.33314419  0.88305889  1
  In  In34  1  0.83345624  0.65160746  0.37352287  1
  In  In35  1  0.83743244  0.66402937  0.87856032  1
  In  In36  1  0.00435182  0.17847734  0.37634131  1
  In  In37  1  -0.00388844  0.14781604  0.88464678  1
  In  In38  1  -0.00485232  0.51058694  0.38297486  1
  In  In39  1  -0.01128430  0.51049100  0.87853874  1
  In  In40  1  0.00931756  0.83395620  0.37053842  1
  In  In41  1  0.00726515  0.82815961  0.88050958  1
  In  In42  1  0.33868196  0.16780272  0.37390920  1
  In  In43  1  0.34170388  0.17495156  0.87169244  1
  In  In44  1  0.33116543  0.48415074  0.37300058  1
  In  In45  1  0.33630148  0.48954691  0.88290158  1
  In  In46  1  0.32168288  0.83069193  0.37065638  1
  In  In47  1  0.32854932  0.84082841  0.88638423  1
  In  In48  1  0.65320247  0.15996038  0.36794110  1
  In  In49  1  0.66962576  0.15500443  0.88602774  1
  In  In50  1  0.68109967  0.50149473  0.36663401  1
  In  In51  1  0.66732011  0.49927033  0.88549220  1
  In  In52  1  0.66124206  0.83414233  0.36817353  1
  In  In53  1  0.65586448  0.84033338  0.88552494  1
  In  In54  1  0.18119542  -0.00095910  0.11949894  1
  In  In55  1  0.17616398  0.00744055  0.61817166  1
  In  In56  1  0.16725066  0.34826185  0.12607481  1
  In  In57  1  0.17823469  0.33907629  0.62187858  1
  In  In58  1  0.16092821  0.66634280  0.12622344  1
  In  In59  1  0.15370902  0.65744207  0.61218996  1
  In  In60  1  0.49632576  0.00589436  0.12164187  1
  In  In61  1  0.49035571  0.00494091  0.63443295  1
  In  In62  1  0.50051947  0.33431950  0.12943769  1
  In  In63  1  0.50656700  0.31619890  0.62424093  1
  In  In64  1  0.49536140  0.66206789  0.11538246  1
  In  In65  1  0.49837626  0.65406245  0.62762913  1
  In  In66  1  0.81662331  -0.02020233  0.11136232  1
  In  In67  1  0.83092231  -0.01975941  0.63423357  1
  In  In68  1  0.82010626  0.32400741  0.11705044  1
  In  In69  1  0.82085653  0.34063968  0.62198795  1
  In  In70  1  0.84828612  0.67934890  0.12215021  1
  In  In71  1  0.85300182  0.67277247  0.62239662  1
  In  In72  1  0.32157804  0.67986921  0.76208662  1
  In  In73  1  0.00006938  0.33911177  0.24944795  1
  In  In74  1  0.83850801  0.16752961  0.50134155  1
  In  In75  1  0.66349908  0.33275377  0.75068646  1
  In  In76  1  0.83877594  0.82875813  0.50211785  1
  In  In77  1  0.67158523  0.66696703  0.24537460  1
  In  In78  1  0.49772723  0.83804163  0.49569030  1
  In  In79  1  0.32921774  0.66739553  0.24321506  1
  In  In80  1  0.00179026  -0.00829688  0.75885784  1
  In  In81  1  -0.00238780  -0.00150586  0.24334593  1
  In  In82  1  0.50169319  0.49550279  0.49167056  1
  In  In83  1  0.66519726  0.67088371  0.74985605  1
  In  In84  1  0.16820380  0.16905126  -0.00090048  1
  In  In85  1  0.00287979  0.33369016  0.74874489  1
  Cu  Cu86  1  0.66806058  0.33072906  0.49353260  1
  Cu  Cu87  1  0.16545937  0.83348226  0.75105682  1
  Cu  Cu88  1  0.81842184  0.16296120  0.24273956  1
  Cu  Cu89  1  0.49095868  0.49662471  0.75961137  1
  Cu  Cu90  1  0.67542430  0.66549571  0.00642888  1
  Cu  Cu91  1  0.16331213  0.50062228  0.74575806  1
  Cu  Cu92  1  0.33586507  0.00952554  0.50047412  1
  Cu  Cu93  1  0.01297632  -0.00378482  0.49684054  1
  Cu  Cu94  1  0.49731806  0.84056406  0.24154014  1
  Cu  Cu95  1  0.32177126  0.66075369  0.00080604  1
  Cu  Cu96  1  0.50379776  0.84062733  0.75740329  1
  Cu  Cu97  1  0.83838846  0.51052823  0.74965868  1
  Cu  Cu98  1  0.49742175  0.16720088  0.24585489  1
  Cu  Cu99  1  0.17952063  0.16251478  0.74806723  1
  Cu  Cu100  1  0.65710736  0.00503921  0.00341877  1
  Cu  Cu101  1  0.33770911  0.32670790  0.49990639  1
  Cu  Cu102  1  0.00276230  0.66413011  -0.00021677  1
  Cu  Cu103  1  0.32933260  0.66820237  0.49998483  1
  Cu  Cu104  1  -0.00443246  0.34086996  0.00188921  1
  Cu  Cu105  1  0.66336047  0.00331164  0.49964872  1
  Cu  Cu106  1  0.49960725  0.16093306  0.75195890  1
  Cu  Cu107  1  0.33422396  0.33353833  0.00552911  1
  Cu  Cu108  1  0.16795900  0.50250660  0.25120929  1
  Cu  Cu109  1  0.00619068  0.33844760  0.49944002  1
  Cu  Cu110  1  0.17047236  0.83384589  0.24777549  1
  Cu  Cu111  1  0.17646099  0.16636214  0.25368842  1
  Cu  Cu112  1  0.65927819  0.33125321  0.00335460  1
  Cu  Cu113  1  0.83114357  0.16089715  0.76154820  1
  Cu  Cu114  1  0.83601906  0.49981363  0.24441246  1
  Se  Se115  1  0.07859677  0.08189036  0.06048999  1
  Se  Se116  1  0.09060066  0.08638408  0.54789050  1
  Se  Se117  1  0.08398555  0.41997318  0.05272950  1
  Se  Se118  1  0.08852863  0.41821120  0.55697518  1
  Se  Se119  1  0.08570617  0.74903093  0.05247706  1
  Se  Se120  1  0.08359509  0.75508544  0.54904695  1
  Se  Se121  1  0.40951431  0.07952921  0.04980115  1
  Se  Se122  1  0.42382357  0.08496720  0.55579175  1
  Se  Se123  1  0.41737455  0.41765905  0.05887202  1
  Se  Se124  1  0.41661357  0.41088259  0.56134441  1
  Se  Se125  1  0.41234483  0.74408115  0.04765729  1
  Se  Se126  1  0.41309868  0.74333497  0.56058154  1
  Se  Se127  1  0.74433966  0.08613858  0.05618703  1
  Se  Se128  1  0.75039959  0.07434356  0.56199131  1
  Se  Se129  1  0.74819829  0.41721157  0.04950648  1
  Se  Se130  1  0.75103286  0.41669155  0.54343723  1
  Se  Se131  1  0.75618600  0.75453464  0.05528240  1
  Se  Se132  1  0.74248474  0.74320221  0.56027813  1
  Se  Se133  1  0.25415839  0.25330322  0.06618652  1
  Se  Se134  1  0.25442597  0.24663141  0.55690351  1
  Se  Se135  1  0.24404911  0.57953485  0.05992733  1
  Se  Se136  1  0.25269804  0.57932793  0.55300736  1
  Se  Se137  1  0.24179563  0.91651313  0.04062763  1
  Se  Se138  1  0.25474510  0.91916354  0.54964045  1
  Se  Se139  1  0.57546983  0.24848348  0.05639798  1
  Se  Se140  1  0.58643283  0.24699854  0.54712129  1
  Se  Se141  1  0.58555577  0.58087432  0.05211363  1
  Se  Se142  1  0.58869899  0.58946728  0.55324405  1
  Se  Se143  1  0.57890478  0.91557755  0.05591493  1
  Se  Se144  1  0.58781557  0.92111217  0.56232511  1
  Se  Se145  1  0.91412553  0.25183101  0.04981444  1
  Se  Se146  1  0.92714284  0.25948098  0.56369553  1
  Se  Se147  1  0.91638441  0.58364053  0.05316864  1
  Se  Se148  1  0.90718956  0.57630572  0.55186814  1
  Se  Se149  1  0.92739277  0.92729296  0.05169031  1
  Se  Se150  1  0.92910132  0.92387939  0.56005993  1
  Se  Se151  1  0.08635394  0.24866105  0.45042700  1
  Se  Se152  1  0.07386253  0.25949715  0.93863915  1
  Se  Se153  1  0.09182659  0.57495530  0.44959779  1
  Se  Se154  1  0.08470127  0.57923564  0.94580739  1
  Se  Se155  1  0.09147893  0.91345434  0.44056826  1
  Se  Se156  1  0.06575256  0.93289061  0.94484358  1
  Se  Se157  1  0.42342043  0.25018437  0.44375176  1
  Se  Se158  1  0.41455541  0.24857019  0.95119690  1
  Se  Se159  1  0.40961700  0.59275704  0.43695498  1
  Se  Se160  1  0.41159603  0.57752220  0.95192845  1
  Se  Se161  1  0.40956644  0.92709884  0.43518296  1
  Se  Se162  1  0.42872785  0.90452119  0.94966755  1
  Se  Se163  1  0.75086738  0.24992279  0.43449984  1
  Se  Se164  1  0.74559833  0.24988337  0.94979468  1
  Se  Se165  1  0.74177350  0.58574449  0.44295998  1
  Se  Se166  1  0.75482166  0.58251762  0.94837976  1
  Se  Se167  1  0.74466805  0.92198336  0.44237793  1
  Se  Se168  1  0.74322806  0.91892897  0.95366676  1
  Se  Se169  1  0.25140324  0.08927490  0.44379100  1
  Se  Se170  1  0.25642608  0.08172145  0.93738528  1
  Se  Se171  1  0.25384431  0.41420691  0.45094581  1
  Se  Se172  1  0.24699546  0.41375428  0.95241930  1
  Se  Se173  1  0.25032018  0.75689328  0.44893712  1
  Se  Se174  1  0.24440817  0.74749436  0.94527310  1
  Se  Se175  1  0.57987698  0.08439876  0.44602788  1
  Se  Se176  1  0.57167549  0.08796691  0.95120297  1
  Se  Se177  1  0.58907793  0.40738953  0.42978444  1
  Se  Se178  1  0.57909674  0.41854239  0.94981085  1
  Se  Se179  1  0.59646209  0.74495242  0.44668366  1
  Se  Se180  1  0.58695005  0.74684786  0.95492930  1
  Se  Se181  1  0.92611765  0.07343391  0.43889590  1
  Se  Se182  1  0.90434524  0.09176704  0.95671542  1
  Se  Se183  1  0.91753649  0.41314297  0.44472597  1
  Se  Se184  1  0.91161564  0.42102429  0.94587240  1
  Se  Se185  1  0.92395449  0.74315626  0.43725076  1
  Se  Se186  1  0.91868932  0.74812557  0.94732444  1
  Se  Se187  1  0.25552659  0.25422085  0.30546657  1
  Se  Se188  1  0.25607018  0.25246782  0.80009711  1
  Se  Se189  1  0.24506972  0.58489507  0.31346119  1
  Se  Se190  1  0.24094375  0.57546769  0.81413896  1
  Se  Se191  1  0.25405735  0.91959402  0.29825438  1
  Se  Se192  1  0.25165663  0.91047610  0.80565281  1
  Se  Se193  1  0.58170800  0.25081485  0.29940145  1
  Se  Se194  1  0.57923802  0.24275216  0.81322376  1
  Se  Se195  1  0.57789914  0.57534843  0.30240002  1
  Se  Se196  1  0.57643194  0.57807336  0.81225249  1
  Se  Se197  1  0.58517525  0.91676884  0.29769997  1
  Se  Se198  1  0.58525447  0.92349456  0.81046445  1
  Se  Se199  1  0.90654371  0.23907937  0.30170236  1
  Se  Se200  1  0.91464599  0.24500491  0.81326415  1
  Se  Se201  1  0.91918116  0.57802056  0.30152181  1
  Se  Se202  1  0.92075644  0.59322050  0.80153036  1
  Se  Se203  1  0.90924803  0.90983473  0.30603483  1
  Se  Se204  1  0.90700207  0.90859075  0.81594370  1
  Se  Se205  1  0.08634923  0.08877120  0.30861160  1
  Se  Se206  1  0.09519605  0.08990943  0.81004052  1
  Se  Se207  1  0.09017547  0.42091559  0.31415582  1
  Se  Se208  1  0.08856874  0.42179013  0.81221548  1
  Se  Se209  1  0.09141595  0.74958548  0.30264628  1
  Se  Se210  1  0.07816955  0.75133855  0.80058106  1
  Se  Se211  1  0.41598590  0.08319760  0.30210294  1
  Se  Se212  1  0.41464961  0.08010413  0.80575679  1
  Se  Se213  1  0.41540550  0.42523544  0.29662349  1
  Se  Se214  1  0.41144199  0.40832751  0.80849934  1
  Se  Se215  1  0.42626274  0.75626077  0.30575858  1
  Se  Se216  1  0.42831535  0.75456254  0.81635357  1
  Se  Se217  1  0.73940911  0.07955809  0.29916856  1
  Se  Se218  1  0.74925748  0.07792981  0.81285299  1
  Se  Se219  1  0.75221163  0.41401066  0.29420129  1
  Se  Se220  1  0.75674598  0.42705768  0.80664617  1
  Se  Se221  1  0.76007560  0.75442666  0.30803408  1
  Se  Se222  1  0.74716867  0.75535290  0.81639503  1
  Se  Se223  1  0.25033269  0.07788000  0.19806578  1
  Se  Se224  1  0.25783521  0.07580011  0.69478474  1
  Se  Se225  1  0.25089265  0.41746459  0.20111129  1
  Se  Se226  1  0.25101994  0.41449027  0.70097922  1
  Se  Se227  1  0.25310583  0.76441584  0.18134724  1
  Se  Se228  1  0.24189197  0.75424000  0.68520658  1
  Se  Se229  1  0.58017243  0.08021245  0.19525375  1
  Se  Se230  1  0.58635561  0.08221848  0.69783556  1
  Se  Se231  1  0.58789543  0.41220702  0.19829889  1
  Se  Se232  1  0.57201601  0.42614683  0.69204792  1
  Se  Se233  1  0.57597444  0.75401345  0.18559343  1
  Se  Se234  1  0.57114407  0.75931746  0.68925719  1
  Se  Se235  1  0.90594504  0.08882352  0.18560915  1
  Se  Se236  1  0.91174457  0.08616212  0.69658618  1
  Se  Se237  1  0.91398951  0.41982951  0.18113496  1
  Se  Se238  1  0.91087831  0.42297013  0.68927546  1
  Se  Se239  1  0.92597170  0.75077767  0.19832166  1
  Se  Se240  1  0.89513804  0.77042416  0.69726688  1
  Se  Se241  1  0.09290183  0.24428259  0.19398254  1
  Se  Se242  1  0.09157641  0.23907554  0.69050424  1
  Se  Se243  1  0.08326595  0.58644088  0.20087587  1
  Se  Se244  1  0.08279010  0.58749301  0.69466260  1
  Se  Se245  1  0.09020621  0.91137010  0.18510731  1
  Se  Se246  1  0.08842428  0.91374228  0.68693686  1
  Se  Se247  1  0.41170661  0.25139483  0.19585654  1
  Se  Se248  1  0.42073706  0.24855505  0.69747047  1
  Se  Se249  1  0.42667074  0.57696753  0.19346093  1
  Se  Se250  1  0.41205328  0.58166109  0.70205151  1
  Se  Se251  1  0.41047956  0.91991847  0.18959892  1
  Se  Se252  1  0.41409263  0.91623685  0.70293605  1
  Se  Se253  1  0.74063647  0.25493997  0.19429103  1
  Se  Se254  1  0.75838890  0.23987993  0.69425167  1
  Se  Se255  1  0.75698508  0.57817797  0.18173294  1
  Se  Se256  1  0.75080393  0.57866551  0.68695374  1
  Se  Se257  1  0.75532125  0.91297972  0.19677020  1
  Se  Se258  1  0.74111887  0.92474953  0.70912570  1
