# generated using pymatgen
data_In86Cu29Se144
_symmetry_space_group_name_H-M   'P 1'
_cell_length_a   17.55925133
_cell_length_b   17.56169534
_cell_length_c   23.40495214
_cell_angle_alpha   90.00073354
_cell_angle_beta   90.01667196
_cell_angle_gamma   89.99531542
_symmetry_Int_Tables_number   1
_chemical_formula_structural   In86Cu29Se144
_chemical_formula_sum   'In86 Cu29 Se144'
_cell_volume   7217.38996338
_cell_formula_units_Z   1
loop_
 _symmetry_equiv_pos_site_id
 _symmetry_equiv_pos_as_xyz
  1  'x, y, z'
loop_
 _atom_site_type_symbol
 _atom_site_label
 _atom_site_symmetry_multiplicity
 _atom_site_fract_x
 _atom_site_fract_y
 _atom_site_fract_z
 _atom_site_occupancy
  In  In0  1  -0.00353919  0.15982661  0.11630604  1
  In  In1  1  -0.00514798  0.16469163  0.63451516  1
  In  In2  1  0.00986466  0.50837616  0.10730800  1
  In  In3  1  0.00257665  0.49326610  0.63746255  1
  In  In4  1  0.00748372  0.83978230  0.11706362  1
  In  In5  1  0.01517124  0.82875173  0.63917618  1
  In  In6  1  0.33298782  0.17594052  0.11981617  1
  In  In7  1  0.33276150  0.17207691  0.62894434  1
  In  In8  1  0.33498008  0.50295278  0.11355467  1
  In  In9  1  0.34401585  0.48780491  0.64042640  1
  In  In10  1  0.31791551  0.84361985  0.11855576  1
  In  In11  1  0.30705382  0.84989117  0.64930610  1
  In  In12  1  0.67454912  0.15677211  0.12369431  1
  In  In13  1  0.68233120  0.18856076  0.62185242  1
  In  In14  1  0.67002277  0.50338616  0.11579516  1
  In  In15  1  0.65923670  0.50050746  0.63341267  1
  In  In16  1  0.66764044  0.81468212  0.11908263  1
  In  In17  1  0.66170335  0.82558218  0.62973074  1
  In  In18  1  0.15618869  0.00164369  0.38368364  1
  In  In19  1  0.16362860  0.00290807  0.86336074  1
  In  In20  1  0.15851109  0.32203323  0.37847374  1
  In  In21  1  0.16531379  0.33366526  0.86988683  1
  In  In22  1  0.16691037  0.67838178  0.37960474  1
  In  In23  1  0.15480931  0.66610665  0.87621573  1
  In  In24  1  0.51069366  0.00693960  0.38523622  1
  In  In25  1  0.48653279  0.00958789  0.86700077  1
  In  In26  1  0.49893090  0.34255763  0.39394092  1
  In  In27  1  0.50797016  0.33499892  0.85871768  1
  In  In28  1  0.49994389  0.65569027  0.38396133  1
  In  In29  1  0.49153489  0.65026060  0.87166317  1
  In  In30  1  0.84648795  -0.00023963  0.37353607  1
  In  In31  1  0.85162504  -0.01085728  0.88050555  1
  In  In32  1  0.82669176  0.33420561  0.37872815  1
  In  In33  1  0.83431891  0.32933093  0.86652632  1
  In  In34  1  0.84442412  0.65603332  0.37180342  1
  In  In35  1  0.83884041  0.66807960  0.87437902  1
  In  In36  1  0.01288105  0.15621485  0.39280895  1
  In  In37  1  -0.00544472  0.17266727  0.86682712  1
  In  In38  1  -0.00501393  0.50712309  0.36980581  1
  In  In39  1  0.00022496  0.50403738  0.87611216  1
  In  In40  1  0.00148010  0.84456377  0.36859681  1
  In  In41  1  0.00449999  0.82787313  0.87300838  1
  In  In42  1  0.32954673  0.16984773  0.38986031  1
  In  In43  1  0.32979856  0.15562255  0.85238180  1
  In  In44  1  0.34247842  0.50850199  0.38145819  1
  In  In45  1  0.33131810  0.49925341  0.87686422  1
  In  In46  1  0.32291879  0.81827185  0.38522680  1
  In  In47  1  0.29586341  0.81346969  0.84331688  1
  In  In48  1  0.66455747  0.18170176  0.40140410  1
  In  In49  1  0.67415712  0.18036711  0.85809393  1
  In  In50  1  0.66562178  0.49164274  0.37763967  1
  In  In51  1  0.66356371  0.49414780  0.87320446  1
  In  In52  1  0.66777916  0.83136989  0.37677103  1
  In  In53  1  0.68787920  0.83102439  0.87647636  1
  In  In54  1  0.15093123  -0.01515155  0.10678788  1
  In  In55  1  0.15595455  -0.00306187  0.63634051  1
  In  In56  1  0.16580004  0.32866502  0.10992807  1
  In  In57  1  0.16841102  0.32949785  0.63124576  1
  In  In58  1  0.14770793  0.65603182  0.10061285  1
  In  In59  1  0.15888213  0.67653372  0.63970014  1
  In  In60  1  0.50049332  0.01241876  0.11867141  1
  In  In61  1  0.48148740  0.00799130  0.63254673  1
  In  In62  1  0.49476010  0.33819854  0.12283558  1
  In  In63  1  0.49620843  0.32970932  0.62998216  1
  In  In64  1  0.50434142  0.65809092  0.11900952  1
  In  In65  1  0.50250221  0.66040601  0.63676015  1
  In  In66  1  0.84611859  0.01795110  0.11229160  1
  In  In67  1  0.84537642  0.02704852  0.63840348  1
  In  In68  1  0.83523788  0.33751601  0.10891182  1
  In  In69  1  0.84187665  0.30958303  0.64806360  1
  In  In70  1  0.86952711  0.69417759  0.08559738  1
  In  In71  1  0.83735474  0.65467785  0.63767903  1
  In  In72  1  0.67881414  0.66232668  0.25498920  1
  In  In73  1  0.17404499  0.49360133  0.51430613  1
  In  In74  1  0.32297609  -0.00038910  0.24831852  1
  In  In75  1  0.66962902  0.33655325  0.24914641  1
  In  In76  1  0.32999085  0.66186301  0.23678903  1
  In  In77  1  0.83076038  0.48875881  0.50398713  1
  In  In78  1  -0.00195707  0.33455515  0.25125742  1
  In  In79  1  0.83741690  0.84098666  0.49846323  1
  In  In80  1  0.50265314  0.17388768  -0.00981839  1
  In  In81  1  0.33125938  0.33899705  0.26444752  1
  In  In82  1  0.49466173  0.83486079  -0.00194350  1
  In  In83  1  0.66755641  -0.00423483  0.74941112  1
  In  In84  1  0.48408371  0.83886441  0.50985331  1
  In  In85  1  0.68781389  -0.00310264  0.25200638  1
  Cu  Cu86  1  0.66560611  0.65962215  -0.00859603  1
  Cu  Cu87  1  0.83889740  0.82751107  0.75168980  1
  Cu  Cu88  1  0.33251908  0.66868074  0.51355003  1
  Cu  Cu89  1  0.32392386  -0.00029285  -0.01872709  1
  Cu  Cu90  1  0.33090208  0.33068241  -0.00835325  1
  Cu  Cu91  1  0.15427820  0.15216858  0.24761686  1
  Cu  Cu92  1  0.00034807  0.33084755  -0.01178336  1
  Cu  Cu93  1  0.32661271  0.66644575  -0.01200154  1
  Cu  Cu94  1  0.49736180  0.49812829  0.75318749  1
  Cu  Cu95  1  0.16045086  0.16844564  0.74821665  1
  Cu  Cu96  1  0.50507704  0.82545472  0.75350998  1
  Cu  Cu97  1  0.16082090  0.50574453  0.75668025  1
  Cu  Cu98  1  0.50174113  0.16935282  0.26035101  1
  Cu  Cu99  1  0.49142247  0.83076592  0.25302353  1
  Cu  Cu100  1  0.15538124  0.83250212  0.24917189  1
  Cu  Cu101  1  0.66510422  0.01351799  0.51273217  1
  Cu  Cu102  1  0.31849714  0.00066463  0.51330393  1
  Cu  Cu103  1  0.00523123  0.00738857  -0.01059291  1
  Cu  Cu104  1  -0.00019524  -0.00218705  0.50838661  1
  Cu  Cu105  1  0.66427827  0.66301168  0.51185208  1
  Cu  Cu106  1  0.67505055  0.00394879  -0.00792477  1
  Cu  Cu107  1  0.84406285  0.51438894  0.23739016  1
  Cu  Cu108  1  0.00889876  0.66724473  0.50676112  1
  Cu  Cu109  1  0.84136997  0.16311972  0.25157245  1
  Cu  Cu110  1  0.33389236  0.33377069  0.51105262  1
  Cu  Cu111  1  0.84743364  0.83422778  0.23584912  1
  Cu  Cu112  1  0.66598621  0.33349749  -0.01407014  1
  Cu  Cu113  1  0.17020489  0.50374984  0.23853803  1
  Cu  Cu114  1  0.82557818  0.49808175  0.75707182  1
  Se  Se115  1  0.08837495  0.09088951  0.04557658  1
  Se  Se116  1  0.07953202  0.08176214  0.56413929  1
  Se  Se117  1  0.08540195  0.41333698  0.04339261  1
  Se  Se118  1  0.07108180  0.40678754  0.56061078  1
  Se  Se119  1  0.08553132  0.76168551  0.04310774  1
  Se  Se120  1  0.08782025  0.75275820  0.55973792  1
  Se  Se121  1  0.40574218  0.07652088  0.04607081  1
  Se  Se122  1  0.40929671  0.08521762  0.55589950  1
  Se  Se123  1  0.41503792  0.41136349  0.04883744  1
  Se  Se124  1  0.41740252  0.42090703  0.55909481  1
  Se  Se125  1  0.40293752  0.74153245  0.05808868  1
  Se  Se126  1  0.40514886  0.75248960  0.57741908  1
  Se  Se127  1  0.75395039  0.09324728  0.04514196  1
  Se  Se128  1  0.75906437  0.08803251  0.56104795  1
  Se  Se129  1  0.74520872  0.41683553  0.04523125  1
  Se  Se130  1  0.75516553  0.41007123  0.57742381  1
  Se  Se131  1  0.74602556  0.75109690  0.04007882  1
  Se  Se132  1  0.75348122  0.74425226  0.56070269  1
  Se  Se133  1  0.25067868  0.24362798  0.04458451  1
  Se  Se134  1  0.24570077  0.25043070  0.55749336  1
  Se  Se135  1  0.24844319  0.57846315  0.04406948  1
  Se  Se136  1  0.25485539  0.58821586  0.57506580  1
  Se  Se137  1  0.24585196  0.91441131  0.03899314  1
  Se  Se138  1  0.23898710  0.91343235  0.56376898  1
  Se  Se139  1  0.59368943  0.25710758  0.05883835  1
  Se  Se140  1  0.57907024  0.25087675  0.55936452  1
  Se  Se141  1  0.58055350  0.57933690  0.04590312  1
  Se  Se142  1  0.57796698  0.58166708  0.56066883  1
  Se  Se143  1  0.59329709  0.92667534  0.05598067  1
  Se  Se144  1  0.58532883  0.92425071  0.56458060  1
  Se  Se145  1  0.91996015  0.24945364  0.04816073  1
  Se  Se146  1  0.90684157  0.24016634  0.56481615  1
  Se  Se147  1  0.90317036  0.56397000  0.04446067  1
  Se  Se148  1  0.92424772  0.58442969  0.55944557  1
  Se  Se149  1  0.92342193  0.92623112  0.04883643  1
  Se  Se150  1  0.92080672  0.91869630  0.57109550  1
  Se  Se151  1  0.08776113  0.24986389  0.45577549  1
  Se  Se152  1  0.08440621  0.24605222  0.93749006  1
  Se  Se153  1  0.08469737  0.58112857  0.44609665  1
  Se  Se154  1  0.06895980  0.59417036  0.94771051  1
  Se  Se155  1  0.07673556  0.91144972  0.44989840  1
  Se  Se156  1  0.08625912  0.92173034  0.93697203  1
  Se  Se157  1  0.41704164  0.25063164  0.45457872  1
  Se  Se158  1  0.40805857  0.25230358  0.92849314  1
  Se  Se159  1  0.41504721  0.58628405  0.45849596  1
  Se  Se160  1  0.41697486  0.57750311  0.94950445  1
  Se  Se161  1  0.39956295  0.92874617  0.44253384  1
  Se  Se162  1  0.40757421  0.91398780  0.92991700  1
  Se  Se163  1  0.76068777  0.25949672  0.45806364  1
  Se  Se164  1  0.75008682  0.24754245  0.93856846  1
  Se  Se165  1  0.74585783  0.59205323  0.44432784  1
  Se  Se166  1  0.75051426  0.57956195  0.93751901  1
  Se  Se167  1  0.73652952  0.93150911  0.44467946  1
  Se  Se168  1  0.76051739  0.91431841  0.94939790  1
  Se  Se169  1  0.24243723  0.08266966  0.45060627  1
  Se  Se170  1  0.24759368  0.09134184  0.93143249  1
  Se  Se171  1  0.25839759  0.40925148  0.44098571  1
  Se  Se172  1  0.24463238  0.41581266  0.94295250  1
  Se  Se173  1  0.24388828  0.74605702  0.46028989  1
  Se  Se174  1  0.24688006  0.75442547  0.93772187  1
  Se  Se175  1  0.57606351  0.09214459  0.45989882  1
  Se  Se176  1  0.59138737  0.07926241  0.93266445  1
  Se  Se177  1  0.59641691  0.41696982  0.45459937  1
  Se  Se178  1  0.57332918  0.41270576  0.93991364  1
  Se  Se179  1  0.58542858  0.74883545  0.45166631  1
  Se  Se180  1  0.58378635  0.74604397  0.93578336  1
  Se  Se181  1  0.91390033  0.07775937  0.45210630  1
  Se  Se182  1  0.91678288  0.09288491  0.94283963  1
  Se  Se183  1  0.93101348  0.41143071  0.44048431  1
  Se  Se184  1  0.91340027  0.41269662  0.93767398  1
  Se  Se185  1  0.92634257  0.74174652  0.44294146  1
  Se  Se186  1  0.91390072  0.75677783  0.94338573  1
  Se  Se187  1  0.23912071  0.23200886  0.30657480  1
  Se  Se188  1  0.24674394  0.25386435  0.79697855  1
  Se  Se189  1  0.24575270  0.57740928  0.30863418  1
  Se  Se190  1  0.24658869  0.58480157  0.81106680  1
  Se  Se191  1  0.24165830  0.90412164  0.31142420  1
  Se  Se192  1  0.27479167  0.94672455  0.80191833  1
  Se  Se193  1  0.58204835  0.25084474  0.31683610  1
  Se  Se194  1  0.55990562  0.22327470  0.79754956  1
  Se  Se195  1  0.57823650  0.57524889  0.30708125  1
  Se  Se196  1  0.58529190  0.58159605  0.80334703  1
  Se  Se197  1  0.57646775  0.91310063  0.30740060  1
  Se  Se198  1  0.58045777  0.90748036  0.81512729  1
  Se  Se199  1  0.91569326  0.24405241  0.31539263  1
  Se  Se200  1  0.91576476  0.25265563  0.79421852  1
  Se  Se201  1  0.92811265  0.59259054  0.29415500  1
  Se  Se202  1  0.91557315  0.58265093  0.80321856  1
  Se  Se203  1  0.91847101  0.92214543  0.29627250  1
  Se  Se204  1  0.92174149  0.91223653  0.80256424  1
  Se  Se205  1  0.07452936  0.07784852  0.30993912  1
  Se  Se206  1  0.07316595  0.08323646  0.79710991  1
  Se  Se207  1  0.09718665  0.42511751  0.30629556  1
  Se  Se208  1  0.07737333  0.41767996  0.80530544  1
  Se  Se209  1  0.07918630  0.74689082  0.30692354  1
  Se  Se210  1  0.09801741  0.76310510  0.80043804  1
  Se  Se211  1  0.41754025  0.08461878  0.31322811  1
  Se  Se212  1  0.43688668  0.09813614  0.78790962  1
  Se  Se213  1  0.43276218  0.42752168  0.31161049  1
  Se  Se214  1  0.40870603  0.41688125  0.80346517  1
  Se  Se215  1  0.41662962  0.74689969  0.31154951  1
  Se  Se216  1  0.41819194  0.74567216  0.80616106  1
  Se  Se217  1  0.75262428  0.09884969  0.31777530  1
  Se  Se218  1  0.76235269  0.07604779  0.81079853  1
  Se  Se219  1  0.76668753  0.43368088  0.30196213  1
  Se  Se220  1  0.73980573  0.40866623  0.80196536  1
  Se  Se221  1  0.76957898  0.76518458  0.30700774  1
  Se  Se222  1  0.75146196  0.74531021  0.80122154  1
  Se  Se223  1  0.23976962  0.08623311  0.18171847  1
  Se  Se224  1  0.24658794  0.08668077  0.69478898  1
  Se  Se225  1  0.24888655  0.41533628  0.18640098  1
  Se  Se226  1  0.24038956  0.42105457  0.70054162  1
  Se  Se227  1  0.23519994  0.75536407  0.18565657  1
  Se  Se228  1  0.25277577  0.74151569  0.71108309  1
  Se  Se229  1  0.58042760  0.08738810  0.19924686  1
  Se  Se230  1  0.59087384  0.08480883  0.68181162  1
  Se  Se231  1  0.57962794  0.42608354  0.19082478  1
  Se  Se232  1  0.57940526  0.41301737  0.70051999  1
  Se  Se233  1  0.57459170  0.75041700  0.19614679  1
  Se  Se234  1  0.59097872  0.74250559  0.70314942  1
  Se  Se235  1  0.92222002  0.08308351  0.19436123  1
  Se  Se236  1  0.94186008  0.07069317  0.71398745  1
  Se  Se237  1  0.91661486  0.42157927  0.18318070  1
  Se  Se238  1  0.91234342  0.41728305  0.70406738  1
  Se  Se239  1  0.92337506  0.74741881  0.18102480  1
  Se  Se240  1  0.92228524  0.74341658  0.69885132  1
  Se  Se241  1  0.08804010  0.24670474  0.18909886  1
  Se  Se242  1  0.07667621  0.25644909  0.69887166  1
  Se  Se243  1  0.08489827  0.58364775  0.18583719  1
  Se  Se244  1  0.07541849  0.58725856  0.70301945  1
  Se  Se245  1  0.08253839  0.92237401  0.19290041  1
  Se  Se246  1  0.10007104  0.90048265  0.71196650  1
  Se  Se247  1  0.42065661  0.24647865  0.19890510  1
  Se  Se248  1  0.39809346  0.26669157  0.69834015  1
  Se  Se249  1  0.42832984  0.56750208  0.19176126  1
  Se  Se250  1  0.41206107  0.58709541  0.70571052  1
  Se  Se251  1  0.42184620  0.91321443  0.18748991  1
  Se  Se252  1  0.42259222  0.91126555  0.70216056  1
  Se  Se253  1  0.76323786  0.24511557  0.19083122  1
  Se  Se254  1  0.74483618  0.24065667  0.71379611  1
  Se  Se255  1  0.76076289  0.59107747  0.17844256  1
  Se  Se256  1  0.74334601  0.58260184  0.70270798  1
  Se  Se257  1  0.75893355  0.90904095  0.17796156  1
  Se  Se258  1  0.76326151  0.90913511  0.68759028  1
