# generated using pymatgen
data_In86Cu29Se144
_symmetry_space_group_name_H-M   'P 1'
_cell_length_a   17.59815816
_cell_length_b   17.59467970
_cell_length_c   23.45852255
_cell_angle_alpha   89.98779530
_cell_angle_beta   90.01128131
_cell_angle_gamma   90.02789301
_symmetry_Int_Tables_number   1
_chemical_formula_structural   In86Cu29Se144
_chemical_formula_sum   'In86 Cu29 Se144'
_cell_volume   7263.55397705
_cell_formula_units_Z   1
loop_
 _symmetry_equiv_pos_site_id
 _symmetry_equiv_pos_as_xyz
  1  'x, y, z'
loop_
 _atom_site_type_symbol
 _atom_site_label
 _atom_site_symmetry_multiplicity
 _atom_site_fract_x
 _atom_site_fract_y
 _atom_site_fract_z
 _atom_site_occupancy
  In  In0  1  0.01555235  0.15100009  0.13219664  1
  In  In1  1  -0.01148565  0.15796556  0.62315140  1
  In  In2  1  -0.00586293  0.51249882  0.12727580  1
  In  In3  1  0.01179288  0.51125276  0.62434473  1
  In  In4  1  0.01422470  0.82224941  0.13184528  1
  In  In5  1  0.00502713  0.83694116  0.61907051  1
  In  In6  1  0.33496020  0.16294089  0.13002224  1
  In  In7  1  0.33942873  0.14512598  0.62340506  1
  In  In8  1  0.32752511  0.50040702  0.13690986  1
  In  In9  1  0.34243706  0.49792350  0.61647908  1
  In  In10  1  0.33455828  0.83527040  0.12815857  1
  In  In11  1  0.34137751  0.85115631  0.61240413  1
  In  In12  1  0.64654534  0.16098968  0.12766195  1
  In  In13  1  0.65669466  0.17153083  0.63073262  1
  In  In14  1  0.67461162  0.49220479  0.12101803  1
  In  In15  1  0.65842010  0.50067117  0.62148314  1
  In  In16  1  0.66422105  0.85141817  0.13137213  1
  In  In17  1  0.67488353  0.84107474  0.62008166  1
  In  In18  1  0.16618691  -0.00509465  0.36980225  1
  In  In19  1  0.16851808  -0.00240309  0.87624349  1
  In  In20  1  0.16785723  0.33336098  0.36293437  1
  In  In21  1  0.15395291  0.32512904  0.88156022  1
  In  In22  1  0.17241305  0.67790045  0.37012646  1
  In  In23  1  0.16403865  0.68771897  0.87361365  1
  In  In24  1  0.49794289  -0.00488612  0.37253052  1
  In  In25  1  0.49237129  0.00056275  0.87504568  1
  In  In26  1  0.49486546  0.33653694  0.38042127  1
  In  In27  1  0.49096100  0.31725617  0.87387361  1
  In  In28  1  0.48373979  0.68915565  0.39371725  1
  In  In29  1  0.51323041  0.67760250  0.87324026  1
  In  In30  1  0.82585807  -0.01018888  0.37140244  1
  In  In31  1  0.83075081  -0.00625324  0.86812375  1
  In  In32  1  0.83208177  0.32543990  0.37200759  1
  In  In33  1  0.83064356  0.34312002  0.87440712  1
  In  In34  1  0.84740440  0.67608120  0.37708813  1
  In  In35  1  0.83554507  0.65518687  0.87506386  1
  In  In36  1  -0.00062208  0.16725220  0.36415192  1
  In  In37  1  0.01154654  0.16341108  0.88261707  1
  In  In38  1  0.00846417  0.51234024  0.36353279  1
  In  In39  1  -0.01216201  0.49883560  0.87529994  1
  In  In40  1  0.00029721  0.83391805  0.37695175  1
  In  In41  1  0.01239520  0.83729529  0.86771460  1
  In  In42  1  0.34600489  0.15909592  0.36475121  1
  In  In43  1  0.34459554  0.15434939  0.88706109  1
  In  In44  1  0.33894772  0.50583700  0.36872663  1
  In  In45  1  0.33398007  0.49828385  0.87814701  1
  In  In46  1  0.33534550  0.83565649  0.37308581  1
  In  In47  1  0.31287232  0.85403875  0.88712761  1
  In  In48  1  0.66058865  0.15677168  0.37405707  1
  In  In49  1  0.65187401  0.15260078  0.86602852  1
  In  In50  1  0.65584060  0.49076134  0.38019416  1
  In  In51  1  0.67875091  0.50275807  0.87001546  1
  In  In52  1  0.64848289  0.84597766  0.39432085  1
  In  In53  1  0.65248874  0.83705425  0.87564158  1
  In  In54  1  0.17004448  -0.00371167  0.12519395  1
  In  In55  1  0.18192091  -0.01709486  0.63964818  1
  In  In56  1  0.17892529  0.32042350  0.13484365  1
  In  In57  1  0.16490835  0.33661425  0.62604557  1
  In  In58  1  0.15837407  0.68044443  0.12823929  1
  In  In59  1  0.14627804  0.69065403  0.63570356  1
  In  In60  1  0.49752304  0.00006880  0.13256228  1
  In  In61  1  0.49904100  0.00623121  0.62234458  1
  In  In62  1  0.49783500  0.31737993  0.12903082  1
  In  In63  1  0.51600827  0.33824871  0.60839126  1
  In  In64  1  0.48468693  0.66980499  0.13201956  1
  In  In65  1  0.51818936  0.67604622  0.60458742  1
  In  In66  1  0.83190979  0.00195753  0.13372655  1
  In  In67  1  0.84508128  -0.01292530  0.63159437  1
  In  In68  1  0.82977912  0.34954310  0.12239291  1
  In  In69  1  0.82682460  0.32012308  0.62588690  1
  In  In70  1  0.85327457  0.66829857  0.11820283  1
  In  In71  1  0.84121823  0.68659350  0.61236652  1
  In  In72  1  0.33260199  0.32500832  0.74938992  1
  In  In73  1  0.82926141  0.50259446  0.50426411  1
  In  In74  1  0.83642489  0.83214768  -0.00281843  1
  In  In75  1  0.17400915  0.15708049  0.49145917  1
  In  In76  1  0.17761581  0.51457168  0.48916190  1
  In  In77  1  0.50349077  0.50237160  0.00203071  1
  In  In78  1  0.67006792  0.66557259  0.26420434  1
  In  In79  1  0.16281743  0.50245547  0.00403212  1
  In  In80  1  0.66548723  0.33081820  0.25123036  1
  In  In81  1  0.82490630  0.16148569  0.49252221  1
  In  In82  1  0.34013430  0.67653475  0.74092871  1
  In  In83  1  0.67517103  0.67059075  0.73835470  1
  In  In84  1  0.83344876  0.17318033  0.00001167  1
  In  In85  1  -0.00464246  0.32675179  0.75543264  1
  Cu  Cu86  1  0.50491399  0.49599759  0.73890286  1
  Cu  Cu87  1  0.33614465  0.32202308  0.49758647  1
  Cu  Cu88  1  0.83962808  0.50816417  0.24689039  1
  Cu  Cu89  1  0.66275771  0.33253945  0.00001683  1
  Cu  Cu90  1  0.83706976  0.83099064  0.74652607  1
  Cu  Cu91  1  0.83524937  0.49752203  0.74790094  1
  Cu  Cu92  1  0.83854906  0.17105039  0.24885170  1
  Cu  Cu93  1  0.16971819  0.83585020  0.25033671  1
  Cu  Cu94  1  0.00417146  -0.00730436  0.00282382  1
  Cu  Cu95  1  -0.00045390  0.34133948  0.49288235  1
  Cu  Cu96  1  0.65168530  0.00590247  0.00250277  1
  Cu  Cu97  1  0.49440304  0.84454325  0.75064923  1
  Cu  Cu98  1  0.16955867  0.15889243  0.24971918  1
  Cu  Cu99  1  0.49997795  0.83128617  0.25819828  1
  Cu  Cu100  1  0.00298655  0.33052747  0.00461215  1
  Cu  Cu101  1  0.66907569  0.67280929  -0.00193457  1
  Cu  Cu102  1  0.66466895  0.00281884  0.50271717  1
  Cu  Cu103  1  0.32584878  0.67213830  0.49924765  1
  Cu  Cu104  1  0.16146733  0.49792736  0.24702637  1
  Cu  Cu105  1  0.82596879  0.15922351  0.74810534  1
  Cu  Cu106  1  0.33436415  -0.00209784  0.00591602  1
  Cu  Cu107  1  0.33281073  0.32430457  0.00903993  1
  Cu  Cu108  1  0.49283930  0.49953678  0.25430843  1
  Cu  Cu109  1  0.16817880  0.51272666  0.75152865  1
  Cu  Cu110  1  0.33566785  0.67781182  0.00310529  1
  Cu  Cu111  1  0.16530682  0.15763930  0.75528358  1
  Cu  Cu112  1  0.00315672  -0.00687319  0.50042571  1
  Cu  Cu113  1  0.83796382  0.83587655  0.25135312  1
  Cu  Cu114  1  0.49814398  0.16430186  0.74794771  1
  Se  Se115  1  0.08757360  0.07888082  0.05319417  1
  Se  Se116  1  0.08033014  0.07977271  0.55752111  1
  Se  Se117  1  0.08292816  0.40823763  0.06727178  1
  Se  Se118  1  0.08446341  0.41752497  0.55070660  1
  Se  Se119  1  0.07353860  0.74211288  0.05178278  1
  Se  Se120  1  0.08636718  0.75393231  0.54932205  1
  Se  Se121  1  0.41754407  0.08128247  0.05963327  1
  Se  Se122  1  0.41486476  0.07633974  0.54698484  1
  Se  Se123  1  0.41023058  0.41577368  0.06197007  1
  Se  Se124  1  0.41616845  0.41249170  0.54743025  1
  Se  Se125  1  0.42200523  0.75591396  0.05680412  1
  Se  Se126  1  0.41555687  0.75255344  0.55029785  1
  Se  Se127  1  0.74347687  0.07982330  0.05850986  1
  Se  Se128  1  0.74946176  0.07713607  0.56537544  1
  Se  Se129  1  0.75048985  0.41866266  0.04415986  1
  Se  Se130  1  0.74349286  0.40284421  0.55689017  1
  Se  Se131  1  0.74400598  0.75078219  0.06398267  1
  Se  Se132  1  0.72433381  0.73023526  0.55701723  1
  Se  Se133  1  0.24733282  0.24046847  0.05775774  1
  Se  Se134  1  0.25234893  0.25239936  0.56067093  1
  Se  Se135  1  0.25894304  0.59034829  0.06064007  1
  Se  Se136  1  0.25035243  0.59662156  0.56702886  1
  Se  Se137  1  0.25022698  0.91151852  0.05598521  1
  Se  Se138  1  0.24172445  0.92258901  0.55137470  1
  Se  Se139  1  0.58120111  0.24965890  0.05323721  1
  Se  Se140  1  0.57746460  0.23089659  0.55012959  1
  Se  Se141  1  0.59030737  0.59458445  0.06351863  1
  Se  Se142  1  0.57622004  0.56675374  0.54632867  1
  Se  Se143  1  0.57739460  0.91765578  0.05812102  1
  Se  Se144  1  0.58250997  0.91754253  0.55590427  1
  Se  Se145  1  0.92340632  0.25191876  0.06709263  1
  Se  Se146  1  0.92281351  0.25630678  0.55047353  1
  Se  Se147  1  0.91293496  0.57435938  0.04806571  1
  Se  Se148  1  0.93093644  0.59224192  0.55239495  1
  Se  Se149  1  0.91998483  0.91975276  0.06377678  1
  Se  Se150  1  0.91226845  0.91409510  0.55039152  1
  Se  Se151  1  0.07963492  0.25551912  0.43845102  1
  Se  Se152  1  0.08655845  0.24287782  0.95733873  1
  Se  Se153  1  0.07507445  0.59917949  0.44034392  1
  Se  Se154  1  0.08140260  0.58660836  0.93573822  1
  Se  Se155  1  0.08843892  0.91666510  0.44401730  1
  Se  Se156  1  0.08550029  0.91308817  0.94557146  1
  Se  Se157  1  0.41603864  0.24045266  0.44213673  1
  Se  Se158  1  0.41957299  0.24709408  0.95397105  1
  Se  Se159  1  0.40700376  0.58375422  0.44779156  1
  Se  Se160  1  0.41305022  0.59600945  0.94136043  1
  Se  Se161  1  0.44097062  0.89086014  0.43899827  1
  Se  Se162  1  0.41785595  0.91632250  0.94890148  1
  Se  Se163  1  0.73496835  0.25931534  0.44109002  1
  Se  Se164  1  0.73856677  0.25203875  0.93588022  1
  Se  Se165  1  0.74916128  0.58579342  0.43412490  1
  Se  Se166  1  0.74694955  0.58433899  0.94653351  1
  Se  Se167  1  0.75206970  0.92023951  0.45185800  1
  Se  Se168  1  0.73832766  0.92653734  0.94559104  1
  Se  Se169  1  0.26635407  0.06843299  0.43683423  1
  Se  Se170  1  0.24952864  0.07878561  0.94917681  1
  Se  Se171  1  0.25642236  0.40585538  0.43920738  1
  Se  Se172  1  0.25645130  0.40524421  0.94592954  1
  Se  Se173  1  0.24792201  0.75711891  0.44420075  1
  Se  Se174  1  0.24531066  0.75353498  0.95133576  1
  Se  Se175  1  0.58022002  0.07865083  0.44511336  1
  Se  Se176  1  0.57280083  0.08773825  0.94532637  1
  Se  Se177  1  0.58244014  0.40922534  0.45111318  1
  Se  Se178  1  0.58556445  0.41291992  0.93550423  1
  Se  Se179  1  0.60151744  0.72963448  0.45084662  1
  Se  Se180  1  0.58099059  0.75579232  0.95150301  1
  Se  Se181  1  0.92599995  0.07703111  0.43923619  1
  Se  Se182  1  0.91823098  0.07137224  0.94487956  1
  Se  Se183  1  0.91980873  0.42004538  0.43424927  1
  Se  Se184  1  0.92025958  0.40898712  0.94746354  1
  Se  Se185  1  0.91186815  0.76384757  0.44977783  1
  Se  Se186  1  0.92435351  0.74538430  0.93615320  1
  Se  Se187  1  0.25175989  0.24243863  0.30360171  1
  Se  Se188  1  0.24333222  0.24164595  0.81495663  1
  Se  Se189  1  0.24273715  0.57943535  0.30554311  1
  Se  Se190  1  0.25461186  0.58621523  0.80946656  1
  Se  Se191  1  0.25536664  0.91791824  0.30180924  1
  Se  Se192  1  0.24926573  0.91926373  0.80358956  1
  Se  Se193  1  0.57336962  0.24377592  0.30757624  1
  Se  Se194  1  0.57896400  0.25063409  0.80153739  1
  Se  Se195  1  0.56951665  0.57927023  0.31593343  1
  Se  Se196  1  0.58076258  0.58020841  0.80112634  1
  Se  Se197  1  0.59035564  0.91242580  0.30657975  1
  Se  Se198  1  0.58145890  0.92321487  0.80460830  1
  Se  Se199  1  0.91950997  0.25839455  0.29927046  1
  Se  Se200  1  0.90553412  0.23504812  0.81453992  1
  Se  Se201  1  0.91817215  0.59451434  0.30072115  1
  Se  Se202  1  0.91718680  0.58203783  0.80019927  1
  Se  Se203  1  0.92144531  0.91973708  0.30522584  1
  Se  Se204  1  0.91798666  0.91414775  0.80321896  1
  Se  Se205  1  0.08238140  0.07876679  0.30200754  1
  Se  Se206  1  0.07839909  0.07940864  0.80848771  1
  Se  Se207  1  0.07748339  0.41403821  0.29938589  1
  Se  Se208  1  0.09168344  0.42327433  0.80801700  1
  Se  Se209  1  0.08253277  0.75508183  0.30335378  1
  Se  Se210  1  0.08556099  0.75135504  0.79592274  1
  Se  Se211  1  0.42269449  0.07267257  0.29653266  1
  Se  Se212  1  0.41244366  0.08556813  0.80399432  1
  Se  Se213  1  0.41354049  0.40991341  0.30508550  1
  Se  Se214  1  0.42384530  0.42485039  0.80481507  1
  Se  Se215  1  0.41508632  0.74341271  0.30537616  1
  Se  Se216  1  0.41997200  0.76116658  0.81219415  1
  Se  Se217  1  0.75823485  0.09147080  0.30753311  1
  Se  Se218  1  0.74428000  0.07523253  0.80231783  1
  Se  Se219  1  0.75683889  0.42843361  0.30592203  1
  Se  Se220  1  0.74957864  0.41493938  0.79836647  1
  Se  Se221  1  0.75424097  0.76611234  0.31616448  1
  Se  Se222  1  0.75449303  0.75627155  0.81104172  1
  Se  Se223  1  0.25246069  0.07576197  0.19625924  1
  Se  Se224  1  0.25424206  0.08348800  0.70082339  1
  Se  Se225  1  0.25093257  0.41179627  0.20347686  1
  Se  Se226  1  0.24646889  0.42941099  0.69339843  1
  Se  Se227  1  0.25139118  0.74971357  0.19660133  1
  Se  Se228  1  0.24959550  0.77060230  0.68978486  1
  Se  Se229  1  0.58561583  0.07623565  0.20231298  1
  Se  Se230  1  0.58287616  0.07910452  0.69747896  1
  Se  Se231  1  0.57554371  0.42596875  0.19113647  1
  Se  Se232  1  0.58688024  0.40861059  0.69095514  1
  Se  Se233  1  0.58226353  0.75233712  0.19643692  1
  Se  Se234  1  0.57339715  0.76035896  0.69116843  1
  Se  Se235  1  0.91953619  0.08231533  0.19918586  1
  Se  Se236  1  0.91737056  0.08108592  0.69968058  1
  Se  Se237  1  0.91689685  0.41965847  0.19392653  1
  Se  Se238  1  0.91696705  0.41846330  0.68584414  1
  Se  Se239  1  0.91646586  0.74992898  0.19684578  1
  Se  Se240  1  0.92019361  0.75250456  0.69040396  1
  Se  Se241  1  0.08432036  0.24596904  0.20001668  1
  Se  Se242  1  0.08881443  0.23979709  0.69300070  1
  Se  Se243  1  0.08370654  0.58708190  0.19491165  1
  Se  Se244  1  0.07927613  0.59120247  0.70159255  1
  Se  Se245  1  0.08422994  0.91828435  0.19673382  1
  Se  Se246  1  0.06140314  0.93666993  0.68945685  1
  Se  Se247  1  0.40667167  0.25574170  0.19856923  1
  Se  Se248  1  0.42288421  0.24629032  0.68416850  1
  Se  Se249  1  0.41052343  0.58584625  0.20302361  1
  Se  Se250  1  0.43148298  0.58399807  0.68261949  1
  Se  Se251  1  0.41782925  0.91191381  0.20070790  1
  Se  Se252  1  0.41403739  0.92325799  0.69227689  1
  Se  Se253  1  0.75483223  0.24459178  0.18565910  1
  Se  Se254  1  0.74597668  0.24900188  0.70005114  1
  Se  Se255  1  0.75290847  0.58488168  0.18936196  1
  Se  Se256  1  0.76456365  0.57760662  0.68128933  1
  Se  Se257  1  0.75034487  0.92086411  0.20366785  1
  Se  Se258  1  0.74934418  0.91463703  0.69816174  1
