# generated using pymatgen
data_In86Cu29Se144
_symmetry_space_group_name_H-M   'P 1'
_cell_length_a   17.55804646
_cell_length_b   17.55579594
_cell_length_c   23.41263091
_cell_angle_alpha   90.00431663
_cell_angle_beta   89.98366088
_cell_angle_gamma   89.99074609
_symmetry_Int_Tables_number   1
_chemical_formula_structural   In86Cu29Se144
_chemical_formula_sum   'In86 Cu29 Se144'
_cell_volume   7216.83726285
_cell_formula_units_Z   1
loop_
 _symmetry_equiv_pos_site_id
 _symmetry_equiv_pos_as_xyz
  1  'x, y, z'
loop_
 _atom_site_type_symbol
 _atom_site_label
 _atom_site_symmetry_multiplicity
 _atom_site_fract_x
 _atom_site_fract_y
 _atom_site_fract_z
 _atom_site_occupancy
  In  In0  1  0.00887077  0.15436683  0.13412809  1
  In  In1  1  -0.01125699  0.14794463  0.61407014  1
  In  In2  1  -0.00794955  0.49748262  0.12726733  1
  In  In3  1  -0.00786298  0.51299750  0.62296058  1
  In  In4  1  0.01953465  0.82909010  0.12313263  1
  In  In5  1  0.00008458  0.83493256  0.62763123  1
  In  In6  1  0.32037910  0.17863237  0.13990727  1
  In  In7  1  0.31712654  0.14915514  0.60957899  1
  In  In8  1  0.33822368  0.48793291  0.13612428  1
  In  In9  1  0.34099611  0.49173222  0.61597776  1
  In  In10  1  0.33260734  0.83212192  0.13107153  1
  In  In11  1  0.33986103  0.83841504  0.61910273  1
  In  In12  1  0.67190042  0.16997177  0.13331856  1
  In  In13  1  0.64536329  0.12857622  0.58879694  1
  In  In14  1  0.66907003  0.52044342  0.13592819  1
  In  In15  1  0.66400951  0.49316173  0.60824981  1
  In  In16  1  0.64998492  0.83342962  0.12641854  1
  In  In17  1  0.69193632  0.87307970  0.58933647  1
  In  In18  1  0.16683879  -0.00020338  0.37841399  1
  In  In19  1  0.16924123  -0.00363279  0.87403368  1
  In  In20  1  0.16033424  0.32979984  0.36211151  1
  In  In21  1  0.15325240  0.31090817  0.88203305  1
  In  In22  1  0.18028412  0.66687241  0.36909445  1
  In  In23  1  0.16628038  0.67858923  0.88233138  1
  In  In24  1  0.49744562  0.00509100  0.39070904  1
  In  In25  1  0.48279197  -0.00773974  0.86289225  1
  In  In26  1  0.49370914  0.33964949  0.38263348  1
  In  In27  1  0.50809190  0.34150627  0.87887365  1
  In  In28  1  0.49506576  0.66307899  0.37361923  1
  In  In29  1  0.49686395  0.67399920  0.88460407  1
  In  In30  1  0.83723815  -0.00616969  0.38905606  1
  In  In31  1  0.83963368  -0.00867345  0.85198092  1
  In  In32  1  0.84345972  0.32293283  0.38892241  1
  In  In33  1  0.83295522  0.34422279  0.87341274  1
  In  In34  1  0.81942043  0.68063642  0.38251213  1
  In  In35  1  0.84096820  0.66648756  0.86312257  1
  In  In36  1  0.00719326  0.16646423  0.37825502  1
  In  In37  1  0.01193910  0.16089310  0.88198229  1
  In  In38  1  0.00866264  0.48977097  0.37065112  1
  In  In39  1  -0.01028547  0.49624281  0.87544309  1
  In  In40  1  -0.01096266  0.84879329  0.38320808  1
  In  In41  1  0.01427349  0.83904393  0.85937030  1
  In  In42  1  0.33164664  0.16144868  0.37637998  1
  In  In43  1  0.32952399  0.14734745  0.87398643  1
  In  In44  1  0.33662985  0.50913563  0.36031434  1
  In  In45  1  0.33875354  0.51288507  0.88391052  1
  In  In46  1  0.33143162  0.83179637  0.37720264  1
  In  In47  1  0.32461193  0.84926904  0.88654549  1
  In  In48  1  0.66906492  0.16466025  0.39905377  1
  In  In49  1  0.67800230  0.16616105  0.86971023  1
  In  In50  1  0.65438362  0.50582669  0.38520987  1
  In  In51  1  0.66559894  0.49772712  0.87913556  1
  In  In52  1  0.67094148  0.83119471  0.38765595  1
  In  In53  1  0.65584404  0.83209572  0.86951488  1
  In  In54  1  0.16591321  -0.00136069  0.12848114  1
  In  In55  1  0.16228580  -0.00561032  0.62630178  1
  In  In56  1  0.16865267  0.32754080  0.13322567  1
  In  In57  1  0.17470378  0.32351570  0.62238785  1
  In  In58  1  0.16491652  0.68876564  0.12246995  1
  In  In59  1  0.14682614  0.67517057  0.63064472  1
  In  In60  1  0.49431044  -0.01880943  0.12549124  1
  In  In61  1  0.49463806  -0.00596452  0.61986126  1
  In  In62  1  0.48070623  0.33327006  0.12998434  1
  In  In63  1  0.51197962  0.32773004  0.60629755  1
  In  In64  1  0.49966728  0.66622228  0.12984665  1
  In  In65  1  0.50775648  0.67433757  0.61571808  1
  In  In66  1  0.83622367  0.01403911  0.12839860  1
  In  In67  1  0.83834915  -0.00057427  0.62676747  1
  In  In68  1  0.83945545  0.34548421  0.13367686  1
  In  In69  1  0.81777051  0.32020186  0.60255286  1
  In  In70  1  0.83493295  0.65801662  0.13019444  1
  In  In71  1  0.84694319  0.68046560  0.61164361  1
  In  In72  1  0.83714586  0.83110959  -0.01057021  1
  In  In73  1  0.83876766  0.50323815  -0.00298300  1
  In  In74  1  0.33055908  0.68205944  0.74354577  1
  In  In75  1  0.16952086  0.50386070  0.49293032  1
  In  In76  1  0.00539831  0.66998322  0.24810188  1
  In  In77  1  0.17357266  0.49911054  0.01124843  1
  In  In78  1  0.66779435  -0.00286990  0.26491316  1
  In  In79  1  -0.00633159  0.32730329  0.75055676  1
  In  In80  1  0.67125580  0.67607375  0.73916549  1
  In  In81  1  0.83650529  0.17051603  -0.00077154  1
  In  In82  1  0.33905516  0.32871852  0.73915473  1
  In  In83  1  0.66600931  0.32163287  0.73821084  1
  In  In84  1  0.48852920  0.16546269  0.00137401  1
  In  In85  1  0.66402688  0.33595996  0.27137483  1
  Cu  Cu86  1  0.33172981  0.66217368  0.49325527  1
  Cu  Cu87  1  -0.00490373  0.67593714  0.49945747  1
  Cu  Cu88  1  0.00424577  -0.00621749  0.00029582  1
  Cu  Cu89  1  0.50222316  0.50830680  0.75108735  1
  Cu  Cu90  1  0.83563135  0.50245929  0.73756393  1
  Cu  Cu91  1  0.16654423  0.84198238  0.25303406  1
  Cu  Cu92  1  0.49605868  0.15434417  0.25785109  1
  Cu  Cu93  1  0.33754732  0.33012578  0.49311640  1
  Cu  Cu94  1  0.84591898  0.17048734  0.26082816  1
  Cu  Cu95  1  0.50180261  0.15790300  0.73595310  1
  Cu  Cu96  1  0.82863068  0.15840535  0.74198265  1
  Cu  Cu97  1  0.34825314  0.66977006  0.00633364  1
  Cu  Cu98  1  0.16203921  0.50837567  0.75252956  1
  Cu  Cu99  1  0.16538162  0.15665223  0.74730394  1
  Cu  Cu100  1  0.32953030  -0.00035638  0.49920927  1
  Cu  Cu101  1  0.50145957  0.84323781  0.74484915  1
  Cu  Cu102  1  0.01142502  0.33529172  0.49555380  1
  Cu  Cu103  1  0.65495255  0.66009789  0.49866596  1
  Cu  Cu104  1  0.16602525  0.15860917  0.25457161  1
  Cu  Cu105  1  0.65592338  -0.00091938  -0.00824526  1
  Cu  Cu106  1  0.65423977  0.34536866  0.00590462  1
  Cu  Cu107  1  0.83025561  0.83749577  0.25742732  1
  Cu  Cu108  1  0.66060112  0.67180572  0.00565508  1
  Cu  Cu109  1  0.83935771  0.50435967  0.25827677  1
  Cu  Cu110  1  0.50567217  0.49837026  0.25377154  1
  Cu  Cu111  1  0.32756797  0.33461971  0.00777538  1
  Cu  Cu112  1  0.49342848  0.82456443  0.25284747  1
  Cu  Cu113  1  0.00670864  0.00068613  0.50335589  1
  Cu  Cu114  1  0.32612954  -0.00319897  0.00265895  1
  Se  Se115  1  0.08204439  0.07884568  0.05639933  1
  Se  Se116  1  0.09397828  0.08536893  0.55217818  1
  Se  Se117  1  0.07639903  0.40770448  0.06222733  1
  Se  Se118  1  0.08410066  0.41703580  0.56144783  1
  Se  Se119  1  0.08315124  0.75072748  0.04455673  1
  Se  Se120  1  0.08189632  0.75498754  0.55223202  1
  Se  Se121  1  0.40428894  0.07817991  0.06672018  1
  Se  Se122  1  0.42034851  0.08366937  0.54777657  1
  Se  Se123  1  0.41466822  0.41838770  0.05454133  1
  Se  Se124  1  0.42160616  0.41426411  0.54511296  1
  Se  Se125  1  0.42418302  0.75729231  0.06183099  1
  Se  Se126  1  0.41138737  0.74533011  0.55089401  1
  Se  Se127  1  0.73597685  0.07843210  0.05410818  1
  Se  Se128  1  0.78072301  0.09797073  0.55471729  1
  Se  Se129  1  0.74454982  0.41868008  0.06278534  1
  Se  Se130  1  0.76483904  0.43135913  0.54441731  1
  Se  Se131  1  0.74960714  0.74858445  0.06161923  1
  Se  Se132  1  0.74197100  0.74391043  0.54926311  1
  Se  Se133  1  0.24771053  0.24774087  0.05845120  1
  Se  Se134  1  0.24886720  0.25002519  0.54529655  1
  Se  Se135  1  0.26382188  0.59283556  0.06662306  1
  Se  Se136  1  0.25105804  0.59161864  0.56318985  1
  Se  Se137  1  0.24754634  0.91238927  0.06051446  1
  Se  Se138  1  0.24720565  0.91645231  0.55456193  1
  Se  Se139  1  0.58517517  0.25304868  0.06278916  1
  Se  Se140  1  0.60346662  0.25532742  0.54081330  1
  Se  Se141  1  0.58472615  0.58347014  0.05963858  1
  Se  Se142  1  0.56922912  0.57422774  0.54840826  1
  Se  Se143  1  0.58076272  0.91553222  0.04990126  1
  Se  Se144  1  0.55776335  0.89646246  0.55073480  1
  Se  Se145  1  0.91947690  0.25196940  0.06858635  1
  Se  Se146  1  0.92851948  0.25219588  0.54960555  1
  Se  Se147  1  0.92919328  0.59696800  0.05448816  1
  Se  Se148  1  0.91464571  0.58158435  0.54450348  1
  Se  Se149  1  0.91689571  0.92112115  0.06038223  1
  Se  Se150  1  0.92077565  0.91765882  0.55511361  1
  Se  Se151  1  0.09475252  0.25279046  0.44285594  1
  Se  Se152  1  0.07176492  0.24666212  0.95817890  1
  Se  Se153  1  0.07579462  0.59669804  0.43764881  1
  Se  Se154  1  0.08234708  0.57723577  0.94170192  1
  Se  Se155  1  0.08753475  0.91453023  0.44905267  1
  Se  Se156  1  0.08282850  0.91269738  0.94124580  1
  Se  Se157  1  0.42089298  0.24033360  0.44502059  1
  Se  Se158  1  0.40351256  0.25789028  0.93739436  1
  Se  Se159  1  0.41246644  0.57566957  0.44182161  1
  Se  Se160  1  0.42816429  0.58111786  0.95484671  1
  Se  Se161  1  0.41269192  0.91179398  0.44974301  1
  Se  Se162  1  0.42158956  0.92407078  0.95003113  1
  Se  Se163  1  0.75416829  0.25327804  0.45874562  1
  Se  Se164  1  0.73758687  0.26738377  0.94450683  1
  Se  Se165  1  0.74903300  0.58443383  0.44790695  1
  Se  Se166  1  0.74469109  0.59927054  0.94123439  1
  Se  Se167  1  0.74209328  0.92359743  0.45487951  1
  Se  Se168  1  0.74627923  0.92767676  0.93386409  1
  Se  Se169  1  0.24597736  0.08567718  0.44831359  1
  Se  Se170  1  0.24454405  0.08191948  0.94895542  1
  Se  Se171  1  0.25706178  0.41241992  0.43395286  1
  Se  Se172  1  0.25134338  0.40954262  0.93843236  1
  Se  Se173  1  0.24575036  0.74863654  0.44680274  1
  Se  Se174  1  0.26105289  0.74635675  0.95042126  1
  Se  Se175  1  0.59909359  0.06278943  0.45841998  1
  Se  Se176  1  0.58059574  0.08557839  0.93379162  1
  Se  Se177  1  0.59127310  0.40463339  0.44875852  1
  Se  Se178  1  0.57502693  0.43048432  0.95160062  1
  Se  Se179  1  0.57546284  0.74606990  0.44457446  1
  Se  Se180  1  0.58439625  0.75780531  0.94876847  1
  Se  Se181  1  0.92397836  0.08475319  0.44826011  1
  Se  Se182  1  0.91484168  0.06669610  0.93977960  1
  Se  Se183  1  0.92640734  0.42110085  0.44642150  1
  Se  Se184  1  0.92894993  0.39888632  0.94989654  1
  Se  Se185  1  0.90838025  0.75999583  0.44859745  1
  Se  Se186  1  0.92923474  0.74265177  0.93273241  1
  Se  Se187  1  0.25334080  0.24364403  0.30364047  1
  Se  Se188  1  0.24384362  0.24478688  0.80422812  1
  Se  Se189  1  0.23964061  0.57737840  0.29543483  1
  Se  Se190  1  0.25149105  0.58153238  0.80845911  1
  Se  Se191  1  0.25228440  0.91973077  0.30866396  1
  Se  Se192  1  0.26016074  0.92130745  0.80603053  1
  Se  Se193  1  0.57854960  0.23112468  0.31937998  1
  Se  Se194  1  0.57062766  0.24044314  0.80508170  1
  Se  Se195  1  0.58678287  0.58383444  0.30616621  1
  Se  Se196  1  0.58380289  0.58718443  0.80888320  1
  Se  Se197  1  0.57158552  0.90558176  0.31593877  1
  Se  Se198  1  0.58544979  0.92413386  0.80084399  1
  Se  Se199  1  0.92686628  0.25825640  0.31124275  1
  Se  Se200  1  0.90168388  0.23677691  0.81220830  1
  Se  Se201  1  0.91524723  0.59164426  0.31657921  1
  Se  Se202  1  0.91935186  0.57565919  0.79822850  1
  Se  Se203  1  0.91154039  0.92440587  0.30728626  1
  Se  Se204  1  0.92907995  0.91412938  0.78812043  1
  Se  Se205  1  0.08050467  0.07705782  0.30751574  1
  Se  Se206  1  0.08228427  0.08083364  0.80660316  1
  Se  Se207  1  0.09560993  0.42922607  0.29621629  1
  Se  Se208  1  0.09088498  0.41586593  0.81030101  1
  Se  Se209  1  0.08358956  0.76323872  0.31379762  1
  Se  Se210  1  0.08976673  0.73772788  0.80141970  1
  Se  Se211  1  0.41544486  0.07057662  0.31181834  1
  Se  Se212  1  0.41222145  0.08600303  0.79461666  1
  Se  Se213  1  0.42090344  0.41192264  0.30347242  1
  Se  Se214  1  0.41973819  0.42423148  0.80725330  1
  Se  Se215  1  0.40714899  0.74299694  0.30628578  1
  Se  Se216  1  0.42648309  0.75949185  0.80808002  1
  Se  Se217  1  0.75701361  0.09476722  0.31842266  1
  Se  Se218  1  0.74306211  0.07782113  0.79681070  1
  Se  Se219  1  0.76215459  0.42537469  0.32135065  1
  Se  Se220  1  0.75012109  0.42576203  0.79876770  1
  Se  Se221  1  0.74278714  0.75663725  0.30643324  1
  Se  Se222  1  0.75973934  0.76378267  0.80292656  1
  Se  Se223  1  0.25075271  0.07641181  0.20015835  1
  Se  Se224  1  0.25259586  0.07873478  0.69300340  1
  Se  Se225  1  0.25557992  0.40435487  0.20044179  1
  Se  Se226  1  0.24110208  0.42846727  0.69077381  1
  Se  Se227  1  0.24611560  0.75320189  0.20143175  1
  Se  Se228  1  0.23517716  0.76936286  0.68952318  1
  Se  Se229  1  0.57978825  0.08219966  0.19429735  1
  Se  Se230  1  0.58796705  0.07731310  0.68354451  1
  Se  Se231  1  0.58514949  0.41495151  0.19330108  1
  Se  Se232  1  0.57460253  0.42213080  0.68826856  1
  Se  Se233  1  0.58467646  0.74764596  0.20089749  1
  Se  Se234  1  0.58223271  0.76723986  0.68278497  1
  Se  Se235  1  0.91848496  0.08045326  0.20448037  1
  Se  Se236  1  0.92418843  0.07993982  0.69849092  1
  Se  Se237  1  0.92133412  0.42022939  0.20627824  1
  Se  Se238  1  0.90754668  0.40954801  0.68172172  1
  Se  Se239  1  0.91030107  0.76281688  0.19123780  1
  Se  Se240  1  0.92290173  0.74012813  0.69236341  1
  Se  Se241  1  0.08345009  0.24507675  0.20153730  1
  Se  Se242  1  0.08515245  0.23942155  0.68839088  1
  Se  Se243  1  0.09060274  0.58249875  0.18438435  1
  Se  Se244  1  0.07416309  0.58380259  0.69896820  1
  Se  Se245  1  0.07863006  0.91859675  0.19842282  1
  Se  Se246  1  0.06573706  0.93218699  0.69674796  1
  Se  Se247  1  0.41974966  0.24618817  0.20548042  1
  Se  Se248  1  0.42403120  0.24052180  0.67443609  1
  Se  Se249  1  0.42072382  0.57954907  0.19835056  1
  Se  Se250  1  0.41980884  0.58189163  0.68869497  1
  Se  Se251  1  0.41401352  0.91529669  0.20301928  1
  Se  Se252  1  0.40991131  0.92156037  0.69519722  1
  Se  Se253  1  0.75830678  0.25025248  0.20438813  1
  Se  Se254  1  0.74850600  0.23059169  0.67753828  1
  Se  Se255  1  0.75526691  0.58977190  0.20840677  1
  Se  Se256  1  0.75210260  0.57874978  0.67819737  1
  Se  Se257  1  0.75178624  0.91572629  0.19096026  1
  Se  Se258  1  0.74309246  0.91691398  0.68583176  1
