# generated using pymatgen
data_In86Cu29Se144
_symmetry_space_group_name_H-M   'P 1'
_cell_length_a   17.58272223
_cell_length_b   17.58801094
_cell_length_c   23.44741225
_cell_angle_alpha   90.01202596
_cell_angle_beta   89.97860278
_cell_angle_gamma   90.00650741
_symmetry_Int_Tables_number   1
_chemical_formula_structural   In86Cu29Se144
_chemical_formula_sum   'In86 Cu29 Se144'
_cell_volume   7250.99689305
_cell_formula_units_Z   1
loop_
 _symmetry_equiv_pos_site_id
 _symmetry_equiv_pos_as_xyz
  1  'x, y, z'
loop_
 _atom_site_type_symbol
 _atom_site_label
 _atom_site_symmetry_multiplicity
 _atom_site_fract_x
 _atom_site_fract_y
 _atom_site_fract_z
 _atom_site_occupancy
  In  In0  1  0.00660331  0.17322843  0.12551528  1
  In  In1  1  -0.00369248  0.16483959  0.62242889  1
  In  In2  1  0.00907567  0.50369050  0.12207479  1
  In  In3  1  -0.01449661  0.48786311  0.61605899  1
  In  In4  1  -0.02065512  0.83181726  0.12466262  1
  In  In5  1  -0.01319705  0.84850232  0.62871643  1
  In  In6  1  0.34164282  0.15260165  0.13880361  1
  In  In7  1  0.33733388  0.17869944  0.61436255  1
  In  In8  1  0.31940783  0.49909175  0.12517313  1
  In  In9  1  0.33666332  0.50166170  0.61902577  1
  In  In10  1  0.35489755  0.83541431  0.12857727  1
  In  In11  1  0.32283214  0.83042579  0.62882518  1
  In  In12  1  0.66460992  0.18439816  0.12953598  1
  In  In13  1  0.67319255  0.16774484  0.62604135  1
  In  In14  1  0.67686809  0.49187964  0.13188111  1
  In  In15  1  0.65507781  0.49085479  0.61676482  1
  In  In16  1  0.66515440  0.82671061  0.12748213  1
  In  In17  1  0.68369182  0.83761236  0.61720000  1
  In  In18  1  0.17633880  0.00529892  0.37261288  1
  In  In19  1  0.16451636  0.01450771  0.87235004  1
  In  In20  1  0.17694257  0.32408728  0.38329495  1
  In  In21  1  0.15833783  0.34119238  0.87511093  1
  In  In22  1  0.15280995  0.67122925  0.37207609  1
  In  In23  1  0.16644932  0.64719643  0.87710821  1
  In  In24  1  0.51163378  0.01645354  0.38011377  1
  In  In25  1  0.51264656  -0.00658450  0.88059470  1
  In  In26  1  0.50405822  0.33333026  0.37399101  1
  In  In27  1  0.49440704  0.31805706  0.88011393  1
  In  In28  1  0.49525629  0.65013263  0.37243100  1
  In  In29  1  0.50436357  0.68114494  0.87571483  1
  In  In30  1  0.82583042  -0.00346400  0.39161893  1
  In  In31  1  0.82166669  -0.00455577  0.86190057  1
  In  In32  1  0.81990738  0.34739497  0.38264546  1
  In  In33  1  0.83976413  0.33751098  0.86315486  1
  In  In34  1  0.82911780  0.66517078  0.37348535  1
  In  In35  1  0.82874127  0.66611520  0.88461668  1
  In  In36  1  -0.00275336  0.16392688  0.38522194  1
  In  In37  1  -0.01512437  0.15926350  0.85281438  1
  In  In38  1  -0.01222470  0.51094431  0.38556234  1
  In  In39  1  0.00508596  0.49445730  0.87834464  1
  In  In40  1  -0.00845425  0.82035661  0.36693740  1
  In  In41  1  -0.01803117  0.82834975  0.87574827  1
  In  In42  1  0.33424481  0.17476174  0.37312894  1
  In  In43  1  0.34354106  0.18186559  0.88022713  1
  In  In44  1  0.34731280  0.48622963  0.38067238  1
  In  In45  1  0.31445790  0.49244772  0.87808179  1
  In  In46  1  0.32698292  0.83685803  0.36604582  1
  In  In47  1  0.35407882  0.83734131  0.87615428  1
  In  In48  1  0.65660897  0.17170337  0.38949233  1
  In  In49  1  0.66562260  0.15934293  0.86354901  1
  In  In50  1  0.66823097  0.50063009  0.37307312  1
  In  In51  1  0.67851986  0.50833644  0.87574648  1
  In  In52  1  0.67882644  0.82839632  0.37216914  1
  In  In53  1  0.66110484  0.84004920  0.88030591  1
  In  In54  1  0.17926778  0.01510129  0.12818176  1
  In  In55  1  0.14743745  -0.00033064  0.62417289  1
  In  In56  1  0.16550312  0.34318720  0.12929049  1
  In  In57  1  0.15324447  0.32422322  0.61439875  1
  In  In58  1  0.16780748  0.64814973  0.12618008  1
  In  In59  1  0.17717944  0.66825211  0.62447334  1
  In  In60  1  0.49915423  -0.01088985  0.12336122  1
  In  In61  1  0.50371471  0.02041555  0.62009406  1
  In  In62  1  0.50248597  0.32610476  0.12753370  1
  In  In63  1  0.50948974  0.33801235  0.62131995  1
  In  In64  1  0.50628139  0.68638961  0.13078745  1
  In  In65  1  0.50143774  0.65259015  0.62133305  1
  In  In66  1  0.84012189  -0.00399005  0.12332852  1
  In  In67  1  0.83053151  0.00276113  0.62083450  1
  In  In68  1  0.82012930  0.33490315  0.12753377  1
  In  In69  1  0.82945723  0.32782424  0.62803150  1
  In  In70  1  0.83490454  0.66659604  0.13183178  1
  In  In71  1  0.81486149  0.66190381  0.60446218  1
  In  In72  1  0.33247547  0.00017461  0.74977154  1
  In  In73  1  0.82668427  0.16585371  -0.00918598  1
  In  In74  1  0.50307895  0.82886799  0.48919950  1
  In  In75  1  0.00401298  0.33738426  0.25517053  1
  In  In76  1  0.00191432  -0.00210694  0.25677775  1
  In  In77  1  0.33407510  0.66386848  0.24644707  1
  In  In78  1  0.15926959  0.83751693  0.49727388  1
  In  In79  1  0.33055612  0.33560723  0.75499133  1
  In  In80  1  0.66573712  0.66918739  0.74275696  1
  In  In81  1  0.16955949  0.17829997  -0.00206272  1
  In  In82  1  0.49853986  0.50298269  0.00734233  1
  In  In83  1  -0.00043352  0.66565855  0.74699673  1
  In  In84  1  0.16958531  0.82757499  0.00314844  1
  In  In85  1  0.66541900  -0.00374549  0.25501465  1
  Cu  Cu86  1  0.50649342  0.83926133  0.75196248  1
  Cu  Cu87  1  0.16730181  0.49746737  0.25474934  1
  Cu  Cu88  1  0.16105269  0.16493002  0.74082884  1
  Cu  Cu89  1  -0.00120491  -0.00658651  -0.00233964  1
  Cu  Cu90  1  0.49704769  0.50029747  0.74264781  1
  Cu  Cu91  1  -0.00231861  0.67034287  0.49730853  1
  Cu  Cu92  1  0.33370609  0.65989320  0.49867235  1
  Cu  Cu93  1  0.50113642  0.16949651  0.25672483  1
  Cu  Cu94  1  0.66790393  0.33142736  0.50176635  1
  Cu  Cu95  1  -0.00462715  0.00212104  0.50226314  1
  Cu  Cu96  1  0.34818860  0.00268411  0.00386505  1
  Cu  Cu97  1  0.33232383  0.01112638  0.49682642  1
  Cu  Cu98  1  0.16946623  0.82545049  0.75002409  1
  Cu  Cu99  1  0.33570324  0.66490527  0.00498275  1
  Cu  Cu100  1  -0.00793486  0.66069671  0.00226818  1
  Cu  Cu101  1  0.83383124  0.50507439  0.25647687  1
  Cu  Cu102  1  0.33736030  0.33646147  0.49736204  1
  Cu  Cu103  1  0.67390399  0.66920638  0.00507120  1
  Cu  Cu104  1  0.66786238  0.00280163  -0.00254052  1
  Cu  Cu105  1  0.83417141  0.49381743  0.74825762  1
  Cu  Cu106  1  0.66441860  0.33789945  0.00229765  1
  Cu  Cu107  1  0.83338495  0.83517476  0.74636938  1
  Cu  Cu108  1  0.50781694  0.16583232  0.75082041  1
  Cu  Cu109  1  0.82991873  0.16861158  0.25605367  1
  Cu  Cu110  1  0.00096322  0.33372422  0.50185132  1
  Cu  Cu111  1  0.16266055  0.49444413  0.74947797  1
  Cu  Cu112  1  0.50531927  0.49338302  0.24916505  1
  Cu  Cu113  1  -0.00541773  0.33530864  -0.00492887  1
  Cu  Cu114  1  0.16279234  0.83693104  0.24715699  1
  Se  Se115  1  0.07851505  0.07720484  0.05404297  1
  Se  Se116  1  0.08407990  0.08590388  0.54960945  1
  Se  Se117  1  0.08067617  0.41014797  0.05351525  1
  Se  Se118  1  0.08561731  0.42357968  0.54953353  1
  Se  Se119  1  0.07613540  0.74012635  0.06175214  1
  Se  Se120  1  0.07396294  0.74896426  0.56285682  1
  Se  Se121  1  0.42464489  0.08711889  0.06042482  1
  Se  Se122  1  0.41868631  0.09242520  0.54816918  1
  Se  Se123  1  0.40819989  0.41007118  0.06145005  1
  Se  Se124  1  0.42096452  0.41673495  0.55422220  1
  Se  Se125  1  0.42127031  0.75001074  0.05295906  1
  Se  Se126  1  0.40783954  0.74827322  0.55713374  1
  Se  Se127  1  0.74318520  0.08241147  0.06270454  1
  Se  Se128  1  0.74337051  0.08045008  0.55320807  1
  Se  Se129  1  0.75182218  0.41855977  0.05242838  1
  Se  Se130  1  0.75169085  0.41373333  0.55637168  1
  Se  Se131  1  0.75620202  0.75194974  0.05971717  1
  Se  Se132  1  0.74738101  0.75741094  0.53950767  1
  Se  Se133  1  0.25545765  0.24861508  0.07044847  1
  Se  Se134  1  0.24839652  0.25360544  0.54743958  1
  Se  Se135  1  0.24736148  0.57903891  0.04848227  1
  Se  Se136  1  0.24664986  0.58135191  0.55227172  1
  Se  Se137  1  0.25925436  0.92362246  0.05862427  1
  Se  Se138  1  0.25453417  0.92727713  0.55703121  1
  Se  Se139  1  0.58344019  0.25050152  0.05183718  1
  Se  Se140  1  0.58478372  0.24736681  0.55570204  1
  Se  Se141  1  0.59125294  0.59150781  0.06586797  1
  Se  Se142  1  0.59400367  0.59237461  0.55146829  1
  Se  Se143  1  0.59183714  0.91697691  0.05625658  1
  Se  Se144  1  0.57881706  0.91707867  0.55946282  1
  Se  Se145  1  0.91755805  0.25405807  0.05680306  1
  Se  Se146  1  0.91572062  0.25194453  0.55563517  1
  Se  Se147  1  0.91259959  0.57910782  0.06012214  1
  Se  Se148  1  0.91580512  0.58364723  0.54930223  1
  Se  Se149  1  0.91077967  0.91408593  0.04798979  1
  Se  Se150  1  0.91069713  0.91400732  0.54940733  1
  Se  Se151  1  0.08341787  0.24924720  0.44885714  1
  Se  Se152  1  0.06492794  0.24636071  0.93430648  1
  Se  Se153  1  0.08591171  0.58835914  0.44793664  1
  Se  Se154  1  0.08018797  0.57976262  0.95042433  1
  Se  Se155  1  0.07110105  0.92457164  0.43399352  1
  Se  Se156  1  0.08357334  0.91816944  0.93824983  1
  Se  Se157  1  0.42029217  0.25195898  0.44426913  1
  Se  Se158  1  0.41668539  0.25186797  0.95789465  1
  Se  Se159  1  0.42099473  0.57660916  0.45038034  1
  Se  Se160  1  0.41284714  0.58783850  0.93794637  1
  Se  Se161  1  0.40509239  0.92385044  0.43816410  1
  Se  Se162  1  0.42766501  0.91511324  0.95118597  1
  Se  Se163  1  0.75455990  0.24939805  0.44984491  1
  Se  Se164  1  0.74098434  0.26150824  0.93527743  1
  Se  Se165  1  0.76836068  0.56337948  0.43951686  1
  Se  Se166  1  0.75259978  0.57987130  0.95440979  1
  Se  Se167  1  0.73575343  0.91358278  0.45116619  1
  Se  Se168  1  0.75291548  0.92152293  0.94327157  1
  Se  Se169  1  0.24780382  0.09199949  0.44345048  1
  Se  Se170  1  0.26301285  0.07806587  0.94386031  1
  Se  Se171  1  0.24993616  0.42044062  0.44834278  1
  Se  Se172  1  0.25136205  0.39903090  0.94701371  1
  Se  Se173  1  0.25549586  0.74535873  0.44096908  1
  Se  Se174  1  0.25943100  0.74327605  0.93804002  1
  Se  Se175  1  0.59182075  0.07671451  0.45878790  1
  Se  Se176  1  0.58886011  0.08915881  0.94341043  1
  Se  Se177  1  0.58765977  0.41488135  0.44361958  1
  Se  Se178  1  0.58575267  0.41882619  0.94019578  1
  Se  Se179  1  0.59052393  0.73341676  0.43559619  1
  Se  Se180  1  0.58858669  0.74965031  0.95003759  1
  Se  Se181  1  0.90948828  0.08719824  0.45303622  1
  Se  Se182  1  0.92195737  0.07556574  0.93661075  1
  Se  Se183  1  0.91508009  0.41635129  0.45047013  1
  Se  Se184  1  0.91027944  0.41661410  0.94144038  1
  Se  Se185  1  0.91337429  0.75122477  0.44366767  1
  Se  Se186  1  0.91217519  0.74968348  0.95211964  1
  Se  Se187  1  0.25630148  0.26170735  0.30441940  1
  Se  Se188  1  0.23870551  0.23795779  0.80871379  1
  Se  Se189  1  0.24919802  0.57923033  0.31424034  1
  Se  Se190  1  0.24823291  0.57685604  0.80130908  1
  Se  Se191  1  0.24633595  0.92013382  0.29796491  1
  Se  Se192  1  0.24494851  0.90868514  0.81312031  1
  Se  Se193  1  0.59074194  0.24767394  0.30821810  1
  Se  Se194  1  0.58190186  0.25559934  0.80521220  1
  Se  Se195  1  0.58391003  0.58055544  0.30113976  1
  Se  Se196  1  0.57629925  0.58049450  0.80640021  1
  Se  Se197  1  0.57322821  0.90948687  0.31449138  1
  Se  Se198  1  0.59124379  0.92158330  0.80319116  1
  Se  Se199  1  0.91132715  0.24942570  0.31467143  1
  Se  Se200  1  0.90705602  0.24901998  0.79107905  1
  Se  Se201  1  0.92241950  0.58685333  0.30481663  1
  Se  Se202  1  0.90787212  0.58019754  0.80946585  1
  Se  Se203  1  0.90126217  0.91608671  0.31020136  1
  Se  Se204  1  0.91847908  0.91461726  0.80126332  1
  Se  Se205  1  0.08830671  0.09701357  0.30854842  1
  Se  Se206  1  0.08232513  0.07725297  0.79517852  1
  Se  Se207  1  0.08734136  0.42516690  0.32040842  1
  Se  Se208  1  0.07596076  0.41381878  0.80116717  1
  Se  Se209  1  0.08074908  0.74974218  0.29566031  1
  Se  Se210  1  0.08847096  0.75102886  0.81409527  1
  Se  Se211  1  0.42041485  0.08435281  0.31001030  1
  Se  Se212  1  0.42243755  0.08888285  0.81102201  1
  Se  Se213  1  0.41923093  0.41285943  0.30188286  1
  Se  Se214  1  0.42366567  0.42534804  0.81294109  1
  Se  Se215  1  0.42299008  0.75355113  0.30617476  1
  Se  Se216  1  0.42150962  0.75286239  0.80056266  1
  Se  Se217  1  0.75270094  0.08805635  0.31623685  1
  Se  Se218  1  0.76807163  0.10117088  0.79838523  1
  Se  Se219  1  0.74857562  0.41547708  0.30086163  1
  Se  Se220  1  0.74397028  0.41992805  0.80296535  1
  Se  Se221  1  0.75350882  0.74784805  0.30030469  1
  Se  Se222  1  0.75454215  0.75405550  0.80836168  1
  Se  Se223  1  0.24904897  0.08313506  0.20766002  1
  Se  Se224  1  0.24873225  0.08958853  0.68409074  1
  Se  Se225  1  0.25151750  0.41649918  0.20184143  1
  Se  Se226  1  0.24307115  0.41596117  0.68698261  1
  Se  Se227  1  0.24374492  0.75612368  0.18512700  1
  Se  Se228  1  0.25478285  0.74233231  0.70150333  1
  Se  Se229  1  0.58086509  0.09035580  0.19313241  1
  Se  Se230  1  0.58804161  0.08235009  0.69679339  1
  Se  Se231  1  0.58725856  0.40920734  0.19478605  1
  Se  Se232  1  0.58465335  0.41614711  0.69712283  1
  Se  Se233  1  0.58644684  0.75667426  0.20455682  1
  Se  Se234  1  0.57683660  0.76033172  0.68368968  1
  Se  Se235  1  0.91170961  0.09438546  0.19400749  1
  Se  Se236  1  0.93875777  0.05719016  0.68442911  1
  Se  Se237  1  0.91169409  0.42265246  0.19283605  1
  Se  Se238  1  0.91817747  0.41234502  0.69556329  1
  Se  Se239  1  0.92080756  0.74692475  0.20044799  1
  Se  Se240  1  0.90200154  0.74542365  0.68554011  1
  Se  Se241  1  0.09430864  0.24293934  0.19827673  1
  Se  Se242  1  0.07840702  0.25178657  0.69219477  1
  Se  Se243  1  0.08330442  0.57915499  0.20057640  1
  Se  Se244  1  0.08606182  0.57495687  0.68578385  1
  Se  Se245  1  0.08573695  0.91612051  0.18329378  1
  Se  Se246  1  0.08587891  0.90854627  0.69813890  1
  Se  Se247  1  0.41884020  0.25026522  0.19996897  1
  Se  Se248  1  0.42159497  0.24626838  0.69460682  1
  Se  Se249  1  0.42636710  0.57421285  0.18608480  1
  Se  Se250  1  0.41217061  0.58412188  0.69364498  1
  Se  Se251  1  0.41490710  0.92593916  0.20044208  1
  Se  Se252  1  0.42426511  0.91472958  0.68749180  1
  Se  Se253  1  0.74925630  0.25447098  0.20351569  1
  Se  Se254  1  0.74305500  0.25471966  0.69902646  1
  Se  Se255  1  0.74846054  0.58383465  0.19952657  1
  Se  Se256  1  0.75591710  0.57524446  0.68746039  1
  Se  Se257  1  0.75980188  0.91295360  0.19374910  1
  Se  Se258  1  0.74974993  0.91882614  0.69432759  1
