# generated using pymatgen
data_In86Cu29Se144
_symmetry_space_group_name_H-M   'P 1'
_cell_length_a   17.58734807
_cell_length_b   17.58571857
_cell_length_c   23.45272442
_cell_angle_alpha   90.01513110
_cell_angle_beta   89.98312970
_cell_angle_gamma   90.00447100
_symmetry_Int_Tables_number   1
_chemical_formula_structural   In86Cu29Se144
_chemical_formula_sum   'In86 Cu29 Se144'
_cell_volume   7253.60233792
_cell_formula_units_Z   1
loop_
 _symmetry_equiv_pos_site_id
 _symmetry_equiv_pos_as_xyz
  1  'x, y, z'
loop_
 _atom_site_type_symbol
 _atom_site_label
 _atom_site_symmetry_multiplicity
 _atom_site_fract_x
 _atom_site_fract_y
 _atom_site_fract_z
 _atom_site_occupancy
  In  In0  1  -0.00328569  0.18148838  0.12048196  1
  In  In1  1  0.00218842  0.16831189  0.62759925  1
  In  In2  1  0.00261335  0.50276271  0.11320999  1
  In  In3  1  0.00288789  0.50331371  0.63602712  1
  In  In4  1  0.00447332  0.81611850  0.12426271  1
  In  In5  1  -0.00085929  0.83272870  0.63583127  1
  In  In6  1  0.32985322  0.16437863  0.13817896  1
  In  In7  1  0.34061427  0.17414466  0.61739710  1
  In  In8  1  0.31080705  0.51761258  0.14735498  1
  In  In9  1  0.34019301  0.49048936  0.62811898  1
  In  In10  1  0.32145431  0.83427568  0.13770275  1
  In  In11  1  0.33909532  0.81754430  0.62537879  1
  In  In12  1  0.66529138  0.16034564  0.12073091  1
  In  In13  1  0.66206012  0.17468438  0.63070493  1
  In  In14  1  0.68646430  0.50276781  0.12476095  1
  In  In15  1  0.65137080  0.51128636  0.63286224  1
  In  In16  1  0.66238001  0.83382882  0.13013991  1
  In  In17  1  0.65658180  0.82980911  0.62946522  1
  In  In18  1  0.19274771  0.00079817  0.37275055  1
  In  In19  1  0.15576069  0.00411866  0.87787544  1
  In  In20  1  0.16549211  0.31933555  0.38048829  1
  In  In21  1  0.17662651  0.34944068  0.86842947  1
  In  In22  1  0.17590316  0.67745859  0.34955953  1
  In  In23  1  0.16454232  0.66411249  0.87871438  1
  In  In24  1  0.49829711  -0.00313331  0.37951237  1
  In  In25  1  0.50822600  -0.01393602  0.86680292  1
  In  In26  1  0.49570002  0.34666072  0.38732241  1
  In  In27  1  0.50159058  0.33829398  0.86329409  1
  In  In28  1  0.50316430  0.66709972  0.38175667  1
  In  In29  1  0.49523984  0.66736332  0.86013683  1
  In  In30  1  0.82242518  0.01195118  0.37151478  1
  In  In31  1  0.83398041  0.00446174  0.87033999  1
  In  In32  1  0.83750385  0.34863612  0.37340100  1
  In  In33  1  0.83008699  0.33049458  0.87606859  1
  In  In34  1  0.83537782  0.66340657  0.36264869  1
  In  In35  1  0.82327888  0.65627645  0.87196796  1
  In  In36  1  0.00670428  0.18423102  0.38200894  1
  In  In37  1  -0.01324964  0.15811602  0.86880202  1
  In  In38  1  -0.00034538  0.51046942  0.36843536  1
  In  In39  1  -0.00090689  0.50018045  0.87400295  1
  In  In40  1  0.01151711  0.82168789  0.37315733  1
  In  In41  1  0.00684035  0.84207018  0.87348928  1
  In  In42  1  0.33878811  0.16802495  0.38052478  1
  In  In43  1  0.32129266  0.17400918  0.87232558  1
  In  In44  1  0.34006283  0.51147735  0.36183743  1
  In  In45  1  0.33101940  0.49983108  0.87270522  1
  In  In46  1  0.33841091  0.84056074  0.36988152  1
  In  In47  1  0.33302605  0.80872672  0.87331125  1
  In  In48  1  0.66597672  0.15479255  0.37557556  1
  In  In49  1  0.68225186  0.17957680  0.85988311  1
  In  In50  1  0.66743275  0.50181306  0.37540885  1
  In  In51  1  0.66827943  0.50261374  0.87367412  1
  In  In52  1  0.64735840  0.81953285  0.37017309  1
  In  In53  1  0.65908510  0.83220913  0.85891097  1
  In  In54  1  0.18004125  0.00071286  0.12835288  1
  In  In55  1  0.15546463  0.00059732  0.62783805  1
  In  In56  1  0.16475374  0.35273969  0.12811121  1
  In  In57  1  0.16805277  0.33213448  0.62937831  1
  In  In58  1  0.16464749  0.66142748  0.12470159  1
  In  In59  1  0.16935738  0.66796815  0.63442684  1
  In  In60  1  0.49971709  -0.00521959  0.13579027  1
  In  In61  1  0.50672473  0.00413580  0.61894800  1
  In  In62  1  0.49273935  0.32546922  0.12740069  1
  In  In63  1  0.49985541  0.33303235  0.62341106  1
  In  In64  1  0.49585168  0.66651024  0.13494916  1
  In  In65  1  0.50451700  0.65926171  0.61937693  1
  In  In66  1  0.81910046  -0.00132118  0.12146289  1
  In  In67  1  0.83563230  -0.00165665  0.63224344  1
  In  In68  1  0.83761915  0.34026467  0.10535354  1
  In  In69  1  0.83609642  0.33368515  0.63393349  1
  In  In70  1  0.84619723  0.64795920  0.14024975  1
  In  In71  1  0.83117258  0.66806616  0.63441242  1
  In  In72  1  0.50292741  0.16731714  0.00035348  1
  In  In73  1  0.17366179  0.83679628  0.49458492  1
  In  In74  1  0.00099056  0.33938727  0.24573785  1
  In  In75  1  0.83442946  0.82821657  0.00085327  1
  In  In76  1  -0.00096038  -0.00506118  0.25067628  1
  In  In77  1  0.82792054  0.17056429  0.50812991  1
  In  In78  1  0.33403467  0.00230957  0.74563955  1
  In  In79  1  0.82627306  0.83523971  0.50893334  1
  In  In80  1  0.83398405  0.49948640  0.49595336  1
  In  In81  1  0.66396820  0.33799336  0.25127738  1
  In  In82  1  0.49938253  0.49526484  -0.00145399  1
  In  In83  1  0.16137281  0.17210086  -0.00059301  1
  In  In84  1  0.16790868  0.50025883  0.49649964  1
  In  In85  1  0.50027995  0.82993752  -0.00314530  1
  Cu  Cu86  1  0.33468205  -0.00952478  0.00778178  1
  Cu  Cu87  1  -0.00017662  0.65831084  -0.00027882  1
  Cu  Cu88  1  0.34133118  0.66163193  0.49755220  1
  Cu  Cu89  1  0.00795290  0.01054157  0.50130386  1
  Cu  Cu90  1  0.17440365  0.16170911  0.25708952  1
  Cu  Cu91  1  0.67151243  0.00647671  -0.00564373  1
  Cu  Cu92  1  0.83710895  0.82704064  0.75374624  1
  Cu  Cu93  1  0.49565003  0.49699202  0.74544467  1
  Cu  Cu94  1  0.82628359  0.16848537  0.24518270  1
  Cu  Cu95  1  0.32545257  0.66426282  0.00451726  1
  Cu  Cu96  1  0.65772117  -0.00616378  0.49859513  1
  Cu  Cu97  1  0.33725858  0.33510616  0.50193160  1
  Cu  Cu98  1  0.82498370  0.83888979  0.24764726  1
  Cu  Cu99  1  0.49706134  0.83360861  0.25628334  1
  Cu  Cu100  1  0.16660230  0.50847885  0.75310568  1
  Cu  Cu101  1  0.83413542  0.16456723  0.74932399  1
  Cu  Cu102  1  0.50207332  0.50135523  0.25771171  1
  Cu  Cu103  1  0.83301916  0.49607488  0.75512891  1
  Cu  Cu104  1  -0.00344758  0.33280660  -0.00824396  1
  Cu  Cu105  1  0.00214012  -0.00359306  -0.00506260  1
  Cu  Cu106  1  0.49714697  0.16797307  0.74204203  1
  Cu  Cu107  1  0.67114557  0.66344377  -0.00064524  1
  Cu  Cu108  1  0.33117364  0.33946777  0.00085473  1
  Cu  Cu109  1  0.15972734  0.17513076  0.75273279  1
  Cu  Cu110  1  0.33661922  0.00329822  0.50055101  1
  Cu  Cu111  1  0.00327516  0.66833950  0.49950536  1
  Cu  Cu112  1  0.49808063  0.16139548  0.25528697  1
  Cu  Cu113  1  0.66596295  0.33342509  0.50554434  1
  Cu  Cu114  1  0.16786060  0.83394977  0.75355048  1
  Se  Se115  1  0.07713165  0.07647320  0.06124003  1
  Se  Se116  1  0.08881690  0.09121210  0.55620968  1
  Se  Se117  1  0.08199949  0.41032207  0.04814247  1
  Se  Se118  1  0.07797189  0.41814622  0.56087357  1
  Se  Se119  1  0.08444709  0.74276587  0.05058872  1
  Se  Se120  1  0.08246376  0.75030464  0.55932344  1
  Se  Se121  1  0.41188079  0.07726893  0.06277062  1
  Se  Se122  1  0.42153436  0.08651480  0.55214512  1
  Se  Se123  1  0.40720712  0.41751387  0.06493494  1
  Se  Se124  1  0.42140555  0.41944094  0.55272616  1
  Se  Se125  1  0.41029090  0.74588706  0.06081627  1
  Se  Se126  1  0.42086146  0.74751166  0.55078333  1
  Se  Se127  1  0.75342313  0.08827282  0.04861120  1
  Se  Se128  1  0.74032386  0.07121399  0.56027489  1
  Se  Se129  1  0.74082946  0.41718635  0.04712716  1
  Se  Se130  1  0.74815815  0.41429493  0.56288404  1
  Se  Se131  1  0.74563862  0.74285459  0.06380075  1
  Se  Se132  1  0.74109751  0.73581490  0.55989615  1
  Se  Se133  1  0.25668375  0.25302155  0.06141686  1
  Se  Se134  1  0.24939970  0.25641956  0.55493415  1
  Se  Se135  1  0.24940414  0.57426528  0.05661525  1
  Se  Se136  1  0.25458648  0.59079061  0.55949453  1
  Se  Se137  1  0.24853774  0.90931729  0.05780579  1
  Se  Se138  1  0.25792317  0.92297289  0.56321507  1
  Se  Se139  1  0.59145701  0.26227035  0.05630854  1
  Se  Se140  1  0.58291076  0.24681140  0.55458688  1
  Se  Se141  1  0.58354616  0.59049392  0.05964928  1
  Se  Se142  1  0.58085796  0.57180139  0.54938955  1
  Se  Se143  1  0.58851956  0.92727844  0.05470327  1
  Se  Se144  1  0.58027193  0.90828892  0.55364924  1
  Se  Se145  1  0.91547648  0.24502183  0.04275856  1
  Se  Se146  1  0.92338659  0.26241082  0.55747520  1
  Se  Se147  1  0.90739065  0.58315878  0.05191871  1
  Se  Se148  1  0.92389162  0.58973423  0.55985966  1
  Se  Se149  1  0.92409612  0.92066058  0.06118587  1
  Se  Se150  1  0.93005366  0.92504008  0.55845167  1
  Se  Se151  1  0.08590947  0.25181373  0.45738817  1
  Se  Se152  1  0.07933253  0.25563761  0.93070575  1
  Se  Se153  1  0.08666730  0.59861581  0.43588181  1
  Se  Se154  1  0.08472781  0.57657608  0.94625982  1
  Se  Se155  1  0.07904130  0.92807214  0.43739770  1
  Se  Se156  1  0.09008800  0.91251731  0.94981286  1
  Se  Se157  1  0.42197281  0.24971730  0.45039009  1
  Se  Se158  1  0.40990229  0.25848033  0.94106532  1
  Se  Se159  1  0.41787903  0.57442117  0.44322048  1
  Se  Se160  1  0.41368709  0.59505775  0.94179848  1
  Se  Se161  1  0.41381514  0.91354301  0.44774208  1
  Se  Se162  1  0.40871233  0.92073628  0.93815863  1
  Se  Se163  1  0.74607977  0.26071595  0.43826388  1
  Se  Se164  1  0.75096778  0.24102526  0.94303606  1
  Se  Se165  1  0.74840981  0.59714253  0.44181880  1
  Se  Se166  1  0.75142185  0.57665739  0.94836406  1
  Se  Se167  1  0.74410501  0.92060660  0.43921589  1
  Se  Se168  1  0.74213075  0.91330406  0.93767164  1
  Se  Se169  1  0.25078574  0.08670959  0.44997940  1
  Se  Se170  1  0.25836778  0.07687924  0.94715196  1
  Se  Se171  1  0.26123614  0.41386921  0.43731741  1
  Se  Se172  1  0.25001892  0.42336637  0.94715726  1
  Se  Se173  1  0.25559462  0.73758533  0.43750468  1
  Se  Se174  1  0.24638728  0.74961533  0.94960403  1
  Se  Se175  1  0.58027124  0.08489277  0.44776654  1
  Se  Se176  1  0.58611777  0.07935422  0.93455963  1
  Se  Se177  1  0.59174867  0.42228955  0.44950573  1
  Se  Se178  1  0.58834341  0.40439600  0.94046397  1
  Se  Se179  1  0.57973513  0.75322969  0.45190028  1
  Se  Se180  1  0.59128951  0.74012766  0.93759475  1
  Se  Se181  1  0.91919590  0.08230731  0.44236588  1
  Se  Se182  1  0.91523360  0.07831995  0.94559892  1
  Se  Se183  1  0.93593250  0.41258218  0.44317055  1
  Se  Se184  1  0.91293645  0.41876458  0.94206330  1
  Se  Se185  1  0.91753886  0.74747979  0.44388543  1
  Se  Se186  1  0.92261813  0.74143667  0.93774229  1
  Se  Se187  1  0.25377306  0.24837983  0.30980781  1
  Se  Se188  1  0.25044923  0.25699078  0.79958254  1
  Se  Se189  1  0.24006529  0.56956616  0.29479877  1
  Se  Se190  1  0.25265025  0.58974952  0.80666833  1
  Se  Se191  1  0.22976410  0.89331566  0.30616230  1
  Se  Se192  1  0.24814220  0.91612802  0.81321491  1
  Se  Se193  1  0.57757242  0.24725337  0.31326920  1
  Se  Se194  1  0.58093638  0.24932129  0.79820381  1
  Se  Se195  1  0.58529624  0.58578509  0.30875417  1
  Se  Se196  1  0.58040396  0.57603349  0.80238185  1
  Se  Se197  1  0.58218715  0.92109427  0.30577325  1
  Se  Se198  1  0.58909129  0.92223518  0.79050316  1
  Se  Se199  1  0.90802419  0.24495514  0.30625732  1
  Se  Se200  1  0.91421556  0.25147681  0.80315753  1
  Se  Se201  1  0.92092201  0.58510060  0.29618454  1
  Se  Se202  1  0.91641995  0.58364273  0.80486122  1
  Se  Se203  1  0.90675348  0.90958916  0.31445160  1
  Se  Se204  1  0.91657927  0.91635562  0.80542916  1
  Se  Se205  1  0.08404780  0.08851222  0.31420290  1
  Se  Se206  1  0.08241510  0.08349514  0.80349633  1
  Se  Se207  1  0.09302706  0.41768996  0.31106271  1
  Se  Se208  1  0.08258996  0.42039721  0.80195698  1
  Se  Se209  1  0.07039414  0.74528078  0.29263445  1
  Se  Se210  1  0.08535675  0.75099241  0.80861794  1
  Se  Se211  1  0.41464433  0.07981497  0.31015409  1
  Se  Se212  1  0.42174882  0.09251861  0.81068429  1
  Se  Se213  1  0.42106972  0.41064163  0.30517609  1
  Se  Se214  1  0.40969523  0.41710907  0.80110643  1
  Se  Se215  1  0.41842999  0.74584813  0.30965093  1
  Se  Se216  1  0.43163604  0.77041467  0.79907130  1
  Se  Se217  1  0.74275640  0.08455959  0.29627501  1
  Se  Se218  1  0.74816380  0.07643365  0.79734928  1
  Se  Se219  1  0.76213313  0.43214546  0.30047161  1
  Se  Se220  1  0.74661540  0.41371018  0.80637944  1
  Se  Se221  1  0.74749433  0.75371103  0.30462313  1
  Se  Se222  1  0.74874182  0.74374699  0.80161580  1
  Se  Se223  1  0.25497478  0.07384667  0.20606779  1
  Se  Se224  1  0.24177644  0.09584194  0.69078866  1
  Se  Se225  1  0.26721320  0.39457765  0.19815973  1
  Se  Se226  1  0.24519690  0.42259999  0.69604132  1
  Se  Se227  1  0.25850731  0.72848068  0.19497195  1
  Se  Se228  1  0.25291707  0.75228687  0.70080731  1
  Se  Se229  1  0.58300251  0.08819367  0.19516180  1
  Se  Se230  1  0.58271561  0.08236010  0.69440806  1
  Se  Se231  1  0.57584357  0.42682847  0.18769690  1
  Se  Se232  1  0.58222070  0.41122304  0.69618829  1
  Se  Se233  1  0.57965647  0.75349483  0.19887752  1
  Se  Se234  1  0.58918190  0.73155290  0.69308804  1
  Se  Se235  1  0.91301248  0.09018683  0.18855070  1
  Se  Se236  1  0.92040111  0.08343794  0.69583088  1
  Se  Se237  1  0.90784525  0.42173810  0.18455962  1
  Se  Se238  1  0.91954628  0.41688456  0.70076734  1
  Se  Se239  1  0.91157355  0.75671204  0.19688973  1
  Se  Se240  1  0.92192490  0.74371896  0.70153734  1
  Se  Se241  1  0.09540258  0.24005551  0.19355943  1
  Se  Se242  1  0.07716982  0.25668978  0.69748418  1
  Se  Se243  1  0.08619107  0.56732845  0.18785377  1
  Se  Se244  1  0.08087498  0.59232424  0.70227679  1
  Se  Se245  1  0.08869181  0.90951658  0.18936760  1
  Se  Se246  1  0.08344992  0.91790504  0.70138210  1
  Se  Se247  1  0.41771139  0.24737213  0.20200545  1
  Se  Se248  1  0.41237178  0.25347413  0.69357669  1
  Se  Se249  1  0.41696139  0.58490464  0.20535954  1
  Se  Se250  1  0.41562547  0.58411754  0.69211258  1
  Se  Se251  1  0.41251173  0.91573221  0.20147260  1
  Se  Se252  1  0.42301532  0.91283463  0.68742523  1
  Se  Se253  1  0.75442834  0.25419517  0.18482856  1
  Se  Se254  1  0.75005969  0.25066324  0.69880255  1
  Se  Se255  1  0.73077042  0.60082362  0.19801211  1
  Se  Se256  1  0.75145267  0.57771327  0.69820670  1
  Se  Se257  1  0.74266611  0.92327830  0.19620545  1
  Se  Se258  1  0.75606064  0.90479712  0.69236960  1
