# generated using pymatgen
data_In86Cu29Se144
_symmetry_space_group_name_H-M   'P 1'
_cell_length_a   17.57924389
_cell_length_b   17.57834785
_cell_length_c   23.44027191
_cell_angle_alpha   89.99034468
_cell_angle_beta   90.01678983
_cell_angle_gamma   89.98764514
_symmetry_Int_Tables_number   1
_chemical_formula_structural   In86Cu29Se144
_chemical_formula_sum   'In86 Cu29 Se144'
_cell_volume   7243.37310298
_cell_formula_units_Z   1
loop_
 _symmetry_equiv_pos_site_id
 _symmetry_equiv_pos_as_xyz
  1  'x, y, z'
loop_
 _atom_site_type_symbol
 _atom_site_label
 _atom_site_symmetry_multiplicity
 _atom_site_fract_x
 _atom_site_fract_y
 _atom_site_fract_z
 _atom_site_occupancy
  In  In0  1  0.00484191  0.15456695  0.12352871  1
  In  In1  1  -0.01377912  0.15131989  0.60906419  1
  In  In2  1  0.00613788  0.49157890  0.12445821  1
  In  In3  1  0.01892456  0.49888440  0.62361981  1
  In  In4  1  0.01345919  0.82248837  0.12526249  1
  In  In5  1  0.00627740  0.82228620  0.63203185  1
  In  In6  1  0.33611170  0.16746616  0.12407779  1
  In  In7  1  0.32668795  0.17688757  0.62256716  1
  In  In8  1  0.32931175  0.50056046  0.13080468  1
  In  In9  1  0.34311434  0.50474085  0.61578938  1
  In  In10  1  0.32822010  0.82789690  0.13051667  1
  In  In11  1  0.32193107  0.82483759  0.61676350  1
  In  In12  1  0.66038757  0.17901911  0.12223233  1
  In  In13  1  0.67130509  0.16083250  0.63451233  1
  In  In14  1  0.65826894  0.50938498  0.13260695  1
  In  In15  1  0.64637151  0.50179966  0.62568503  1
  In  In16  1  0.65035086  0.83605757  0.12764775  1
  In  In17  1  0.67109923  0.84373880  0.62329628  1
  In  In18  1  0.17657186  -0.01211321  0.39244191  1
  In  In19  1  0.16472410  0.00513651  0.87543814  1
  In  In20  1  0.17046023  0.33095409  0.37173324  1
  In  In21  1  0.17403284  0.32843775  0.88375723  1
  In  In22  1  0.17852668  0.66356131  0.37599194  1
  In  In23  1  0.17446149  0.66668498  0.87416114  1
  In  In24  1  0.48205717  0.00237716  0.37184640  1
  In  In25  1  0.51226391  -0.00432288  0.88853969  1
  In  In26  1  0.50340433  0.34324382  0.36564894  1
  In  In27  1  0.51724134  0.32314078  0.89357606  1
  In  In28  1  0.49434026  0.66432770  0.37192362  1
  In  In29  1  0.48958647  0.67456781  0.88300557  1
  In  In30  1  0.84998329  0.00278092  0.38276349  1
  In  In31  1  0.83389455  -0.00184881  0.86796184  1
  In  In32  1  0.81622434  0.32953367  0.37478425  1
  In  In33  1  0.82423408  0.34335561  0.87295807  1
  In  In34  1  0.82319788  0.67113068  0.36463324  1
  In  In35  1  0.84383509  0.65812312  0.87323328  1
  In  In36  1  0.00639359  0.15179220  0.39269324  1
  In  In37  1  0.01372579  0.16111446  0.87354907  1
  In  In38  1  0.01216917  0.50955001  0.37664590  1
  In  In39  1  0.00394978  0.51089644  0.87307504  1
  In  In40  1  0.00891065  0.83975645  0.38110693  1
  In  In41  1  0.01181898  0.84332988  0.86582932  1
  In  In42  1  0.32181366  0.15709735  0.36207010  1
  In  In43  1  0.33417878  0.16950373  0.88272879  1
  In  In44  1  0.32843671  0.50726574  0.36545548  1
  In  In45  1  0.33064316  0.50536574  0.88301358  1
  In  In46  1  0.33043802  0.83551580  0.37305849  1
  In  In47  1  0.34607174  0.82358942  0.87891376  1
  In  In48  1  0.66166089  0.17934341  0.37515000  1
  In  In49  1  0.66421341  0.16463517  0.87537830  1
  In  In50  1  0.65728834  0.48486283  0.36229101  1
  In  In51  1  0.66298250  0.49049556  0.87779141  1
  In  In52  1  0.66435350  0.81332184  0.36980767  1
  In  In53  1  0.65364343  0.83713119  0.88067253  1
  In  In54  1  0.17430587  0.00387503  0.12055704  1
  In  In55  1  0.15020551  -0.01516942  0.61122441  1
  In  In56  1  0.18356814  0.34853202  0.11559848  1
  In  In57  1  0.16784129  0.33339582  0.61464595  1
  In  In58  1  0.18168239  0.67608460  0.12386193  1
  In  In59  1  0.17118015  0.66684013  0.62443183  1
  In  In60  1  0.48958904  -0.01872530  0.11159872  1
  In  In61  1  0.51526500  -0.00079472  0.62642703  1
  In  In62  1  0.49928085  0.33378353  0.12319172  1
  In  In63  1  0.49343137  0.34400080  0.62704145  1
  In  In64  1  0.49418360  0.66782816  0.12672551  1
  In  In65  1  0.48666999  0.66035326  0.61912830  1
  In  In66  1  0.82628715  0.00399177  0.12416170  1
  In  In67  1  0.82451530  0.00329119  0.63177794  1
  In  In68  1  0.82020614  0.33444326  0.13565867  1
  In  In69  1  0.83067438  0.32061089  0.62451204  1
  In  In70  1  0.83341957  0.65482268  0.13503371  1
  In  In71  1  0.83857126  0.68079333  0.62532824  1
  In  In72  1  0.33587722  -0.00219172  0.74953020  1
  In  In73  1  0.00166241  0.66613019  0.25350662  1
  In  In74  1  0.00032889  0.33021597  0.25671854  1
  In  In75  1  0.83227579  0.49851268  0.00680682  1
  In  In76  1  0.00612956  -0.00824091  0.25915039  1
  In  In77  1  0.00026188  0.33266015  0.75016488  1
  In  In78  1  0.83196599  0.83457610  0.49692837  1
  In  In79  1  0.83378451  0.83233436  0.00014262  1
  In  In80  1  0.33572647  0.33653273  0.75628692  1
  In  In81  1  0.66150034  0.00061291  0.24298785  1
  In  In82  1  0.83280471  0.49788164  0.49419819  1
  In  In83  1  0.83088031  0.16960546  0.00410399  1
  In  In84  1  0.67092611  0.67057234  0.75134821  1
  In  In85  1  0.49349900  0.16931157  0.49907015  1
  Cu  Cu86  1  0.33415384  0.34165456  0.48991767  1
  Cu  Cu87  1  0.00877324  0.66766132  0.50155711  1
  Cu  Cu88  1  0.83006244  0.16561126  0.25562241  1
  Cu  Cu89  1  0.17404874  0.50694921  0.74934497  1
  Cu  Cu90  1  0.00532064  0.32919256  0.00161505  1
  Cu  Cu91  1  0.66073921  0.33369352  0.49646937  1
  Cu  Cu92  1  0.33329973  0.33742757  0.00732467  1
  Cu  Cu93  1  0.49467500  0.50219968  0.24632157  1
  Cu  Cu94  1  0.49387569  0.83064859  0.24786287  1
  Cu  Cu95  1  0.33364723  0.66514257  0.00498659  1
  Cu  Cu96  1  0.32927538  -0.00256376  -0.00017294  1
  Cu  Cu97  1  0.01728734  0.66799616  -0.00229642  1
  Cu  Cu98  1  0.50969518  0.16636847  0.75912195  1
  Cu  Cu99  1  0.00845856  -0.00503445  -0.00188375  1
  Cu  Cu100  1  0.16986132  0.82761687  0.74647358  1
  Cu  Cu101  1  0.83429185  0.50146784  0.75066249  1
  Cu  Cu102  1  0.66542353  -0.00144496  0.50324115  1
  Cu  Cu103  1  0.65161031  0.65959868  0.49467122  1
  Cu  Cu104  1  0.66060571  0.66824001  0.00567634  1
  Cu  Cu105  1  0.33180353  0.66938399  0.49470497  1
  Cu  Cu106  1  0.00675854  0.33298246  0.49887168  1
  Cu  Cu107  1  0.17080539  0.17142837  0.24555781  1
  Cu  Cu108  1  0.50259587  0.83252062  0.75384490  1
  Cu  Cu109  1  0.15808872  0.15817513  0.74377703  1
  Cu  Cu110  1  0.83772018  0.83718120  0.74923190  1
  Cu  Cu111  1  0.49507171  0.17162908  0.24642116  1
  Cu  Cu112  1  0.83007100  0.16636536  0.74810387  1
  Cu  Cu113  1  0.33272001  -0.00247301  0.49598890  1
  Cu  Cu114  1  0.49764304  0.49905502  0.75087368  1
  Se  Se115  1  0.08776072  0.08368824  0.05036855  1
  Se  Se116  1  0.10645205  0.10511153  0.55815221  1
  Se  Se117  1  0.08624791  0.41959174  0.04952510  1
  Se  Se118  1  0.08932267  0.42175198  0.54676512  1
  Se  Se119  1  0.09634378  0.75407805  0.05099694  1
  Se  Se120  1  0.08795794  0.75297000  0.55571454  1
  Se  Se121  1  0.41347643  0.08102433  0.05270428  1
  Se  Se122  1  0.40954874  0.07469538  0.56222465  1
  Se  Se123  1  0.41470751  0.42280366  0.05933515  1
  Se  Se124  1  0.42059499  0.41548750  0.54789687  1
  Se  Se125  1  0.41427339  0.75285865  0.05738370  1
  Se  Se126  1  0.41592288  0.75178402  0.55003027  1
  Se  Se127  1  0.73543867  0.07629426  0.05536763  1
  Se  Se128  1  0.74509152  0.08257345  0.55808368  1
  Se  Se129  1  0.73810561  0.41040888  0.06122912  1
  Se  Se130  1  0.74066000  0.41387019  0.55930150  1
  Se  Se131  1  0.74898523  0.74129269  0.06392778  1
  Se  Se132  1  0.73707678  0.73895450  0.55288236  1
  Se  Se133  1  0.24888412  0.24602768  0.05314871  1
  Se  Se134  1  0.25620147  0.25590895  0.54649282  1
  Se  Se135  1  0.24902220  0.58025731  0.05579298  1
  Se  Se136  1  0.25201331  0.58524145  0.55288578  1
  Se  Se137  1  0.25126578  0.91174383  0.05583827  1
  Se  Se138  1  0.24715460  0.91336891  0.54764351  1
  Se  Se139  1  0.57645070  0.25007972  0.05101658  1
  Se  Se140  1  0.58564479  0.25357579  0.56224660  1
  Se  Se141  1  0.57849865  0.58358196  0.05774066  1
  Se  Se142  1  0.57138468  0.57746452  0.55052655  1
  Se  Se143  1  0.59189565  0.91644157  0.04860879  1
  Se  Se144  1  0.58103782  0.91198977  0.55124763  1
  Se  Se145  1  0.92171009  0.26017170  0.06568510  1
  Se  Se146  1  0.91600561  0.25553718  0.54981800  1
  Se  Se147  1  0.92974638  0.59405937  0.05759239  1
  Se  Se148  1  0.92148152  0.58876742  0.55778574  1
  Se  Se149  1  0.92622293  0.92296490  0.06180453  1
  Se  Se150  1  0.91527307  0.91374080  0.56731278  1
  Se  Se151  1  0.09050548  0.25120490  0.44485441  1
  Se  Se152  1  0.08501844  0.24471954  0.94699070  1
  Se  Se153  1  0.09261665  0.58568080  0.44825376  1
  Se  Se154  1  0.09283143  0.57925244  0.94368369  1
  Se  Se155  1  0.05976605  0.94099489  0.44937508  1
  Se  Se156  1  0.09039295  0.91242235  0.94401132  1
  Se  Se157  1  0.41058909  0.25389052  0.43142448  1
  Se  Se158  1  0.41319296  0.25280114  0.95155773  1
  Se  Se159  1  0.41142659  0.58193548  0.44119912  1
  Se  Se160  1  0.41867743  0.58271825  0.95158729  1
  Se  Se161  1  0.41771924  0.91444342  0.44532230  1
  Se  Se162  1  0.41670299  0.91564950  0.94772227  1
  Se  Se163  1  0.74686624  0.24662807  0.45079988  1
  Se  Se164  1  0.74440715  0.26236937  0.94514699  1
  Se  Se165  1  0.73954708  0.58603258  0.43635204  1
  Se  Se166  1  0.74553859  0.59347666  0.94420965  1
  Se  Se167  1  0.73880408  0.92100451  0.43573704  1
  Se  Se168  1  0.74567006  0.92667613  0.94361427  1
  Se  Se169  1  0.25461402  0.09104913  0.44759002  1
  Se  Se170  1  0.24840399  0.08332588  0.94568816  1
  Se  Se171  1  0.24848504  0.42258298  0.43739523  1
  Se  Se172  1  0.24993023  0.41764253  0.94963391  1
  Se  Se173  1  0.24710893  0.75644891  0.44589256  1
  Se  Se174  1  0.25451329  0.74830978  0.94572308  1
  Se  Se175  1  0.58494372  0.07730335  0.43994187  1
  Se  Se176  1  0.57375788  0.10187601  0.94821440  1
  Se  Se177  1  0.58027820  0.41804741  0.44309231  1
  Se  Se178  1  0.57840981  0.43046798  0.95376756  1
  Se  Se179  1  0.57524144  0.75024568  0.44323250  1
  Se  Se180  1  0.57970531  0.75174890  0.95070069  1
  Se  Se181  1  0.91050385  0.08513524  0.45982110  1
  Se  Se182  1  0.92226636  0.07721192  0.94323966  1
  Se  Se183  1  0.92506715  0.40796792  0.43511440  1
  Se  Se184  1  0.92520943  0.41133718  0.94187147  1
  Se  Se185  1  0.92160802  0.73780584  0.43913164  1
  Se  Se186  1  0.92902677  0.74544896  0.94054153  1
  Se  Se187  1  0.25323172  0.25661846  0.29775337  1
  Se  Se188  1  0.23974559  0.23752859  0.80430294  1
  Se  Se189  1  0.25401526  0.59827821  0.29621271  1
  Se  Se190  1  0.25956639  0.58384220  0.80497941  1
  Se  Se191  1  0.24859660  0.92754817  0.30999280  1
  Se  Se192  1  0.24813683  0.90710631  0.81013989  1
  Se  Se193  1  0.58230339  0.25093839  0.29989259  1
  Se  Se194  1  0.58719838  0.25805709  0.80857025  1
  Se  Se195  1  0.57941125  0.58235637  0.30268145  1
  Se  Se196  1  0.57834225  0.58317104  0.81058687  1
  Se  Se197  1  0.57501580  0.91266660  0.30825846  1
  Se  Se198  1  0.58103236  0.91958943  0.80651666  1
  Se  Se199  1  0.91513326  0.23620925  0.31771135  1
  Se  Se200  1  0.90950437  0.24328701  0.81261704  1
  Se  Se201  1  0.90937789  0.57103161  0.30873266  1
  Se  Se202  1  0.92251612  0.58385829  0.79824936  1
  Se  Se203  1  0.90548304  0.90226246  0.31007697  1
  Se  Se204  1  0.92194530  0.92221197  0.80012348  1
  Se  Se205  1  0.09030879  0.09435103  0.30930688  1
  Se  Se206  1  0.07931865  0.07425275  0.79908147  1
  Se  Se207  1  0.09335929  0.42923465  0.30325588  1
  Se  Se208  1  0.09701874  0.41973942  0.80816856  1
  Se  Se209  1  0.09091498  0.75937582  0.31022528  1
  Se  Se210  1  0.08747882  0.74618797  0.80413822  1
  Se  Se211  1  0.41358053  0.08203427  0.29503432  1
  Se  Se212  1  0.42204079  0.08722803  0.81291367  1
  Se  Se213  1  0.41180573  0.41805654  0.29970562  1
  Se  Se214  1  0.42692061  0.41916082  0.81807532  1
  Se  Se215  1  0.41195379  0.75021075  0.30466326  1
  Se  Se216  1  0.41824860  0.74548582  0.80140887  1
  Se  Se217  1  0.75134169  0.08117137  0.31390010  1
  Se  Se218  1  0.74868314  0.08522947  0.80558448  1
  Se  Se219  1  0.75295651  0.41164122  0.29897721  1
  Se  Se220  1  0.74589406  0.42197612  0.80065973  1
  Se  Se221  1  0.74445090  0.74793260  0.29316777  1
  Se  Se222  1  0.75897839  0.76052805  0.81500443  1
  Se  Se223  1  0.25131997  0.08430184  0.19342116  1
  Se  Se224  1  0.24533278  0.08259186  0.68611558  1
  Se  Se225  1  0.24751359  0.41471954  0.19885213  1
  Se  Se226  1  0.24777892  0.41988640  0.68912646  1
  Se  Se227  1  0.25629385  0.74162082  0.20405521  1
  Se  Se228  1  0.25627666  0.74554743  0.69594315  1
  Se  Se229  1  0.56969076  0.08730899  0.18416369  1
  Se  Se230  1  0.58580732  0.07966450  0.70240628  1
  Se  Se231  1  0.57937046  0.41617776  0.19600625  1
  Se  Se232  1  0.58104007  0.41380105  0.70008231  1
  Se  Se233  1  0.58055704  0.74736184  0.19798362  1
  Se  Se234  1  0.57897807  0.75345747  0.68803176  1
  Se  Se235  1  0.91079005  0.08525269  0.19755922  1
  Se  Se236  1  0.91649330  0.08709262  0.69405368  1
  Se  Se237  1  0.91122945  0.42317937  0.19555829  1
  Se  Se238  1  0.91225409  0.42334417  0.68666097  1
  Se  Se239  1  0.91249371  0.75922451  0.19277822  1
  Se  Se240  1  0.91885201  0.74616154  0.70275890  1
  Se  Se241  1  0.08563520  0.24765563  0.18741397  1
  Se  Se242  1  0.08465706  0.24612197  0.68491422  1
  Se  Se243  1  0.08904337  0.58255774  0.18773917  1
  Se  Se244  1  0.08628593  0.58569662  0.69611623  1
  Se  Se245  1  0.09520366  0.91091537  0.19279634  1
  Se  Se246  1  0.08639179  0.91521479  0.69628561  1
  Se  Se247  1  0.41204142  0.25570870  0.19376578  1
  Se  Se248  1  0.42515379  0.24017750  0.69656468  1
  Se  Se249  1  0.41083688  0.58876190  0.19744833  1
  Se  Se250  1  0.41495405  0.57979518  0.69554550  1
  Se  Se251  1  0.41511145  0.91771956  0.19410467  1
  Se  Se252  1  0.42299149  0.90742052  0.68749695  1
  Se  Se253  1  0.74420516  0.24326491  0.20120458  1
  Se  Se254  1  0.74665585  0.25484175  0.70049367  1
  Se  Se255  1  0.75282386  0.57481724  0.20212056  1
  Se  Se256  1  0.75557748  0.57885256  0.68599002  1
  Se  Se257  1  0.75752410  0.90709139  0.19148394  1
  Se  Se258  1  0.74551562  0.91651991  0.70094464  1
