# generated using pymatgen
data_In86Cu29Se144
_symmetry_space_group_name_H-M   'P 1'
_cell_length_a   17.58714960
_cell_length_b   17.58675291
_cell_length_c   23.44955961
_cell_angle_alpha   89.99570939
_cell_angle_beta   90.02141361
_cell_angle_gamma   89.99272309
_symmetry_Int_Tables_number   1
_chemical_formula_structural   In86Cu29Se144
_chemical_formula_sum   'In86 Cu29 Se144'
_cell_volume   7252.96823685
_cell_formula_units_Z   1
loop_
 _symmetry_equiv_pos_site_id
 _symmetry_equiv_pos_as_xyz
  1  'x, y, z'
loop_
 _atom_site_type_symbol
 _atom_site_label
 _atom_site_symmetry_multiplicity
 _atom_site_fract_x
 _atom_site_fract_y
 _atom_site_fract_z
 _atom_site_occupancy
  In  In0  1  0.00701745  0.17621602  0.11239461  1
  In  In1  1  -0.00287622  0.16832353  0.62919517  1
  In  In2  1  -0.00081927  0.48218628  0.12734084  1
  In  In3  1  0.00325512  0.50613954  0.62004637  1
  In  In4  1  -0.00696114  0.84332095  0.11943794  1
  In  In5  1  -0.01039725  0.84273645  0.63286001  1
  In  In6  1  0.33658299  0.17568754  0.12661800  1
  In  In7  1  0.33284994  0.15509985  0.62962648  1
  In  In8  1  0.33433180  0.50217080  0.13075454  1
  In  In9  1  0.32889927  0.50059832  0.61302779  1
  In  In10  1  0.34279283  0.81824687  0.12848078  1
  In  In11  1  0.34690302  0.84399365  0.62471630  1
  In  In12  1  0.66626349  0.16417967  0.12692243  1
  In  In13  1  0.67792420  0.16815178  0.62249695  1
  In  In14  1  0.65492325  0.49547454  0.12756999  1
  In  In15  1  0.67108866  0.50145598  0.62306646  1
  In  In16  1  0.67800076  0.84350396  0.11069489  1
  In  In17  1  0.65410417  0.82007801  0.62234761  1
  In  In18  1  0.16715294  0.01175894  0.37407447  1
  In  In19  1  0.17080637  0.01488403  0.86366162  1
  In  In20  1  0.17820809  0.34122715  0.36113770  1
  In  In21  1  0.17334679  0.32904420  0.88731483  1
  In  In22  1  0.16721716  0.64991531  0.37819675  1
  In  In23  1  0.15389134  0.66928664  0.87521980  1
  In  In24  1  0.50089830  -0.01656363  0.37905363  1
  In  In25  1  0.49623240  0.00700672  0.88112344  1
  In  In26  1  0.51240358  0.33901756  0.36155376  1
  In  In27  1  0.50278972  0.32441801  0.87609899  1
  In  In28  1  0.49833648  0.66639069  0.37765538  1
  In  In29  1  0.51631064  0.67669246  0.86959150  1
  In  In30  1  0.82554402  0.01256094  0.38706470  1
  In  In31  1  0.83889232  -0.00631572  0.87597295  1
  In  In32  1  0.83298357  0.32547447  0.37438713  1
  In  In33  1  0.81806108  0.33546340  0.87439922  1
  In  In34  1  0.81835777  0.66973380  0.38560928  1
  In  In35  1  0.83600808  0.67120220  0.86935179  1
  In  In36  1  -0.00987101  0.16568528  0.37227672  1
  In  In37  1  0.00804950  0.15658079  0.88196974  1
  In  In38  1  0.00555941  0.48861321  0.38236793  1
  In  In39  1  0.00179243  0.51187921  0.87461065  1
  In  In40  1  -0.00681301  0.82617214  0.38001630  1
  In  In41  1  -0.01046707  0.82786902  0.86550861  1
  In  In42  1  0.32773137  0.16967050  0.36674034  1
  In  In43  1  0.33668740  0.16371971  0.88402671  1
  In  In44  1  0.33384371  0.50003620  0.37504272  1
  In  In45  1  0.33230192  0.48649087  0.87991137  1
  In  In46  1  0.35748103  0.83505011  0.37560295  1
  In  In47  1  0.33527386  0.84812433  0.87618773  1
  In  In48  1  0.67881295  0.17672849  0.35975963  1
  In  In49  1  0.66024248  0.17380194  0.87983020  1
  In  In50  1  0.67990998  0.47244755  0.39524446  1
  In  In51  1  0.67127338  0.50374785  0.86386894  1
  In  In52  1  0.66056848  0.83733622  0.38213574  1
  In  In53  1  0.66673526  0.82896012  0.88226036  1
  In  In54  1  0.15739532  0.00414876  0.11949881  1
  In  In55  1  0.17372207  -0.00146240  0.64129356  1
  In  In56  1  0.16421365  0.33206600  0.12631784  1
  In  In57  1  0.15729668  0.33458166  0.62089109  1
  In  In58  1  0.18503025  0.66678293  0.12474676  1
  In  In59  1  0.16463552  0.65321344  0.62613891  1
  In  In60  1  0.51627801  0.02219867  0.11767634  1
  In  In61  1  0.49736201  -0.01378819  0.62583151  1
  In  In62  1  0.51079155  0.30936290  0.14981737  1
  In  In63  1  0.50692506  0.34901277  0.61556928  1
  In  In64  1  0.49511250  0.66070765  0.12155783  1
  In  In65  1  0.51034991  0.67997533  0.62290220  1
  In  In66  1  0.82429367  -0.00383107  0.11587213  1
  In  In67  1  0.84119089  0.00766308  0.61842877  1
  In  In68  1  0.84674776  0.32600161  0.13433448  1
  In  In69  1  0.82233956  0.32673284  0.61395830  1
  In  In70  1  0.82315849  0.67828352  0.12063129  1
  In  In71  1  0.82936154  0.66718248  0.62536325  1
  In  In72  1  0.66611422  -0.00205744  0.74920698  1
  In  In73  1  0.49662869  0.49755233  0.00577578  1
  In  In74  1  0.16945073  0.82902661  0.51152786  1
  In  In75  1  0.83532449  0.50128028  -0.00100676  1
  In  In76  1  0.33079982  0.67026393  0.74910614  1
  In  In77  1  0.34055108  0.00224865  0.24322873  1
  In  In78  1  0.50794688  0.16870398  0.49385888  1
  In  In79  1  0.16791936  0.16984983  0.49399847  1
  In  In80  1  0.16368282  0.83810647  -0.00578084  1
  In  In81  1  -0.00191807  0.33063823  0.74566695  1
  In  In82  1  -0.00352505  0.00365554  0.25130206  1
  In  In83  1  0.65894161  0.66021198  0.25074814  1
  In  In84  1  0.00011510  0.66104867  0.25864238  1
  In  In85  1  0.33788287  0.32641849  0.75470503  1
  Cu  Cu86  1  0.50814402  0.50589405  0.74123143  1
  Cu  Cu87  1  0.83244702  0.16453352  0.24790302  1
  Cu  Cu88  1  0.16867835  0.49910000  0.25038532  1
  Cu  Cu89  1  0.82975888  0.50238821  0.74698290  1
  Cu  Cu90  1  0.00148607  0.66443630  -0.00450791  1
  Cu  Cu91  1  0.33064144  0.66620348  0.49955418  1
  Cu  Cu92  1  0.66965660  -0.00254175  0.50376453  1
  Cu  Cu93  1  0.82766231  0.84110925  0.24467203  1
  Cu  Cu94  1  0.83518345  0.16656844  0.74667532  1
  Cu  Cu95  1  0.00125325  0.33030075  0.00388129  1
  Cu  Cu96  1  0.00449273  -0.00192262  0.50430939  1
  Cu  Cu97  1  0.66108746  0.66312472  0.50336420  1
  Cu  Cu98  1  0.66398624  0.33088184  0.00528106  1
  Cu  Cu99  1  0.16348702  0.49635322  0.74796863  1
  Cu  Cu100  1  0.50963493  0.83141640  0.25105559  1
  Cu  Cu101  1  0.49871710  0.49848810  0.25413284  1
  Cu  Cu102  1  0.17893204  0.83257715  0.24983717  1
  Cu  Cu103  1  0.82760100  0.49473894  0.25836032  1
  Cu  Cu104  1  0.50137473  0.16829576  0.75473230  1
  Cu  Cu105  1  -0.01363519  0.66458016  0.50053501  1
  Cu  Cu106  1  0.33231632  0.33321487  0.00906402  1
  Cu  Cu107  1  0.33346680  0.00100900  0.00178346  1
  Cu  Cu108  1  0.33000904  0.33738661  0.49119706  1
  Cu  Cu109  1  0.82788501  0.83279792  0.74819996  1
  Cu  Cu110  1  0.16090235  0.83149266  0.75325947  1
  Cu  Cu111  1  -0.00483312  0.33451490  0.50059294  1
  Cu  Cu112  1  -0.00828470  0.00162888  -0.00433104  1
  Cu  Cu113  1  0.66359490  0.00730822  -0.00362342  1
  Cu  Cu114  1  0.33860227  0.66327055  0.00244357  1
  Se  Se115  1  0.08120738  0.08166026  0.04610486  1
  Se  Se116  1  0.08671078  0.07886368  0.56186785  1
  Se  Se117  1  0.08475772  0.41703031  0.05298419  1
  Se  Se118  1  0.08209590  0.41793212  0.55088379  1
  Se  Se119  1  0.08010662  0.74451362  0.05998451  1
  Se  Se120  1  0.06967014  0.74098686  0.56286291  1
  Se  Se121  1  0.41193657  0.08805065  0.05636088  1
  Se  Se122  1  0.41825349  0.08058847  0.55648927  1
  Se  Se123  1  0.41993534  0.40362233  0.07021523  1
  Se  Se124  1  0.41366540  0.41780812  0.54727192  1
  Se  Se125  1  0.42230448  0.74964407  0.05061771  1
  Se  Se126  1  0.41137663  0.74804224  0.55620061  1
  Se  Se127  1  0.74748438  0.08904773  0.05155205  1
  Se  Se128  1  0.75346114  0.08578000  0.55047141  1
  Se  Se129  1  0.74712244  0.41226237  0.06278019  1
  Se  Se130  1  0.75187973  0.42257418  0.55112486  1
  Se  Se131  1  0.75360373  0.75286612  0.04429923  1
  Se  Se132  1  0.74640582  0.74876783  0.55439522  1
  Se  Se133  1  0.24554926  0.24699615  0.05644624  1
  Se  Se134  1  0.26059092  0.25613638  0.55873893  1
  Se  Se135  1  0.25561951  0.57904658  0.05369966  1
  Se  Se136  1  0.24157076  0.58322484  0.54789089  1
  Se  Se137  1  0.25699761  0.91627376  0.06244206  1
  Se  Se138  1  0.25568494  0.93130164  0.55940832  1
  Se  Se139  1  0.57966034  0.25249072  0.06138165  1
  Se  Se140  1  0.59636148  0.25854149  0.55366908  1
  Se  Se141  1  0.59635146  0.59150523  0.05364103  1
  Se  Se142  1  0.57758083  0.58164684  0.55789660  1
  Se  Se143  1  0.58130255  0.92320112  0.05105978  1
  Se  Se144  1  0.58315052  0.91491065  0.55384748  1
  Se  Se145  1  0.90809911  0.25123119  0.05043303  1
  Se  Se146  1  0.92019010  0.24590894  0.55540904  1
  Se  Se147  1  0.92499017  0.58983795  0.06335683  1
  Se  Se148  1  0.90803317  0.57949927  0.55567367  1
  Se  Se149  1  0.91053732  0.91439434  0.04688577  1
  Se  Se150  1  0.91736787  0.91384595  0.55230776  1
  Se  Se151  1  0.07779904  0.25976774  0.43592546  1
  Se  Se152  1  0.08416882  0.24639486  0.94971962  1
  Se  Se153  1  0.07547660  0.58517802  0.44906062  1
  Se  Se154  1  0.08868099  0.57992563  0.94908154  1
  Se  Se155  1  0.08370523  0.92008744  0.44193213  1
  Se  Se156  1  0.07354751  0.92292625  0.93281425  1
  Se  Se157  1  0.41118133  0.25482886  0.43568104  1
  Se  Se158  1  0.41528019  0.25632182  0.94839249  1
  Se  Se159  1  0.41403626  0.58365050  0.44535096  1
  Se  Se160  1  0.41588604  0.58712669  0.93634650  1
  Se  Se161  1  0.41934266  0.91357056  0.45419454  1
  Se  Se162  1  0.41807410  0.91818206  0.95055436  1
  Se  Se163  1  0.75342713  0.23822715  0.44152705  1
  Se  Se164  1  0.74839352  0.25209886  0.94896744  1
  Se  Se165  1  0.74722709  0.57861245  0.45376911  1
  Se  Se166  1  0.74466666  0.58851336  0.93950305  1
  Se  Se167  1  0.75281366  0.91300825  0.44885768  1
  Se  Se168  1  0.74715914  0.92203679  0.94439412  1
  Se  Se169  1  0.26507134  0.07553631  0.44431748  1
  Se  Se170  1  0.24688239  0.07875415  0.94653212  1
  Se  Se171  1  0.24229973  0.41947752  0.44183612  1
  Se  Se172  1  0.25068029  0.41774939  0.95511596  1
  Se  Se173  1  0.25308491  0.74880977  0.43856400  1
  Se  Se174  1  0.25800501  0.74254544  0.93994323  1
  Se  Se175  1  0.59617176  0.07545907  0.43629887  1
  Se  Se176  1  0.57699016  0.09303646  0.94859761  1
  Se  Se177  1  0.56613897  0.41343367  0.44761264  1
  Se  Se178  1  0.59224249  0.41548010  0.94153153  1
  Se  Se179  1  0.58093349  0.74784739  0.44715558  1
  Se  Se180  1  0.57628439  0.75373424  0.95000756  1
  Se  Se181  1  0.92457570  0.08436745  0.45014557  1
  Se  Se182  1  0.90763366  0.08789061  0.94544172  1
  Se  Se183  1  0.91026921  0.41416194  0.44535973  1
  Se  Se184  1  0.92481835  0.40916426  0.93834199  1
  Se  Se185  1  0.90716692  0.75323743  0.44980056  1
  Se  Se186  1  0.91893198  0.74785899  0.94289718  1
  Se  Se187  1  0.24804487  0.24630107  0.29596068  1
  Se  Se188  1  0.24276227  0.24182729  0.81159987  1
  Se  Se189  1  0.25126553  0.58361467  0.30326492  1
  Se  Se190  1  0.24543077  0.57356749  0.81028969  1
  Se  Se191  1  0.25151436  0.91498836  0.31192595  1
  Se  Se192  1  0.24625118  0.91459777  0.80439028  1
  Se  Se193  1  0.57760415  0.24048425  0.29683074  1
  Se  Se194  1  0.58740497  0.25360454  0.80257689  1
  Se  Se195  1  0.58477606  0.56833551  0.31798206  1
  Se  Se196  1  0.58677521  0.58847795  0.79857704  1
  Se  Se197  1  0.58896642  0.91602246  0.30476597  1
  Se  Se198  1  0.57803850  0.91542380  0.81327099  1
  Se  Se199  1  0.91617748  0.24870651  0.30018634  1
  Se  Se200  1  0.91053354  0.24665489  0.81158177  1
  Se  Se201  1  0.90366356  0.57861468  0.31781288  1
  Se  Se202  1  0.91528849  0.58137907  0.80253597  1
  Se  Se203  1  0.90795109  0.91238772  0.31095604  1
  Se  Se204  1  0.91277598  0.91844244  0.79830380  1
  Se  Se205  1  0.09208962  0.09729236  0.30207791  1
  Se  Se206  1  0.07054206  0.08190476  0.80065309  1
  Se  Se207  1  0.07925519  0.41995202  0.30182911  1
  Se  Se208  1  0.08938595  0.41545223  0.81185003  1
  Se  Se209  1  0.09416616  0.75807798  0.31152905  1
  Se  Se210  1  0.07741278  0.74345730  0.80021083  1
  Se  Se211  1  0.42711267  0.08255497  0.31143943  1
  Se  Se212  1  0.41725857  0.08869296  0.80888835  1
  Se  Se213  1  0.41104851  0.41550212  0.30367573  1
  Se  Se214  1  0.43054771  0.42667455  0.80564496  1
  Se  Se215  1  0.42370925  0.74813441  0.30147109  1
  Se  Se216  1  0.41944925  0.76013771  0.80762838  1
  Se  Se217  1  0.75610883  0.07489027  0.30153407  1
  Se  Se218  1  0.75305760  0.09045182  0.80969498  1
  Se  Se219  1  0.74421076  0.40951986  0.30788945  1
  Se  Se220  1  0.74817684  0.41432567  0.79714987  1
  Se  Se221  1  0.75201692  0.75555120  0.30534344  1
  Se  Se222  1  0.74646977  0.75404354  0.80598151  1
  Se  Se223  1  0.23951636  0.08615899  0.18960242  1
  Se  Se224  1  0.25364418  0.08746722  0.70503377  1
  Se  Se225  1  0.24899856  0.41610428  0.19430485  1
  Se  Se226  1  0.24804515  0.41825917  0.69118804  1
  Se  Se227  1  0.25889290  0.74395633  0.20104433  1
  Se  Se228  1  0.24082347  0.75859294  0.68673444  1
  Se  Se229  1  0.58259044  0.08931290  0.20002527  1
  Se  Se230  1  0.57790988  0.09111945  0.68841152  1
  Se  Se231  1  0.58624674  0.41594010  0.20356360  1
  Se  Se232  1  0.58796190  0.41536520  0.69281711  1
  Se  Se233  1  0.58467226  0.75444340  0.18419142  1
  Se  Se234  1  0.57552379  0.75710297  0.70196242  1
  Se  Se235  1  0.91189220  0.08662001  0.18359754  1
  Se  Se236  1  0.91790169  0.08094053  0.69652579  1
  Se  Se237  1  0.91683691  0.41778846  0.20452049  1
  Se  Se238  1  0.90963016  0.42097533  0.68632973  1
  Se  Se239  1  0.91409764  0.75584828  0.19445567  1
  Se  Se240  1  0.91348144  0.74817105  0.69630270  1
  Se  Se241  1  0.06729094  0.25839324  0.18999993  1
  Se  Se242  1  0.09848769  0.24023594  0.69570826  1
  Se  Se243  1  0.08860477  0.58128661  0.18977739  1
  Se  Se244  1  0.07905303  0.58121687  0.69866030  1
  Se  Se245  1  0.09036929  0.90675216  0.19357535  1
  Se  Se246  1  0.07949710  0.91781306  0.70074924  1
  Se  Se247  1  0.40104264  0.25123456  0.20799666  1
  Se  Se248  1  0.42918429  0.24788480  0.68655978  1
  Se  Se249  1  0.42128021  0.58451877  0.19801751  1
  Se  Se250  1  0.41588102  0.57811738  0.68673229  1
  Se  Se251  1  0.43256768  0.91125791  0.18648795  1
  Se  Se252  1  0.41156060  0.92476616  0.70152261  1
  Se  Se253  1  0.74995835  0.25038483  0.19552662  1
  Se  Se254  1  0.75255649  0.25144266  0.69525862  1
  Se  Se255  1  0.75892633  0.57598682  0.19122252  1
  Se  Se256  1  0.74532350  0.58742045  0.69604087  1
  Se  Se257  1  0.74408342  0.92148053  0.19131392  1
  Se  Se258  1  0.75362533  0.91328874  0.68377061  1
