# generated using pymatgen
data_In86Cu29Se144
_symmetry_space_group_name_H-M   'P 1'
_cell_length_a   17.74938648
_cell_length_b   17.74297086
_cell_length_c   23.58349236
_cell_angle_alpha   89.98553168
_cell_angle_beta   89.99307374
_cell_angle_gamma   90.01465571
_symmetry_Int_Tables_number   1
_chemical_formula_structural   In86Cu29Se144
_chemical_formula_sum   'In86 Cu29 Se144'
_cell_volume   7427.07435806
_cell_formula_units_Z   1
loop_
 _symmetry_equiv_pos_site_id
 _symmetry_equiv_pos_as_xyz
  1  'x, y, z'
loop_
 _atom_site_type_symbol
 _atom_site_label
 _atom_site_symmetry_multiplicity
 _atom_site_fract_x
 _atom_site_fract_y
 _atom_site_fract_z
 _atom_site_occupancy
  In  In0  1  -0.01493024  0.16729636  0.12550871  1
  In  In1  1  -0.01432480  0.17161329  0.63212874  1
  In  In2  1  0.00685948  0.50372513  0.11503222  1
  In  In3  1  -0.00462473  0.50487410  0.63672025  1
  In  In4  1  0.00508115  0.84047200  0.11833949  1
  In  In5  1  -0.00330320  0.83049627  0.63154849  1
  In  In6  1  0.35472013  0.13993087  0.12343470  1
  In  In7  1  0.33710146  0.14673486  0.62856891  1
  In  In8  1  0.34045080  0.50481131  0.11390519  1
  In  In9  1  0.33479149  0.50045946  0.62711797  1
  In  In10  1  0.33592302  0.84825974  0.11870773  1
  In  In11  1  0.33554721  0.85606952  0.62853380  1
  In  In12  1  0.67028727  0.17676810  0.13235402  1
  In  In13  1  0.68062345  0.16054919  0.62535772  1
  In  In14  1  0.66137866  0.49953150  0.11499600  1
  In  In15  1  0.66967565  0.48514811  0.64086635  1
  In  In16  1  0.71419266  0.85496099  0.06179325  1
  In  In17  1  0.67252591  0.83616624  0.63618416  1
  In  In18  1  0.14667187  0.00137527  0.37776217  1
  In  In19  1  0.16035845  -0.01111629  0.86812849  1
  In  In20  1  0.15926245  0.32738308  0.37621290  1
  In  In21  1  0.15886145  0.34324499  0.87449411  1
  In  In22  1  0.17333357  0.67097664  0.37482362  1
  In  In23  1  0.15459360  0.67357332  0.87855248  1
  In  In24  1  0.51823767  0.00007850  0.36900549  1
  In  In25  1  0.49693841  0.00401552  0.87217232  1
  In  In26  1  0.50743885  0.30769939  0.37474338  1
  In  In27  1  0.50915222  0.32629111  0.87354430  1
  In  In28  1  0.49443100  0.67492549  0.37724336  1
  In  In29  1  0.52260060  0.66232991  0.90238865  1
  In  In30  1  0.82692485  -0.00094625  0.37232904  1
  In  In31  1  0.82763986  -0.00333089  0.88117707  1
  In  In32  1  0.81556998  0.33630815  0.37666198  1
  In  In33  1  0.83042782  0.33179006  0.87536613  1
  In  In34  1  0.83639388  0.67383256  0.37584467  1
  In  In35  1  0.83108798  0.67091461  0.88100466  1
  In  In36  1  0.00036973  0.14947857  0.37817077  1
  In  In37  1  -0.01464314  0.15182738  0.86717286  1
  In  In38  1  -0.00010933  0.49566670  0.37173769  1
  In  In39  1  -0.00575372  0.50037544  0.87833782  1
  In  In40  1  -0.02480436  0.84897398  0.38395699  1
  In  In41  1  -0.00280741  0.83351128  0.87787054  1
  In  In42  1  0.34567868  0.17054408  0.37746898  1
  In  In43  1  0.34718354  0.16193863  0.87236327  1
  In  In44  1  0.34030556  0.51083204  0.37198415  1
  In  In45  1  0.33575703  0.49428095  0.88243323  1
  In  In46  1  0.33147085  0.82401295  0.37535013  1
  In  In47  1  0.32907679  0.83483275  0.87728757  1
  In  In48  1  0.66747682  0.16130371  0.37130329  1
  In  In49  1  0.66365152  0.17038802  0.86825549  1
  In  In50  1  0.67317048  0.49484521  0.37405386  1
  In  In51  1  0.67132666  0.50646978  0.87606029  1
  In  In52  1  0.66182363  0.85159053  0.37012840  1
  In  In53  1  0.66779126  0.83570255  0.88305990  1
  In  In54  1  0.16538477  -0.01063224  0.12619293  1
  In  In55  1  0.16743434  -0.01270455  0.63133960  1
  In  In56  1  0.17199990  0.33955077  0.11922276  1
  In  In57  1  0.16703377  0.32163545  0.62808657  1
  In  In58  1  0.16947642  0.66775970  0.11856223  1
  In  In59  1  0.15277141  0.66860287  0.62922478  1
  In  In60  1  0.57371023  0.03905043  0.05819798  1
  In  In61  1  0.50300223  0.00997928  0.63500638  1
  In  In62  1  0.51299794  0.34826491  0.11732245  1
  In  In63  1  0.55668320  0.28630192  0.67957837  1
  In  In64  1  0.51756731  0.67839047  0.10408708  1
  In  In65  1  0.50402492  0.68101903  0.63293450  1
  In  In66  1  0.83040189  0.00715635  0.12621218  1
  In  In67  1  0.83383190  -0.00132256  0.63252135  1
  In  In68  1  0.82313164  0.32840998  0.11523304  1
  In  In69  1  0.83913056  0.32957209  0.63104743  1
  In  In70  1  0.83407814  0.67399338  0.10432533  1
  In  In71  1  0.82104257  0.67287759  0.63747515  1
  In  In72  1  0.51084939  0.48890419  0.51885922  1
  In  In73  1  0.32520481  0.33303118  0.75953976  1
  In  In74  1  0.50444198  0.84927685  0.50903542  1
  In  In75  1  0.83307883  0.50202872  0.50270754  1
  In  In76  1  -0.00021058  0.66906097  0.24116111  1
  In  In77  1  0.16924687  0.49774927  0.49183641  1
  In  In78  1  0.34120350  0.33592833  0.24352608  1
  In  In79  1  0.16695801  0.17478239  -0.00053698  1
  In  In80  1  0.33186530  0.66437397  0.24259681  1
  In  In81  1  0.66621261  0.66452691  0.23994044  1
  In  In82  1  0.33663837  -0.00853370  0.25268950  1
  In  In83  1  -0.00101485  0.33172889  0.24901747  1
  In  In84  1  0.33528645  0.67571179  0.75967352  1
  In  In85  1  0.17104863  0.14660318  0.50385343  1
  Cu  Cu86  1  0.33589433  0.32255120  -0.00462949  1
  Cu  Cu87  1  0.33361214  0.66896936  0.49958157  1
  Cu  Cu88  1  0.33159559  0.00077816  -0.00492602  1
  Cu  Cu89  1  0.51487600  0.16230395  0.23806707  1
  Cu  Cu90  1  0.83099979  0.16605706  0.75378215  1
  Cu  Cu91  1  0.67143089  0.33392542  -0.00545433  1
  Cu  Cu92  1  0.83535557  0.16587634  0.25255748  1
  Cu  Cu93  1  0.00424637  0.66751124  -0.00557118  1
  Cu  Cu94  1  0.15379452  0.16557138  0.74760409  1
  Cu  Cu95  1  0.34187384  0.32982283  0.50009901  1
  Cu  Cu96  1  0.83314199  0.50038698  0.75962366  1
  Cu  Cu97  1  0.66311822  0.31845360  0.50447436  1
  Cu  Cu98  1  0.16477881  0.16597085  0.25268412  1
  Cu  Cu99  1  0.51206746  0.83176908  0.75860831  1
  Cu  Cu100  1  0.15748048  0.50507479  0.75613913  1
  Cu  Cu101  1  0.50622833  0.49685433  0.24621315  1
  Cu  Cu102  1  0.50507195  0.84187765  0.23884807  1
  Cu  Cu103  1  0.66690793  0.67807533  0.50891120  1
  Cu  Cu104  1  0.00186538  0.33134006  0.50991108  1
  Cu  Cu105  1  0.16281290  0.83152837  0.75402069  1
  Cu  Cu106  1  0.00216007  0.00305251  -0.00530418  1
  Cu  Cu107  1  -0.01064171  -0.00406660  0.50405043  1
  Cu  Cu108  1  -0.00791099  0.33308617  -0.00223179  1
  Cu  Cu109  1  0.83093149  0.49530203  0.24409603  1
  Cu  Cu110  1  0.31967643  0.66608258  -0.00499761  1
  Cu  Cu111  1  -0.00143281  0.67709748  0.50382229  1
  Cu  Cu112  1  0.15277903  0.83218435  0.25027151  1
  Cu  Cu113  1  0.83283760  0.83539359  0.75870129  1
  Cu  Cu114  1  0.82368137  0.84074469  0.24102401  1
  Se  Se115  1  0.07947515  0.08235941  0.05953012  1
  Se  Se116  1  0.06998536  0.07551406  0.56517723  1
  Se  Se117  1  0.08197354  0.40949284  0.05096850  1
  Se  Se118  1  0.08232803  0.41673623  0.56180314  1
  Se  Se119  1  0.08219952  0.74890727  0.05454989  1
  Se  Se120  1  0.08312836  0.75466128  0.55817667  1
  Se  Se121  1  0.42494901  0.07803554  0.04174969  1
  Se  Se122  1  0.41117962  0.06498240  0.55889967  1
  Se  Se123  1  0.41361566  0.40985419  0.05056751  1
  Se  Se124  1  0.41233463  0.40377815  0.56775157  1
  Se  Se125  1  0.39617048  0.73830063  0.06163184  1
  Se  Se126  1  0.41121241  0.75007524  0.56009845  1
  Se  Se127  1  0.73727513  0.08315793  0.06054690  1
  Se  Se128  1  0.76965407  0.08852519  0.55914316  1
  Se  Se129  1  0.75023562  0.42017269  0.04963035  1
  Se  Se130  1  0.74250805  0.40916768  0.55794717  1
  Se  Se131  1  0.72149543  0.70910592  0.04028069  1
  Se  Se132  1  0.75124964  0.75559691  0.56272406  1
  Se  Se133  1  0.26719995  0.24597196  0.06487009  1
  Se  Se134  1  0.25578686  0.24980769  0.55614319  1
  Se  Se135  1  0.24420425  0.57842467  0.05142176  1
  Se  Se136  1  0.25213810  0.58847466  0.55757853  1
  Se  Se137  1  0.24635903  0.92165427  0.05034530  1
  Se  Se138  1  0.25206975  0.92342719  0.55577451  1
  Se  Se139  1  0.59269109  0.25663951  0.05647078  1
  Se  Se140  1  0.58557238  0.25349246  0.57256560  1
  Se  Se141  1  0.55826030  0.55941352  0.05135913  1
  Se  Se142  1  0.59504100  0.59257526  0.56829499  1
  Se  Se143  1  0.57131448  0.89190055  0.05018414  1
  Se  Se144  1  0.59870330  0.93124926  0.56623671  1
  Se  Se145  1  0.91370545  0.24792016  0.05212726  1
  Se  Se146  1  0.91310316  0.25040788  0.55592744  1
  Se  Se147  1  0.92255358  0.58400002  0.04856148  1
  Se  Se148  1  0.92070405  0.59243718  0.56237436  1
  Se  Se149  1  0.92115085  0.92896829  0.05749399  1
  Se  Se150  1  0.91444135  0.91274391  0.56313776  1
  Se  Se151  1  0.07894266  0.24813003  0.44901548  1
  Se  Se152  1  0.07043580  0.25173203  0.93735716  1
  Se  Se153  1  0.07148527  0.59317031  0.44124192  1
  Se  Se154  1  0.08457251  0.57900524  0.94482654  1
  Se  Se155  1  0.07438564  0.91633834  0.44859870  1
  Se  Se156  1  0.08351776  0.91698107  0.94514682  1
  Se  Se157  1  0.42490697  0.24387051  0.45162719  1
  Se  Se158  1  0.42218853  0.24600382  0.94176400  1
  Se  Se159  1  0.42024603  0.58461730  0.45024484  1
  Se  Se160  1  0.40981394  0.58718342  0.94693515  1
  Se  Se161  1  0.41862162  0.91834513  0.43187800  1
  Se  Se162  1  0.41382744  0.91996679  0.94101832  1
  Se  Se163  1  0.74622437  0.24625711  0.44392911  1
  Se  Se164  1  0.74726188  0.24591440  0.94071934  1
  Se  Se165  1  0.73924220  0.59443824  0.44462739  1
  Se  Se166  1  0.74104831  0.59566041  0.94928421  1
  Se  Se167  1  0.75494958  0.90720941  0.43992699  1
  Se  Se168  1  0.75699210  0.90810166  0.95492754  1
  Se  Se169  1  0.25912977  0.07202880  0.43324002  1
  Se  Se170  1  0.24818377  0.08087578  0.93791824  1
  Se  Se171  1  0.26534294  0.40568826  0.43599868  1
  Se  Se172  1  0.25169901  0.40655433  0.94537696  1
  Se  Se173  1  0.24884201  0.75008372  0.44773725  1
  Se  Se174  1  0.24232217  0.75363577  0.94366494  1
  Se  Se175  1  0.57694380  0.09056594  0.44015531  1
  Se  Se176  1  0.58646582  0.08368627  0.93877714  1
  Se  Se177  1  0.59048126  0.40659956  0.44327737  1
  Se  Se178  1  0.58822838  0.41340278  0.93901704  1
  Se  Se179  1  0.58618449  0.75093051  0.44451916  1
  Se  Se180  1  0.56414270  0.78442415  0.95488906  1
  Se  Se181  1  0.91207609  0.07741894  0.44499469  1
  Se  Se182  1  0.91295176  0.08280698  0.94720371  1
  Se  Se183  1  0.92451154  0.40833847  0.44420348  1
  Se  Se184  1  0.91046423  0.41667359  0.94503791  1
  Se  Se185  1  0.90868235  0.75123345  0.45038333  1
  Se  Se186  1  0.91702975  0.75270899  0.94899906  1
  Se  Se187  1  0.24835264  0.24513208  0.30709552  1
  Se  Se188  1  0.23408131  0.23816566  0.81370989  1
  Se  Se189  1  0.24068166  0.57444958  0.30403055  1
  Se  Se190  1  0.24509363  0.57813804  0.81320695  1
  Se  Se191  1  0.23700205  0.90777409  0.31101298  1
  Se  Se192  1  0.25156960  0.91267974  0.80247090  1
  Se  Se193  1  0.58931873  0.24534662  0.29799812  1
  Se  Se194  1  0.57739429  0.24610718  0.79594028  1
  Se  Se195  1  0.57665206  0.58093909  0.31154833  1
  Se  Se196  1  0.58272937  0.59629761  0.81742388  1
  Se  Se197  1  0.58911206  0.92331920  0.29174532  1
  Se  Se198  1  0.58924389  0.91915503  0.81167227  1
  Se  Se199  1  0.91296835  0.24663236  0.31517396  1
  Se  Se200  1  0.91482681  0.25081204  0.80554219  1
  Se  Se201  1  0.90759284  0.57645451  0.30453318  1
  Se  Se202  1  0.91274735  0.58638871  0.81210160  1
  Se  Se203  1  0.90760913  0.91516591  0.30086192  1
  Se  Se204  1  0.91459008  0.91874461  0.81186567  1
  Se  Se205  1  0.07992118  0.08230923  0.30086024  1
  Se  Se206  1  0.07976657  0.07792149  0.80364499  1
  Se  Se207  1  0.09555094  0.42325874  0.30448046  1
  Se  Se208  1  0.07463513  0.41881689  0.80511382  1
  Se  Se209  1  0.07801418  0.75325064  0.31333644  1
  Se  Se210  1  0.07763672  0.75105252  0.80571337  1
  Se  Se211  1  0.42705124  0.09393228  0.30145733  1
  Se  Se212  1  0.40255636  0.06866080  0.80178318  1
  Se  Se213  1  0.43002059  0.42017892  0.31146510  1
  Se  Se214  1  0.42305181  0.42194353  0.80974204  1
  Se  Se215  1  0.42606335  0.76113932  0.29854721  1
  Se  Se216  1  0.43185594  0.75298078  0.81980358  1
  Se  Se217  1  0.74897869  0.08131059  0.30058639  1
  Se  Se218  1  0.75237670  0.08197206  0.80893403  1
  Se  Se219  1  0.74810557  0.41719421  0.30002861  1
  Se  Se220  1  0.74724544  0.41658629  0.80819675  1
  Se  Se221  1  0.75333078  0.75472954  0.30369732  1
  Se  Se222  1  0.74881500  0.75424228  0.81236216  1
  Se  Se223  1  0.24641477  0.08673173  0.19293412  1
  Se  Se224  1  0.23887839  0.08511922  0.69506309  1
  Se  Se225  1  0.25031587  0.42738847  0.18917735  1
  Se  Se226  1  0.23679319  0.42619500  0.69432834  1
  Se  Se227  1  0.24154840  0.76236529  0.19122821  1
  Se  Se228  1  0.24648213  0.75642499  0.69149235  1
  Se  Se229  1  0.57170688  0.07831055  0.16953005  1
  Se  Se230  1  0.58195899  0.10118987  0.69637301  1
  Se  Se231  1  0.59224584  0.41907222  0.19364998  1
  Se  Se232  1  0.55512495  0.43113568  0.69156865  1
  Se  Se233  1  0.58333750  0.75767471  0.18303927  1
  Se  Se234  1  0.59152788  0.74904666  0.70306172  1
  Se  Se235  1  0.91599600  0.08328511  0.19827405  1
  Se  Se236  1  0.91592539  0.08291100  0.70197984  1
  Se  Se237  1  0.91644512  0.42145286  0.18515889  1
  Se  Se238  1  0.91198554  0.41990444  0.69920590  1
  Se  Se239  1  0.90492185  0.75620837  0.18501149  1
  Se  Se240  1  0.91152069  0.75130906  0.70127721  1
  Se  Se241  1  0.09234965  0.24523299  0.18783046  1
  Se  Se242  1  0.07655281  0.25374044  0.69620166  1
  Se  Se243  1  0.09336358  0.57677439  0.19091972  1
  Se  Se244  1  0.07814566  0.58952423  0.70198977  1
  Se  Se245  1  0.07660325  0.91857156  0.19624933  1
  Se  Se246  1  0.07977359  0.91377968  0.70002050  1
  Se  Se247  1  0.42783734  0.24420094  0.18461769  1
  Se  Se248  1  0.40319850  0.25813756  0.68466105  1
  Se  Se249  1  0.42844780  0.57862293  0.18842885  1
  Se  Se250  1  0.41849112  0.58564032  0.69420686  1
  Se  Se251  1  0.42779081  0.92557104  0.18250671  1
  Se  Se252  1  0.43096087  0.91135250  0.69958147  1
  Se  Se253  1  0.76029250  0.25430615  0.19822072  1
  Se  Se254  1  0.75295887  0.25156953  0.69810409  1
  Se  Se255  1  0.76151270  0.57985412  0.18178983  1
  Se  Se256  1  0.74928240  0.57734689  0.70178932  1
  Se  Se257  1  0.74651458  0.89803867  0.16775238  1
  Se  Se258  1  0.75199625  0.91987587  0.70459010  1
