# generated using pymatgen
data_In86Cu29Se144
_symmetry_space_group_name_H-M   'P 1'
_cell_length_a   17.57586798
_cell_length_b   17.57957402
_cell_length_c   23.43771946
_cell_angle_alpha   89.98560029
_cell_angle_beta   89.99938151
_cell_angle_gamma   89.97580843
_symmetry_Int_Tables_number   1
_chemical_formula_structural   In86Cu29Se144
_chemical_formula_sum   'In86 Cu29 Se144'
_cell_volume   7241.69831053
_cell_formula_units_Z   1
loop_
 _symmetry_equiv_pos_site_id
 _symmetry_equiv_pos_as_xyz
  1  'x, y, z'
loop_
 _atom_site_type_symbol
 _atom_site_label
 _atom_site_symmetry_multiplicity
 _atom_site_fract_x
 _atom_site_fract_y
 _atom_site_fract_z
 _atom_site_occupancy
  In  In0  1  0.01610233  0.17312823  0.11963597  1
  In  In1  1  0.01763000  0.16468645  0.62682657  1
  In  In2  1  -0.01065469  0.50368934  0.12571202  1
  In  In3  1  0.00354580  0.50469817  0.63100788  1
  In  In4  1  0.00228894  0.82361178  0.11850639  1
  In  In5  1  -0.01264549  0.82180462  0.61861084  1
  In  In6  1  0.31962720  0.16023036  0.11968441  1
  In  In7  1  0.32916362  0.16292999  0.62272318  1
  In  In8  1  0.33634145  0.49093713  0.12568470  1
  In  In9  1  0.33043666  0.49920173  0.61587159  1
  In  In10  1  0.35177837  0.84535305  0.11650436  1
  In  In11  1  0.34519495  0.84427890  0.61939324  1
  In  In12  1  0.66132972  0.16944950  0.12559999  1
  In  In13  1  0.65110287  0.16603271  0.62578952  1
  In  In14  1  0.66578420  0.48518943  0.12773316  1
  In  In15  1  0.69018032  0.53118804  0.59570659  1
  In  In16  1  0.66151505  0.84764080  0.12503582  1
  In  In17  1  0.66808879  0.83390599  0.62904770  1
  In  In18  1  0.17740991  -0.01022244  0.37989410  1
  In  In19  1  0.17740763  -0.00664556  0.87808128  1
  In  In20  1  0.15331802  0.34270803  0.37916926  1
  In  In21  1  0.15248581  0.33247778  0.88285388  1
  In  In22  1  0.16519554  0.66429892  0.38368900  1
  In  In23  1  0.16970814  0.67568668  0.86713466  1
  In  In24  1  0.49978995  0.00068994  0.37525269  1
  In  In25  1  0.50080621  -0.00079585  0.87521065  1
  In  In26  1  0.50417175  0.31826105  0.37891805  1
  In  In27  1  0.49024988  0.32722017  0.87753381  1
  In  In28  1  0.50407455  0.67345201  0.39539304  1
  In  In29  1  0.52268339  0.67244082  0.87001093  1
  In  In30  1  0.81962281  0.00252581  0.37564606  1
  In  In31  1  0.81841240  0.00122726  0.87302115  1
  In  In32  1  0.84126018  0.34134955  0.37030222  1
  In  In33  1  0.85631101  0.33951635  0.87567987  1
  In  In34  1  0.82632531  0.66194227  0.39351847  1
  In  In35  1  0.82119250  0.65277699  0.86935454  1
  In  In36  1  0.00146211  0.18252765  0.37271584  1
  In  In37  1  0.00361820  0.18382200  0.87547788  1
  In  In38  1  0.00529922  0.48774450  0.38255035  1
  In  In39  1  -0.00909006  0.48492156  0.86203437  1
  In  In40  1  0.00231791  0.82747390  0.38390075  1
  In  In41  1  0.01513786  0.83400207  0.87145684  1
  In  In42  1  0.34189878  0.15538325  0.37774989  1
  In  In43  1  0.34880384  0.15674505  0.88544136  1
  In  In44  1  0.32616585  0.50399968  0.38388836  1
  In  In45  1  0.32996291  0.49832219  0.87013568  1
  In  In46  1  0.33022762  0.83869266  0.38028506  1
  In  In47  1  0.32528400  0.84448080  0.87467293  1
  In  In48  1  0.65602826  0.15419485  0.36647905  1
  In  In49  1  0.66119944  0.15384373  0.87708276  1
  In  In50  1  0.67476367  0.49304397  0.38665072  1
  In  In51  1  0.67464206  0.51847778  0.87260187  1
  In  In52  1  0.65444536  0.83963196  0.39306494  1
  In  In53  1  0.65476539  0.82497766  0.87428260  1
  In  In54  1  0.18097960  0.00640968  0.12125161  1
  In  In55  1  0.17914126  0.01046503  0.62005726  1
  In  In56  1  0.16920949  0.32317450  0.12895941  1
  In  In57  1  0.16270776  0.33221142  0.62362061  1
  In  In58  1  0.15874390  0.66891736  0.12073633  1
  In  In59  1  0.15186465  0.65726058  0.62013325  1
  In  In60  1  0.49885084  -0.00156299  0.12775741  1
  In  In61  1  0.49921134  -0.00036860  0.62866491  1
  In  In62  1  0.51320637  0.33610826  0.12355389  1
  In  In63  1  0.50007337  0.33406335  0.61331979  1
  In  In64  1  0.49120792  0.66850295  0.12197024  1
  In  In65  1  0.51903686  0.68406054  0.60790446  1
  In  In66  1  0.82024802  -0.00443180  0.12724709  1
  In  In67  1  0.83060572  -0.01660231  0.62579287  1
  In  In68  1  0.83065270  0.33735351  0.12830428  1
  In  In69  1  0.83608890  0.34981514  0.62386415  1
  In  In70  1  0.84414757  0.66164867  0.12260190  1
  In  In71  1  0.83367414  0.67062431  0.62865687  1
  In  In72  1  0.33307222  0.66848578  0.74354604  1
  In  In73  1  0.32793663  0.67038725  0.26114882  1
  In  In74  1  0.00027057  -0.00144569  0.74628729  1
  In  In75  1  0.66707351  0.33800997  0.74173263  1
  In  In76  1  -0.00256601  0.00634420  0.24213845  1
  In  In77  1  0.83423412  0.16590031  0.49381485  1
  In  In78  1  0.66656495  0.66657284  0.26228616  1
  In  In79  1  0.33238640  0.32722307  0.25089286  1
  In  In80  1  0.32821237  0.32916371  0.74919829  1
  In  In81  1  -0.00048222  0.66246663  0.25364554  1
  In  In82  1  0.50739612  0.50328693  -0.00290806  1
  In  In83  1  0.83185798  0.16633259  0.00185996  1
  In  In84  1  0.16710270  0.49826582  -0.00125939  1
  In  In85  1  0.82790396  0.82995248  -0.00407742  1
  Cu  Cu86  1  0.50104627  0.83513048  0.74635077  1
  Cu  Cu87  1  0.33441903  0.67395721  -0.00751666  1
  Cu  Cu88  1  0.66164974  -0.00185810  0.50127544  1
  Cu  Cu89  1  0.50186348  0.16377633  0.24906537  1
  Cu  Cu90  1  0.82806323  0.82811800  0.74946289  1
  Cu  Cu91  1  0.16486013  0.83308730  0.74471384  1
  Cu  Cu92  1  0.32467957  0.32745580  0.49612687  1
  Cu  Cu93  1  0.83363753  0.50570448  0.74461287  1
  Cu  Cu94  1  0.33875508  0.00064365  0.50016287  1
  Cu  Cu95  1  0.32716454  0.67123729  0.50471384  1
  Cu  Cu96  1  0.82648227  0.17346120  0.25002938  1
  Cu  Cu97  1  0.49785085  0.15668053  0.75281535  1
  Cu  Cu98  1  0.83268200  0.16768968  0.75561958  1
  Cu  Cu99  1  0.50582156  0.84031797  0.25352355  1
  Cu  Cu100  1  0.00362547  0.66591993  -0.00543396  1
  Cu  Cu101  1  0.82672964  0.84046980  0.25584870  1
  Cu  Cu102  1  -0.00147164  0.33604986  0.50085404  1
  Cu  Cu103  1  0.17829555  0.83868896  0.24832582  1
  Cu  Cu104  1  0.50526194  0.50419106  0.73852960  1
  Cu  Cu105  1  -0.00383034  0.66488826  0.50579810  1
  Cu  Cu106  1  0.33567619  -0.00431867  0.00049702  1
  Cu  Cu107  1  0.00628366  -0.00175475  0.50405656  1
  Cu  Cu108  1  0.83174944  0.49606514  0.25403516  1
  Cu  Cu109  1  0.16729146  0.16496889  0.24846528  1
  Cu  Cu110  1  0.16993738  0.16854577  0.75051218  1
  Cu  Cu111  1  0.66179153  0.32847578  0.49723195  1
  Cu  Cu112  1  0.00374762  0.00213400  -0.00271513  1
  Cu  Cu113  1  0.50090186  0.49653941  0.25531936  1
  Cu  Cu114  1  0.67414860  0.33449991  0.00050671  1
  Se  Se115  1  0.08773200  0.08021050  0.05389509  1
  Se  Se116  1  0.08915081  0.08649186  0.55076456  1
  Se  Se117  1  0.08005561  0.41424329  0.06373338  1
  Se  Se118  1  0.07944783  0.41846991  0.55791863  1
  Se  Se119  1  0.08669828  0.75091207  0.04591504  1
  Se  Se120  1  0.08339935  0.75258544  0.55145746  1
  Se  Se121  1  0.41297231  0.07998804  0.05836693  1
  Se  Se122  1  0.41928862  0.08366639  0.55731371  1
  Se  Se123  1  0.41562042  0.41026077  0.05357908  1
  Se  Se124  1  0.40882222  0.41149450  0.54865730  1
  Se  Se125  1  0.42146686  0.75094692  0.04772459  1
  Se  Se126  1  0.41762451  0.75643524  0.54846083  1
  Se  Se127  1  0.73742565  0.07361602  0.05371931  1
  Se  Se128  1  0.74583703  0.07996614  0.55954048  1
  Se  Se129  1  0.75386753  0.41925866  0.05404246  1
  Se  Se130  1  0.74853268  0.41015397  0.54817933  1
  Se  Se131  1  0.74598522  0.74597967  0.06604458  1
  Se  Se132  1  0.75428105  0.75640397  0.56077856  1
  Se  Se133  1  0.25115675  0.25674186  0.05433583  1
  Se  Se134  1  0.24549595  0.24752544  0.55654586  1
  Se  Se135  1  0.26287609  0.59095712  0.05755953  1
  Se  Se136  1  0.24309640  0.58312068  0.55168415  1
  Se  Se137  1  0.24925365  0.91141158  0.05294515  1
  Se  Se138  1  0.25193690  0.91841687  0.55215296  1
  Se  Se139  1  0.58765166  0.25264465  0.05092985  1
  Se  Se140  1  0.57983225  0.24271380  0.54850157  1
  Se  Se141  1  0.59310372  0.58839101  0.06347932  1
  Se  Se142  1  0.55799196  0.56088546  0.55548697  1
  Se  Se143  1  0.56821078  0.90829636  0.05588824  1
  Se  Se144  1  0.58230844  0.91673021  0.55981515  1
  Se  Se145  1  0.92256616  0.25824363  0.05709869  1
  Se  Se146  1  0.92166629  0.25062376  0.56046874  1
  Se  Se147  1  0.91996944  0.58406707  0.04820205  1
  Se  Se148  1  0.91538392  0.58188033  0.56160978  1
  Se  Se149  1  0.92029257  0.92438002  0.05735224  1
  Se  Se150  1  0.91622709  0.91736988  0.55118833  1
  Se  Se151  1  0.08220016  0.25008234  0.44968525  1
  Se  Se152  1  0.08303605  0.24495713  0.95431177  1
  Se  Se153  1  0.07759930  0.58279363  0.44833978  1
  Se  Se154  1  0.08304085  0.58608467  0.93347287  1
  Se  Se155  1  0.08707694  0.91409388  0.44738347  1
  Se  Se156  1  0.08620690  0.91611657  0.94566752  1
  Se  Se157  1  0.41430590  0.24491085  0.44785640  1
  Se  Se158  1  0.42158221  0.24879572  0.95250947  1
  Se  Se159  1  0.40971246  0.58661477  0.45069153  1
  Se  Se160  1  0.41381641  0.59065243  0.93396488  1
  Se  Se161  1  0.42116306  0.91590786  0.44620136  1
  Se  Se162  1  0.41707867  0.91369894  0.94385494  1
  Se  Se163  1  0.74274246  0.25168033  0.43321747  1
  Se  Se164  1  0.74896563  0.25682746  0.93389264  1
  Se  Se165  1  0.74027376  0.58230067  0.45924312  1
  Se  Se166  1  0.75170582  0.58387888  0.95122748  1
  Se  Se167  1  0.75360901  0.91955861  0.45155598  1
  Se  Se168  1  0.73437677  0.92368328  0.94439908  1
  Se  Se169  1  0.25140732  0.08201521  0.44710226  1
  Se  Se170  1  0.25173135  0.08056999  0.94803497  1
  Se  Se171  1  0.24240577  0.41726314  0.44819328  1
  Se  Se172  1  0.26176141  0.40786814  0.94221172  1
  Se  Se173  1  0.24675421  0.75354598  0.44667562  1
  Se  Se174  1  0.24632964  0.75337515  0.94127870  1
  Se  Se175  1  0.58223731  0.08394753  0.44621498  1
  Se  Se176  1  0.56643269  0.09418614  0.94579416  1
  Se  Se177  1  0.57709588  0.41246520  0.44546249  1
  Se  Se178  1  0.59502762  0.41147735  0.93419099  1
  Se  Se179  1  0.59898752  0.73938446  0.46168236  1
  Se  Se180  1  0.58852924  0.74228517  0.95153861  1
  Se  Se181  1  0.92892575  0.07501543  0.43675640  1
  Se  Se182  1  0.92076814  0.07673031  0.93653235  1
  Se  Se183  1  0.90975146  0.41764201  0.45034493  1
  Se  Se184  1  0.92382528  0.42417197  0.94845517  1
  Se  Se185  1  0.91495206  0.75088095  0.45186376  1
  Se  Se186  1  0.92193456  0.74616657  0.93460802  1
  Se  Se187  1  0.24281629  0.24278164  0.31504087  1
  Se  Se188  1  0.24874248  0.24155683  0.81728495  1
  Se  Se189  1  0.23450858  0.57278647  0.30809974  1
  Se  Se190  1  0.24240487  0.57484012  0.80078126  1
  Se  Se191  1  0.25939584  0.92029397  0.30302904  1
  Se  Se192  1  0.24667115  0.91754146  0.79791771  1
  Se  Se193  1  0.58378250  0.25057523  0.30044058  1
  Se  Se194  1  0.57769247  0.24791484  0.80473092  1
  Se  Se195  1  0.57295263  0.57772804  0.31942258  1
  Se  Se196  1  0.58748806  0.58286254  0.79661264  1
  Se  Se197  1  0.59038553  0.91648074  0.31103717  1
  Se  Se198  1  0.58278375  0.91579496  0.80485336  1
  Se  Se199  1  0.91553175  0.25249231  0.30025118  1
  Se  Se200  1  0.92069737  0.25278277  0.79963112  1
  Se  Se201  1  0.90574368  0.58018331  0.31568857  1
  Se  Se202  1  0.91718257  0.58529852  0.80144297  1
  Se  Se203  1  0.91767854  0.91536710  0.31083357  1
  Se  Se204  1  0.90864860  0.91108529  0.80942220  1
  Se  Se205  1  0.08746863  0.08425446  0.31032066  1
  Se  Se206  1  0.08719438  0.08682007  0.81003172  1
  Se  Se207  1  0.07241680  0.41197030  0.30359726  1
  Se  Se208  1  0.09432331  0.41475584  0.80425692  1
  Se  Se209  1  0.09462760  0.75885978  0.30648508  1
  Se  Se210  1  0.08182739  0.74923518  0.79571360  1
  Se  Se211  1  0.41825141  0.08011855  0.30184733  1
  Se  Se212  1  0.41136820  0.07702593  0.80497046  1
  Se  Se213  1  0.41650804  0.41948060  0.31466334  1
  Se  Se214  1  0.42835247  0.42508098  0.80129211  1
  Se  Se215  1  0.42970967  0.75510698  0.31390765  1
  Se  Se216  1  0.42086223  0.75471032  0.80874561  1
  Se  Se217  1  0.74962527  0.08130307  0.29880867  1
  Se  Se218  1  0.74410962  0.08453026  0.80073686  1
  Se  Se219  1  0.74385391  0.41661465  0.30666020  1
  Se  Se220  1  0.75779807  0.42052448  0.80738803  1
  Se  Se221  1  0.75635541  0.75819716  0.31989979  1
  Se  Se222  1  0.74493604  0.74800929  0.80613819  1
  Se  Se223  1  0.25360873  0.08108719  0.19982093  1
  Se  Se224  1  0.25322326  0.08423084  0.69878196  1
  Se  Se225  1  0.24246930  0.42457083  0.19645594  1
  Se  Se226  1  0.24443989  0.42530178  0.69193258  1
  Se  Se227  1  0.25126839  0.75408707  0.18612496  1
  Se  Se228  1  0.24542040  0.75704767  0.68129399  1
  Se  Se229  1  0.58593991  0.08101792  0.19505137  1
  Se  Se230  1  0.58612364  0.07857073  0.69977842  1
  Se  Se231  1  0.58337428  0.41399083  0.20217163  1
  Se  Se232  1  0.58421826  0.42556622  0.67743621  1
  Se  Se233  1  0.57728460  0.75002073  0.19538724  1
  Se  Se234  1  0.58261409  0.74718690  0.69580727  1
  Se  Se235  1  0.90591757  0.09799414  0.18340683  1
  Se  Se236  1  0.90872352  0.09002831  0.68780650  1
  Se  Se237  1  0.91623565  0.41832278  0.19764663  1
  Se  Se238  1  0.91891949  0.41695334  0.69877524  1
  Se  Se239  1  0.90821521  0.76063412  0.19653542  1
  Se  Se240  1  0.91858607  0.74978867  0.70002942  1
  Se  Se241  1  0.08160690  0.25008876  0.20055051  1
  Se  Se242  1  0.08555054  0.25205411  0.69955662  1
  Se  Se243  1  0.09175523  0.57620025  0.19305232  1
  Se  Se244  1  0.07940165  0.59187466  0.70075626  1
  Se  Se245  1  0.08851006  0.90867275  0.18801227  1
  Se  Se246  1  0.08651552  0.91309168  0.68166100  1
  Se  Se247  1  0.42301943  0.24396230  0.18707929  1
  Se  Se248  1  0.42629408  0.24489821  0.69138225  1
  Se  Se249  1  0.42015671  0.57715062  0.19775514  1
  Se  Se250  1  0.42302400  0.58390382  0.68076868  1
  Se  Se251  1  0.41635538  0.91639318  0.20001359  1
  Se  Se252  1  0.41369994  0.91955099  0.69929596  1
  Se  Se253  1  0.74401629  0.25417413  0.19323563  1
  Se  Se254  1  0.75878420  0.24318827  0.68562322  1
  Se  Se255  1  0.75477250  0.58132007  0.19486278  1
  Se  Se256  1  0.74429826  0.58208619  0.69123604  1
  Se  Se257  1  0.74231600  0.91938835  0.20156829  1
  Se  Se258  1  0.74684018  0.91834721  0.70191364  1
