# generated using pymatgen
data_In86Cu29Se144
_symmetry_space_group_name_H-M   'P 1'
_cell_length_a   17.55569644
_cell_length_b   17.55202104
_cell_length_c   23.41002748
_cell_angle_alpha   90.00960909
_cell_angle_beta   90.01423575
_cell_angle_gamma   90.01209937
_symmetry_Int_Tables_number   1
_chemical_formula_structural   In86Cu29Se144
_chemical_formula_sum   'In86 Cu29 Se144'
_cell_volume   7213.51747014
_cell_formula_units_Z   1
loop_
 _symmetry_equiv_pos_site_id
 _symmetry_equiv_pos_as_xyz
  1  'x, y, z'
loop_
 _atom_site_type_symbol
 _atom_site_label
 _atom_site_symmetry_multiplicity
 _atom_site_fract_x
 _atom_site_fract_y
 _atom_site_fract_z
 _atom_site_occupancy
  In  In0  1  -0.00323484  0.16787879  0.12488225  1
  In  In1  1  -0.00212170  0.16126764  0.61988070  1
  In  In2  1  -0.00408967  0.45788325  0.12193905  1
  In  In3  1  -0.00643886  0.48897118  0.62877751  1
  In  In4  1  0.00930244  0.84603261  0.13106151  1
  In  In5  1  0.01429213  0.85102013  0.60074462  1
  In  In6  1  0.32935111  0.16219049  0.12337438  1
  In  In7  1  0.33345821  0.17695964  0.62812215  1
  In  In8  1  0.33473728  0.50054374  0.11579657  1
  In  In9  1  0.33728736  0.49483982  0.63605150  1
  In  In10  1  0.34843179  0.83097486  0.14439013  1
  In  In11  1  0.31421716  0.83446747  0.62685883  1
  In  In12  1  0.67009189  0.16659914  0.12455046  1
  In  In13  1  0.68371688  0.14910249  0.64704098  1
  In  In14  1  0.66298263  0.50424523  0.13548765  1
  In  In15  1  0.66318576  0.49043533  0.62479191  1
  In  In16  1  0.64928586  0.84126428  0.14222013  1
  In  In17  1  0.68755104  0.83964802  0.61416319  1
  In  In18  1  0.15670491  0.00360728  0.37969631  1
  In  In19  1  0.16772706  0.01452039  0.87676067  1
  In  In20  1  0.14809729  0.33532248  0.37088289  1
  In  In21  1  0.16944406  0.32465399  0.87248588  1
  In  In22  1  0.17227995  0.67497602  0.37160738  1
  In  In23  1  0.16593947  0.65024436  0.87296644  1
  In  In24  1  0.50269067  0.00407903  0.35028864  1
  In  In25  1  0.51601065  0.00183548  0.87422891  1
  In  In26  1  0.51700288  0.31735160  0.36800683  1
  In  In27  1  0.50009060  0.33426355  0.88441749  1
  In  In28  1  0.49879511  0.68252718  0.35597932  1
  In  In29  1  0.48680075  0.66943084  0.87449594  1
  In  In30  1  0.84168629  0.00859374  0.38280840  1
  In  In31  1  0.85682389  0.03887020  0.84507260  1
  In  In32  1  0.82238953  0.32094541  0.36699976  1
  In  In33  1  0.82422997  0.31467637  0.86351079  1
  In  In34  1  0.84115138  0.68043761  0.37411776  1
  In  In35  1  0.82517150  0.66926252  0.87126044  1
  In  In36  1  -0.00095759  0.16482823  0.38154279  1
  In  In37  1  0.00596689  0.16899705  0.87100428  1
  In  In38  1  0.00408817  0.49522139  0.36686582  1
  In  In39  1  0.02215862  0.48397204  0.88438947  1
  In  In40  1  -0.02199162  0.85761442  0.40267325  1
  In  In41  1  -0.01672901  0.84317169  0.87353909  1
  In  In42  1  0.33159862  0.14863524  0.36684475  1
  In  In43  1  0.31326457  0.17794925  0.88966110  1
  In  In44  1  0.32145843  0.51552685  0.36746165  1
  In  In45  1  0.33242746  0.49846047  0.87849694  1
  In  In46  1  0.32657093  0.83144481  0.36629533  1
  In  In47  1  0.34634142  0.82828180  0.86937339  1
  In  In48  1  0.67346708  0.17309163  0.36445039  1
  In  In49  1  0.66789930  0.16568230  0.88032840  1
  In  In50  1  0.66686296  0.48992226  0.35870287  1
  In  In51  1  0.67012736  0.48507564  0.88229298  1
  In  In52  1  0.68131236  0.85512570  0.35917241  1
  In  In53  1  0.65974632  0.84769506  0.87843277  1
  In  In54  1  0.15743562  0.01695933  0.13621529  1
  In  In55  1  0.15130262  -0.00152132  0.60941874  1
  In  In56  1  0.14935337  0.31748750  0.10936068  1
  In  In57  1  0.17260988  0.32730625  0.62858305  1
  In  In58  1  0.17725328  0.66451408  0.12880417  1
  In  In59  1  0.16740549  0.67822340  0.62569192  1
  In  In60  1  0.49172763  0.01500071  0.14578188  1
  In  In61  1  0.50585857  0.01662717  0.62572343  1
  In  In62  1  0.50564518  0.33966112  0.11542138  1
  In  In63  1  0.50694404  0.32108948  0.63841882  1
  In  In64  1  0.50409748  0.65711672  0.13491413  1
  In  In65  1  0.49856146  0.65248995  0.62763007  1
  In  In66  1  0.82281455  0.01634676  0.13416887  1
  In  In67  1  0.83721673  0.00417056  0.61982026  1
  In  In68  1  0.85092005  0.32197258  0.13763029  1
  In  In69  1  0.85737498  0.29982010  0.65581872  1
  In  In70  1  0.81828609  0.65174803  0.13337878  1
  In  In71  1  0.83656620  0.67445639  0.61673619  1
  In  In72  1  0.50347844  0.16757362  0.49603988  1
  In  In73  1  0.16576033  0.50622158  0.49302035  1
  In  In74  1  0.50036044  0.84010373  0.00937782  1
  In  In75  1  0.82345470  0.84064044  0.00591152  1
  In  In76  1  0.33415918  0.00269602  0.75073262  1
  In  In77  1  0.17396198  0.83998987  0.00869627  1
  In  In78  1  0.83415845  0.49773675  0.50447210  1
  In  In79  1  0.00203381  0.67127810  0.25427872  1
  In  In80  1  0.00268293  0.66387332  0.74651874  1
  In  In81  1  0.67125537  0.66711190  0.74386386  1
  In  In82  1  0.33379777  0.33949052  0.24042112  1
  In  In83  1  0.83386076  0.48361502  0.00246888  1
  In  In84  1  0.49634927  0.83488642  0.48785796  1
  In  In85  1  0.50016947  0.49862029  0.49559194  1
  Cu  Cu86  1  0.67146160  0.00446294  0.49562985  1
  Cu  Cu87  1  0.84069064  0.83534677  0.25715060  1
  Cu  Cu88  1  0.48955704  0.49636169  0.24458664  1
  Cu  Cu89  1  -0.00540351  0.32873398  0.49980841  1
  Cu  Cu90  1  0.68084252  0.32174046  0.50167297  1
  Cu  Cu91  1  0.16445025  0.16997469  0.24874843  1
  Cu  Cu92  1  0.17554170  0.49119498  0.75561152  1
  Cu  Cu93  1  0.33049720  0.67480719  0.49863384  1
  Cu  Cu94  1  0.50184422  0.83119491  0.74918065  1
  Cu  Cu95  1  0.33778432  0.00243086  0.01137370  1
  Cu  Cu96  1  0.67813045  0.67098518  0.48858386  1
  Cu  Cu97  1  0.32951391  0.32977976  0.50243410  1
  Cu  Cu98  1  0.15995748  0.49765373  0.24232072  1
  Cu  Cu99  1  -0.00422773  0.01196691  -0.00141490  1
  Cu  Cu100  1  0.67861663  0.01211406  -0.00120137  1
  Cu  Cu101  1  0.16257610  0.84762402  0.25407367  1
  Cu  Cu102  1  0.33065763  0.33276005  -0.00150899  1
  Cu  Cu103  1  0.84245795  0.15852843  0.25365437  1
  Cu  Cu104  1  -0.00464524  0.65792092  0.00288117  1
  Cu  Cu105  1  0.49640921  0.17379482  0.76158009  1
  Cu  Cu106  1  0.49653514  0.49906703  0.75585331  1
  Cu  Cu107  1  0.66644285  0.32989394  0.00270354  1
  Cu  Cu108  1  0.33124423  0.66118642  -0.00100884  1
  Cu  Cu109  1  0.83739342  0.85037827  0.74075448  1
  Cu  Cu110  1  0.15911480  0.16426503  0.74901734  1
  Cu  Cu111  1  0.65756578  0.66157647  0.01111794  1
  Cu  Cu112  1  0.83989324  0.49680934  0.75592628  1
  Cu  Cu113  1  0.32199961  0.00066346  0.49327182  1
  Cu  Cu114  1  0.16171394  0.83354898  0.74318014  1
  Se  Se115  1  0.08483070  0.08675571  0.05519314  1
  Se  Se116  1  0.06923645  0.08253972  0.54221615  1
  Se  Se117  1  0.08909794  0.42106906  0.04403014  1
  Se  Se118  1  0.08015628  0.41153747  0.55483533  1
  Se  Se119  1  0.07548666  0.74609397  0.05974627  1
  Se  Se120  1  0.08539101  0.74156635  0.55054409  1
  Se  Se121  1  0.42668876  0.08317821  0.06107589  1
  Se  Se122  1  0.40536011  0.07763503  0.55451369  1
  Se  Se123  1  0.41635818  0.41735773  0.04819346  1
  Se  Se124  1  0.41591227  0.40649260  0.56136907  1
  Se  Se125  1  0.40894013  0.74252254  0.06163864  1
  Se  Se126  1  0.41597502  0.74789835  0.56086649  1
  Se  Se127  1  0.76285348  0.09446175  0.05222806  1
  Se  Se128  1  0.74349774  0.08916903  0.55695759  1
  Se  Se129  1  0.74447115  0.40490602  0.06967358  1
  Se  Se130  1  0.75428702  0.40220038  0.56596335  1
  Se  Se131  1  0.73648141  0.74722100  0.06678826  1
  Se  Se132  1  0.75987159  0.75337107  0.54263231  1
  Se  Se133  1  0.25192278  0.24452400  0.05173572  1
  Se  Se134  1  0.24754425  0.24545590  0.55380128  1
  Se  Se135  1  0.24312553  0.58237162  0.05133217  1
  Se  Se136  1  0.26078445  0.58425563  0.55938978  1
  Se  Se137  1  0.26183065  0.92280591  0.07493442  1
  Se  Se138  1  0.24679589  0.91443052  0.55032530  1
  Se  Se139  1  0.58347431  0.24335880  0.05385423  1
  Se  Se140  1  0.59170994  0.24928570  0.56211556  1
  Se  Se141  1  0.57643133  0.57435958  0.05996766  1
  Se  Se142  1  0.59791382  0.59230594  0.55177640  1
  Se  Se143  1  0.59712079  0.93084549  0.05941394  1
  Se  Se144  1  0.58450785  0.92561553  0.55349957  1
  Se  Se145  1  0.92919321  0.26431742  0.05679043  1
  Se  Se146  1  0.90900349  0.25401248  0.55864077  1
  Se  Se147  1  0.91745798  0.58038167  0.06489441  1
  Se  Se148  1  0.93349230  0.58796515  0.55739938  1
  Se  Se149  1  0.92191482  0.92844182  0.06104882  1
  Se  Se150  1  0.90122928  0.91012158  0.54884276  1
  Se  Se151  1  0.08579155  0.25221864  0.44788447  1
  Se  Se152  1  0.09908796  0.23318221  0.94158984  1
  Se  Se153  1  0.07247562  0.59335897  0.43559444  1
  Se  Se154  1  0.08639999  0.58295834  0.95126448  1
  Se  Se155  1  0.09499980  0.91166402  0.45378958  1
  Se  Se156  1  0.07583631  0.92137274  0.94414470  1
  Se  Se157  1  0.41099728  0.25622016  0.43614882  1
  Se  Se158  1  0.41678957  0.24579733  0.95022427  1
  Se  Se159  1  0.41285680  0.59522619  0.43806831  1
  Se  Se160  1  0.41972504  0.58194105  0.94686719  1
  Se  Se161  1  0.41152433  0.93323362  0.43113808  1
  Se  Se162  1  0.41016115  0.92553399  0.94247101  1
  Se  Se163  1  0.75645351  0.23674608  0.44430375  1
  Se  Se164  1  0.75138343  0.25088199  0.94777495  1
  Se  Se165  1  0.74713948  0.57709113  0.43328405  1
  Se  Se166  1  0.74541118  0.58983848  0.94798652  1
  Se  Se167  1  0.75220889  0.91714560  0.44381793  1
  Se  Se168  1  0.75591304  0.93319720  0.93482139  1
  Se  Se169  1  0.24409954  0.09344362  0.44462954  1
  Se  Se170  1  0.24804293  0.07770898  0.95613059  1
  Se  Se171  1  0.25696975  0.41142158  0.43689657  1
  Se  Se172  1  0.24612024  0.41403724  0.94282441  1
  Se  Se173  1  0.24929275  0.75712814  0.44455384  1
  Se  Se174  1  0.25560069  0.74878793  0.93990523  1
  Se  Se175  1  0.58685751  0.07520447  0.43281476  1
  Se  Se176  1  0.58054863  0.08536589  0.95049505  1
  Se  Se177  1  0.59603632  0.40302055  0.44378458  1
  Se  Se178  1  0.58253879  0.41871561  0.95511812  1
  Se  Se179  1  0.59340268  0.74857569  0.43065098  1
  Se  Se180  1  0.58741897  0.74588980  0.94508163  1
  Se  Se181  1  0.93419625  0.07396156  0.45540486  1
  Se  Se182  1  0.91354788  0.08977178  0.93957382  1
  Se  Se183  1  0.91889684  0.40934301  0.43732225  1
  Se  Se184  1  0.91751211  0.39989588  0.93452703  1
  Se  Se185  1  0.92017333  0.74072418  0.45304281  1
  Se  Se186  1  0.91610498  0.74343402  0.94626500  1
  Se  Se187  1  0.24609718  0.25260055  0.30731423  1
  Se  Se188  1  0.25059844  0.24057175  0.80126471  1
  Se  Se189  1  0.23686429  0.58711820  0.29476874  1
  Se  Se190  1  0.25613636  0.58211842  0.80321407  1
  Se  Se191  1  0.24713973  0.92984906  0.30815008  1
  Se  Se192  1  0.24285642  0.90956066  0.80948510  1
  Se  Se193  1  0.58777356  0.24366945  0.29129224  1
  Se  Se194  1  0.58376127  0.25408045  0.81430742  1
  Se  Se195  1  0.57343237  0.57687261  0.30215068  1
  Se  Se196  1  0.58435679  0.58118645  0.81222220  1
  Se  Se197  1  0.56759846  0.89493054  0.29675504  1
  Se  Se198  1  0.58443331  0.91667488  0.79886138  1
  Se  Se199  1  0.92258174  0.24624262  0.30723031  1
  Se  Se200  1  0.90963614  0.23230119  0.79925001  1
  Se  Se201  1  0.90602309  0.57688832  0.30670399  1
  Se  Se202  1  0.91930730  0.57691221  0.81683892  1
  Se  Se203  1  0.92050197  0.91899078  0.31265372  1
  Se  Se204  1  0.92733645  0.92680638  0.79380304  1
  Se  Se205  1  0.08262454  0.08931016  0.30693680  1
  Se  Se206  1  0.08111183  0.07529348  0.80087105  1
  Se  Se207  1  0.07696824  0.41263487  0.29288522  1
  Se  Se208  1  0.08582632  0.40878150  0.80247253  1
  Se  Se209  1  0.08062335  0.76883012  0.31495273  1
  Se  Se210  1  0.08615871  0.75686325  0.81248772  1
  Se  Se211  1  0.43475590  0.11075550  0.29571850  1
  Se  Se212  1  0.41446683  0.09001321  0.81893372  1
  Se  Se213  1  0.41824667  0.42006221  0.31457225  1
  Se  Se214  1  0.41716939  0.41372729  0.81181815  1
  Se  Se215  1  0.39070685  0.73768400  0.29590357  1
  Se  Se216  1  0.41651538  0.74484509  0.79492962  1
  Se  Se217  1  0.75599148  0.07651775  0.30670045  1
  Se  Se218  1  0.72464345  0.06875001  0.80686410  1
  Se  Se219  1  0.74751227  0.40349325  0.29516388  1
  Se  Se220  1  0.74895235  0.41765611  0.80472722  1
  Se  Se221  1  0.75246709  0.74857574  0.30257035  1
  Se  Se222  1  0.75738093  0.76790840  0.80246329  1
  Se  Se223  1  0.25499913  0.08685218  0.20207470  1
  Se  Se224  1  0.23960111  0.08273093  0.68642709  1
  Se  Se225  1  0.23592956  0.41725290  0.17950654  1
  Se  Se226  1  0.25570539  0.40665608  0.69948430  1
  Se  Se227  1  0.23980710  0.75975130  0.19864641  1
  Se  Se228  1  0.25140892  0.74549899  0.70203462  1
  Se  Se229  1  0.61772338  0.05818113  0.19035523  1
  Se  Se230  1  0.57496812  0.08559686  0.70690237  1
  Se  Se231  1  0.57651038  0.41323012  0.19595110  1
  Se  Se232  1  0.58174785  0.41987945  0.70007513  1
  Se  Se233  1  0.57748926  0.74419157  0.20376413  1
  Se  Se234  1  0.58274017  0.75812494  0.68198426  1
  Se  Se235  1  0.92688723  0.07860022  0.19771114  1
  Se  Se236  1  0.90341453  0.09671288  0.69098075  1
  Se  Se237  1  0.89761727  0.43635760  0.19982527  1
  Se  Se238  1  0.92671894  0.41195141  0.70744796  1
  Se  Se239  1  0.90985255  0.75652606  0.18758934  1
  Se  Se240  1  0.91668040  0.75914465  0.68810598  1
  Se  Se241  1  0.08081832  0.25304076  0.19454440  1
  Se  Se242  1  0.08058574  0.24640415  0.69003489  1
  Se  Se243  1  0.07569600  0.57899299  0.18385484  1
  Se  Se244  1  0.09707839  0.56953062  0.68996423  1
  Se  Se245  1  0.07620375  0.93175304  0.20510132  1
  Se  Se246  1  0.08242747  0.91577267  0.68694694  1
  Se  Se247  1  0.42464443  0.24838918  0.18550250  1
  Se  Se248  1  0.41113298  0.25041690  0.70430024  1
  Se  Se249  1  0.40374409  0.57961581  0.19442617  1
  Se  Se250  1  0.41554803  0.58442907  0.70279772  1
  Se  Se251  1  0.42054939  0.92099796  0.21125493  1
  Se  Se252  1  0.42230869  0.91265403  0.68638862  1
  Se  Se253  1  0.75858450  0.23991328  0.19779159  1
  Se  Se254  1  0.72247901  0.27539011  0.69360526  1
  Se  Se255  1  0.73370786  0.59044323  0.20860616  1
  Se  Se256  1  0.76650393  0.57402604  0.68792881  1
  Se  Se257  1  0.75753741  0.91242883  0.19719493  1
  Se  Se258  1  0.74510239  0.92659415  0.69059875  1
