# generated using pymatgen
data_In86Cu29Se144
_symmetry_space_group_name_H-M   'P 1'
_cell_length_a   17.57331746
_cell_length_b   17.57657445
_cell_length_c   23.43684518
_cell_angle_alpha   89.99015117
_cell_angle_beta   90.02255222
_cell_angle_gamma   90.00232316
_symmetry_Int_Tables_number   1
_chemical_formula_structural   In86Cu29Se144
_chemical_formula_sum   'In86 Cu29 Se144'
_cell_volume   7239.14213009
_cell_formula_units_Z   1
loop_
 _symmetry_equiv_pos_site_id
 _symmetry_equiv_pos_as_xyz
  1  'x, y, z'
loop_
 _atom_site_type_symbol
 _atom_site_label
 _atom_site_symmetry_multiplicity
 _atom_site_fract_x
 _atom_site_fract_y
 _atom_site_fract_z
 _atom_site_occupancy
  In  In0  1  0.00428014  0.15550293  0.12502050  1
  In  In1  1  -0.00845660  0.15623458  0.62256954  1
  In  In2  1  0.01469863  0.50574772  0.12013122  1
  In  In3  1  0.00030882  0.51578708  0.63481301  1
  In  In4  1  -0.00858859  0.82227857  0.12100531  1
  In  In5  1  -0.00150318  0.84332665  0.63216937  1
  In  In6  1  0.33542946  0.16548670  0.12596040  1
  In  In7  1  0.33683436  0.16961402  0.62307818  1
  In  In8  1  0.33009468  0.49725365  0.12161240  1
  In  In9  1  0.32956462  0.49255933  0.62824954  1
  In  In10  1  0.33351261  0.83765351  0.11765099  1
  In  In11  1  0.34651144  0.83781159  0.62766116  1
  In  In12  1  0.63833082  0.16167531  0.12146779  1
  In  In13  1  0.66828816  0.16763348  0.62350584  1
  In  In14  1  0.66265416  0.50954469  0.11953302  1
  In  In15  1  0.66515713  0.48953954  0.62700158  1
  In  In16  1  0.67126614  0.83942804  0.11880871  1
  In  In17  1  0.67479875  0.82239430  0.62111724  1
  In  In18  1  0.17824424  0.00389787  0.37259733  1
  In  In19  1  0.17157287  -0.00208754  0.87671747  1
  In  In20  1  0.17250109  0.32543360  0.37670064  1
  In  In21  1  0.17857771  0.31501686  0.88390382  1
  In  In22  1  0.17458122  0.67510149  0.36082955  1
  In  In23  1  0.16802653  0.67575603  0.89070571  1
  In  In24  1  0.50887358  0.00349475  0.36761616  1
  In  In25  1  0.48535966  0.02076946  0.88431549  1
  In  In26  1  0.48560677  0.33408010  0.37330892  1
  In  In27  1  0.49471876  0.33672026  0.86850925  1
  In  In28  1  0.49863478  0.68146102  0.36613448  1
  In  In29  1  0.49608814  0.66769900  0.89417472  1
  In  In30  1  0.82273297  0.01003902  0.38325988  1
  In  In31  1  0.83282880  -0.01469019  0.87161856  1
  In  In32  1  0.83246712  0.33355709  0.39012318  1
  In  In33  1  0.81696919  0.34540737  0.86222521  1
  In  In34  1  0.84257524  0.65962349  0.38510234  1
  In  In35  1  0.84561134  0.66432639  0.87280270  1
  In  In36  1  -0.00049850  0.16819126  0.38605862  1
  In  In37  1  0.01711279  0.16582992  0.87219579  1
  In  In38  1  -0.00452996  0.50183808  0.38020945  1
  In  In39  1  -0.00462083  0.51647719  0.87162588  1
  In  In40  1  0.00530576  0.82267537  0.37192737  1
  In  In41  1  0.00385075  0.83149481  0.87687215  1
  In  In42  1  0.33528021  0.16740709  0.37580078  1
  In  In43  1  0.33899407  0.16498571  0.86911880  1
  In  In44  1  0.33459595  0.50081193  0.36165136  1
  In  In45  1  0.35286459  0.48114355  0.89225282  1
  In  In46  1  0.35428894  0.84782354  0.34535326  1
  In  In47  1  0.32650396  0.84020047  0.89047026  1
  In  In48  1  0.66860533  0.15872845  0.38282087  1
  In  In49  1  0.64815798  0.18369549  0.87510207  1
  In  In50  1  0.67757889  0.50969147  0.37737087  1
  In  In51  1  0.64820382  0.48747538  0.86260823  1
  In  In52  1  0.66439476  0.84122509  0.37492539  1
  In  In53  1  0.66695534  0.83447889  0.88692751  1
  In  In54  1  0.18184931  0.01444578  0.11803963  1
  In  In55  1  0.15955475  0.00594127  0.63207053  1
  In  In56  1  0.18142694  0.34875283  0.11160188  1
  In  In57  1  0.18604020  0.32625405  0.63382634  1
  In  In58  1  0.16834988  0.66452102  0.11887068  1
  In  In59  1  0.16474406  0.65232641  0.63125900  1
  In  In60  1  0.49391059  -0.00222498  0.12558653  1
  In  In61  1  0.48239306  0.00612105  0.63275073  1
  In  In62  1  0.48617475  0.31242571  0.10550511  1
  In  In63  1  0.52063622  0.31277863  0.65668294  1
  In  In64  1  0.48347068  0.66052811  0.10774080  1
  In  In65  1  0.50438560  0.66484291  0.62676880  1
  In  In66  1  0.83351897  -0.01432155  0.12759467  1
  In  In67  1  0.83687372  0.00480927  0.62152256  1
  In  In68  1  0.82905440  0.34375938  0.12645971  1
  In  In69  1  0.82690891  0.32637527  0.62281874  1
  In  In70  1  0.82657667  0.68017975  0.12741850  1
  In  In71  1  0.84260821  0.68077495  0.61209451  1
  In  In72  1  0.17045885  0.83363404  0.49339018  1
  In  In73  1  0.50861683  0.83819906  0.48894157  1
  In  In74  1  0.83573833  0.16196509  -0.00945853  1
  In  In75  1  0.00687183  0.33057307  0.25938134  1
  In  In76  1  0.66889399  0.65884209  0.75187585  1
  In  In77  1  0.32581793  0.66764546  0.76331747  1
  In  In78  1  0.00044857  0.33189508  0.74939486  1
  In  In79  1  0.00513458  -0.00670191  0.25310419  1
  In  In80  1  0.66237184  0.33116143  0.24545651  1
  In  In81  1  0.65777189  0.67181647  0.24489208  1
  In  In82  1  0.50456329  0.49346359  0.50488443  1
  In  In83  1  0.16117950  0.49286996  0.50550410  1
  In  In84  1  0.66812193  0.00367483  0.75013885  1
  In  In85  1  0.82612243  0.50335863  -0.01124852  1
  Cu  Cu86  1  0.17529524  0.15524422  0.75197667  1
  Cu  Cu87  1  0.01115139  -0.00928253  0.00109385  1
  Cu  Cu88  1  0.17417973  0.17537551  0.24716844  1
  Cu  Cu89  1  0.49900238  0.84281870  0.75830445  1
  Cu  Cu90  1  0.33692505  0.66876264  0.48919702  1
  Cu  Cu91  1  0.16959284  0.83037393  0.76024073  1
  Cu  Cu92  1  0.83181386  0.16226093  0.74511641  1
  Cu  Cu93  1  -0.00299597  0.67005845  -0.00055161  1
  Cu  Cu94  1  0.84600658  0.82778285  0.74954153  1
  Cu  Cu95  1  0.81973939  0.16154476  0.25605554  1
  Cu  Cu96  1  0.66520942  0.67118981  0.00069494  1
  Cu  Cu97  1  -0.00273384  0.00067575  0.50650287  1
  Cu  Cu98  1  0.49458763  0.16222690  0.24778032  1
  Cu  Cu99  1  0.32968563  0.00931302  0.49968068  1
  Cu  Cu100  1  0.00339587  0.67043354  0.50076422  1
  Cu  Cu101  1  0.33600284  0.32406999  0.50210729  1
  Cu  Cu102  1  0.33516176  0.32666385  -0.00190887  1
  Cu  Cu103  1  0.83046732  0.83191627  0.24856443  1
  Cu  Cu104  1  0.00082113  0.33117810  0.50745650  1
  Cu  Cu105  1  0.16296201  0.50069590  0.76116851  1
  Cu  Cu106  1  0.66051032  0.32692816  0.50655939  1
  Cu  Cu107  1  0.17131243  0.50523813  0.24004490  1
  Cu  Cu108  1  0.66739623  0.00421827  -0.00034526  1
  Cu  Cu109  1  0.33754708  0.00824247  -0.00040893  1
  Cu  Cu110  1  0.49555724  0.49530482  0.24123677  1
  Cu  Cu111  1  0.84405435  0.50376510  0.25807951  1
  Cu  Cu112  1  0.16930639  0.83296711  0.23861021  1
  Cu  Cu113  1  -0.00375329  0.32727002  -0.00394094  1
  Cu  Cu114  1  0.66241245  -0.00209607  0.50262206  1
  Se  Se115  1  0.08556133  0.08528973  0.05061179  1
  Se  Se116  1  0.08572555  0.08317567  0.55512737  1
  Se  Se117  1  0.07705324  0.41334907  0.04859139  1
  Se  Se118  1  0.07755814  0.40677774  0.57321226  1
  Se  Se119  1  0.08296487  0.75137116  0.05241344  1
  Se  Se120  1  0.08750030  0.74593162  0.56147045  1
  Se  Se121  1  0.42191071  0.08927315  0.05494988  1
  Se  Se122  1  0.41919128  0.08568862  0.55277438  1
  Se  Se123  1  0.41505895  0.41740941  0.04968530  1
  Se  Se124  1  0.41387778  0.40526535  0.56293741  1
  Se  Se125  1  0.39254589  0.74032684  0.04352992  1
  Se  Se126  1  0.41667689  0.74536961  0.55254476  1
  Se  Se127  1  0.74984971  0.08135717  0.06212606  1
  Se  Se128  1  0.74758063  0.08219369  0.55510218  1
  Se  Se129  1  0.74086703  0.41210186  0.05268336  1
  Se  Se130  1  0.74631904  0.41276980  0.55427984  1
  Se  Se131  1  0.75322562  0.75377751  0.05018460  1
  Se  Se132  1  0.75246812  0.75517164  0.54488969  1
  Se  Se133  1  0.25121643  0.24433544  0.05350095  1
  Se  Se134  1  0.24533566  0.24606784  0.55271388  1
  Se  Se135  1  0.22197724  0.55312934  0.05852300  1
  Se  Se136  1  0.26001735  0.59108187  0.55387011  1
  Se  Se137  1  0.25056220  0.92281865  0.04856109  1
  Se  Se138  1  0.25713226  0.92064695  0.55889595  1
  Se  Se139  1  0.59678639  0.25753395  0.04640515  1
  Se  Se140  1  0.57463540  0.25214482  0.56370304  1
  Se  Se141  1  0.58106301  0.58229244  0.04663375  1
  Se  Se142  1  0.59418121  0.59201789  0.55646109  1
  Se  Se143  1  0.58369643  0.92272647  0.05469674  1
  Se  Se144  1  0.58267606  0.92242996  0.56680983  1
  Se  Se145  1  0.91747819  0.25364877  0.06131309  1
  Se  Se146  1  0.91419884  0.24587094  0.55592015  1
  Se  Se147  1  0.91280864  0.58808755  0.05846015  1
  Se  Se148  1  0.92529982  0.58179028  0.55365694  1
  Se  Se149  1  0.91858884  0.91689353  0.05389149  1
  Se  Se150  1  0.91611145  0.91300728  0.55621694  1
  Se  Se151  1  0.08474557  0.25569854  0.44872043  1
  Se  Se152  1  0.08492981  0.24123045  0.95156172  1
  Se  Se153  1  0.09028714  0.59594947  0.44055105  1
  Se  Se154  1  0.07783694  0.58313361  0.94800066  1
  Se  Se155  1  0.07598856  0.92791546  0.43867596  1
  Se  Se156  1  0.09267484  0.90918953  0.94523391  1
  Se  Se157  1  0.42186255  0.24565561  0.44718566  1
  Se  Se158  1  0.41836862  0.24875283  0.94014641  1
  Se  Se159  1  0.41902043  0.58347593  0.43610129  1
  Se  Se160  1  0.40481231  0.58956630  0.95626837  1
  Se  Se161  1  0.40533796  0.92353039  0.43812114  1
  Se  Se162  1  0.42247515  0.92061947  0.95085728  1
  Se  Se163  1  0.74649981  0.24607557  0.45124114  1
  Se  Se164  1  0.74742667  0.26175967  0.94065877  1
  Se  Se165  1  0.76193158  0.57352144  0.45104522  1
  Se  Se166  1  0.73444530  0.59309547  0.93100967  1
  Se  Se167  1  0.74615638  0.91654911  0.44830934  1
  Se  Se168  1  0.75434663  0.91960203  0.95091473  1
  Se  Se169  1  0.24521463  0.09040635  0.44598479  1
  Se  Se170  1  0.25394131  0.08688519  0.94143352  1
  Se  Se171  1  0.26256189  0.41532495  0.44366789  1
  Se  Se172  1  0.24635844  0.41201409  0.95033302  1
  Se  Se173  1  0.26641352  0.75560481  0.42948923  1
  Se  Se174  1  0.26815562  0.73797501  0.95821024  1
  Se  Se175  1  0.57771006  0.07908561  0.44804573  1
  Se  Se176  1  0.58643463  0.09040068  0.94748655  1
  Se  Se177  1  0.59240220  0.40677569  0.43669165  1
  Se  Se178  1  0.57774180  0.41676171  0.94088210  1
  Se  Se179  1  0.59625636  0.73463768  0.44144938  1
  Se  Se180  1  0.57814669  0.76005697  0.95566335  1
  Se  Se181  1  0.91421991  0.08449060  0.45067933  1
  Se  Se182  1  0.93080485  0.06921136  0.93756017  1
  Se  Se183  1  0.92251208  0.41716911  0.45207633  1
  Se  Se184  1  0.92010389  0.40757117  0.93461835  1
  Se  Se185  1  0.92195456  0.75515504  0.44727476  1
  Se  Se186  1  0.91359281  0.75236878  0.94528641  1
  Se  Se187  1  0.25732047  0.25477661  0.30400278  1
  Se  Se188  1  0.25072585  0.24886140  0.80199352  1
  Se  Se189  1  0.25522716  0.58765121  0.29532846  1
  Se  Se190  1  0.24465093  0.57451320  0.82473938  1
  Se  Se191  1  0.24324753  0.92005673  0.29648088  1
  Se  Se192  1  0.25688315  0.91315205  0.80920702  1
  Se  Se193  1  0.57675715  0.24214512  0.30950483  1
  Se  Se194  1  0.58252125  0.25991945  0.79689629  1
  Se  Se195  1  0.57575509  0.57101920  0.30549784  1
  Se  Se196  1  0.56089490  0.58958857  0.80885743  1
  Se  Se197  1  0.56001948  0.88991751  0.30825281  1
  Se  Se198  1  0.58210391  0.91931824  0.81719087  1
  Se  Se199  1  0.90450013  0.24215026  0.31216979  1
  Se  Se200  1  0.90896277  0.24103352  0.81062942  1
  Se  Se201  1  0.92550786  0.58961016  0.30802545  1
  Se  Se202  1  0.90758340  0.57856544  0.79780440  1
  Se  Se203  1  0.90696937  0.91229489  0.31299884  1
  Se  Se204  1  0.92436410  0.91468240  0.80342745  1
  Se  Se205  1  0.08801330  0.09815128  0.30700013  1
  Se  Se206  1  0.08673949  0.07551568  0.80299619  1
  Se  Se207  1  0.09788299  0.43004084  0.31129613  1
  Se  Se208  1  0.08677654  0.41286797  0.81862046  1
  Se  Se209  1  0.08450862  0.75371006  0.29485106  1
  Se  Se210  1  0.08872302  0.74398946  0.81144023  1
  Se  Se211  1  0.41356987  0.08159121  0.30575193  1
  Se  Se212  1  0.42160478  0.08384753  0.79913371  1
  Se  Se213  1  0.41440833  0.41139339  0.29607752  1
  Se  Se214  1  0.40842916  0.42161494  0.80276383  1
  Se  Se215  1  0.40843303  0.73398719  0.29070098  1
  Se  Se216  1  0.42197364  0.75828523  0.81720115  1
  Se  Se217  1  0.73788973  0.07562239  0.30608948  1
  Se  Se218  1  0.75377460  0.09290894  0.81508617  1
  Se  Se219  1  0.75952774  0.41648555  0.30814433  1
  Se  Se220  1  0.75077575  0.43604114  0.79340292  1
  Se  Se221  1  0.75436974  0.74856977  0.31084853  1
  Se  Se222  1  0.75326170  0.76002602  0.80896250  1
  Se  Se223  1  0.25394298  0.08455798  0.19866909  1
  Se  Se224  1  0.25893442  0.07933858  0.69267177  1
  Se  Se225  1  0.25241636  0.41177645  0.19560024  1
  Se  Se226  1  0.24665371  0.42329086  0.70384797  1
  Se  Se227  1  0.25141591  0.74966838  0.18568959  1
  Se  Se228  1  0.24574605  0.75642311  0.69043581  1
  Se  Se229  1  0.58007079  0.07661150  0.19888233  1
  Se  Se230  1  0.57376992  0.09258376  0.69546342  1
  Se  Se231  1  0.57625473  0.41744931  0.18135846  1
  Se  Se232  1  0.56902260  0.43822703  0.69893193  1
  Se  Se233  1  0.57278128  0.75029897  0.17611436  1
  Se  Se234  1  0.57692976  0.76201861  0.69704582  1
  Se  Se235  1  0.90854218  0.08678085  0.19753015  1
  Se  Se236  1  0.91757605  0.07632685  0.69834055  1
  Se  Se237  1  0.91976662  0.42219428  0.19539360  1
  Se  Se238  1  0.90973101  0.41974167  0.69087652  1
  Se  Se239  1  0.91639545  0.74773072  0.19957986  1
  Se  Se240  1  0.92349471  0.74392321  0.69291125  1
  Se  Se241  1  0.08961263  0.25057287  0.18704145  1
  Se  Se242  1  0.08984887  0.23607915  0.69298063  1
  Se  Se243  1  0.08181293  0.58931387  0.19476778  1
  Se  Se244  1  0.08343159  0.58800818  0.70933080  1
  Se  Se245  1  0.08824985  0.91616038  0.18094166  1
  Se  Se246  1  0.09002280  0.91326408  0.70122398  1
  Se  Se247  1  0.42019586  0.25182551  0.19289391  1
  Se  Se248  1  0.39089148  0.27003252  0.69395178  1
  Se  Se249  1  0.41647344  0.58172772  0.18777764  1
  Se  Se250  1  0.41390983  0.58595957  0.69278458  1
  Se  Se251  1  0.40279951  0.92301368  0.19191898  1
  Se  Se252  1  0.41057222  0.91984576  0.70540876  1
  Se  Se253  1  0.75234821  0.23896905  0.18630082  1
  Se  Se254  1  0.74755060  0.24813082  0.69658252  1
  Se  Se255  1  0.75753335  0.57486194  0.19520519  1
  Se  Se256  1  0.75728630  0.58818452  0.68039199  1
  Se  Se257  1  0.74463386  0.91513500  0.19882663  1
  Se  Se258  1  0.75795606  0.90731739  0.69328015  1
