# generated using pymatgen
data_In86Cu29Se144
_symmetry_space_group_name_H-M   'P 1'
_cell_length_a   17.57598915
_cell_length_b   17.58279676
_cell_length_c   23.43908114
_cell_angle_alpha   89.99987166
_cell_angle_beta   89.99020155
_cell_angle_gamma   90.01922258
_symmetry_Int_Tables_number   1
_chemical_formula_structural   In86Cu29Se144
_chemical_formula_sum   'In86 Cu29 Se144'
_cell_volume   7243.49698289
_cell_formula_units_Z   1
loop_
 _symmetry_equiv_pos_site_id
 _symmetry_equiv_pos_as_xyz
  1  'x, y, z'
loop_
 _atom_site_type_symbol
 _atom_site_label
 _atom_site_symmetry_multiplicity
 _atom_site_fract_x
 _atom_site_fract_y
 _atom_site_fract_z
 _atom_site_occupancy
  In  In0  1  0.00084550  0.16377103  0.12169545  1
  In  In1  1  -0.00206154  0.15880063  0.61012217  1
  In  In2  1  0.00903745  0.49219167  0.13536645  1
  In  In3  1  -0.00838077  0.52348212  0.62448122  1
  In  In4  1  -0.01449757  0.84710580  0.13693530  1
  In  In5  1  -0.01044308  0.81340293  0.61622490  1
  In  In6  1  0.34383157  0.17208291  0.11547010  1
  In  In7  1  0.31919784  0.16497277  0.62281679  1
  In  In8  1  0.33300006  0.49849024  0.12663253  1
  In  In9  1  0.33293656  0.49410829  0.62579553  1
  In  In10  1  0.32115427  0.83541216  0.12508351  1
  In  In11  1  0.34242762  0.84629237  0.62791169  1
  In  In12  1  0.67611767  0.16381486  0.12413742  1
  In  In13  1  0.68560599  0.16536158  0.62846131  1
  In  In14  1  0.65921346  0.50409149  0.12919747  1
  In  In15  1  0.67884910  0.48963678  0.62954754  1
  In  In16  1  0.67787471  0.82598375  0.12721440  1
  In  In17  1  0.66495324  0.83615782  0.62919025  1
  In  In18  1  0.14162697  0.01586909  0.39419567  1
  In  In19  1  0.17147568  -0.00413859  0.87737288  1
  In  In20  1  0.15012709  0.32000757  0.36055369  1
  In  In21  1  0.17594802  0.32450000  0.88505803  1
  In  In22  1  0.16339178  0.67036916  0.37100987  1
  In  In23  1  0.15379545  0.67149083  0.87950491  1
  In  In24  1  0.50648159  -0.00958294  0.36813570  1
  In  In25  1  0.50004159  0.01658127  0.88224563  1
  In  In26  1  0.50649108  0.33978738  0.36035458  1
  In  In27  1  0.50996244  0.32371727  0.88443031  1
  In  In28  1  0.50034967  0.66991651  0.36407579  1
  In  In29  1  0.50318635  0.64841876  0.87928664  1
  In  In30  1  0.84137459  0.00800362  0.37110255  1
  In  In31  1  0.83273362  -0.00423025  0.89796210  1
  In  In32  1  0.83426209  0.33133600  0.36923645  1
  In  In33  1  0.82268945  0.33168237  0.87458614  1
  In  In34  1  0.82764995  0.66108750  0.36951799  1
  In  In35  1  0.83829510  0.67620434  0.86490074  1
  In  In36  1  -0.00550398  0.16500582  0.37414413  1
  In  In37  1  0.00292305  0.15060627  0.90108262  1
  In  In38  1  -0.00650096  0.49541420  0.36857218  1
  In  In39  1  -0.00131624  0.51601262  0.88143815  1
  In  In40  1  0.00555326  0.84304139  0.37082957  1
  In  In41  1  -0.00235891  0.82455855  0.87415638  1
  In  In42  1  0.31671257  0.16255016  0.36615998  1
  In  In43  1  0.34063563  0.15432645  0.88971208  1
  In  In44  1  0.33147995  0.49980400  0.36319627  1
  In  In45  1  0.33841896  0.49239414  0.88730694  1
  In  In46  1  0.32442323  0.82316875  0.36823235  1
  In  In47  1  0.32116805  0.83681346  0.87156226  1
  In  In48  1  0.67335340  0.16961959  0.36625004  1
  In  In49  1  0.65791504  0.16647859  0.88710261  1
  In  In50  1  0.67605604  0.50734084  0.36722158  1
  In  In51  1  0.66706453  0.49118060  0.87287030  1
  In  In52  1  0.67458333  0.83870078  0.36216147  1
  In  In53  1  0.68887382  0.83314867  0.87643248  1
  In  In54  1  0.14968629  0.00187787  0.11942226  1
  In  In55  1  0.16968310  0.00296613  0.61883046  1
  In  In56  1  0.16558366  0.33431683  0.12870617  1
  In  In57  1  0.17062266  0.32552517  0.61887075  1
  In  In58  1  0.17390653  0.66562018  0.13422906  1
  In  In59  1  0.14626135  0.66965495  0.62504500  1
  In  In60  1  0.50415419  0.02222367  0.11296259  1
  In  In61  1  0.49993067  -0.01087706  0.63027492  1
  In  In62  1  0.50037967  0.33070303  0.12529170  1
  In  In63  1  0.50507508  0.34441586  0.62342242  1
  In  In64  1  0.50864851  0.65629989  0.12728122  1
  In  In65  1  0.50709495  0.67967866  0.62785446  1
  In  In66  1  0.83864193  -0.00376724  0.12128977  1
  In  In67  1  0.82544301  0.00663550  0.61655268  1
  In  In68  1  0.84369788  0.32197093  0.13535544  1
  In  In69  1  0.82777763  0.32297438  0.62096689  1
  In  In70  1  0.82767869  0.67499334  0.13244330  1
  In  In71  1  0.84603244  0.66221545  0.63243012  1
  In  In72  1  0.50427025  0.83645171  0.50412025  1
  In  In73  1  -0.00331544  0.33373738  0.75476510  1
  In  In74  1  0.15756149  0.83755668  0.00203508  1
  In  In75  1  0.15689191  0.49416340  0.49749908  1
  In  In76  1  0.33719984  0.32926441  0.74800532  1
  In  In77  1  0.66983323  0.00044831  0.75459952  1
  In  In78  1  0.83387561  0.49745185  0.00512431  1
  In  In79  1  0.50191072  0.83839309  -0.00263703  1
  In  In80  1  -0.00369018  -0.00724214  0.75206358  1
  In  In81  1  0.33206743  -0.00316998  0.24524801  1
  In  In82  1  0.50072957  0.16809390  0.49281444  1
  In  In83  1  0.33449872  0.66492236  0.74935082  1
  In  In84  1  0.50612251  0.50231790  0.49820095  1
  In  In85  1  0.83746824  0.83930212  0.49446429  1
  Cu  Cu86  1  0.83339745  0.50614883  0.74992979  1
  Cu  Cu87  1  0.50464498  0.16976256  0.24133467  1
  Cu  Cu88  1  -0.00500817  0.33229829  0.49270038  1
  Cu  Cu89  1  0.00619190  0.33770082  0.00898926  1
  Cu  Cu90  1  0.67346991  0.66912831  0.49566925  1
  Cu  Cu91  1  0.67247579  0.66502392  0.00431480  1
  Cu  Cu92  1  0.32429525  0.32626851  0.48896213  1
  Cu  Cu93  1  0.83592633  0.83054052  0.25168630  1
  Cu  Cu94  1  0.50136009  0.16994315  0.76018363  1
  Cu  Cu95  1  0.16441690  0.83764529  0.25158143  1
  Cu  Cu96  1  0.51315075  0.49586950  0.75286070  1
  Cu  Cu97  1  0.33389175  0.65925991  0.00725075  1
  Cu  Cu98  1  0.49496781  0.49857599  0.24410619  1
  Cu  Cu99  1  0.50595084  0.83370362  0.24277387  1
  Cu  Cu100  1  0.16496098  0.16106320  0.74675808  1
  Cu  Cu101  1  0.50310467  0.83502058  0.75293200  1
  Cu  Cu102  1  0.83684950  0.16257980  0.24742856  1
  Cu  Cu103  1  0.32980861  -0.00291772  0.49973400  1
  Cu  Cu104  1  0.15957529  0.50484049  0.75678327  1
  Cu  Cu105  1  0.16118690  0.83518977  0.75095671  1
  Cu  Cu106  1  0.66207506  0.33185071  0.00476082  1
  Cu  Cu107  1  0.83329332  0.16786208  0.75503379  1
  Cu  Cu108  1  0.83024730  0.49727905  0.24740352  1
  Cu  Cu109  1  0.32245553  0.66400693  0.49405211  1
  Cu  Cu110  1  0.33009028  0.33983636  0.00761213  1
  Cu  Cu111  1  0.16189224  0.16487279  0.24699092  1
  Cu  Cu112  1  0.16889679  0.50516922  0.24986071  1
  Cu  Cu113  1  0.67803307  0.32887424  0.49712568  1
  Cu  Cu114  1  -0.00083203  0.66830857  0.00371821  1
  Se  Se115  1  0.07956823  0.08550450  0.04699256  1
  Se  Se116  1  0.09384580  0.08725791  0.54900392  1
  Se  Se117  1  0.08886970  0.42399007  0.05773352  1
  Se  Se118  1  0.06754262  0.40848863  0.56340931  1
  Se  Se119  1  0.07713792  0.74713455  0.06709732  1
  Se  Se120  1  0.08427035  0.74900330  0.54715306  1
  Se  Se121  1  0.40968813  0.08186279  0.04338725  1
  Se  Se122  1  0.41500341  0.07562205  0.55850300  1
  Se  Se123  1  0.41985351  0.41942103  0.05781744  1
  Se  Se124  1  0.40477051  0.40642194  0.54932273  1
  Se  Se125  1  0.41303036  0.74761060  0.06096707  1
  Se  Se126  1  0.40646333  0.74041710  0.55621451  1
  Se  Se127  1  0.77182321  0.09720434  0.05465297  1
  Se  Se128  1  0.74933581  0.09120315  0.54831261  1
  Se  Se129  1  0.74633996  0.40742612  0.06599159  1
  Se  Se130  1  0.75477533  0.41629424  0.55252159  1
  Se  Se131  1  0.75778220  0.74954791  0.05205424  1
  Se  Se132  1  0.74687826  0.75163119  0.55868354  1
  Se  Se133  1  0.24690147  0.25307174  0.05704561  1
  Se  Se134  1  0.24640532  0.24420445  0.54639087  1
  Se  Se135  1  0.24529000  0.58226847  0.05958361  1
  Se  Se136  1  0.25133358  0.58336089  0.55974012  1
  Se  Se137  1  0.25461162  0.92924400  0.05392656  1
  Se  Se138  1  0.25321122  0.91117364  0.55574580  1
  Se  Se139  1  0.58335174  0.24468986  0.05868507  1
  Se  Se140  1  0.58955758  0.25596747  0.55718414  1
  Se  Se141  1  0.58549465  0.58033612  0.05094466  1
  Se  Se142  1  0.59320346  0.59260020  0.55991317  1
  Se  Se143  1  0.59206695  0.91926560  0.06158540  1
  Se  Se144  1  0.59777592  0.93222998  0.55594849  1
  Se  Se145  1  0.91790685  0.25405611  0.05549380  1
  Se  Se146  1  0.91370341  0.24869749  0.54983134  1
  Se  Se147  1  0.92251473  0.58651595  0.06619426  1
  Se  Se148  1  0.91013330  0.59022461  0.54959280  1
  Se  Se149  1  0.91807361  0.90882742  0.05293112  1
  Se  Se150  1  0.92684760  0.92741699  0.55748574  1
  Se  Se151  1  0.08180421  0.25006200  0.44251430  1
  Se  Se152  1  0.08489340  0.25141617  0.95307546  1
  Se  Se153  1  0.07288479  0.58737067  0.43938402  1
  Se  Se154  1  0.08655736  0.58509749  0.95409486  1
  Se  Se155  1  0.09320535  0.89965288  0.44931474  1
  Se  Se156  1  0.06657997  0.92537157  0.94109890  1
  Se  Se157  1  0.41232961  0.25590851  0.42945018  1
  Se  Se158  1  0.41064097  0.25751861  0.94890430  1
  Se  Se159  1  0.41060528  0.58907770  0.43873199  1
  Se  Se160  1  0.41977306  0.57885640  0.95371848  1
  Se  Se161  1  0.40976385  0.91842233  0.43902206  1
  Se  Se162  1  0.40341542  0.92240222  0.94004846  1
  Se  Se163  1  0.75479065  0.24500453  0.44016282  1
  Se  Se164  1  0.74730352  0.25395900  0.94854618  1
  Se  Se165  1  0.75172603  0.58027246  0.44501112  1
  Se  Se166  1  0.75126370  0.58676653  0.93975629  1
  Se  Se167  1  0.74180692  0.92564492  0.43766971  1
  Se  Se168  1  0.73365628  0.92049257  0.95596280  1
  Se  Se169  1  0.25300832  0.08587256  0.44666181  1
  Se  Se170  1  0.22876014  0.09536971  0.94464268  1
  Se  Se171  1  0.24675370  0.41117041  0.43217652  1
  Se  Se172  1  0.24451968  0.42005727  0.95229139  1
  Se  Se173  1  0.24375665  0.75157249  0.44387869  1
  Se  Se174  1  0.25628933  0.74259817  0.94685979  1
  Se  Se175  1  0.58938439  0.07607407  0.43654911  1
  Se  Se176  1  0.58247011  0.08192778  0.95715764  1
  Se  Se177  1  0.59308372  0.40877343  0.43979570  1
  Se  Se178  1  0.58556154  0.41912876  0.94845102  1
  Se  Se179  1  0.58945803  0.74776370  0.43809935  1
  Se  Se180  1  0.59073366  0.74165098  0.94088146  1
  Se  Se181  1  0.92808437  0.07263256  0.44542499  1
  Se  Se182  1  0.89026001  0.10128667  0.96168884  1
  Se  Se183  1  0.91287393  0.41669974  0.44096835  1
  Se  Se184  1  0.92437117  0.40928381  0.94205194  1
  Se  Se185  1  0.91957711  0.74599358  0.43393222  1
  Se  Se186  1  0.91601953  0.74440273  0.94503787  1
  Se  Se187  1  0.24893394  0.25126839  0.29457142  1
  Se  Se188  1  0.24685711  0.23993370  0.80687973  1
  Se  Se189  1  0.25094961  0.59164402  0.30194732  1
  Se  Se190  1  0.24884589  0.57764486  0.81507701  1
  Se  Se191  1  0.23908864  0.92342489  0.31316318  1
  Se  Se192  1  0.24621965  0.92000313  0.79977406  1
  Se  Se193  1  0.58805748  0.25038691  0.29780281  1
  Se  Se194  1  0.58984060  0.24990162  0.80896933  1
  Se  Se195  1  0.57948551  0.57868809  0.30153898  1
  Se  Se196  1  0.59079350  0.58396563  0.80505546  1
  Se  Se197  1  0.58843382  0.91956234  0.29411002  1
  Se  Se198  1  0.57813691  0.91446240  0.81729106  1
  Se  Se199  1  0.91899423  0.24835092  0.30117367  1
  Se  Se200  1  0.91948745  0.23717359  0.81863839  1
  Se  Se201  1  0.91344320  0.58177251  0.30034413  1
  Se  Se202  1  0.92158373  0.58393785  0.80306629  1
  Se  Se203  1  0.91740630  0.91888264  0.30195770  1
  Se  Se204  1  0.90144079  0.91398689  0.81545861  1
  Se  Se205  1  0.08359676  0.08276552  0.30599198  1
  Se  Se206  1  0.08088070  0.08996149  0.81090707  1
  Se  Se207  1  0.08140552  0.41997238  0.29865576  1
  Se  Se208  1  0.08857505  0.41887211  0.81766138  1
  Se  Se209  1  0.08024510  0.75183526  0.30176530  1
  Se  Se210  1  0.08163345  0.74772606  0.80238753  1
  Se  Se211  1  0.42497718  0.08971342  0.30469526  1
  Se  Se212  1  0.41430145  0.08598318  0.80760349  1
  Se  Se213  1  0.41145089  0.41356168  0.29645895  1
  Se  Se214  1  0.42501117  0.41908667  0.81009610  1
  Se  Se215  1  0.41875104  0.75711239  0.29883074  1
  Se  Se216  1  0.42394053  0.75227342  0.81346374  1
  Se  Se217  1  0.75158918  0.07932998  0.30001324  1
  Se  Se218  1  0.75795190  0.08660182  0.81794530  1
  Se  Se219  1  0.74706804  0.41270683  0.30095649  1
  Se  Se220  1  0.75403214  0.41712858  0.80092569  1
  Se  Se221  1  0.74771342  0.74413926  0.29850378  1
  Se  Se222  1  0.74240509  0.74571300  0.79950105  1
  Se  Se223  1  0.24451063  0.08814643  0.18492696  1
  Se  Se224  1  0.25029040  0.07837623  0.69546694  1
  Se  Se225  1  0.24958665  0.41815255  0.19717588  1
  Se  Se226  1  0.23616996  0.42266830  0.69569145  1
  Se  Se227  1  0.25271556  0.75580106  0.20194842  1
  Se  Se228  1  0.24485345  0.75511050  0.68978690  1
  Se  Se229  1  0.58682847  0.08277279  0.19225564  1
  Se  Se230  1  0.57867702  0.09157705  0.69323240  1
  Se  Se231  1  0.58225073  0.41395486  0.19603789  1
  Se  Se232  1  0.59058367  0.40971171  0.69763517  1
  Se  Se233  1  0.58856801  0.74545358  0.19307601  1
  Se  Se234  1  0.58783719  0.75285998  0.70133329  1
  Se  Se235  1  0.92005465  0.08030507  0.19233893  1
  Se  Se236  1  0.91151399  0.09070192  0.69179774  1
  Se  Se237  1  0.91976457  0.41348366  0.20132223  1
  Se  Se238  1  0.91244901  0.42208638  0.68930068  1
  Se  Se239  1  0.92110828  0.74492305  0.20136038  1
  Se  Se240  1  0.91700023  0.75500608  0.69951257  1
  Se  Se241  1  0.07884721  0.24918038  0.19358504  1
  Se  Se242  1  0.08376615  0.24291079  0.68988566  1
  Se  Se243  1  0.08200033  0.58865029  0.20016589  1
  Se  Se244  1  0.07919419  0.58603998  0.70119270  1
  Se  Se245  1  0.08342427  0.92321179  0.19862001  1
  Se  Se246  1  0.08397236  0.91042753  0.68569888  1
  Se  Se247  1  0.41294272  0.24966840  0.19428885  1
  Se  Se248  1  0.42756218  0.23976508  0.68630351  1
  Se  Se249  1  0.41309857  0.58762107  0.19476522  1
  Se  Se250  1  0.43035020  0.57233179  0.69089354  1
  Se  Se251  1  0.42691142  0.91522005  0.18206818  1
  Se  Se252  1  0.41681351  0.92036955  0.70576669  1
  Se  Se253  1  0.74877968  0.24813591  0.19963833  1
  Se  Se254  1  0.75225764  0.25301251  0.70193569  1
  Se  Se255  1  0.74727352  0.58337571  0.19610707  1
  Se  Se256  1  0.74849542  0.58642585  0.69485201  1
  Se  Se257  1  0.75690724  0.91455834  0.19391011  1
  Se  Se258  1  0.76293665  0.91494851  0.69326265  1
