# generated using pymatgen
data_In86Cu29Se144
_symmetry_space_group_name_H-M   'P 1'
_cell_length_a   17.57777153
_cell_length_b   17.57435020
_cell_length_c   23.43941270
_cell_angle_alpha   90.00820977
_cell_angle_beta   90.00979104
_cell_angle_gamma   90.00915322
_symmetry_Int_Tables_number   1
_chemical_formula_structural   In86Cu29Se144
_chemical_formula_sum   'In86 Cu29 Se144'
_cell_volume   7240.85417024
_cell_formula_units_Z   1
loop_
 _symmetry_equiv_pos_site_id
 _symmetry_equiv_pos_as_xyz
  1  'x, y, z'
loop_
 _atom_site_type_symbol
 _atom_site_label
 _atom_site_symmetry_multiplicity
 _atom_site_fract_x
 _atom_site_fract_y
 _atom_site_fract_z
 _atom_site_occupancy
  In  In0  1  -0.01160988  0.15768074  0.11632032  1
  In  In1  1  -0.00552523  0.16553125  0.60816289  1
  In  In2  1  0.01241569  0.50658463  0.11584844  1
  In  In3  1  0.01215422  0.50571696  0.62869899  1
  In  In4  1  0.00038638  0.83787083  0.12483890  1
  In  In5  1  -0.01045697  0.83044788  0.62488849  1
  In  In6  1  0.32585815  0.16025179  0.12741149  1
  In  In7  1  0.33384312  0.16535235  0.62939022  1
  In  In8  1  0.32380755  0.51184508  0.11917544  1
  In  In9  1  0.33551925  0.49959483  0.63547133  1
  In  In10  1  0.34069430  0.84512493  0.11627524  1
  In  In11  1  0.34188807  0.82491720  0.63621585  1
  In  In12  1  0.66685906  0.14880429  0.13198370  1
  In  In13  1  0.66947032  0.16652916  0.61932992  1
  In  In14  1  0.67839170  0.50563928  0.12543494  1
  In  In15  1  0.66330765  0.50596123  0.63128494  1
  In  In16  1  0.66329441  0.83683687  0.12730637  1
  In  In17  1  0.66958437  0.82584969  0.61640404  1
  In  In18  1  0.17573269  0.00183071  0.36086776  1
  In  In19  1  0.17322243  -0.00762363  0.88343034  1
  In  In20  1  0.15559242  0.31305477  0.37372986  1
  In  In21  1  0.17227578  0.32315108  0.88733097  1
  In  In22  1  0.16179483  0.68122284  0.36989923  1
  In  In23  1  0.16732572  0.66581360  0.87848333  1
  In  In24  1  0.49987833  -0.00205805  0.37967140  1
  In  In25  1  0.48612998  0.00066167  0.86935516  1
  In  In26  1  0.49016017  0.32543196  0.38264416  1
  In  In27  1  0.49539184  0.31830513  0.85418652  1
  In  In28  1  0.51877878  0.67597762  0.37455714  1
  In  In29  1  0.50838721  0.67694411  0.86958663  1
  In  In30  1  0.83183566  -0.00130184  0.37217083  1
  In  In31  1  0.84188647  -0.00985244  0.88411631  1
  In  In32  1  0.83360450  0.32853456  0.38204813  1
  In  In33  1  0.82382063  0.33138875  0.87298420  1
  In  In34  1  0.83898430  0.68070752  0.37081284  1
  In  In35  1  0.83655758  0.66922874  0.86965682  1
  In  In36  1  0.01301333  0.15809444  0.38498539  1
  In  In37  1  0.00217876  0.16696390  0.88985721  1
  In  In38  1  -0.00489693  0.50987413  0.37083556  1
  In  In39  1  0.00140699  0.51733251  0.88121070  1
  In  In40  1  -0.00179474  0.82565637  0.35864010  1
  In  In41  1  0.01873384  0.80153675  0.90706786  1
  In  In42  1  0.34248383  0.14457389  0.38903637  1
  In  In43  1  0.32620214  0.15963180  0.86555897  1
  In  In44  1  0.33697942  0.49985900  0.37810431  1
  In  In45  1  0.32506986  0.49382044  0.86954144  1
  In  In46  1  0.33574974  0.86900713  0.36764301  1
  In  In47  1  0.33445517  0.83550860  0.87434731  1
  In  In48  1  0.66875356  0.15709227  0.37979326  1
  In  In49  1  0.66384043  0.17162255  0.86871175  1
  In  In50  1  0.66888418  0.51312175  0.37470495  1
  In  In51  1  0.66133474  0.49406425  0.86419535  1
  In  In52  1  0.66547008  0.83439148  0.37794014  1
  In  In53  1  0.67833542  0.82336415  0.88339304  1
  In  In54  1  0.16336683  -0.00534166  0.12515269  1
  In  In55  1  0.16814308  0.01286960  0.62766576  1
  In  In56  1  0.15008799  0.32091566  0.10138630  1
  In  In57  1  0.17380576  0.32734396  0.62941198  1
  In  In58  1  0.15281656  0.66739420  0.11253279  1
  In  In59  1  0.16904617  0.66565658  0.63778981  1
  In  In60  1  0.51457303  -0.00671313  0.14184656  1
  In  In61  1  0.49590757  -0.00907084  0.62161935  1
  In  In62  1  0.48944669  0.32256761  0.12518605  1
  In  In63  1  0.50642205  0.32169579  0.63712572  1
  In  In64  1  0.49598226  0.68598536  0.12354616  1
  In  In65  1  0.50241344  0.67230951  0.62861718  1
  In  In66  1  0.83270222  -0.00101991  0.12846804  1
  In  In67  1  0.83142413  -0.00452270  0.61311731  1
  In  In68  1  0.84775370  0.32964288  0.12061642  1
  In  In69  1  0.83422677  0.31494147  0.62136854  1
  In  In70  1  0.82535643  0.68023775  0.12868164  1
  In  In71  1  0.82912326  0.67417213  0.63388116  1
  In  In72  1  0.50214051  0.50155127  -0.01746081  1
  In  In73  1  0.83645199  0.49987415  0.49522639  1
  In  In74  1  0.66744439  0.33362061  0.26180694  1
  In  In75  1  0.00141219  0.33467297  0.24468191  1
  In  In76  1  -0.00087017  0.33721463  0.75121823  1
  In  In77  1  0.00168551  -0.00612097  0.75209697  1
  In  In78  1  0.32901361  0.32890008  0.24009313  1
  In  In79  1  0.50048520  0.49892164  0.51688557  1
  In  In80  1  0.49951252  0.15952209  -0.00575887  1
  In  In81  1  0.66495639  -0.00130403  0.74171669  1
  In  In82  1  0.33125970  0.67353378  0.24150607  1
  In  In83  1  0.16999312  0.83555547  0.49268576  1
  In  In84  1  0.83528300  0.50141511  -0.00707910  1
  In  In85  1  0.17326412  0.49207849  0.51059119  1
  Cu  Cu86  1  0.33157247  0.00252870  -0.00159630  1
  Cu  Cu87  1  0.16809346  0.15657593  0.24860803  1
  Cu  Cu88  1  0.83006766  0.49941116  0.75211419  1
  Cu  Cu89  1  0.65958791  0.67094173  0.00078966  1
  Cu  Cu90  1  -0.00218938  0.00326681  0.00874556  1
  Cu  Cu91  1  0.33229595  0.33884955  -0.00292770  1
  Cu  Cu92  1  0.66896047  -0.00495340  0.00793205  1
  Cu  Cu93  1  0.49641640  0.50773389  0.74963027  1
  Cu  Cu94  1  0.32507833  0.31694788  0.50374254  1
  Cu  Cu95  1  0.83122954  0.16198479  0.74585283  1
  Cu  Cu96  1  0.83699768  0.51946175  0.24902035  1
  Cu  Cu97  1  0.16914078  0.83423267  0.76167391  1
  Cu  Cu98  1  0.16818084  0.50373323  0.24149511  1
  Cu  Cu99  1  0.32482643  0.67522607  -0.00140345  1
  Cu  Cu100  1  0.16225726  0.50704477  0.75651909  1
  Cu  Cu101  1  0.16927972  0.16763919  0.75344434  1
  Cu  Cu102  1  0.67175634  0.31966547  -0.00525234  1
  Cu  Cu103  1  0.00221406  0.66901460  0.49567838  1
  Cu  Cu104  1  0.82776427  0.83860341  0.24846454  1
  Cu  Cu105  1  0.33003701  0.00050010  0.50257560  1
  Cu  Cu106  1  0.50842685  0.49829385  0.25052092  1
  Cu  Cu107  1  -0.00335241  -0.00434440  0.49423332  1
  Cu  Cu108  1  0.83989773  0.82581917  0.75553170  1
  Cu  Cu109  1  0.34456373  0.67621429  0.50274778  1
  Cu  Cu110  1  0.66783012  0.00136172  0.49665494  1
  Cu  Cu111  1  0.50271933  0.83549195  0.25284675  1
  Cu  Cu112  1  0.83418537  0.16579866  0.25087385  1
  Cu  Cu113  1  0.50317289  0.83590078  0.74898308  1
  Cu  Cu114  1  0.66177418  0.33317638  0.50130336  1
  Se  Se115  1  0.08896925  0.08599015  0.05524740  1
  Se  Se116  1  0.08156177  0.07403051  0.55087947  1
  Se  Se117  1  0.08004399  0.42162163  0.04367737  1
  Se  Se118  1  0.07401012  0.40299268  0.56128886  1
  Se  Se119  1  0.07361341  0.75663576  0.04865260  1
  Se  Se120  1  0.08603208  0.74343979  0.55883497  1
  Se  Se121  1  0.41691497  0.07407750  0.06173229  1
  Se  Se122  1  0.41321662  0.08141362  0.55816525  1
  Se  Se123  1  0.41562836  0.41779695  0.05549032  1
  Se  Se124  1  0.40256062  0.40408497  0.56248559  1
  Se  Se125  1  0.41624332  0.75438641  0.04731262  1
  Se  Se126  1  0.42407496  0.75845275  0.55821633  1
  Se  Se127  1  0.75078007  0.08398390  0.05684137  1
  Se  Se128  1  0.75194499  0.08596165  0.54953995  1
  Se  Se129  1  0.74371287  0.40713847  0.05418476  1
  Se  Se130  1  0.74336668  0.41490314  0.55930948  1
  Se  Se131  1  0.74214491  0.75311942  0.05511006  1
  Se  Se132  1  0.77431360  0.76074625  0.55596248  1
  Se  Se133  1  0.26066151  0.24798363  0.05277641  1
  Se  Se134  1  0.24058019  0.23727108  0.55777234  1
  Se  Se135  1  0.24361849  0.58581674  0.04692312  1
  Se  Se136  1  0.26188175  0.59521668  0.56071713  1
  Se  Se137  1  0.24651320  0.91863756  0.05060486  1
  Se  Se138  1  0.25386639  0.91667364  0.56405575  1
  Se  Se139  1  0.58873735  0.24953333  0.05929125  1
  Se  Se140  1  0.57898432  0.25156891  0.55605329  1
  Se  Se141  1  0.58220013  0.58405024  0.05790680  1
  Se  Se142  1  0.59801064  0.59837865  0.55622365  1
  Se  Se143  1  0.57664300  0.91877546  0.05849843  1
  Se  Se144  1  0.58863056  0.91837336  0.55470771  1
  Se  Se145  1  0.92355129  0.25470525  0.04790665  1
  Se  Se146  1  0.91082307  0.24898099  0.54357436  1
  Se  Se147  1  0.91254600  0.59225792  0.05940504  1
  Se  Se148  1  0.92614307  0.58814346  0.55828437  1
  Se  Se149  1  0.91111609  0.91768687  0.05622397  1
  Se  Se150  1  0.91822471  0.91042894  0.54921640  1
  Se  Se151  1  0.08267413  0.24974531  0.45394012  1
  Se  Se152  1  0.08597779  0.24815363  0.95521905  1
  Se  Se153  1  0.08897778  0.58569350  0.44365752  1
  Se  Se154  1  0.07627482  0.59911317  0.95134672  1
  Se  Se155  1  0.07736004  0.91935148  0.43204625  1
  Se  Se156  1  0.07924729  0.92289787  0.95085796  1
  Se  Se157  1  0.41684893  0.24050744  0.45327364  1
  Se  Se158  1  0.41267591  0.25706195  0.93830581  1
  Se  Se159  1  0.41943671  0.58730354  0.44485355  1
  Se  Se160  1  0.40569299  0.59638159  0.93548027  1
  Se  Se161  1  0.41593210  0.91550229  0.45193009  1
  Se  Se162  1  0.41624246  0.91986073  0.94524975  1
  Se  Se163  1  0.74489152  0.25068388  0.44676180  1
  Se  Se164  1  0.75457445  0.23747249  0.94205111  1
  Se  Se165  1  0.74844094  0.59901065  0.44410397  1
  Se  Se166  1  0.73356478  0.58567463  0.93864612  1
  Se  Se167  1  0.75222256  0.91774207  0.44450950  1
  Se  Se168  1  0.75183669  0.91384490  0.95132425  1
  Se  Se169  1  0.23803222  0.07388084  0.44741253  1
  Se  Se170  1  0.25141471  0.08934401  0.94530733  1
  Se  Se171  1  0.25586724  0.40339046  0.44011234  1
  Se  Se172  1  0.24767506  0.42406203  0.94782844  1
  Se  Se173  1  0.26562825  0.74627716  0.43556288  1
  Se  Se174  1  0.24525847  0.76047045  0.94374614  1
  Se  Se175  1  0.57866985  0.08478919  0.44939475  1
  Se  Se176  1  0.59458879  0.06973481  0.93811632  1
  Se  Se177  1  0.58652855  0.41739945  0.44106244  1
  Se  Se178  1  0.58784697  0.39607522  0.93443653  1
  Se  Se179  1  0.58232674  0.75657337  0.45045718  1
  Se  Se180  1  0.57695366  0.75572918  0.94823343  1
  Se  Se181  1  0.91307384  0.08228398  0.44350517  1
  Se  Se182  1  0.91342186  0.08291110  0.95178075  1
  Se  Se183  1  0.93454383  0.41019928  0.44152298  1
  Se  Se184  1  0.92363879  0.40782886  0.93615982  1
  Se  Se185  1  0.92585662  0.75570206  0.44134541  1
  Se  Se186  1  0.89233797  0.75408605  0.94839989  1
  Se  Se187  1  0.24964351  0.23824303  0.30747302  1
  Se  Se188  1  0.24720435  0.25789082  0.80526680  1
  Se  Se189  1  0.24887471  0.57667421  0.30643422  1
  Se  Se190  1  0.25072820  0.58950301  0.80523911  1
  Se  Se191  1  0.22366338  0.88761685  0.30061743  1
  Se  Se192  1  0.25355036  0.92416084  0.80571377  1
  Se  Se193  1  0.57209452  0.24206280  0.31264279  1
  Se  Se194  1  0.59414327  0.24899740  0.79265591  1
  Se  Se195  1  0.58654934  0.58672413  0.30138255  1
  Se  Se196  1  0.58438747  0.58783548  0.80116798  1
  Se  Se197  1  0.58372328  0.91869523  0.30865772  1
  Se  Se198  1  0.58520298  0.91162199  0.81184511  1
  Se  Se199  1  0.91599689  0.24616432  0.30989505  1
  Se  Se200  1  0.91435064  0.23741187  0.80819747  1
  Se  Se201  1  0.92427119  0.59778165  0.30166500  1
  Se  Se202  1  0.91637668  0.58013723  0.80365635  1
  Se  Se203  1  0.91465105  0.92019562  0.30025793  1
  Se  Se204  1  0.92250261  0.90163134  0.81599068  1
  Se  Se205  1  0.07707786  0.08318165  0.30298208  1
  Se  Se206  1  0.08668202  0.08845822  0.81300954  1
  Se  Se207  1  0.09425212  0.42324633  0.30762900  1
  Se  Se208  1  0.08738093  0.42088650  0.81635182  1
  Se  Se209  1  0.08773049  0.74824254  0.29170350  1
  Se  Se210  1  0.08097007  0.75381992  0.81272636  1
  Se  Se211  1  0.39715235  0.05831867  0.31171856  1
  Se  Se212  1  0.43625948  0.10672196  0.80491711  1
  Se  Se213  1  0.42262313  0.41949104  0.30515026  1
  Se  Se214  1  0.41505757  0.41978754  0.80090889  1
  Se  Se215  1  0.41768019  0.75595293  0.31133383  1
  Se  Se216  1  0.41776911  0.75457339  0.80349313  1
  Se  Se217  1  0.74846968  0.08514737  0.30394118  1
  Se  Se218  1  0.76025666  0.07720752  0.80842803  1
  Se  Se219  1  0.76690037  0.43046273  0.31062785  1
  Se  Se220  1  0.74756006  0.40999937  0.79909376  1
  Se  Se221  1  0.74662456  0.75404870  0.30414268  1
  Se  Se222  1  0.74539790  0.74723903  0.80269314  1
  Se  Se223  1  0.25190188  0.07326055  0.19666472  1
  Se  Se224  1  0.25210847  0.08191315  0.70190111  1
  Se  Se225  1  0.23711698  0.41682392  0.18023530  1
  Se  Se226  1  0.23903951  0.42337147  0.69759938  1
  Se  Se227  1  0.24479844  0.75578001  0.17723917  1
  Se  Se228  1  0.25059468  0.75076154  0.70394525  1
  Se  Se229  1  0.58310763  0.08821866  0.20787933  1
  Se  Se230  1  0.57383471  0.09065759  0.68764677  1
  Se  Se231  1  0.58130339  0.41525140  0.18733976  1
  Se  Se232  1  0.58022118  0.42232919  0.69735331  1
  Se  Se233  1  0.58262218  0.75022846  0.19793375  1
  Se  Se234  1  0.58942273  0.75639634  0.69435454  1
  Se  Se235  1  0.91771541  0.08477584  0.19603498  1
  Se  Se236  1  0.91407264  0.08355035  0.68703023  1
  Se  Se237  1  0.91105386  0.43245100  0.18965093  1
  Se  Se238  1  0.90747309  0.42211272  0.68667421  1
  Se  Se239  1  0.91417511  0.75660494  0.19578241  1
  Se  Se240  1  0.92562965  0.74502043  0.70104521  1
  Se  Se241  1  0.09109335  0.24126260  0.18814834  1
  Se  Se242  1  0.07951501  0.23609156  0.69181172  1
  Se  Se243  1  0.08277005  0.58717187  0.19202907  1
  Se  Se244  1  0.07746038  0.58971691  0.70443149  1
  Se  Se245  1  0.06790948  0.93111247  0.19482689  1
  Se  Se246  1  0.09378896  0.90590233  0.69031054  1
  Se  Se247  1  0.42704484  0.22961780  0.19864865  1
  Se  Se248  1  0.39490277  0.26803889  0.69474244  1
  Se  Se249  1  0.42616351  0.57543596  0.18863608  1
  Se  Se250  1  0.41491683  0.59310946  0.69691184  1
  Se  Se251  1  0.41458272  0.91301386  0.19821910  1
  Se  Se252  1  0.41702811  0.92100651  0.70027017  1
  Se  Se253  1  0.75737309  0.25237405  0.19292772  1
  Se  Se254  1  0.74841003  0.24624821  0.69436969  1
  Se  Se255  1  0.74403781  0.59322181  0.19803701  1
  Se  Se256  1  0.74867741  0.58593441  0.69926356  1
  Se  Se257  1  0.74280624  0.92239595  0.19670767  1
  Se  Se258  1  0.76497957  0.90794909  0.69220778  1
