# generated using pymatgen
data_In86Cu29Se144
_symmetry_space_group_name_H-M   'P 1'
_cell_length_a   17.58084411
_cell_length_b   17.57541693
_cell_length_c   23.44269684
_cell_angle_alpha   90.02735499
_cell_angle_beta   89.94149959
_cell_angle_gamma   89.98815937
_symmetry_Int_Tables_number   1
_chemical_formula_structural   In86Cu29Se144
_chemical_formula_sum   'In86 Cu29 Se144'
_cell_volume   7243.56973316
_cell_formula_units_Z   1
loop_
 _symmetry_equiv_pos_site_id
 _symmetry_equiv_pos_as_xyz
  1  'x, y, z'
loop_
 _atom_site_type_symbol
 _atom_site_label
 _atom_site_symmetry_multiplicity
 _atom_site_fract_x
 _atom_site_fract_y
 _atom_site_fract_z
 _atom_site_occupancy
  In  In0  1  0.00910838  0.17291346  0.11658191  1
  In  In1  1  0.01372187  0.15615105  0.63360048  1
  In  In2  1  -0.00811018  0.48978378  0.12859183  1
  In  In3  1  0.00187310  0.50431948  0.63009585  1
  In  In4  1  -0.00163716  0.84819506  0.11679041  1
  In  In5  1  0.00469178  0.82714143  0.63103513  1
  In  In6  1  0.33276662  0.16508540  0.12548619  1
  In  In7  1  0.32697295  0.16024200  0.61995117  1
  In  In8  1  0.34885523  0.49038204  0.14333303  1
  In  In9  1  0.32363281  0.50912824  0.62034839  1
  In  In10  1  0.34123287  0.82509281  0.12903902  1
  In  In11  1  0.34089790  0.85007524  0.62823296  1
  In  In12  1  0.65579569  0.15521846  0.11803686  1
  In  In13  1  0.65544862  0.16226079  0.62024255  1
  In  In14  1  0.66030598  0.51169355  0.12417910  1
  In  In15  1  0.67752661  0.50210526  0.62075716  1
  In  In16  1  0.66844814  0.84612536  0.11591531  1
  In  In17  1  0.65714797  0.83388852  0.64003260  1
  In  In18  1  0.17682567  -0.00891388  0.38232165  1
  In  In19  1  0.17802995  0.01079956  0.86885173  1
  In  In20  1  0.16752227  0.33050679  0.37734383  1
  In  In21  1  0.15517426  0.31887315  0.86774658  1
  In  In22  1  0.17017525  0.65981717  0.38570943  1
  In  In23  1  0.16353630  0.67398467  0.86744286  1
  In  In24  1  0.50960893  0.01116510  0.36590884  1
  In  In25  1  0.50228763  -0.00498598  0.87639207  1
  In  In26  1  0.47853502  0.33097970  0.36912833  1
  In  In27  1  0.49728015  0.33137208  0.88807630  1
  In  In28  1  0.50163537  0.67568803  0.37363347  1
  In  In29  1  0.50814220  0.66222234  0.87883530  1
  In  In30  1  0.82268820  0.00939044  0.37129307  1
  In  In31  1  0.82833095  0.00128651  0.87040423  1
  In  In32  1  0.85292129  0.32459568  0.37225973  1
  In  In33  1  0.84168463  0.32236043  0.87718112  1
  In  In34  1  0.82004942  0.65718364  0.38318791  1
  In  In35  1  0.83782187  0.67377411  0.86780292  1
  In  In36  1  -0.00201745  0.18786096  0.37358911  1
  In  In37  1  0.00174027  0.16299793  0.87172474  1
  In  In38  1  0.00973148  0.48702703  0.38729283  1
  In  In39  1  0.00528111  0.49520800  0.85893108  1
  In  In40  1  0.00666846  0.84686229  0.37935826  1
  In  In41  1  -0.01017094  0.82741715  0.86550212  1
  In  In42  1  0.33307314  0.16327160  0.37442154  1
  In  In43  1  0.35106804  0.13784531  0.90021497  1
  In  In44  1  0.32408884  0.48690783  0.36404184  1
  In  In45  1  0.33717639  0.50655626  0.87800999  1
  In  In46  1  0.33209026  0.82960510  0.36926647  1
  In  In47  1  0.33797542  0.85103725  0.87467855  1
  In  In48  1  0.66258373  0.14373923  0.36921193  1
  In  In49  1  0.67694953  0.15938785  0.88100516  1
  In  In50  1  0.67174498  0.51090989  0.38282484  1
  In  In51  1  0.65437665  0.49295081  0.87686860  1
  In  In52  1  0.65823051  0.83641383  0.37669733  1
  In  In53  1  0.66273649  0.84041600  0.87178733  1
  In  In54  1  0.16797304  0.01546276  0.12141305  1
  In  In55  1  0.17072100  0.00023304  0.62472451  1
  In  In56  1  0.17737762  0.32476275  0.13787171  1
  In  In57  1  0.16176434  0.32968764  0.62161124  1
  In  In58  1  0.17789947  0.67714562  0.12476749  1
  In  In59  1  0.15343101  0.65797857  0.61516244  1
  In  In60  1  0.49417284  0.00338771  0.12123125  1
  In  In61  1  0.49409275  0.00122990  0.63590799  1
  In  In62  1  0.49222384  0.32767168  0.12115377  1
  In  In63  1  0.51142999  0.32279288  0.62062671  1
  In  In64  1  0.48944834  0.66259138  0.11719328  1
  In  In65  1  0.50676952  0.68066139  0.63135355  1
  In  In66  1  0.82582147  -0.00244683  0.11347022  1
  In  In67  1  0.83195309  0.00607458  0.63381945  1
  In  In68  1  0.85003042  0.32470359  0.13045405  1
  In  In69  1  0.83592953  0.34753499  0.62279658  1
  In  In70  1  0.81989933  0.67207109  0.12212695  1
  In  In71  1  0.83511888  0.66563000  0.63206848  1
  In  In72  1  0.66173698  0.66906928  0.25350312  1
  In  In73  1  0.66345720  0.33082334  0.24185136  1
  In  In74  1  0.17115062  0.49762718  -0.00214846  1
  In  In75  1  0.49140532  0.49516712  0.49882896  1
  In  In76  1  0.32669106  0.67093153  0.74950797  1
  In  In77  1  0.83520493  0.82909552  0.50827056  1
  In  In78  1  0.16915524  0.84183384  -0.00528731  1
  In  In79  1  0.00423130  0.66246170  0.25212706  1
  In  In80  1  0.83466755  0.16847502  0.49739940  1
  In  In81  1  0.50108169  0.83652164  0.50334908  1
  In  In82  1  0.32416586  0.32684822  0.74605004  1
  In  In83  1  0.82638694  0.49960329  0.00165336  1
  In  In84  1  0.00480755  0.00652610  0.24625802  1
  In  In85  1  0.67269930  0.33170924  0.75073945  1
  Cu  Cu86  1  0.66142840  0.00258464  -0.00496489  1
  Cu  Cu87  1  -0.00878882  0.00198524  -0.00793735  1
  Cu  Cu88  1  0.32673172  0.33079396  0.00930457  1
  Cu  Cu89  1  0.17561891  0.16075099  0.75038455  1
  Cu  Cu90  1  0.83949487  0.17041609  0.75269810  1
  Cu  Cu91  1  0.16194680  0.83601983  0.74686584  1
  Cu  Cu92  1  -0.00583835  0.67066659  -0.00848032  1
  Cu  Cu93  1  0.66402205  0.33237670  0.00318465  1
  Cu  Cu94  1  0.83161571  0.83777804  0.24092981  1
  Cu  Cu95  1  0.00920942  0.00576045  0.50328135  1
  Cu  Cu96  1  0.33724353  0.00409440  0.50062659  1
  Cu  Cu97  1  -0.00516857  0.66582572  0.50861634  1
  Cu  Cu98  1  0.16887292  0.16953674  0.25208523  1
  Cu  Cu99  1  0.50241747  0.84065219  0.24719020  1
  Cu  Cu100  1  0.00426563  0.32844737  -0.00200394  1
  Cu  Cu101  1  0.66345773  0.32657313  0.49727830  1
  Cu  Cu102  1  0.83849043  0.48936977  0.25671263  1
  Cu  Cu103  1  0.49349292  0.16644828  0.24295116  1
  Cu  Cu104  1  0.32523312  0.32979028  0.49388668  1
  Cu  Cu105  1  0.50008011  0.50132300  0.75501013  1
  Cu  Cu106  1  0.49963253  0.15935351  0.75773582  1
  Cu  Cu107  1  0.17916673  0.83463110  0.25291642  1
  Cu  Cu108  1  0.16341702  0.49913768  0.25988493  1
  Cu  Cu109  1  0.83584428  0.50526218  0.74572919  1
  Cu  Cu110  1  0.34294397  0.66665077  0.00046281  1
  Cu  Cu111  1  0.66408753  0.67870088  -0.00178589  1
  Cu  Cu112  1  0.00118630  0.33780065  0.50307567  1
  Cu  Cu113  1  0.82844313  0.83773755  0.75116271  1
  Cu  Cu114  1  0.32474917  0.66857770  0.49478940  1
  Se  Se115  1  0.07824462  0.07869467  0.04769514  1
  Se  Se116  1  0.09296028  0.08928623  0.55467919  1
  Se  Se117  1  0.08141246  0.40900043  0.06054531  1
  Se  Se118  1  0.08263960  0.42163534  0.55760363  1
  Se  Se119  1  0.07790716  0.74488810  0.05440454  1
  Se  Se120  1  0.08055856  0.75636003  0.55158530  1
  Se  Se121  1  0.42069136  0.09499682  0.05394498  1
  Se  Se122  1  0.42212144  0.08070336  0.55844388  1
  Se  Se123  1  0.41005342  0.42032935  0.05731485  1
  Se  Se124  1  0.40460383  0.40281312  0.56202120  1
  Se  Se125  1  0.42107190  0.75858511  0.04944274  1
  Se  Se126  1  0.40682346  0.74171587  0.55874519  1
  Se  Se127  1  0.74735303  0.08655285  0.04646884  1
  Se  Se128  1  0.74682102  0.07544293  0.55511743  1
  Se  Se129  1  0.74470501  0.40816102  0.06707159  1
  Se  Se130  1  0.74535397  0.41118010  0.54942315  1
  Se  Se131  1  0.75212978  0.75761218  0.04986317  1
  Se  Se132  1  0.73871286  0.74697219  0.56637704  1
  Se  Se133  1  0.24166273  0.24647458  0.05818176  1
  Se  Se134  1  0.24715692  0.24807562  0.55398909  1
  Se  Se135  1  0.26011114  0.58666539  0.05919877  1
  Se  Se136  1  0.24343284  0.58158263  0.54612120  1
  Se  Se137  1  0.25572282  0.91996877  0.06286851  1
  Se  Se138  1  0.25571746  0.91868399  0.55426486  1
  Se  Se139  1  0.57868921  0.24877378  0.05357929  1
  Se  Se140  1  0.57911471  0.24051087  0.54472912  1
  Se  Se141  1  0.58466094  0.58916502  0.05048425  1
  Se  Se142  1  0.57878516  0.58567956  0.55997131  1
  Se  Se143  1  0.57752423  0.92094160  0.04992202  1
  Se  Se144  1  0.58994855  0.92404162  0.56371148  1
  Se  Se145  1  0.91517060  0.24872328  0.04941167  1
  Se  Se146  1  0.92503859  0.25126652  0.56299345  1
  Se  Se147  1  0.92293415  0.59104759  0.05932234  1
  Se  Se148  1  0.91229152  0.58196661  0.56050260  1
  Se  Se149  1  0.91129873  0.91497012  0.04476380  1
  Se  Se150  1  0.92408733  0.92786850  0.56162932  1
  Se  Se151  1  0.08281927  0.25172951  0.44967597  1
  Se  Se152  1  0.08464708  0.24231509  0.94543666  1
  Se  Se153  1  0.07870576  0.58456080  0.45179805  1
  Se  Se154  1  0.07726470  0.58746332  0.93832151  1
  Se  Se155  1  0.08956418  0.91576269  0.45353985  1
  Se  Se156  1  0.07430133  0.92157192  0.93212321  1
  Se  Se157  1  0.41416233  0.24747921  0.44591918  1
  Se  Se158  1  0.41373172  0.25016201  0.95550686  1
  Se  Se159  1  0.40804552  0.58871216  0.43629523  1
  Se  Se160  1  0.42321928  0.57919709  0.94787904  1
  Se  Se161  1  0.41551367  0.92290559  0.43792181  1
  Se  Se162  1  0.41320447  0.92457673  0.94910699  1
  Se  Se163  1  0.74309350  0.25127431  0.43269313  1
  Se  Se164  1  0.74976126  0.25540777  0.94690581  1
  Se  Se165  1  0.74924140  0.58059752  0.45896277  1
  Se  Se166  1  0.74203236  0.59090306  0.93954954  1
  Se  Se167  1  0.74867978  0.91925770  0.44405623  1
  Se  Se168  1  0.74779530  0.92011130  0.94226668  1
  Se  Se169  1  0.25093836  0.08513686  0.44760405  1
  Se  Se170  1  0.23918252  0.07723534  0.95474714  1
  Se  Se171  1  0.24711414  0.42106852  0.44457534  1
  Se  Se172  1  0.25568054  0.40338665  0.93694991  1
  Se  Se173  1  0.24733552  0.76006028  0.44445127  1
  Se  Se174  1  0.25793509  0.74176984  0.93953712  1
  Se  Se175  1  0.58616148  0.07550192  0.44653798  1
  Se  Se176  1  0.57874730  0.08913546  0.94405944  1
  Se  Se177  1  0.58280788  0.40687620  0.43623721  1
  Se  Se178  1  0.58002148  0.41877418  0.95378422  1
  Se  Se179  1  0.59457178  0.73903514  0.44861130  1
  Se  Se180  1  0.57985788  0.75845608  0.94350028  1
  Se  Se181  1  0.92732050  0.07651517  0.43809082  1
  Se  Se182  1  0.90980851  0.08798520  0.93930103  1
  Se  Se183  1  0.91042531  0.41336018  0.44964619  1
  Se  Se184  1  0.92768174  0.41826145  0.94253165  1
  Se  Se185  1  0.92357462  0.74369113  0.43909095  1
  Se  Se186  1  0.91048068  0.75527247  0.94326888  1
  Se  Se187  1  0.25221866  0.25179960  0.30704507  1
  Se  Se188  1  0.25851067  0.23100081  0.81625306  1
  Se  Se189  1  0.24585890  0.58901288  0.30708747  1
  Se  Se190  1  0.24129033  0.57150925  0.80647213  1
  Se  Se191  1  0.25689170  0.92465322  0.30350782  1
  Se  Se192  1  0.24799570  0.91482767  0.80121555  1
  Se  Se193  1  0.57553514  0.24321536  0.30682472  1
  Se  Se194  1  0.57825938  0.24823961  0.81243195  1
  Se  Se195  1  0.57515691  0.57216679  0.30919466  1
  Se  Se196  1  0.58716441  0.58216191  0.80471780  1
  Se  Se197  1  0.58984956  0.91789157  0.30159805  1
  Se  Se198  1  0.58699849  0.92628049  0.80173793  1
  Se  Se199  1  0.90547137  0.23339666  0.29639701  1
  Se  Se200  1  0.92472979  0.25449947  0.80195580  1
  Se  Se201  1  0.91383930  0.57627694  0.31527243  1
  Se  Se202  1  0.91924404  0.58685016  0.80120313  1
  Se  Se203  1  0.91268384  0.91220716  0.30508418  1
  Se  Se204  1  0.91504732  0.92160857  0.80095154  1
  Se  Se205  1  0.09053817  0.08876575  0.31469597  1
  Se  Se206  1  0.08418719  0.08107080  0.80102438  1
  Se  Se207  1  0.07979750  0.41197606  0.30808891  1
  Se  Se208  1  0.09337872  0.41241265  0.79850326  1
  Se  Se209  1  0.09028143  0.75840853  0.31003123  1
  Se  Se210  1  0.07947872  0.74911292  0.79752430  1
  Se  Se211  1  0.41403602  0.08307106  0.30139780  1
  Se  Se212  1  0.41259710  0.08022403  0.80974289  1
  Se  Se213  1  0.41848767  0.42060556  0.29636852  1
  Se  Se214  1  0.42038959  0.41503720  0.80853141  1
  Se  Se215  1  0.42296722  0.75363533  0.30157967  1
  Se  Se216  1  0.41786204  0.75086652  0.81328879  1
  Se  Se217  1  0.75162312  0.08309858  0.29470814  1
  Se  Se218  1  0.74866736  0.08881133  0.80033242  1
  Se  Se219  1  0.74901488  0.41605565  0.31291824  1
  Se  Se220  1  0.76172979  0.42395302  0.81164538  1
  Se  Se221  1  0.76065566  0.75795045  0.30890845  1
  Se  Se222  1  0.74652359  0.75248052  0.80434306  1
  Se  Se223  1  0.24898024  0.08431722  0.19763202  1
  Se  Se224  1  0.25836938  0.07757812  0.69597944  1
  Se  Se225  1  0.24859763  0.41842772  0.20410242  1
  Se  Se226  1  0.24130169  0.42630450  0.69077049  1
  Se  Se227  1  0.25731765  0.74574708  0.20097586  1
  Se  Se228  1  0.24156275  0.75717541  0.68365074  1
  Se  Se229  1  0.57923107  0.08090463  0.19442843  1
  Se  Se230  1  0.58621048  0.08569573  0.69868928  1
  Se  Se231  1  0.57321918  0.42650141  0.18915271  1
  Se  Se232  1  0.57822407  0.42136816  0.69136199  1
  Se  Se233  1  0.58146890  0.75714429  0.18632213  1
  Se  Se234  1  0.58096292  0.74771373  0.70920864  1
  Se  Se235  1  0.91559292  0.08492658  0.18045521  1
  Se  Se236  1  0.92096438  0.08334147  0.70034312  1
  Se  Se237  1  0.92342740  0.40812037  0.20445001  1
  Se  Se238  1  0.91828038  0.41642713  0.69757647  1
  Se  Se239  1  0.91617482  0.75477695  0.18810171  1
  Se  Se240  1  0.91370117  0.75378547  0.69868832  1
  Se  Se241  1  0.07968612  0.24647636  0.19774431  1
  Se  Se242  1  0.09309484  0.24701681  0.69872569  1
  Se  Se243  1  0.09384606  0.57480554  0.18763462  1
  Se  Se244  1  0.08177918  0.59296107  0.69622534  1
  Se  Se245  1  0.09561650  0.90835245  0.19032457  1
  Se  Se246  1  0.08155030  0.92248972  0.69364746  1
  Se  Se247  1  0.41022436  0.25411758  0.19538314  1
  Se  Se248  1  0.42731490  0.24154867  0.69246206  1
  Se  Se249  1  0.41601558  0.59766910  0.19814841  1
  Se  Se250  1  0.42124948  0.57679012  0.69137723  1
  Se  Se251  1  0.41548384  0.91966622  0.19408363  1
  Se  Se252  1  0.43059594  0.90355715  0.70367230  1
  Se  Se253  1  0.75203049  0.23815709  0.18590168  1
  Se  Se254  1  0.75841033  0.24283565  0.68581398  1
  Se  Se255  1  0.76093782  0.57434677  0.19785980  1
  Se  Se256  1  0.74426248  0.58376698  0.69758965  1
  Se  Se257  1  0.74878478  0.92138490  0.19056142  1
  Se  Se258  1  0.74651226  0.92259509  0.69885527  1
