# generated using pymatgen
data_In86Cu29Se144
_symmetry_space_group_name_H-M   'P 1'
_cell_length_a   17.57227591
_cell_length_b   17.57167587
_cell_length_c   23.43030660
_cell_angle_alpha   89.99592790
_cell_angle_beta   89.99299320
_cell_angle_gamma   89.97868545
_symmetry_Int_Tables_number   1
_chemical_formula_structural   In86Cu29Se144
_chemical_formula_sum   'In86 Cu29 Se144'
_cell_volume   7234.67680454
_cell_formula_units_Z   1
loop_
 _symmetry_equiv_pos_site_id
 _symmetry_equiv_pos_as_xyz
  1  'x, y, z'
loop_
 _atom_site_type_symbol
 _atom_site_label
 _atom_site_symmetry_multiplicity
 _atom_site_fract_x
 _atom_site_fract_y
 _atom_site_fract_z
 _atom_site_occupancy
  In  In0  1  0.01027418  0.18328671  0.10891632  1
  In  In1  1  0.00621001  0.17594150  0.62530049  1
  In  In2  1  -0.02238742  0.47137123  0.09220186  1
  In  In3  1  -0.01659439  0.48994141  0.63604746  1
  In  In4  1  -0.01552183  0.83231225  0.12185907  1
  In  In5  1  -0.00182521  0.85019550  0.62208608  1
  In  In6  1  0.33028953  0.17483231  0.13261384  1
  In  In7  1  0.34452966  0.17555827  0.60990614  1
  In  In8  1  0.32402365  0.48835864  0.11324641  1
  In  In9  1  0.32241301  0.49794944  0.62756645  1
  In  In10  1  0.34831670  0.83296205  0.12846869  1
  In  In11  1  0.36419029  0.83869826  0.61345851  1
  In  In12  1  0.67187572  0.15875545  0.12797986  1
  In  In13  1  0.65570198  0.17324718  0.63030929  1
  In  In14  1  0.66413259  0.50137855  0.12027258  1
  In  In15  1  0.67559129  0.50167809  0.64060579  1
  In  In16  1  0.67025493  0.83730439  0.13093045  1
  In  In17  1  0.66549689  0.83463137  0.62738806  1
  In  In18  1  0.18790609  0.01165958  0.37097857  1
  In  In19  1  0.17036207  0.02524932  0.88274097  1
  In  In20  1  0.16136276  0.32042703  0.37078202  1
  In  In21  1  0.16641470  0.33094414  0.88026531  1
  In  In22  1  0.16353858  0.67131907  0.37073059  1
  In  In23  1  0.15253089  0.65287874  0.88183874  1
  In  In24  1  0.49786246  -0.00009131  0.38138185  1
  In  In25  1  0.49664372  -0.01652154  0.88046999  1
  In  In26  1  0.48917682  0.32412724  0.36274734  1
  In  In27  1  0.51061653  0.34026642  0.86779012  1
  In  In28  1  0.51616001  0.66222462  0.37530365  1
  In  In29  1  0.51508829  0.65551609  0.88157241  1
  In  In30  1  0.81767925  -0.01043779  0.36634894  1
  In  In31  1  0.82268773  0.00806230  0.88082259  1
  In  In32  1  0.83308890  0.32915578  0.36185975  1
  In  In33  1  0.83207728  0.33363862  0.88006187  1
  In  In34  1  0.82351741  0.67886499  0.37480403  1
  In  In35  1  0.82964498  0.67827655  0.89335481  1
  In  In36  1  -0.00054185  0.18149631  0.37147871  1
  In  In37  1  -0.01559484  0.19052515  0.89900917  1
  In  In38  1  0.00808571  0.49331940  0.36902313  1
  In  In39  1  0.01393864  0.48543880  0.90003683  1
  In  In40  1  -0.00858301  0.82935038  0.37336294  1
  In  In41  1  -0.00715166  0.81761390  0.87936855  1
  In  In42  1  0.33261899  0.16440088  0.37945054  1
  In  In43  1  0.31051275  0.16764673  0.88507586  1
  In  In44  1  0.34367325  0.49483944  0.36753064  1
  In  In45  1  0.34465972  0.48974560  0.88068307  1
  In  In46  1  0.33906814  0.85000855  0.37568713  1
  In  In47  1  0.35083697  0.84831188  0.88124254  1
  In  In48  1  0.65763110  0.15610957  0.36319544  1
  In  In49  1  0.67142447  0.17579890  0.86522601  1
  In  In50  1  0.66519773  0.50005016  0.36139588  1
  In  In51  1  0.67073893  0.50109327  0.87814372  1
  In  In52  1  0.66399672  0.83024574  0.37611433  1
  In  In53  1  0.66998267  0.82942627  0.87630808  1
  In  In54  1  0.16928003  0.01439752  0.12549677  1
  In  In55  1  0.15804587  0.01687547  0.62283591  1
  In  In56  1  0.16541320  0.33398667  0.12034506  1
  In  In57  1  0.17284653  0.32790252  0.63640659  1
  In  In58  1  0.16925060  0.65350504  0.12216395  1
  In  In59  1  0.17414904  0.66369385  0.62822716  1
  In  In60  1  0.51115569  -0.00536091  0.13463318  1
  In  In61  1  0.50480217  0.01140063  0.61384419  1
  In  In62  1  0.49302833  0.33860830  0.12800353  1
  In  In63  1  0.50614154  0.32592326  0.62961540  1
  In  In64  1  0.50851223  0.68000767  0.11743786  1
  In  In65  1  0.50805091  0.68045391  0.62314824  1
  In  In66  1  0.81732790  -0.00697387  0.11482988  1
  In  In67  1  0.83194013  -0.01781898  0.62231515  1
  In  In68  1  0.82831471  0.33194511  0.11660008  1
  In  In69  1  0.83254696  0.34016554  0.64326014  1
  In  In70  1  0.82818259  0.65432474  0.11373515  1
  In  In71  1  0.81323067  0.66780305  0.63392481  1
  In  In72  1  0.33622838  0.00923462  0.74962640  1
  In  In73  1  0.83000397  0.16318666  0.49463386  1
  In  In74  1  0.17317525  0.84193964  0.49449552  1
  In  In75  1  0.16911568  0.83532354  -0.00497146  1
  In  In76  1  -0.01737433  0.65217422  0.75922350  1
  In  In77  1  -0.00992040  0.00544359  0.24173290  1
  In  In78  1  0.16842619  0.50070042  0.50825477  1
  In  In79  1  0.33894537  0.66398848  0.74706529  1
  In  In80  1  0.50120942  0.16450650  0.00332708  1
  In  In81  1  0.83250954  0.50010763  0.51229719  1
  In  In82  1  -0.01073660  0.65191634  0.23309235  1
  In  In83  1  0.50058962  0.50257244  0.49544613  1
  In  In84  1  -0.00587048  0.00749854  0.75352692  1
  In  In85  1  0.33526600  0.66246068  0.24943233  1
  Cu  Cu86  1  0.16330488  0.49246722  0.75882525  1
  Cu  Cu87  1  0.49937346  0.50094852  0.24094085  1
  Cu  Cu88  1  0.33049495  0.33234051  0.49874213  1
  Cu  Cu89  1  0.83527364  0.49615208  0.23766572  1
  Cu  Cu90  1  0.51367544  0.82819996  0.75315610  1
  Cu  Cu91  1  0.65729145  0.32687488  0.50010483  1
  Cu  Cu92  1  0.84061372  0.17290514  0.24017458  1
  Cu  Cu93  1  0.33780961  0.66902781  0.00099792  1
  Cu  Cu94  1  -0.00230834  0.67541532  0.49993617  1
  Cu  Cu95  1  0.82765767  0.82836915  0.75296984  1
  Cu  Cu96  1  0.16467158  0.48201672  0.24314589  1
  Cu  Cu97  1  0.15947816  0.18054205  0.75567338  1
  Cu  Cu98  1  0.65925356  0.67076161  0.00248536  1
  Cu  Cu99  1  0.16250273  0.83646869  0.25048395  1
  Cu  Cu100  1  0.66976356  0.67081229  0.50129049  1
  Cu  Cu101  1  0.66621848  -0.00406242  0.49691563  1
  Cu  Cu102  1  0.17167771  0.17043161  0.24700732  1
  Cu  Cu103  1  0.66720593  0.33808641  -0.00565020  1
  Cu  Cu104  1  -0.00294092  0.33377748  0.49871447  1
  Cu  Cu105  1  0.50345720  0.16660603  0.25063901  1
  Cu  Cu106  1  0.49009165  0.16191197  0.74724472  1
  Cu  Cu107  1  0.50552432  0.83919536  0.25305336  1
  Cu  Cu108  1  0.50489061  0.49715724  0.75558875  1
  Cu  Cu109  1  0.66614573  -0.00197124  0.00184237  1
  Cu  Cu110  1  0.33437719  0.33147820  0.00157855  1
  Cu  Cu111  1  0.83129142  0.16702559  0.75702028  1
  Cu  Cu112  1  -0.00380739  -0.00040292  0.00444172  1
  Cu  Cu113  1  -0.00012225  0.00241177  0.49700636  1
  Cu  Cu114  1  0.17569518  0.83247440  0.75442051  1
  Se  Se115  1  0.08622267  0.08221177  0.04999628  1
  Se  Se116  1  0.07479679  0.09068489  0.55025799  1
  Se  Se117  1  0.10217625  0.42491284  0.04717038  1
  Se  Se118  1  0.07345335  0.41168250  0.56374131  1
  Se  Se119  1  0.08420179  0.75014160  0.06216542  1
  Se  Se120  1  0.08321539  0.74945823  0.56032156  1
  Se  Se121  1  0.41737498  0.08039911  0.07003259  1
  Se  Se122  1  0.40426344  0.07205598  0.54859159  1
  Se  Se123  1  0.42240465  0.41606418  0.04928683  1
  Se  Se124  1  0.41001795  0.41444425  0.55837549  1
  Se  Se125  1  0.41808115  0.75666469  0.04980674  1
  Se  Se126  1  0.42136421  0.73934750  0.54693274  1
  Se  Se127  1  0.74863429  0.08992793  0.04776792  1
  Se  Se128  1  0.74388577  0.07711635  0.56056833  1
  Se  Se129  1  0.74930095  0.42234109  0.04931585  1
  Se  Se130  1  0.73864000  0.40267879  0.56287987  1
  Se  Se131  1  0.74397443  0.75092539  0.05728094  1
  Se  Se132  1  0.75206239  0.75247441  0.55688314  1
  Se  Se133  1  0.25307753  0.24715341  0.05528668  1
  Se  Se134  1  0.24297682  0.25633045  0.55509894  1
  Se  Se135  1  0.25186348  0.58390749  0.04753348  1
  Se  Se136  1  0.26621178  0.59869243  0.55317400  1
  Se  Se137  1  0.25296576  0.91646372  0.06488344  1
  Se  Se138  1  0.25219334  0.92452265  0.56608387  1
  Se  Se139  1  0.59101472  0.25791959  0.06027921  1
  Se  Se140  1  0.57483967  0.24324776  0.55224493  1
  Se  Se141  1  0.57667627  0.58201669  0.05231668  1
  Se  Se142  1  0.59745149  0.58146705  0.56060021  1
  Se  Se143  1  0.58531663  0.91672476  0.05832589  1
  Se  Se144  1  0.58526160  0.91448383  0.55526803  1
  Se  Se145  1  0.92409065  0.26704640  0.04444994  1
  Se  Se146  1  0.91040222  0.25959681  0.55906902  1
  Se  Se147  1  0.92944582  0.59495923  0.04646230  1
  Se  Se148  1  0.92572757  0.59494750  0.56620519  1
  Se  Se149  1  0.90952967  0.91436882  0.04991179  1
  Se  Se150  1  0.91564903  0.91586293  0.54498142  1
  Se  Se151  1  0.08160994  0.24939704  0.44859064  1
  Se  Se152  1  0.11329211  0.22160156  0.94475676  1
  Se  Se153  1  0.07567808  0.59130719  0.44333311  1
  Se  Se154  1  0.07512233  0.59265662  0.96187721  1
  Se  Se155  1  0.07890544  0.92630089  0.43159430  1
  Se  Se156  1  0.07491567  0.92687753  0.93618073  1
  Se  Se157  1  0.41781829  0.25481037  0.44435039  1
  Se  Se158  1  0.41644986  0.25567396  0.93856113  1
  Se  Se159  1  0.40724338  0.59226667  0.43736131  1
  Se  Se160  1  0.41902599  0.58318672  0.94583814  1
  Se  Se161  1  0.41318046  0.92191782  0.45200469  1
  Se  Se162  1  0.41490152  0.92502994  0.96097826  1
  Se  Se163  1  0.74281987  0.25663041  0.43584981  1
  Se  Se164  1  0.74516556  0.24521344  0.94546258  1
  Se  Se165  1  0.74370923  0.58130222  0.44251897  1
  Se  Se166  1  0.74425072  0.58556712  0.95233590  1
  Se  Se167  1  0.75097432  0.91214141  0.44576204  1
  Se  Se168  1  0.74990129  0.91405335  0.94704596  1
  Se  Se169  1  0.24521434  0.09108115  0.45070745  1
  Se  Se170  1  0.27355338  0.06067756  0.95517892  1
  Se  Se171  1  0.25248914  0.41523937  0.43856247  1
  Se  Se172  1  0.25168646  0.41648121  0.94702454  1
  Se  Se173  1  0.25748016  0.74463036  0.43695278  1
  Se  Se174  1  0.25932363  0.74319341  0.93371631  1
  Se  Se175  1  0.58863891  0.08581984  0.44536758  1
  Se  Se176  1  0.59038026  0.07924259  0.93809179  1
  Se  Se177  1  0.58769407  0.40978425  0.43489193  1
  Se  Se178  1  0.57877434  0.42055847  0.94531633  1
  Se  Se179  1  0.58157040  0.74974988  0.44950963  1
  Se  Se180  1  0.57933609  0.75595290  0.94677326  1
  Se  Se181  1  0.91985469  0.07614258  0.43063008  1
  Se  Se182  1  0.91134132  0.08220253  0.95047790  1
  Se  Se183  1  0.91709070  0.41507573  0.44072585  1
  Se  Se184  1  0.92523966  0.39234791  0.95585576  1
  Se  Se185  1  0.91142633  0.75260255  0.44593248  1
  Se  Se186  1  0.91806019  0.75689469  0.96034604  1
  Se  Se187  1  0.25544155  0.24837371  0.30504456  1
  Se  Se188  1  0.25333916  0.25458263  0.80679723  1
  Se  Se189  1  0.23599067  0.57023501  0.30397156  1
  Se  Se190  1  0.24589987  0.57963765  0.81138115  1
  Se  Se191  1  0.25113606  0.91560925  0.30094709  1
  Se  Se192  1  0.24745185  0.91867423  0.81375827  1
  Se  Se193  1  0.58939910  0.25580092  0.29916793  1
  Se  Se194  1  0.57709398  0.24618984  0.79761747  1
  Se  Se195  1  0.58114831  0.58487022  0.29529340  1
  Se  Se196  1  0.58946026  0.58299115  0.80384363  1
  Se  Se197  1  0.58402598  0.92132225  0.31095257  1
  Se  Se198  1  0.58737020  0.91738324  0.80846140  1
  Se  Se199  1  0.92445575  0.25492908  0.29420490  1
  Se  Se200  1  0.91599948  0.24704760  0.81078316  1
  Se  Se201  1  0.90732513  0.57310527  0.30962829  1
  Se  Se202  1  0.91486403  0.57305101  0.83666324  1
  Se  Se203  1  0.90746893  0.90501289  0.29870836  1
  Se  Se204  1  0.91084576  0.90875547  0.81127784  1
  Se  Se205  1  0.08640116  0.08894816  0.30473291  1
  Se  Se206  1  0.07839068  0.09950419  0.81437951  1
  Se  Se207  1  0.08007358  0.40458609  0.30059962  1
  Se  Se208  1  0.07907970  0.41476854  0.81453532  1
  Se  Se209  1  0.07800277  0.74949148  0.29924489  1
  Se  Se210  1  0.08886252  0.74979555  0.80573631  1
  Se  Se211  1  0.42156762  0.08766280  0.30998590  1
  Se  Se212  1  0.41969370  0.09157164  0.81993100  1
  Se  Se213  1  0.41594541  0.41638992  0.29326775  1
  Se  Se214  1  0.41494321  0.41462443  0.80125829  1
  Se  Se215  1  0.42383308  0.75376609  0.30997525  1
  Se  Se216  1  0.42446090  0.75345458  0.81114099  1
  Se  Se217  1  0.76143122  0.09216965  0.29959131  1
  Se  Se218  1  0.74704925  0.07767670  0.80137834  1
  Se  Se219  1  0.75238036  0.41721184  0.29723136  1
  Se  Se220  1  0.73553388  0.40078800  0.81303019  1
  Se  Se221  1  0.73615031  0.74288517  0.30343618  1
  Se  Se222  1  0.75309494  0.74153464  0.80942356  1
  Se  Se223  1  0.25498224  0.08084749  0.20041840  1
  Se  Se224  1  0.23854488  0.09795481  0.69520675  1
  Se  Se225  1  0.25703131  0.40815790  0.19158505  1
  Se  Se226  1  0.25174342  0.41723981  0.70274435  1
  Se  Se227  1  0.24190042  0.75307119  0.19128678  1
  Se  Se228  1  0.25545480  0.76395182  0.68770251  1
  Se  Se229  1  0.59018096  0.08293421  0.20159728  1
  Se  Se230  1  0.57651315  0.08049743  0.69517075  1
  Se  Se231  1  0.58615388  0.41693857  0.19214995  1
  Se  Se232  1  0.58436453  0.41368161  0.69730787  1
  Se  Se233  1  0.58093026  0.75251099  0.19637522  1
  Se  Se234  1  0.59387251  0.74296471  0.69923959  1
  Se  Se235  1  0.91334533  0.09505231  0.17378376  1
  Se  Se236  1  0.90584960  0.09103894  0.68610731  1
  Se  Se237  1  0.91863890  0.41469868  0.18372595  1
  Se  Se238  1  0.91538535  0.41585136  0.71369471  1
  Se  Se239  1  0.89738024  0.75297976  0.19079161  1
  Se  Se240  1  0.91681830  0.75789537  0.69145687  1
  Se  Se241  1  0.08591714  0.24825828  0.19094372  1
  Se  Se242  1  0.07266956  0.25996190  0.70140278  1
  Se  Se243  1  0.08427598  0.55989654  0.18237213  1
  Se  Se244  1  0.08709826  0.57636240  0.69656055  1
  Se  Se245  1  0.08479770  0.91143065  0.18651740  1
  Se  Se246  1  0.09345763  0.91647785  0.69707841  1
  Se  Se247  1  0.41999913  0.25150613  0.19947842  1
  Se  Se248  1  0.41021234  0.24731599  0.69250460  1
  Se  Se249  1  0.41765236  0.58048362  0.18020772  1
  Se  Se250  1  0.43081189  0.57348798  0.68645227  1
  Se  Se251  1  0.41666106  0.91908529  0.20191231  1
  Se  Se252  1  0.43127430  0.91355212  0.69647574  1
  Se  Se253  1  0.74992918  0.25370622  0.19110824  1
  Se  Se254  1  0.74686499  0.24591404  0.69897456  1
  Se  Se255  1  0.75002131  0.58255560  0.19058431  1
  Se  Se256  1  0.77875098  0.56264028  0.70429226  1
  Se  Se257  1  0.74626093  0.92988976  0.19699709  1
  Se  Se258  1  0.74959005  0.91592227  0.69863447  1
