# generated using pymatgen
data_In86Cu29Se144
_symmetry_space_group_name_H-M   'P 1'
_cell_length_a   17.57279435
_cell_length_b   17.57175371
_cell_length_c   23.43492328
_cell_angle_alpha   89.97856597
_cell_angle_beta   89.99136883
_cell_angle_gamma   89.96672104
_symmetry_Int_Tables_number   1
_chemical_formula_structural   In86Cu29Se144
_chemical_formula_sum   'In86 Cu29 Se144'
_cell_volume   7236.34662787
_cell_formula_units_Z   1
loop_
 _symmetry_equiv_pos_site_id
 _symmetry_equiv_pos_as_xyz
  1  'x, y, z'
loop_
 _atom_site_type_symbol
 _atom_site_label
 _atom_site_symmetry_multiplicity
 _atom_site_fract_x
 _atom_site_fract_y
 _atom_site_fract_z
 _atom_site_occupancy
  In  In0  1  -0.00000178  0.16551242  0.12493493  1
  In  In1  1  -0.00997110  0.16615604  0.63506829  1
  In  In2  1  0.00216282  0.48956255  0.14387473  1
  In  In3  1  0.01069991  0.48979737  0.61797889  1
  In  In4  1  -0.00714629  0.84223064  0.13254734  1
  In  In5  1  -0.00043556  0.83883811  0.61794468  1
  In  In6  1  0.33195625  0.16972298  0.12590281  1
  In  In7  1  0.35350277  0.17285648  0.62299755  1
  In  In8  1  0.33535279  0.49777087  0.13920523  1
  In  In9  1  0.32033630  0.48220239  0.60849259  1
  In  In10  1  0.33595962  0.83650738  0.14136570  1
  In  In11  1  0.31579839  0.84105305  0.61823841  1
  In  In12  1  0.67829012  0.16828475  0.10727045  1
  In  In13  1  0.66159209  0.17509040  0.64164428  1
  In  In14  1  0.68007050  0.49443000  0.14594171  1
  In  In15  1  0.65664165  0.49607998  0.61572286  1
  In  In16  1  0.66700012  0.83210115  0.12937724  1
  In  In17  1  0.68232362  0.83615197  0.61792021  1
  In  In18  1  0.15475710  -0.00867857  0.36679440  1
  In  In19  1  0.17393911  0.01664580  0.87376078  1
  In  In20  1  0.16882794  0.33644953  0.37419331  1
  In  In21  1  0.13443100  0.31401388  0.85238453  1
  In  In22  1  0.16567404  0.66526517  0.37751668  1
  In  In23  1  0.17481572  0.66259861  0.87803294  1
  In  In24  1  0.50356350  0.02202814  0.38033817  1
  In  In25  1  0.52730791  0.02457396  0.86191610  1
  In  In26  1  0.50228605  0.33607801  0.37726318  1
  In  In27  1  0.48417418  0.30724617  0.85892301  1
  In  In28  1  0.48888495  0.65814767  0.37009586  1
  In  In29  1  0.49784675  0.66523640  0.87462480  1
  In  In30  1  0.83034403  -0.01638702  0.37895023  1
  In  In31  1  0.83428517  0.00054496  0.87726722  1
  In  In32  1  0.83860877  0.34381845  0.35675165  1
  In  In33  1  0.80017870  0.28007875  0.83170078  1
  In  In34  1  0.84670411  0.67344686  0.36060951  1
  In  In35  1  0.83870849  0.67950713  0.88075609  1
  In  In36  1  0.00300644  0.16915477  0.36530917  1
  In  In37  1  -0.00011813  0.16851254  0.87193758  1
  In  In38  1  0.00107421  0.50605172  0.37012319  1
  In  In39  1  -0.00026405  0.47089583  0.87395529  1
  In  In40  1  0.00121534  0.83471251  0.37481142  1
  In  In41  1  -0.01941317  0.83174249  0.88140186  1
  In  In42  1  0.34201305  0.17899784  0.36720107  1
  In  In43  1  0.31737488  0.17763719  0.88531391  1
  In  In44  1  0.33315863  0.49675496  0.37882630  1
  In  In45  1  0.34250665  0.49343974  0.87510517  1
  In  In46  1  0.32120058  0.82346018  0.36868595  1
  In  In47  1  0.32843543  0.83587383  0.88179579  1
  In  In48  1  0.65454651  0.16844472  0.38006596  1
  In  In49  1  0.66634276  0.16141668  0.88384028  1
  In  In50  1  0.66212915  0.48659980  0.36579863  1
  In  In51  1  0.68265631  0.48472778  0.87701072  1
  In  In52  1  0.69002856  0.84427642  0.38112194  1
  In  In53  1  0.66773311  0.86122783  0.87939611  1
  In  In54  1  0.16261110  0.01162677  0.12960551  1
  In  In55  1  0.15889694  -0.01083385  0.62252877  1
  In  In56  1  0.16930956  0.32986787  0.12903710  1
  In  In57  1  0.16009449  0.34756157  0.63140157  1
  In  In58  1  0.16742933  0.66276749  0.14012856  1
  In  In59  1  0.15997417  0.66367374  0.61123234  1
  In  In60  1  0.49600192  0.00361205  0.12661394  1
  In  In61  1  0.50611038  0.02256116  0.61843602  1
  In  In62  1  0.50446189  0.32286588  0.12697185  1
  In  In63  1  0.49964450  0.32929704  0.62487961  1
  In  In64  1  0.50756699  0.66405031  0.14122735  1
  In  In65  1  0.51426244  0.65717334  0.61737929  1
  In  In66  1  0.84283915  0.01378933  0.10980697  1
  In  In67  1  0.83921781  0.00283196  0.63568155  1
  In  In68  1  0.83789860  0.32516211  0.13155081  1
  In  In69  1  0.83777125  0.32543401  0.63519606  1
  In  In70  1  0.82442694  0.67374626  0.13685220  1
  In  In71  1  0.82211117  0.67652573  0.61686599  1
  In  In72  1  0.82777735  0.16859006  0.50693377  1
  In  In73  1  0.83482605  0.50369235  0.49190770  1
  In  In74  1  0.33457669  0.65726665  0.74892847  1
  In  In75  1  0.17032656  0.16732248  0.49735472  1
  In  In76  1  0.50635804  0.49549753  0.01053682  1
  In  In77  1  0.66530696  0.65964751  0.74599383  1
  In  In78  1  0.83527701  0.49391284  0.00547960  1
  In  In79  1  0.49049069  0.82764261  0.49740848  1
  In  In80  1  0.16084928  0.48986085  -0.00327990  1
  In  In81  1  -0.00320680  0.65896734  0.74327946  1
  In  In82  1  0.66757924  0.00354384  0.25380014  1
  In  In83  1  0.50144321  0.84588358  0.00068945  1
  In  In84  1  0.33215104  0.00348863  0.74943679  1
  In  In85  1  0.15702920  0.84732423  0.01900710  1
  Cu  Cu86  1  0.83153905  0.16392485  0.24280535  1
  Cu  Cu87  1  0.49969125  0.17375015  0.25022724  1
  Cu  Cu88  1  0.83966133  0.84035363  0.25055044  1
  Cu  Cu89  1  0.16968315  0.16493117  0.74855709  1
  Cu  Cu90  1  0.15103298  0.82907042  0.74600133  1
  Cu  Cu91  1  -0.00809863  0.31992834  -0.00298671  1
  Cu  Cu92  1  0.49911111  0.84317681  0.74596110  1
  Cu  Cu93  1  0.33026101  0.66161939  0.49293664  1
  Cu  Cu94  1  0.82823881  0.84247739  0.75317166  1
  Cu  Cu95  1  0.00325360  0.00437021  -0.00096052  1
  Cu  Cu96  1  0.66815803  0.66782215  0.49056108  1
  Cu  Cu97  1  0.49237735  0.50006445  0.25546530  1
  Cu  Cu98  1  0.84091169  0.49643619  0.74806478  1
  Cu  Cu99  1  0.50294584  0.48668614  0.74368773  1
  Cu  Cu100  1  0.50416321  0.83492239  0.25621832  1
  Cu  Cu101  1  0.34204082  0.32825808  0.49675490  1
  Cu  Cu102  1  0.32704028  -0.00044519  0.49514632  1
  Cu  Cu103  1  0.33109611  0.66987307  0.01353897  1
  Cu  Cu104  1  -0.00834529  -0.00007343  0.49949337  1
  Cu  Cu105  1  0.67185059  0.67655279  0.00915509  1
  Cu  Cu106  1  -0.00228827  0.67065798  0.49098767  1
  Cu  Cu107  1  0.16913865  0.49975995  0.25901149  1
  Cu  Cu108  1  0.34415601  0.01287639  0.00150235  1
  Cu  Cu109  1  0.32657547  0.32442925  -0.00165662  1
  Cu  Cu110  1  0.66653964  0.32818269  -0.00801713  1
  Cu  Cu111  1  -0.00591605  0.65908709  0.00596095  1
  Cu  Cu112  1  0.16793848  0.16635435  0.24814777  1
  Cu  Cu113  1  0.16842227  0.82969559  0.25351037  1
  Cu  Cu114  1  0.66758410  0.33072372  0.49865480  1
  Se  Se115  1  0.08556810  0.08581318  0.05354561  1
  Se  Se116  1  0.07215748  0.08136156  0.55807228  1
  Se  Se117  1  0.06616663  0.40637228  0.05857741  1
  Se  Se118  1  0.09544051  0.41741420  0.54779323  1
  Se  Se119  1  0.07751485  0.73715111  0.06639829  1
  Se  Se120  1  0.07864324  0.75369989  0.54902030  1
  Se  Se121  1  0.42449559  0.09373809  0.05727614  1
  Se  Se122  1  0.41102917  0.08251013  0.54651554  1
  Se  Se123  1  0.40237650  0.40897613  0.06009868  1
  Se  Se124  1  0.42590362  0.41310763  0.55022441  1
  Se  Se125  1  0.41872811  0.74932499  0.06625815  1
  Se  Se126  1  0.40359020  0.73793759  0.56242487  1
  Se  Se127  1  0.74981134  0.07785762  0.04053902  1
  Se  Se128  1  0.74188493  0.08311882  0.57038726  1
  Se  Se129  1  0.73686520  0.40792924  0.06133937  1
  Se  Se130  1  0.75428423  0.40755939  0.55755780  1
  Se  Se131  1  0.75697495  0.75788838  0.05998507  1
  Se  Se132  1  0.75093711  0.75402328  0.54055926  1
  Se  Se133  1  0.24268454  0.24676076  0.05545648  1
  Se  Se134  1  0.25794503  0.25529085  0.55995508  1
  Se  Se135  1  0.24910077  0.58032175  0.06321003  1
  Se  Se136  1  0.24556048  0.57946762  0.54697562  1
  Se  Se137  1  0.26855007  0.92718528  0.06362230  1
  Se  Se138  1  0.23859571  0.91854571  0.54457000  1
  Se  Se139  1  0.58124518  0.25083146  0.04909452  1
  Se  Se140  1  0.59203159  0.24847053  0.55925933  1
  Se  Se141  1  0.59769639  0.58918692  0.06749861  1
  Se  Se142  1  0.58684049  0.58029653  0.54084419  1
  Se  Se143  1  0.59623334  0.92963174  0.05996480  1
  Se  Se144  1  0.57935715  0.91499753  0.55895212  1
  Se  Se145  1  0.90926734  0.24314089  0.05640326  1
  Se  Se146  1  0.92743747  0.25838541  0.55770561  1
  Se  Se147  1  0.92056115  0.58066150  0.07083990  1
  Se  Se148  1  0.92232925  0.59270896  0.55824848  1
  Se  Se149  1  0.92510361  0.91609456  0.05209786  1
  Se  Se150  1  0.90761107  0.92144952  0.55667889  1
  Se  Se151  1  0.07494286  0.25390089  0.44143890  1
  Se  Se152  1  0.08787358  0.24770485  0.94419893  1
  Se  Se153  1  0.08056264  0.58103604  0.44486435  1
  Se  Se154  1  0.06979804  0.58587278  0.93901471  1
  Se  Se155  1  0.07924503  0.92056928  0.44611067  1
  Se  Se156  1  0.08276671  0.92137887  0.93816803  1
  Se  Se157  1  0.42460913  0.24383718  0.44514068  1
  Se  Se158  1  0.41964298  0.24707089  0.94794521  1
  Se  Se159  1  0.41982985  0.57879599  0.44762201  1
  Se  Se160  1  0.41078461  0.59110384  0.95112779  1
  Se  Se161  1  0.40857320  0.92110624  0.43406525  1
  Se  Se162  1  0.41593777  0.93422540  0.93413950  1
  Se  Se163  1  0.75290077  0.26130213  0.43642373  1
  Se  Se164  1  0.75948961  0.25522754  0.93847991  1
  Se  Se165  1  0.74692331  0.58858287  0.42840576  1
  Se  Se166  1  0.74480634  0.59124106  0.94562536  1
  Se  Se167  1  0.74231392  0.93386196  0.45811832  1
  Se  Se168  1  0.77202858  0.90144568  0.94726856  1
  Se  Se169  1  0.25222706  0.08018322  0.43029786  1
  Se  Se170  1  0.24603409  0.08549481  0.95431033  1
  Se  Se171  1  0.25284887  0.41010943  0.44737676  1
  Se  Se172  1  0.25207200  0.40560116  0.93550555  1
  Se  Se173  1  0.24689376  0.75145976  0.44741234  1
  Se  Se174  1  0.24775178  0.74981238  0.95551681  1
  Se  Se175  1  0.59152336  0.08202658  0.45485561  1
  Se  Se176  1  0.58480243  0.07900451  0.95283220  1
  Se  Se177  1  0.58682627  0.41822633  0.44679887  1
  Se  Se178  1  0.58039337  0.40987003  0.93734267  1
  Se  Se179  1  0.58570096  0.74936861  0.43284575  1
  Se  Se180  1  0.58936318  0.74671115  0.94204129  1
  Se  Se181  1  0.91849067  0.08492864  0.43922600  1
  Se  Se182  1  0.92125928  0.08583742  0.94323415  1
  Se  Se183  1  0.92233683  0.40787034  0.43842329  1
  Se  Se184  1  0.90731312  0.39789297  0.94007206  1
  Se  Se185  1  0.91117449  0.75291353  0.44100819  1
  Se  Se186  1  0.91290863  0.75088226  0.95959433  1
  Se  Se187  1  0.24703190  0.25207693  0.30316333  1
  Se  Se188  1  0.25070096  0.24918900  0.80282072  1
  Se  Se189  1  0.25285587  0.58380521  0.31049194  1
  Se  Se190  1  0.24212573  0.56875382  0.80718510  1
  Se  Se191  1  0.25142736  0.91925913  0.30178219  1
  Se  Se192  1  0.23812761  0.90619236  0.80593625  1
  Se  Se193  1  0.58453984  0.25219726  0.30614210  1
  Se  Se194  1  0.60928984  0.26539944  0.81370583  1
  Se  Se195  1  0.58147609  0.58244203  0.30444168  1
  Se  Se196  1  0.57733104  0.56873451  0.80943366  1
  Se  Se197  1  0.58005483  0.91551151  0.31792704  1
  Se  Se198  1  0.58785272  0.92072718  0.79738480  1
  Se  Se199  1  0.91734271  0.24749345  0.29617141  1
  Se  Se200  1  0.94603966  0.28314237  0.81271375  1
  Se  Se201  1  0.90587228  0.56784204  0.29956042  1
  Se  Se202  1  0.90905825  0.57724121  0.81416786  1
  Se  Se203  1  0.92159368  0.92304299  0.30499434  1
  Se  Se204  1  0.91924952  0.91751235  0.80533926  1
  Se  Se205  1  0.08118473  0.08181950  0.29806237  1
  Se  Se206  1  0.08512361  0.08377670  0.80215937  1
  Se  Se207  1  0.08128555  0.41398690  0.30536473  1
  Se  Se208  1  0.09528924  0.43445795  0.79724298  1
  Se  Se209  1  0.08367822  0.74900144  0.30768853  1
  Se  Se210  1  0.08146128  0.74811076  0.81295470  1
  Se  Se211  1  0.42033278  0.08536034  0.30229572  1
  Se  Se212  1  0.41169260  0.09456477  0.81347898  1
  Se  Se213  1  0.41352715  0.41291411  0.30842619  1
  Se  Se214  1  0.41483703  0.41259818  0.80008736  1
  Se  Se215  1  0.41565732  0.75063645  0.30299256  1
  Se  Se216  1  0.41986099  0.76160061  0.80597194  1
  Se  Se217  1  0.75873469  0.09235803  0.31468126  1
  Se  Se218  1  0.75340389  0.08731999  0.81180763  1
  Se  Se219  1  0.73694258  0.40540909  0.29352158  1
  Se  Se220  1  0.75061762  0.41516191  0.79602415  1
  Se  Se221  1  0.75197343  0.76054315  0.30321342  1
  Se  Se222  1  0.74851799  0.75406985  0.80928658  1
  Se  Se223  1  0.25508628  0.08356168  0.19722973  1
  Se  Se224  1  0.24454990  0.08814176  0.68189602  1
  Se  Se225  1  0.24634365  0.41419404  0.20057424  1
  Se  Se226  1  0.26658623  0.40836180  0.69316219  1
  Se  Se227  1  0.25533442  0.74537828  0.20404940  1
  Se  Se228  1  0.23969687  0.75164863  0.69128858  1
  Se  Se229  1  0.58390031  0.09483581  0.19082133  1
  Se  Se230  1  0.56806272  0.09140731  0.70165763  1
  Se  Se231  1  0.57042910  0.42077146  0.19457419  1
  Se  Se232  1  0.59298589  0.41088189  0.69124204  1
  Se  Se233  1  0.59061012  0.75424474  0.20375543  1
  Se  Se234  1  0.57823143  0.75733892  0.68814285  1
  Se  Se235  1  0.91594068  0.07891952  0.19243197  1
  Se  Se236  1  0.91302860  0.08753814  0.70659766  1
  Se  Se237  1  0.89860186  0.42115512  0.20115510  1
  Se  Se238  1  0.92503074  0.41956716  0.69132571  1
  Se  Se239  1  0.92074200  0.75025819  0.20031391  1
  Se  Se240  1  0.90439136  0.75653663  0.69261280  1
  Se  Se241  1  0.08138031  0.24869455  0.19483316  1
  Se  Se242  1  0.08777724  0.24749327  0.69247668  1
  Se  Se243  1  0.08186955  0.58183820  0.20646836  1
  Se  Se244  1  0.09709786  0.57606937  0.68969412  1
  Se  Se245  1  0.09122719  0.91425882  0.19446820  1
  Se  Se246  1  0.07217781  0.91787718  0.69546613  1
  Se  Se247  1  0.41198917  0.25438505  0.19697473  1
  Se  Se248  1  0.42948687  0.24344876  0.69889815  1
  Se  Se249  1  0.41106284  0.59001428  0.20403518  1
  Se  Se250  1  0.42686504  0.57468036  0.68544780  1
  Se  Se251  1  0.42547250  0.92177780  0.20230983  1
  Se  Se252  1  0.41717463  0.91488639  0.68314643  1
  Se  Se253  1  0.74160945  0.24198457  0.19073396  1
  Se  Se254  1  0.76744040  0.23688302  0.70492774  1
  Se  Se255  1  0.74499873  0.59470670  0.20748507  1
  Se  Se256  1  0.75955141  0.57263085  0.68510901  1
  Se  Se257  1  0.76064031  0.92262379  0.18953745  1
  Se  Se258  1  0.74312608  0.91904389  0.69640347  1
