# generated using pymatgen
data_In86Cu29Se144
_symmetry_space_group_name_H-M   'P 1'
_cell_length_a   17.58649430
_cell_length_b   17.59030379
_cell_length_c   23.44897080
_cell_angle_alpha   89.98450004
_cell_angle_beta   89.99404916
_cell_angle_gamma   89.96129073
_symmetry_Int_Tables_number   1
_chemical_formula_structural   In86Cu29Se144
_chemical_formula_sum   'In86 Cu29 Se144'
_cell_volume   7253.97883242
_cell_formula_units_Z   1
loop_
 _symmetry_equiv_pos_site_id
 _symmetry_equiv_pos_as_xyz
  1  'x, y, z'
loop_
 _atom_site_type_symbol
 _atom_site_label
 _atom_site_symmetry_multiplicity
 _atom_site_fract_x
 _atom_site_fract_y
 _atom_site_fract_z
 _atom_site_occupancy
  In  In0  1  -0.01406450  0.16502028  0.11435753  1
  In  In1  1  0.00272808  0.16590879  0.62623482  1
  In  In2  1  -0.00680494  0.50880240  0.13008287  1
  In  In3  1  -0.01320781  0.48867810  0.61553347  1
  In  In4  1  -0.00555150  0.83548325  0.14175919  1
  In  In5  1  0.00779323  0.84135765  0.62583991  1
  In  In6  1  0.32446163  0.15960146  0.11506970  1
  In  In7  1  0.32443601  0.17650072  0.63594715  1
  In  In8  1  0.34314536  0.50780213  0.12334960  1
  In  In9  1  0.32830310  0.50384670  0.62980266  1
  In  In10  1  0.34023185  0.83441720  0.12883788  1
  In  In11  1  0.33474314  0.83608130  0.63880152  1
  In  In12  1  0.68129029  0.18052676  0.10524546  1
  In  In13  1  0.68253786  0.17565904  0.62664709  1
  In  In14  1  0.67397223  0.49564178  0.13350853  1
  In  In15  1  0.67322760  0.49371703  0.63504646  1
  In  In16  1  0.65346759  0.83151147  0.12251303  1
  In  In17  1  0.65563371  0.82709378  0.63158676  1
  In  In18  1  0.16527657  0.00075045  0.37410341  1
  In  In19  1  0.17903516  0.00930997  0.86619219  1
  In  In20  1  0.15815195  0.33381230  0.38616333  1
  In  In21  1  0.15520509  0.31924772  0.86461033  1
  In  In22  1  0.15855992  0.65857107  0.37013432  1
  In  In23  1  0.17394457  0.65451449  0.87500291  1
  In  In24  1  0.48847548  0.00674040  0.36881525  1
  In  In25  1  0.49711398  0.00849535  0.88202216  1
  In  In26  1  0.51683317  0.32843684  0.37086808  1
  In  In27  1  0.49696928  0.32826196  0.87004573  1
  In  In28  1  0.50404529  0.66967721  0.36821400  1
  In  In29  1  0.51625900  0.67969627  0.86786536  1
  In  In30  1  0.85816519  0.00343739  0.37035213  1
  In  In31  1  0.84851817  0.00953861  0.86947429  1
  In  In32  1  0.83192813  0.33530142  0.37961565  1
  In  In33  1  0.83590558  0.33456537  0.88152366  1
  In  In34  1  0.82715865  0.65599074  0.35667486  1
  In  In35  1  0.81352137  0.65731534  0.87625651  1
  In  In36  1  0.00359912  0.15661853  0.38708086  1
  In  In37  1  0.00374144  0.17321985  0.88040412  1
  In  In38  1  -0.00730851  0.50251980  0.38192751  1
  In  In39  1  -0.00300651  0.47456658  0.87969664  1
  In  In40  1  -0.00170461  0.83598841  0.36280372  1
  In  In41  1  -0.01155662  0.84171280  0.87311059  1
  In  In42  1  0.32765580  0.15421611  0.37352313  1
  In  In43  1  0.33183135  0.16496222  0.87291942  1
  In  In44  1  0.32014037  0.49926055  0.37713956  1
  In  In45  1  0.33592266  0.50197826  0.86439182  1
  In  In46  1  0.33161474  0.83579119  0.37010259  1
  In  In47  1  0.35281119  0.84531575  0.86046206  1
  In  In48  1  0.67387927  0.18590655  0.36856995  1
  In  In49  1  0.66374258  0.18308661  0.89340837  1
  In  In50  1  0.68522029  0.50668936  0.35968400  1
  In  In51  1  0.67818004  0.50197090  0.87937652  1
  In  In52  1  0.68323007  0.82062414  0.36692559  1
  In  In53  1  0.66492411  0.81788824  0.87946893  1
  In  In54  1  0.15696585  0.01080417  0.13180646  1
  In  In55  1  0.15485675  0.01319476  0.63373150  1
  In  In56  1  0.16545862  0.32852836  0.11675421  1
  In  In57  1  0.16349761  0.33021033  0.62491901  1
  In  In58  1  0.16306280  0.67426131  0.13304667  1
  In  In59  1  0.17634782  0.66638399  0.62140053  1
  In  In60  1  0.49629707  -0.00618246  0.11572473  1
  In  In61  1  0.48630256  -0.00526850  0.63364800  1
  In  In62  1  0.51945339  0.33698426  0.11503999  1
  In  In63  1  0.50194593  0.33354946  0.63839409  1
  In  In64  1  0.49059409  0.67264632  0.12959274  1
  In  In65  1  0.50762849  0.66967269  0.63938961  1
  In  In66  1  0.83827272  0.00790482  0.12670664  1
  In  In67  1  0.83807914  0.02114428  0.62029886  1
  In  In68  1  0.82645630  0.33267144  0.11687258  1
  In  In69  1  0.83603108  0.33716488  0.63038819  1
  In  In70  1  0.83413309  0.66449289  0.13688241  1
  In  In71  1  0.83382639  0.64995997  0.62445492  1
  In  In72  1  0.50384124  0.49710596  0.50968615  1
  In  In73  1  0.66486792  -0.00158306  0.24058402  1
  In  In74  1  0.50071376  0.16901844  0.49764733  1
  In  In75  1  0.16094212  0.49495811  0.00222130  1
  In  In76  1  0.16767470  0.83208154  0.00468522  1
  In  In77  1  0.66882770  0.00269021  0.75141466  1
  In  In78  1  0.49853335  0.83200000  0.51085715  1
  In  In79  1  -0.00662574  0.33581163  0.24691446  1
  In  In80  1  0.83693735  0.83428579  0.49335214  1
  In  In81  1  0.16492181  0.83517534  0.49509061  1
  In  In82  1  0.50563059  0.49980455  -0.00424215  1
  In  In83  1  0.00088811  0.66789491  0.74748216  1
  In  In84  1  0.82812244  0.83569032  0.00604046  1
  In  In85  1  0.33900036  0.33467093  0.24731141  1
  Cu  Cu86  1  0.83879294  0.17698191  0.75214817  1
  Cu  Cu87  1  0.16543574  0.16727488  0.75043780  1
  Cu  Cu88  1  0.50040711  0.16519919  0.24171810  1
  Cu  Cu89  1  0.16569263  0.49528360  0.74617950  1
  Cu  Cu90  1  0.67600785  0.66269523  0.49422850  1
  Cu  Cu91  1  0.16968512  0.50397253  0.25092412  1
  Cu  Cu92  1  -0.01317631  0.66179170  0.00477745  1
  Cu  Cu93  1  0.67639261  0.34106110  0.50193586  1
  Cu  Cu94  1  -0.00085038  0.32549391  0.50478445  1
  Cu  Cu95  1  0.33010337  0.32921877  -0.00991435  1
  Cu  Cu96  1  0.33142437  0.65597684  0.50302789  1
  Cu  Cu97  1  0.66996769  0.00529366  0.49782250  1
  Cu  Cu98  1  0.16455999  0.16392629  0.25179755  1
  Cu  Cu99  1  0.83416931  0.49920947  0.75340917  1
  Cu  Cu100  1  0.49560224  0.83771404  0.24689791  1
  Cu  Cu101  1  0.33173373  0.00098625  -0.00693334  1
  Cu  Cu102  1  0.32386138  0.00247790  0.50329139  1
  Cu  Cu103  1  0.16744990  0.83323141  0.74891529  1
  Cu  Cu104  1  0.82998801  0.83821673  0.75269890  1
  Cu  Cu105  1  0.32504852  0.32504002  0.50247450  1
  Cu  Cu106  1  0.33693981  0.67459628  -0.00075299  1
  Cu  Cu107  1  0.50195994  0.16332546  0.75913438  1
  Cu  Cu108  1  -0.00131125  0.65765402  0.49260073  1
  Cu  Cu109  1  0.83853334  0.16465224  0.24416011  1
  Cu  Cu110  1  0.50493577  0.49637790  0.75537732  1
  Cu  Cu111  1  0.17648835  0.84062252  0.25064084  1
  Cu  Cu112  1  0.00993673  0.00629746  -0.00129232  1
  Cu  Cu113  1  0.66847045  -0.00327087  -0.00081138  1
  Cu  Cu114  1  0.50118507  0.50465226  0.24544263  1
  Se  Se115  1  0.08838272  0.09078182  0.05437822  1
  Se  Se116  1  0.07931522  0.07915755  0.55581765  1
  Se  Se117  1  0.06459796  0.40979291  0.05937707  1
  Se  Se118  1  0.08354233  0.41358421  0.55349988  1
  Se  Se119  1  0.06879237  0.74559383  0.06001210  1
  Se  Se120  1  0.07302795  0.74091690  0.55467595  1
  Se  Se121  1  0.41543064  0.08226039  0.04932501  1
  Se  Se122  1  0.41004127  0.08122832  0.56005048  1
  Se  Se123  1  0.40699711  0.40875192  0.05381633  1
  Se  Se124  1  0.41007406  0.40178905  0.56123227  1
  Se  Se125  1  0.41799592  0.75581594  0.05462192  1
  Se  Se126  1  0.40739786  0.73693175  0.56451802  1
  Se  Se127  1  0.75718716  0.07549041  0.05075558  1
  Se  Se128  1  0.74872935  0.09230090  0.54983120  1
  Se  Se129  1  0.72782382  0.40674650  0.05601665  1
  Se  Se130  1  0.75502840  0.42318610  0.55948279  1
  Se  Se131  1  0.74327064  0.74063139  0.06168293  1
  Se  Se132  1  0.74636325  0.74846000  0.55851830  1
  Se  Se133  1  0.24727976  0.24962265  0.04737416  1
  Se  Se134  1  0.24508757  0.24120806  0.55658256  1
  Se  Se135  1  0.25221320  0.59456060  0.05690855  1
  Se  Se136  1  0.24607588  0.57330144  0.55264594  1
  Se  Se137  1  0.25415360  0.92747657  0.06142364  1
  Se  Se138  1  0.25155506  0.91717389  0.56430302  1
  Se  Se139  1  0.57377724  0.23965789  0.04479386  1
  Se  Se140  1  0.58838043  0.26153091  0.55813704  1
  Se  Se141  1  0.58154462  0.58437032  0.06725757  1
  Se  Se142  1  0.59503248  0.59392559  0.56232849  1
  Se  Se143  1  0.58205959  0.91280056  0.04746796  1
  Se  Se144  1  0.59152900  0.93106986  0.56130018  1
  Se  Se145  1  0.90666642  0.24884140  0.04736351  1
  Se  Se146  1  0.91315766  0.24959924  0.56139453  1
  Se  Se147  1  0.90541376  0.58156684  0.05942588  1
  Se  Se148  1  0.91163819  0.58000572  0.54735414  1
  Se  Se149  1  0.93194604  0.92170920  0.05831501  1
  Se  Se150  1  0.92202884  0.92402713  0.55679425  1
  Se  Se151  1  0.08537156  0.24330950  0.45314392  1
  Se  Se152  1  0.08560526  0.25830591  0.94798948  1
  Se  Se153  1  0.09029501  0.57618446  0.44633701  1
  Se  Se154  1  0.07092293  0.58876374  0.94197942  1
  Se  Se155  1  0.06821105  0.92216641  0.44131945  1
  Se  Se156  1  0.08313011  0.92121991  0.93873469  1
  Se  Se157  1  0.40963756  0.25820601  0.43583925  1
  Se  Se158  1  0.41760404  0.24656504  0.94138693  1
  Se  Se159  1  0.41883185  0.58546929  0.44216681  1
  Se  Se160  1  0.40887630  0.58684927  0.94038334  1
  Se  Se161  1  0.41036431  0.92336308  0.44691144  1
  Se  Se162  1  0.41658746  0.91398756  0.94547821  1
  Se  Se163  1  0.75113126  0.24935448  0.44928546  1
  Se  Se164  1  0.77563929  0.23554386  0.95264610  1
  Se  Se165  1  0.75714773  0.58224040  0.43858714  1
  Se  Se166  1  0.73998527  0.59018172  0.95485193  1
  Se  Se167  1  0.74368441  0.92479502  0.43469896  1
  Se  Se168  1  0.75067848  0.92396221  0.93449118  1
  Se  Se169  1  0.24364011  0.08386232  0.44709305  1
  Se  Se170  1  0.24658233  0.08668649  0.94508887  1
  Se  Se171  1  0.24871627  0.41533055  0.44974196  1
  Se  Se172  1  0.25097899  0.41532471  0.93481401  1
  Se  Se173  1  0.25854141  0.74091465  0.44157653  1
  Se  Se174  1  0.25500757  0.75016286  0.93769624  1
  Se  Se175  1  0.58949497  0.08087460  0.43405538  1
  Se  Se176  1  0.58427918  0.08442184  0.95079182  1
  Se  Se177  1  0.59321203  0.41800578  0.44162783  1
  Se  Se178  1  0.59134553  0.40437900  0.93974133  1
  Se  Se179  1  0.59098005  0.74836752  0.44384592  1
  Se  Se180  1  0.57909175  0.74939832  0.95161528  1
  Se  Se181  1  0.90148623  0.09097147  0.44999690  1
  Se  Se182  1  0.92035057  0.08445385  0.94717987  1
  Se  Se183  1  0.91903890  0.41092033  0.44900500  1
  Se  Se184  1  0.89307329  0.43859062  0.94962600  1
  Se  Se185  1  0.92143468  0.74015877  0.43277306  1
  Se  Se186  1  0.91624766  0.74540225  0.94090358  1
  Se  Se187  1  0.24218391  0.25087226  0.30884713  1
  Se  Se188  1  0.25363571  0.24952678  0.80110884  1
  Se  Se189  1  0.25471761  0.58636686  0.30312019  1
  Se  Se190  1  0.24745961  0.58202237  0.79692576  1
  Se  Se191  1  0.25536624  0.92671304  0.30494233  1
  Se  Se192  1  0.25307676  0.91761196  0.79938305  1
  Se  Se193  1  0.58444026  0.24856281  0.29344474  1
  Se  Se194  1  0.59039300  0.24494052  0.80818513  1
  Se  Se195  1  0.58537221  0.58485285  0.30186345  1
  Se  Se196  1  0.58846467  0.57798247  0.80926332  1
  Se  Se197  1  0.57861273  0.91191569  0.31113166  1
  Se  Se198  1  0.58401789  0.91643720  0.81567159  1
  Se  Se199  1  0.91521188  0.24039573  0.31088011  1
  Se  Se200  1  0.92105665  0.25585601  0.81002781  1
  Se  Se201  1  0.92487448  0.57344134  0.30196603  1
  Se  Se202  1  0.91643027  0.58023566  0.81277724  1
  Se  Se203  1  0.90107595  0.90488157  0.29797367  1
  Se  Se204  1  0.91942004  0.92215601  0.79667849  1
  Se  Se205  1  0.07999718  0.08539208  0.30798089  1
  Se  Se206  1  0.08133699  0.08766484  0.80737281  1
  Se  Se207  1  0.09078233  0.41950896  0.30790836  1
  Se  Se208  1  0.08086189  0.41592675  0.80047448  1
  Se  Se209  1  0.09278131  0.75542623  0.30315522  1
  Se  Se210  1  0.08903482  0.75563071  0.81299402  1
  Se  Se211  1  0.41357643  0.08915725  0.29683572  1
  Se  Se212  1  0.41552474  0.07814740  0.80536959  1
  Se  Se213  1  0.42599270  0.42482006  0.31184700  1
  Se  Se214  1  0.41589248  0.41154930  0.80076340  1
  Se  Se215  1  0.41656418  0.75294380  0.30433502  1
  Se  Se216  1  0.39870660  0.72358307  0.81103774  1
  Se  Se217  1  0.75412137  0.08681324  0.30508080  1
  Se  Se218  1  0.75341039  0.09727019  0.81078954  1
  Se  Se219  1  0.73837689  0.39149260  0.30566527  1
  Se  Se220  1  0.75348864  0.41547339  0.80870259  1
  Se  Se221  1  0.74758928  0.74261554  0.28966752  1
  Se  Se222  1  0.75103031  0.75101287  0.80387411  1
  Se  Se223  1  0.25191306  0.08783672  0.19602670  1
  Se  Se224  1  0.25181412  0.08036146  0.70043169  1
  Se  Se225  1  0.24368250  0.42333470  0.18720880  1
  Se  Se226  1  0.25036191  0.41149975  0.69376839  1
  Se  Se227  1  0.25438101  0.75304671  0.19636516  1
  Se  Se228  1  0.24713411  0.74537335  0.69728938  1
  Se  Se229  1  0.58266010  0.09107230  0.17854340  1
  Se  Se230  1  0.57846010  0.09318588  0.68802831  1
  Se  Se231  1  0.57996418  0.41398672  0.19714519  1
  Se  Se232  1  0.59001610  0.41250206  0.70342959  1
  Se  Se233  1  0.57918153  0.75204863  0.19760693  1
  Se  Se234  1  0.58565889  0.75260454  0.70832541  1
  Se  Se235  1  0.92691581  0.08244513  0.19594647  1
  Se  Se236  1  0.91627489  0.08741478  0.69883704  1
  Se  Se237  1  0.89874185  0.42383018  0.19287292  1
  Se  Se238  1  0.92077409  0.41962714  0.69954020  1
  Se  Se239  1  0.93204291  0.73303733  0.20208243  1
  Se  Se240  1  0.90770184  0.75785711  0.68760185  1
  Se  Se241  1  0.08665278  0.24425930  0.19011601  1
  Se  Se242  1  0.08178736  0.25060163  0.69665342  1
  Se  Se243  1  0.08383830  0.58373082  0.19727056  1
  Se  Se244  1  0.08514049  0.57655407  0.68477142  1
  Se  Se245  1  0.08552624  0.92052869  0.20106694  1
  Se  Se246  1  0.08125485  0.91847176  0.70095186  1
  Se  Se247  1  0.42135546  0.24785207  0.18101178  1
  Se  Se248  1  0.41963752  0.24654136  0.70245884  1
  Se  Se249  1  0.41068202  0.58709920  0.20023561  1
  Se  Se250  1  0.42306307  0.57532647  0.69601449  1
  Se  Se251  1  0.41703342  0.92630916  0.19548932  1
  Se  Se252  1  0.43360617  0.89882062  0.70486615  1
  Se  Se253  1  0.75362385  0.24368208  0.18955701  1
  Se  Se254  1  0.75013708  0.25814172  0.70170241  1
  Se  Se255  1  0.74309839  0.58760383  0.20235909  1
  Se  Se256  1  0.75116501  0.58566591  0.70158214  1
  Se  Se257  1  0.75738639  0.90680057  0.18545897  1
  Se  Se258  1  0.75779903  0.91654308  0.68484366  1
