# generated using pymatgen
data_In86Cu29Se144
_symmetry_space_group_name_H-M   'P 1'
_cell_length_a   17.58223943
_cell_length_b   17.58343302
_cell_length_c   23.44829294
_cell_angle_alpha   90.03267302
_cell_angle_beta   89.99997143
_cell_angle_gamma   90.01081666
_symmetry_Int_Tables_number   1
_chemical_formula_structural   In86Cu29Se144
_chemical_formula_sum   'In86 Cu29 Se144'
_cell_volume   7249.18217808
_cell_formula_units_Z   1
loop_
 _symmetry_equiv_pos_site_id
 _symmetry_equiv_pos_as_xyz
  1  'x, y, z'
loop_
 _atom_site_type_symbol
 _atom_site_label
 _atom_site_symmetry_multiplicity
 _atom_site_fract_x
 _atom_site_fract_y
 _atom_site_fract_z
 _atom_site_occupancy
  In  In0  1  0.00949756  0.17030930  0.12779939  1
  In  In1  1  0.00826449  0.16564533  0.63092617  1
  In  In2  1  -0.00555871  0.49302486  0.11769934  1
  In  In3  1  0.00369304  0.48269394  0.62644480  1
  In  In4  1  0.01182817  0.84462280  0.12524660  1
  In  In5  1  0.00443389  0.85128243  0.62000864  1
  In  In6  1  0.31451816  0.14860241  0.10815040  1
  In  In7  1  0.34426793  0.18181014  0.61015304  1
  In  In8  1  0.32934006  0.51004814  0.12664742  1
  In  In9  1  0.32679274  0.50489856  0.62971786  1
  In  In10  1  0.33939949  0.82949737  0.13116389  1
  In  In11  1  0.33250784  0.82093979  0.62419881  1
  In  In12  1  0.67223647  0.17011923  0.11702514  1
  In  In13  1  0.66228840  0.17532683  0.63079546  1
  In  In14  1  0.67656808  0.48675281  0.13571601  1
  In  In15  1  0.65619679  0.49832387  0.62731700  1
  In  In16  1  0.65408404  0.83919521  0.12827609  1
  In  In17  1  0.66561091  0.83099641  0.61458235  1
  In  In18  1  0.18380716  0.01982432  0.35636065  1
  In  In19  1  0.17217417  0.01654558  0.88105512  1
  In  In20  1  0.16920160  0.33786722  0.37971210  1
  In  In21  1  0.16495366  0.33199414  0.87653912  1
  In  In22  1  0.17169767  0.64908903  0.37269278  1
  In  In23  1  0.16472559  0.65053484  0.87497088  1
  In  In24  1  0.48853453  0.00854822  0.38475037  1
  In  In25  1  0.48104727  0.00489565  0.89324943  1
  In  In26  1  0.49099979  0.31789010  0.37210863  1
  In  In27  1  0.48897652  0.31623399  0.85793252  1
  In  In28  1  0.50348021  0.67261350  0.36864067  1
  In  In29  1  0.49527458  0.67769693  0.87656867  1
  In  In30  1  0.83660449  -0.00248209  0.37394079  1
  In  In31  1  0.85287212  0.00702116  0.87579945  1
  In  In32  1  0.83311934  0.33155593  0.36782789  1
  In  In33  1  0.83475584  0.32686117  0.87790246  1
  In  In34  1  0.83692539  0.68192000  0.37211407  1
  In  In35  1  0.81932624  0.66199689  0.88031206  1
  In  In36  1  0.02022777  0.18704395  0.35279501  1
  In  In37  1  0.00009219  0.16532526  0.87968254  1
  In  In38  1  0.02328133  0.49425241  0.37217958  1
  In  In39  1  0.01203806  0.48287160  0.88621929  1
  In  In40  1  -0.00819287  0.83935367  0.37520819  1
  In  In41  1  0.00615950  0.84372493  0.86870767  1
  In  In42  1  0.33965853  0.17096427  0.38419359  1
  In  In43  1  0.32626354  0.16850388  0.88414993  1
  In  In44  1  0.30471873  0.49501312  0.36909257  1
  In  In45  1  0.32605803  0.48626536  0.86901884  1
  In  In46  1  0.33896542  0.84476742  0.36924162  1
  In  In47  1  0.34425423  0.84179657  0.87453707  1
  In  In48  1  0.65174231  0.16809987  0.37245225  1
  In  In49  1  0.65441272  0.17939276  0.88116748  1
  In  In50  1  0.66209882  0.49854145  0.36570154  1
  In  In51  1  0.67802166  0.49083665  0.88094043  1
  In  In52  1  0.67278139  0.83151410  0.37557266  1
  In  In53  1  0.65579426  0.82304521  0.87865338  1
  In  In54  1  0.15817437  0.01873058  0.14163171  1
  In  In55  1  0.14952857  0.00658934  0.63153747  1
  In  In56  1  0.15525546  0.32026518  0.12158488  1
  In  In57  1  0.16809231  0.32848997  0.62502019  1
  In  In58  1  0.17550360  0.66626575  0.12568650  1
  In  In59  1  0.18724909  0.67049583  0.62480717  1
  In  In60  1  0.48768832  -0.00535671  0.11038034  1
  In  In61  1  0.50184313  0.00216886  0.61825691  1
  In  In62  1  0.50957851  0.32774010  0.12696595  1
  In  In63  1  0.50005509  0.32532131  0.63511380  1
  In  In64  1  0.49462596  0.67654444  0.13440014  1
  In  In65  1  0.48846986  0.66399644  0.62296678  1
  In  In66  1  0.84657179  0.01969700  0.11432249  1
  In  In67  1  0.85030350  0.00528349  0.62300137  1
  In  In68  1  0.83439976  0.33186016  0.12307036  1
  In  In69  1  0.83902261  0.33298759  0.63603086  1
  In  In70  1  0.83877657  0.64887972  0.12724589  1
  In  In71  1  0.82164009  0.66863773  0.62093156  1
  In  In72  1  0.49444521  0.49855503  0.50038909  1
  In  In73  1  0.83405981  0.16021946  0.50244259  1
  In  In74  1  0.00046334  0.66717033  0.25210478  1
  In  In75  1  0.66347825  0.00305472  0.75195107  1
  In  In76  1  0.33021385  0.32980107  0.24775268  1
  In  In77  1  0.66248766  0.66066759  0.75253002  1
  In  In78  1  0.16957043  0.83877375  0.49954756  1
  In  In79  1  0.83745173  0.50160898  0.50254961  1
  In  In80  1  0.17416610  0.83950021  0.00024359  1
  In  In81  1  -0.00050310  0.66402015  0.75304924  1
  In  In82  1  0.66888122  0.00339928  0.24719258  1
  In  In83  1  0.32618463  0.00723071  0.75676920  1
  In  In84  1  0.49896692  0.49566359  0.00508957  1
  In  In85  1  0.82703609  0.82919135  0.00110145  1
  Cu  Cu86  1  0.33856561  0.66678280  0.49853283  1
  Cu  Cu87  1  0.50093904  0.83716652  0.25071658  1
  Cu  Cu88  1  0.83475807  0.17346063  0.23974764  1
  Cu  Cu89  1  0.00519379  0.66635603  0.49222672  1
  Cu  Cu90  1  0.65924564  0.66119337  0.00388307  1
  Cu  Cu91  1  0.01002740  0.33153651  0.49817768  1
  Cu  Cu92  1  0.82870889  0.83513603  0.24927294  1
  Cu  Cu93  1  0.32751402  0.33230296  -0.00486957  1
  Cu  Cu94  1  0.00105684  0.00288339  0.49478310  1
  Cu  Cu95  1  0.66611230  -0.00075131  0.00013758  1
  Cu  Cu96  1  0.33392201  0.66528306  0.00469501  1
  Cu  Cu97  1  0.49852839  0.16520011  0.24881572  1
  Cu  Cu98  1  0.17121157  0.83431902  0.24792949  1
  Cu  Cu99  1  -0.00179065  0.32888113  0.00041115  1
  Cu  Cu100  1  0.16814420  0.49622168  0.75125432  1
  Cu  Cu101  1  0.66381874  -0.00462457  0.49457003  1
  Cu  Cu102  1  0.49440647  0.83607739  0.75220575  1
  Cu  Cu103  1  0.16488565  0.17458143  0.75308508  1
  Cu  Cu104  1  0.49762288  0.50424913  0.24749638  1
  Cu  Cu105  1  0.33076680  0.00092915  0.49662842  1
  Cu  Cu106  1  0.65994563  0.32817652  0.50433235  1
  Cu  Cu107  1  0.83872896  0.49046048  0.75919336  1
  Cu  Cu108  1  0.83162681  0.49721946  0.24919117  1
  Cu  Cu109  1  -0.00371103  0.66250952  -0.00260612  1
  Cu  Cu110  1  0.66857466  0.33518954  0.00156721  1
  Cu  Cu111  1  0.83875761  0.84034945  0.74592837  1
  Cu  Cu112  1  0.83864258  0.16699555  0.75361642  1
  Cu  Cu113  1  0.66960855  0.67697684  0.49179481  1
  Cu  Cu114  1  0.49665047  0.49609827  0.74823311  1
  Se  Se115  1  0.08318564  0.07925007  0.05951868  1
  Se  Se116  1  0.07882170  0.08466525  0.55380497  1
  Se  Se117  1  0.08333155  0.41317265  0.05225330  1
  Se  Se118  1  0.08958710  0.41647027  0.55281744  1
  Se  Se119  1  0.07739400  0.74374512  0.05619020  1
  Se  Se120  1  0.08112942  0.74463869  0.55928234  1
  Se  Se121  1  0.42998204  0.10182904  0.05017353  1
  Se  Se122  1  0.41814155  0.08224267  0.54945159  1
  Se  Se123  1  0.40553186  0.40589494  0.06247846  1
  Se  Se124  1  0.41241651  0.41177815  0.56543754  1
  Se  Se125  1  0.41722423  0.74860282  0.05682478  1
  Se  Se126  1  0.42031525  0.75222827  0.55046011  1
  Se  Se127  1  0.75151948  0.08566166  0.04694855  1
  Se  Se128  1  0.73884174  0.07361808  0.56232637  1
  Se  Se129  1  0.75087430  0.41891070  0.05508680  1
  Se  Se130  1  0.74398043  0.40926418  0.56042330  1
  Se  Se131  1  0.74166568  0.73998843  0.06531670  1
  Se  Se132  1  0.75611154  0.75508639  0.54677609  1
  Se  Se133  1  0.24265603  0.24921737  0.04833905  1
  Se  Se134  1  0.22687366  0.22878962  0.55579691  1
  Se  Se135  1  0.24639204  0.58140285  0.05134023  1
  Se  Se136  1  0.25464153  0.58402875  0.55132831  1
  Se  Se137  1  0.24794703  0.92189313  0.07337844  1
  Se  Se138  1  0.25460862  0.92743252  0.56471357  1
  Se  Se139  1  0.58259260  0.25025967  0.05054540  1
  Se  Se140  1  0.57769636  0.24742635  0.55826008  1
  Se  Se141  1  0.58562357  0.58242106  0.06968799  1
  Se  Se142  1  0.59298162  0.59459502  0.55391589  1
  Se  Se143  1  0.58330227  0.91295455  0.04983851  1
  Se  Se144  1  0.57980232  0.91418383  0.55040877  1
  Se  Se145  1  0.91879175  0.24660720  0.05803931  1
  Se  Se146  1  0.92197391  0.25831596  0.55822236  1
  Se  Se147  1  0.91231974  0.57838159  0.04846094  1
  Se  Se148  1  0.92912088  0.59169921  0.56179087  1
  Se  Se149  1  0.92487196  0.91960427  0.05160311  1
  Se  Se150  1  0.91641337  0.91972279  0.54694537  1
  Se  Se151  1  0.08494290  0.24489496  0.44207006  1
  Se  Se152  1  0.08555670  0.24858815  0.94713684  1
  Se  Se153  1  0.09006767  0.57834130  0.44850792  1
  Se  Se154  1  0.08567500  0.57912831  0.95068739  1
  Se  Se155  1  0.08678718  0.92754746  0.43455086  1
  Se  Se156  1  0.07751989  0.92691281  0.94461222  1
  Se  Se157  1  0.42267323  0.25112414  0.45332222  1
  Se  Se158  1  0.41900267  0.25571450  0.94402845  1
  Se  Se159  1  0.41066316  0.58469822  0.43376554  1
  Se  Se160  1  0.41100775  0.58369158  0.94138714  1
  Se  Se161  1  0.41498574  0.91244867  0.44959458  1
  Se  Se162  1  0.41340943  0.90674406  0.95687706  1
  Se  Se163  1  0.74435556  0.25402080  0.44262644  1
  Se  Se164  1  0.74997346  0.24799216  0.94859337  1
  Se  Se165  1  0.74685233  0.58691029  0.43790107  1
  Se  Se166  1  0.74641646  0.57975629  0.95360852  1
  Se  Se167  1  0.75345845  0.91807156  0.44343523  1
  Se  Se168  1  0.74391552  0.92021965  0.93582554  1
  Se  Se169  1  0.24684764  0.08338834  0.44403782  1
  Se  Se170  1  0.27060166  0.06697482  0.95212955  1
  Se  Se171  1  0.26313762  0.40579687  0.44837991  1
  Se  Se172  1  0.24487906  0.42000006  0.94636652  1
  Se  Se173  1  0.25529464  0.74572905  0.43788573  1
  Se  Se174  1  0.25564010  0.74191931  0.93923664  1
  Se  Se175  1  0.58309013  0.08682575  0.44812812  1
  Se  Se176  1  0.58305488  0.08374036  0.94748565  1
  Se  Se177  1  0.58801528  0.41100757  0.44085738  1
  Se  Se178  1  0.58094516  0.40624541  0.93959912  1
  Se  Se179  1  0.57991854  0.75517031  0.44156981  1
  Se  Se180  1  0.57767696  0.74696883  0.95288767  1
  Se  Se181  1  0.92728608  0.08909459  0.43396158  1
  Se  Se182  1  0.91572296  0.08881431  0.95175647  1
  Se  Se183  1  0.92350130  0.41053618  0.44060003  1
  Se  Se184  1  0.91245008  0.41369118  0.94897564  1
  Se  Se185  1  0.91884052  0.75261207  0.44730419  1
  Se  Se186  1  0.92323189  0.74672206  0.93629161  1
  Se  Se187  1  0.24628914  0.24047798  0.31111648  1
  Se  Se188  1  0.25211616  0.24990396  0.80953114  1
  Se  Se189  1  0.24882692  0.58503207  0.29372331  1
  Se  Se190  1  0.25195480  0.58104609  0.80249976  1
  Se  Se191  1  0.25776547  0.92061718  0.29626633  1
  Se  Se192  1  0.23903204  0.91170387  0.81318001  1
  Se  Se193  1  0.58170964  0.25267653  0.29852759  1
  Se  Se194  1  0.59165026  0.24954128  0.79751771  1
  Se  Se195  1  0.58365014  0.58687107  0.30008110  1
  Se  Se196  1  0.57424944  0.57225523  0.81487207  1
  Se  Se197  1  0.57835151  0.92021047  0.31202545  1
  Se  Se198  1  0.57157412  0.91534994  0.81451124  1
  Se  Se199  1  0.91595907  0.25783999  0.29525579  1
  Se  Se200  1  0.92136647  0.24996378  0.80793369  1
  Se  Se201  1  0.91253539  0.57372417  0.31396174  1
  Se  Se202  1  0.91255486  0.57652121  0.81811216  1
  Se  Se203  1  0.91409103  0.91700828  0.30069211  1
  Se  Se204  1  0.92061427  0.92208553  0.80002894  1
  Se  Se205  1  0.06339619  0.06391805  0.30366045  1
  Se  Se206  1  0.08651880  0.08720793  0.80774335  1
  Se  Se207  1  0.08805787  0.40578970  0.30175189  1
  Se  Se208  1  0.08327165  0.41484646  0.80459086  1
  Se  Se209  1  0.09231676  0.75723843  0.31290994  1
  Se  Se210  1  0.09418887  0.75299558  0.80821783  1
  Se  Se211  1  0.41734757  0.08897489  0.30934781  1
  Se  Se212  1  0.42381046  0.09177853  0.81260019  1
  Se  Se213  1  0.41912013  0.42352295  0.30981841  1
  Se  Se214  1  0.41061014  0.41170470  0.79755097  1
  Se  Se215  1  0.41552688  0.75355490  0.30246735  1
  Se  Se216  1  0.41215661  0.74931749  0.80268501  1
  Se  Se217  1  0.75801725  0.09698776  0.30738755  1
  Se  Se218  1  0.75513330  0.08888885  0.81308797  1
  Se  Se219  1  0.74709794  0.41328115  0.30162888  1
  Se  Se220  1  0.74921299  0.40884679  0.80690229  1
  Se  Se221  1  0.74742538  0.74992454  0.30033806  1
  Se  Se222  1  0.75701909  0.76002265  0.80509161  1
  Se  Se223  1  0.26244301  0.08741530  0.19942703  1
  Se  Se224  1  0.24385194  0.09516036  0.69037708  1
  Se  Se225  1  0.24166415  0.41784293  0.18663438  1
  Se  Se226  1  0.24913204  0.41366262  0.69471415  1
  Se  Se227  1  0.25219146  0.74702811  0.19764122  1
  Se  Se228  1  0.25041064  0.75511623  0.69946733  1
  Se  Se229  1  0.57738599  0.08689629  0.18548406  1
  Se  Se230  1  0.56913306  0.09069900  0.69551136  1
  Se  Se231  1  0.57927296  0.41449526  0.19964707  1
  Se  Se232  1  0.58533852  0.41455821  0.69895020  1
  Se  Se233  1  0.58695012  0.75238813  0.20177529  1
  Se  Se234  1  0.57761060  0.75708194  0.69239876  1
  Se  Se235  1  0.91970882  0.08498816  0.19527134  1
  Se  Se236  1  0.92104880  0.08379127  0.69855692  1
  Se  Se237  1  0.91524159  0.41814365  0.19289472  1
  Se  Se238  1  0.92435847  0.41300481  0.70364037  1
  Se  Se239  1  0.91277221  0.75778066  0.18769496  1
  Se  Se240  1  0.91201805  0.75265698  0.68733206  1
  Se  Se241  1  0.08348463  0.25189451  0.20226898  1
  Se  Se242  1  0.07976592  0.25695923  0.69924875  1
  Se  Se243  1  0.08330216  0.57850192  0.18815935  1
  Se  Se244  1  0.09001556  0.57863603  0.68907498  1
  Se  Se245  1  0.08176613  0.91858490  0.20316743  1
  Se  Se246  1  0.08377117  0.91134479  0.69890729  1
  Se  Se247  1  0.41599228  0.23921474  0.18533213  1
  Se  Se248  1  0.40580918  0.24701272  0.69649125  1
  Se  Se249  1  0.41194263  0.58702633  0.19782025  1
  Se  Se250  1  0.41633602  0.58501989  0.69733972  1
  Se  Se251  1  0.42297149  0.92134034  0.19392487  1
  Se  Se252  1  0.41753112  0.91788195  0.69140973  1
  Se  Se253  1  0.74407167  0.25324432  0.19171003  1
  Se  Se254  1  0.75385058  0.24691488  0.69870244  1
  Se  Se255  1  0.74893585  0.58538435  0.20052422  1
  Se  Se256  1  0.76051936  0.57030219  0.69578017  1
  Se  Se257  1  0.76105972  0.91927728  0.18338285  1
  Se  Se258  1  0.75213223  0.91447298  0.68707278  1
