# generated using pymatgen
data_In86Cu29Se144
_symmetry_space_group_name_H-M   'P 1'
_cell_length_a   17.65339083
_cell_length_b   17.64972614
_cell_length_c   23.50997154
_cell_angle_alpha   89.98295167
_cell_angle_beta   89.98778090
_cell_angle_gamma   90.01704766
_symmetry_Int_Tables_number   1
_chemical_formula_structural   In86Cu29Se144
_chemical_formula_sum   'In86 Cu29 Se144'
_cell_volume   7325.17766273
_cell_formula_units_Z   1
loop_
 _symmetry_equiv_pos_site_id
 _symmetry_equiv_pos_as_xyz
  1  'x, y, z'
loop_
 _atom_site_type_symbol
 _atom_site_label
 _atom_site_symmetry_multiplicity
 _atom_site_fract_x
 _atom_site_fract_y
 _atom_site_fract_z
 _atom_site_occupancy
  In  In0  1  0.01128740  0.15453039  0.14640579  1
  In  In1  1  0.00730134  0.15635338  0.62192986  1
  In  In2  1  0.00113985  0.50423151  0.12409089  1
  In  In3  1  0.00860352  0.51327098  0.61930204  1
  In  In4  1  0.00966404  0.82866396  0.13360802  1
  In  In5  1  0.00170001  0.82005774  0.62446909  1
  In  In6  1  0.33062214  0.15602015  0.12128379  1
  In  In7  1  0.33280306  0.16382795  0.61277042  1
  In  In8  1  0.32490626  0.54104955  0.13118427  1
  In  In9  1  0.34455141  0.50634573  0.61942650  1
  In  In10  1  0.33264640  0.82787672  0.12131788  1
  In  In11  1  0.33195746  0.82714408  0.61853528  1
  In  In12  1  0.64938663  0.16622665  0.12727666  1
  In  In13  1  0.66721403  0.17468852  0.62258894  1
  In  In14  1  0.67722394  0.50045566  0.12455635  1
  In  In15  1  0.66008107  0.49153967  0.61521402  1
  In  In16  1  0.64751181  0.84694715  0.13288917  1
  In  In17  1  0.65535316  0.83569488  0.62220577  1
  In  In18  1  0.17196525  -0.00463794  0.37208850  1
  In  In19  1  0.22641099  -0.04614560  0.94685540  1
  In  In20  1  0.15418877  0.33153976  0.37133132  1
  In  In21  1  0.17551422  0.32383311  0.88663164  1
  In  In22  1  0.18290027  0.68211001  0.36456814  1
  In  In23  1  0.16578187  0.66947688  0.87192327  1
  In  In24  1  0.49187054  -0.00122111  0.36837513  1
  In  In25  1  0.49523501  -0.00282684  0.87958461  1
  In  In26  1  0.50180705  0.33067903  0.37987473  1
  In  In27  1  0.49419680  0.32379677  0.87336582  1
  In  In28  1  0.49734856  0.66816672  0.37819237  1
  In  In29  1  0.49383007  0.67438604  0.87760563  1
  In  In30  1  0.83500064  0.00191681  0.35923059  1
  In  In31  1  0.84161253  -0.00459753  0.88323329  1
  In  In32  1  0.84484161  0.33405819  0.37022512  1
  In  In33  1  0.83577196  0.34395284  0.87221435  1
  In  In34  1  0.82297339  0.65686609  0.37175517  1
  In  In35  1  0.83359469  0.65036365  0.87745911  1
  In  In36  1  0.00652295  0.17458104  0.36268747  1
  In  In37  1  0.01191785  0.16265613  0.88084306  1
  In  In38  1  -0.00568500  0.49331469  0.37049601  1
  In  In39  1  -0.00371202  0.50124361  0.88076661  1
  In  In40  1  0.01181520  0.84246643  0.36521631  1
  In  In41  1  0.01817619  0.83392556  0.87960056  1
  In  In42  1  0.34815150  0.14966455  0.37550914  1
  In  In43  1  0.33706514  0.15205711  0.89797155  1
  In  In44  1  0.34273379  0.51762467  0.36822385  1
  In  In45  1  0.31850049  0.50252464  0.87787784  1
  In  In46  1  0.33196136  0.82928139  0.37623109  1
  In  In47  1  0.34759754  0.80972448  0.88827191  1
  In  In48  1  0.65843041  0.15103250  0.36345226  1
  In  In49  1  0.65061561  0.16718615  0.87525277  1
  In  In50  1  0.65106956  0.51436504  0.38700816  1
  In  In51  1  0.67939116  0.50131703  0.87511086  1
  In  In52  1  0.65418254  0.82140364  0.36654924  1
  In  In53  1  0.65232578  0.82553836  0.87897570  1
  In  In54  1  0.16713763  0.00329958  0.13068188  1
  In  In55  1  0.17435762  -0.00043930  0.61720684  1
  In  In56  1  0.16068415  0.33193691  0.12186005  1
  In  In57  1  0.17627363  0.32768232  0.62191859  1
  In  In58  1  0.16178349  0.66787427  0.11754311  1
  In  In59  1  0.16098404  0.67314919  0.62951340  1
  In  In60  1  0.49198737  0.00066969  0.12208670  1
  In  In61  1  0.48827784  -0.00676937  0.61251429  1
  In  In62  1  0.50730699  0.33069520  0.12261777  1
  In  In63  1  0.50724721  0.34067947  0.61669113  1
  In  In64  1  0.47848448  0.68403440  0.14170164  1
  In  In65  1  0.49609132  0.66583956  0.62095093  1
  In  In66  1  0.82631731  0.01266049  0.14498476  1
  In  In67  1  0.82916591  -0.00163233  0.61823678  1
  In  In68  1  0.83259304  0.35092108  0.12437664  1
  In  In69  1  0.81915631  0.32932158  0.62428923  1
  In  In70  1  0.84223132  0.66033521  0.12926139  1
  In  In71  1  0.85058412  0.66419453  0.62081011  1
  In  In72  1  0.00555549  0.00116123  0.75447301  1
  In  In73  1  0.83369976  0.83135972  0.49301517  1
  In  In74  1  0.66973897  0.33366237  0.25344584  1
  In  In75  1  0.83979093  0.83163411  0.01439173  1
  In  In76  1  0.32633087  -0.01109817  0.75997737  1
  In  In77  1  0.83322928  0.16815796  0.48631503  1
  In  In78  1  0.82965011  0.17639170  0.01587385  1
  In  In79  1  0.66203537  0.00309239  0.75551825  1
  In  In80  1  0.66990833  0.66384879  0.74461364  1
  In  In81  1  0.00019570  0.33862853  0.75227460  1
  In  In82  1  0.33243870  0.33546341  0.24383204  1
  In  In83  1  0.16765638  0.50034788  0.49466708  1
  In  In84  1  0.33738483  0.33939557  0.74594370  1
  In  In85  1  0.50246708  0.49984337  0.00784002  1
  Cu  Cu86  1  0.65919855  -0.00233268  0.48808960  1
  Cu  Cu87  1  0.66676186  0.33369302  0.49847682  1
  Cu  Cu88  1  0.82912251  0.16873260  0.74975114  1
  Cu  Cu89  1  0.17319071  0.16714383  0.75574664  1
  Cu  Cu90  1  -0.00174354  0.34093676  0.00492653  1
  Cu  Cu91  1  -0.00202767  0.32693924  0.49224087  1
  Cu  Cu92  1  0.49463262  0.83588446  0.25088157  1
  Cu  Cu93  1  0.83578748  0.50237469  0.24943650  1
  Cu  Cu94  1  0.32671670  0.32582834  0.49390708  1
  Cu  Cu95  1  0.83622538  0.49760907  0.75182022  1
  Cu  Cu96  1  0.01242786  -0.00180944  0.49482582  1
  Cu  Cu97  1  0.83551616  0.82721425  0.24724325  1
  Cu  Cu98  1  0.83204941  0.82731065  0.74813633  1
  Cu  Cu99  1  0.66389873  0.66513204  0.49763129  1
  Cu  Cu100  1  0.16377694  0.50851912  0.75323748  1
  Cu  Cu101  1  0.33376383  -0.00304630  0.49293577  1
  Cu  Cu102  1  0.17272348  0.83696522  0.75519377  1
  Cu  Cu103  1  0.17263419  0.83443704  0.24765810  1
  Cu  Cu104  1  0.50179658  0.16713060  0.74940507  1
  Cu  Cu105  1  0.50365529  0.50388828  0.74010507  1
  Cu  Cu106  1  0.00371290  0.00401178  0.01312754  1
  Cu  Cu107  1  0.65841561  -0.00903579  0.00203831  1
  Cu  Cu108  1  0.66846659  0.33301861  0.00182295  1
  Cu  Cu109  1  0.17480600  0.16211108  0.24954669  1
  Cu  Cu110  1  -0.00008700  0.66337510  0.00076897  1
  Cu  Cu111  1  0.16014907  0.50655755  0.24931816  1
  Cu  Cu112  1  0.00650893  0.66838607  0.49704797  1
  Cu  Cu113  1  0.33617298  0.33481004  0.00715466  1
  Cu  Cu114  1  0.66016690  0.67317899  0.00312345  1
  Se  Se115  1  0.08449959  0.09112429  0.06366419  1
  Se  Se116  1  0.08982283  0.08361557  0.55063405  1
  Se  Se117  1  0.08534785  0.42278628  0.05463842  1
  Se  Se118  1  0.07719034  0.40528437  0.55609904  1
  Se  Se119  1  0.07578801  0.75482851  0.05185036  1
  Se  Se120  1  0.08660589  0.75107503  0.55177900  1
  Se  Se121  1  0.42465011  0.09282555  0.05134600  1
  Se  Se122  1  0.41679905  0.08412630  0.54504105  1
  Se  Se123  1  0.40756476  0.41848097  0.06956547  1
  Se  Se124  1  0.40709336  0.40810495  0.55303886  1
  Se  Se125  1  0.41328082  0.74110969  0.05455142  1
  Se  Se126  1  0.43672619  0.76682474  0.55644373  1
  Se  Se127  1  0.74077209  0.07180681  0.06000692  1
  Se  Se128  1  0.74066085  0.07679891  0.54948213  1
  Se  Se129  1  0.75104028  0.42086271  0.04876966  1
  Se  Se130  1  0.75370262  0.41460698  0.55002623  1
  Se  Se131  1  0.74040140  0.74782092  0.06760369  1
  Se  Se132  1  0.74632265  0.74445321  0.55980763  1
  Se  Se133  1  0.25137581  0.25084530  0.05873339  1
  Se  Se134  1  0.24297191  0.24378920  0.54757168  1
  Se  Se135  1  0.24084009  0.58112647  0.04915214  1
  Se  Se136  1  0.25042953  0.59032616  0.55867122  1
  Se  Se137  1  0.24398051  0.91865130  0.05920073  1
  Se  Se138  1  0.25278971  0.91482977  0.55059885  1
  Se  Se139  1  0.58280216  0.24888961  0.04967849  1
  Se  Se140  1  0.58394147  0.24812091  0.55125613  1
  Se  Se141  1  0.58520110  0.59362459  0.06785671  1
  Se  Se142  1  0.58143132  0.58367467  0.55396332  1
  Se  Se143  1  0.57107822  0.91066685  0.05190593  1
  Se  Se144  1  0.58356783  0.91706106  0.54941051  1
  Se  Se145  1  0.93017592  0.25695168  0.07050534  1
  Se  Se146  1  0.92058628  0.24955043  0.55847317  1
  Se  Se147  1  0.91393808  0.58170183  0.05248880  1
  Se  Se148  1  0.92188831  0.58191046  0.54602225  1
  Se  Se149  1  0.91883046  0.93120176  0.07296765  1
  Se  Se150  1  0.92765344  0.92211659  0.55520203  1
  Se  Se151  1  0.08250604  0.24340784  0.44307961  1
  Se  Se152  1  0.07678534  0.25474684  0.95061171  1
  Se  Se153  1  0.08239429  0.58933268  0.43210018  1
  Se  Se154  1  0.08277199  0.58652910  0.94197000  1
  Se  Se155  1  0.09100102  0.91061814  0.44311766  1
  Se  Se156  1  0.07605329  0.93062067  0.94761313  1
  Se  Se157  1  0.41563379  0.24606153  0.44365408  1
  Se  Se158  1  0.41845254  0.25269894  0.95080996  1
  Se  Se159  1  0.41936586  0.58031520  0.44717536  1
  Se  Se160  1  0.41143530  0.58328634  0.94378791  1
  Se  Se161  1  0.41850831  0.91473051  0.44138226  1
  Se  Se162  1  0.39206418  0.93248055  0.94101182  1
  Se  Se163  1  0.73815792  0.25539354  0.43103872  1
  Se  Se164  1  0.74750815  0.25255346  0.93942972  1
  Se  Se165  1  0.75293619  0.58164573  0.45139475  1
  Se  Se166  1  0.74344414  0.58795492  0.95091838  1
  Se  Se167  1  0.74687838  0.92212177  0.43248519  1
  Se  Se168  1  0.74496244  0.91343527  0.94559449  1
  Se  Se169  1  0.25060967  0.08203796  0.44182718  1
  Se  Se170  1  0.21217856  0.10195378  0.93453664  1
  Se  Se171  1  0.25571995  0.41229522  0.43238241  1
  Se  Se172  1  0.25224901  0.41487049  0.95114993  1
  Se  Se173  1  0.25042244  0.74789077  0.44621307  1
  Se  Se174  1  0.23012806  0.76297126  0.94315925  1
  Se  Se175  1  0.57649549  0.08307816  0.43878408  1
  Se  Se176  1  0.58288072  0.07734197  0.94528379  1
  Se  Se177  1  0.57837489  0.41648274  0.44959629  1
  Se  Se178  1  0.58772683  0.41184461  0.93931492  1
  Se  Se179  1  0.58297317  0.75231143  0.44754323  1
  Se  Se180  1  0.57265881  0.75164002  0.95205294  1
  Se  Se181  1  0.92611072  0.07358851  0.43557766  1
  Se  Se182  1  0.91969894  0.08280653  0.95327929  1
  Se  Se183  1  0.91583152  0.41553826  0.44569334  1
  Se  Se184  1  0.91326296  0.41657993  0.94772945  1
  Se  Se185  1  0.92555255  0.74544301  0.43417988  1
  Se  Se186  1  0.91915780  0.74721499  0.94131986  1
  Se  Se187  1  0.24990618  0.24673599  0.31041918  1
  Se  Se188  1  0.25822591  0.24614168  0.81104691  1
  Se  Se189  1  0.25174290  0.58527788  0.29785860  1
  Se  Se190  1  0.25257464  0.58781033  0.80316191  1
  Se  Se191  1  0.25539562  0.91404557  0.30358082  1
  Se  Se192  1  0.23925420  0.91047602  0.82583618  1
  Se  Se193  1  0.57016458  0.24324452  0.30241853  1
  Se  Se194  1  0.58291018  0.25336327  0.80141791  1
  Se  Se195  1  0.58606224  0.59076017  0.30947121  1
  Se  Se196  1  0.58068456  0.57837973  0.80883185  1
  Se  Se197  1  0.58202083  0.91670180  0.30247712  1
  Se  Se198  1  0.57092643  0.90764169  0.80657350  1
  Se  Se199  1  0.91257398  0.24786853  0.29899870  1
  Se  Se200  1  0.91467654  0.24022641  0.80998134  1
  Se  Se201  1  0.91769176  0.58545380  0.30507791  1
  Se  Se202  1  0.91896451  0.57899291  0.80497681  1
  Se  Se203  1  0.91941924  0.91421481  0.29748111  1
  Se  Se204  1  0.91097173  0.90712876  0.80891356  1
  Se  Se205  1  0.08898859  0.08086541  0.30362029  1
  Se  Se206  1  0.09766061  0.08241567  0.81357666  1
  Se  Se207  1  0.08147207  0.41754777  0.30037492  1
  Se  Se208  1  0.09591730  0.41812772  0.81355396  1
  Se  Se209  1  0.08586692  0.75016455  0.29852506  1
  Se  Se210  1  0.08213127  0.75304297  0.80177301  1
  Se  Se211  1  0.41613639  0.08049582  0.29510324  1
  Se  Se212  1  0.41808974  0.09342864  0.80974360  1
  Se  Se213  1  0.42376051  0.41833804  0.30782820  1
  Se  Se214  1  0.42495535  0.42906823  0.80814292  1
  Se  Se215  1  0.41651311  0.74969289  0.30564298  1
  Se  Se216  1  0.41553985  0.74820705  0.80402489  1
  Se  Se217  1  0.75521382  0.09089898  0.29666811  1
  Se  Se218  1  0.75964189  0.08716219  0.81540582  1
  Se  Se219  1  0.75319956  0.42878200  0.31358158  1
  Se  Se220  1  0.74852656  0.41533148  0.80068920  1
  Se  Se221  1  0.75120144  0.74834398  0.30380866  1
  Se  Se222  1  0.75471032  0.75385999  0.81323913  1
  Se  Se223  1  0.25801305  0.07880570  0.19887464  1
  Se  Se224  1  0.24965537  0.08837460  0.69231817  1
  Se  Se225  1  0.24367170  0.43048920  0.18743716  1
  Se  Se226  1  0.24093547  0.42935798  0.68974231  1
  Se  Se227  1  0.24512262  0.74856673  0.18904100  1
  Se  Se228  1  0.24863064  0.75663467  0.69377841  1
  Se  Se229  1  0.58894639  0.06646951  0.19101251  1
  Se  Se230  1  0.57540701  0.08480229  0.68672326  1
  Se  Se231  1  0.58126841  0.42311338  0.19161526  1
  Se  Se232  1  0.58540103  0.41560402  0.69245853  1
  Se  Se233  1  0.58262923  0.75078988  0.20159221  1
  Se  Se234  1  0.57676066  0.75789808  0.69577177  1
  Se  Se235  1  0.91070140  0.09304086  0.21028543  1
  Se  Se236  1  0.90694513  0.08661130  0.69169271  1
  Se  Se237  1  0.91959317  0.42104066  0.19583252  1
  Se  Se238  1  0.91383852  0.42138113  0.68528437  1
  Se  Se239  1  0.92163960  0.74533065  0.19728286  1
  Se  Se240  1  0.91810053  0.74683824  0.69705903  1
  Se  Se241  1  0.09348692  0.25309943  0.20141916  1
  Se  Se242  1  0.09116309  0.24281361  0.69506691  1
  Se  Se243  1  0.08083720  0.59000768  0.19216610  1
  Se  Se244  1  0.07928805  0.58646532  0.69757528  1
  Se  Se245  1  0.08530312  0.91953283  0.19940073  1
  Se  Se246  1  0.09136999  0.91205003  0.69019025  1
  Se  Se247  1  0.42246549  0.24290675  0.18850698  1
  Se  Se248  1  0.42147639  0.24305745  0.68609151  1
  Se  Se249  1  0.42936540  0.57115963  0.20176102  1
  Se  Se250  1  0.41632809  0.58713771  0.69443587  1
  Se  Se251  1  0.41356336  0.91191172  0.19065634  1
  Se  Se252  1  0.41715974  0.91500194  0.69135848  1
  Se  Se253  1  0.75163351  0.25036634  0.18394006  1
  Se  Se254  1  0.74463185  0.24959073  0.69811923  1
  Se  Se255  1  0.75138494  0.58411820  0.19681815  1
  Se  Se256  1  0.75975805  0.57442356  0.68541803  1
  Se  Se257  1  0.74820736  0.91144254  0.19920511  1
  Se  Se258  1  0.75462828  0.91227715  0.69280148  1
