# generated using pymatgen
data_In86Cu29Se144
_symmetry_space_group_name_H-M   'P 1'
_cell_length_a   17.58251925
_cell_length_b   17.57792135
_cell_length_c   23.44378849
_cell_angle_alpha   89.97388454
_cell_angle_beta   89.99675214
_cell_angle_gamma   89.99571077
_symmetry_Int_Tables_number   1
_chemical_formula_structural   In86Cu29Se144
_chemical_formula_sum   'In86 Cu29 Se144'
_cell_volume   7245.63355687
_cell_formula_units_Z   1
loop_
 _symmetry_equiv_pos_site_id
 _symmetry_equiv_pos_as_xyz
  1  'x, y, z'
loop_
 _atom_site_type_symbol
 _atom_site_label
 _atom_site_symmetry_multiplicity
 _atom_site_fract_x
 _atom_site_fract_y
 _atom_site_fract_z
 _atom_site_occupancy
  In  In0  1  0.00119963  0.16158414  0.11939837  1
  In  In1  1  0.00406638  0.15746795  0.63374219  1
  In  In2  1  -0.01722247  0.48847801  0.11540238  1
  In  In3  1  -0.00038999  0.48565874  0.62771116  1
  In  In4  1  -0.00694816  0.84201798  0.12044551  1
  In  In5  1  0.01029054  0.84568272  0.61778780  1
  In  In6  1  0.34283929  0.17615786  0.12036750  1
  In  In7  1  0.32426977  0.15635840  0.61889110  1
  In  In8  1  0.32460783  0.47952549  0.12374915  1
  In  In9  1  0.33280585  0.51519118  0.62640305  1
  In  In10  1  0.33331116  0.85028030  0.12601064  1
  In  In11  1  0.33439064  0.83514931  0.62616098  1
  In  In12  1  0.65664377  0.15605296  0.11284135  1
  In  In13  1  0.64959661  0.16740185  0.62286525  1
  In  In14  1  0.66416853  0.48765138  0.10149836  1
  In  In15  1  0.67415294  0.50401470  0.63014662  1
  In  In16  1  0.67734724  0.82996408  0.12590649  1
  In  In17  1  0.66902998  0.83315663  0.62487027  1
  In  In18  1  0.15847358  0.00916879  0.38119295  1
  In  In19  1  0.16883329  0.00758750  0.86967217  1
  In  In20  1  0.16575700  0.33166674  0.37657620  1
  In  In21  1  0.15216206  0.32858095  0.87096582  1
  In  In22  1  0.16559138  0.66512228  0.38781571  1
  In  In23  1  0.17466513  0.66160637  0.86874861  1
  In  In24  1  0.50634171  -0.00751090  0.38112916  1
  In  In25  1  0.50170284  -0.00055586  0.87156547  1
  In  In26  1  0.47914916  0.33045440  0.36976884  1
  In  In27  1  0.51698162  0.32538543  0.89305631  1
  In  In28  1  0.51403224  0.67997190  0.38012285  1
  In  In29  1  0.49745569  0.66236757  0.86744414  1
  In  In30  1  0.83370810  -0.00716257  0.36950331  1
  In  In31  1  0.83248816  0.00504065  0.87613813  1
  In  In32  1  0.83749991  0.31933210  0.36454320  1
  In  In33  1  0.84088970  0.30740192  0.89615082  1
  In  In34  1  0.84159980  0.67043967  0.37947355  1
  In  In35  1  0.82908941  0.68549908  0.88416772  1
  In  In36  1  0.02390586  0.17422297  0.35460121  1
  In  In37  1  -0.00250383  0.16533095  0.87664124  1
  In  In38  1  0.00554378  0.50377859  0.37378270  1
  In  In39  1  0.00488815  0.48971398  0.87788649  1
  In  In40  1  -0.00634745  0.84340230  0.38340816  1
  In  In41  1  -0.01654093  0.84310464  0.87974893  1
  In  In42  1  0.32306528  0.17026881  0.38009834  1
  In  In43  1  0.34510061  0.16138786  0.88160130  1
  In  In44  1  0.33160672  0.48460593  0.37483510  1
  In  In45  1  0.33832584  0.51044912  0.87046571  1
  In  In46  1  0.33794489  0.83124696  0.38655380  1
  In  In47  1  0.33325542  0.83660365  0.86213667  1
  In  In48  1  0.66874762  0.14503386  0.37080343  1
  In  In49  1  0.67425990  0.15502853  0.88770064  1
  In  In50  1  0.67556110  0.50470374  0.37313729  1
  In  In51  1  0.66317711  0.50353207  0.87784831  1
  In  In52  1  0.65150816  0.85292528  0.39792427  1
  In  In53  1  0.67627804  0.84599721  0.86353586  1
  In  In54  1  0.13885694  0.01913993  0.14074888  1
  In  In55  1  0.16713826  0.00225943  0.62463353  1
  In  In56  1  0.17625806  0.31051339  0.13748388  1
  In  In57  1  0.15533831  0.32008793  0.61686286  1
  In  In58  1  0.16932852  0.67021723  0.12823082  1
  In  In59  1  0.17739904  0.67622358  0.61863821  1
  In  In60  1  0.49847006  0.02223068  0.13509838  1
  In  In61  1  0.49913437  -0.00231901  0.62645160  1
  In  In62  1  0.49484885  0.31872768  0.10844816  1
  In  In63  1  0.50535628  0.32200734  0.62088929  1
  In  In64  1  0.51450529  0.66616985  0.12571373  1
  In  In65  1  0.49719987  0.67255092  0.63051578  1
  In  In66  1  0.83258762  -0.00368454  0.11880219  1
  In  In67  1  0.84308937  -0.00901497  0.63444193  1
  In  In68  1  0.83906062  0.33456941  0.11621255  1
  In  In69  1  0.83625633  0.34205904  0.62903997  1
  In  In70  1  0.83065628  0.66259770  0.10843667  1
  In  In71  1  0.81778032  0.67664569  0.63337140  1
  In  In72  1  0.67281072  0.32994493  0.76119255  1
  In  In73  1  -0.00048852  0.66121081  0.24527714  1
  In  In74  1  0.33260374  0.00496157  0.25486386  1
  In  In75  1  0.33843748  0.66234086  0.26613077  1
  In  In76  1  0.49432569  0.50177277  0.50299959  1
  In  In77  1  0.16681240  0.49593095  -0.00767456  1
  In  In78  1  0.00303977  0.67052040  0.75559354  1
  In  In79  1  0.83515750  0.50545891  0.50194126  1
  In  In80  1  0.33337546  0.33852197  0.75210256  1
  In  In81  1  0.67223902  0.67248811  0.25054006  1
  In  In82  1  0.65844384  0.31920412  0.23346998  1
  In  In83  1  0.83773966  0.15802903  0.49604680  1
  In  In84  1  0.50232297  0.83662508  0.00149268  1
  In  In85  1  0.15819350  0.83988008  -0.00368441  1
  Cu  Cu86  1  0.50184333  0.83177537  0.74553406  1
  Cu  Cu87  1  0.00477228  0.00725480  0.49976980  1
  Cu  Cu88  1  0.16863975  0.50148493  0.74997726  1
  Cu  Cu89  1  0.66362824  0.66852848  -0.00562407  1
  Cu  Cu90  1  0.82496890  0.49352936  0.23773281  1
  Cu  Cu91  1  0.83260823  0.84022472  0.24961157  1
  Cu  Cu92  1  0.16623222  0.82995934  0.25478683  1
  Cu  Cu93  1  0.84376328  0.15476802  0.24367902  1
  Cu  Cu94  1  0.33958962  0.66552307  -0.00373840  1
  Cu  Cu95  1  0.33535398  0.33030520  0.00005150  1
  Cu  Cu96  1  0.66729819  -0.00426994  -0.00352944  1
  Cu  Cu97  1  0.16556695  0.84187022  0.74326027  1
  Cu  Cu98  1  0.49658805  0.15556956  0.75097700  1
  Cu  Cu99  1  0.66867114  -0.00247929  0.50348350  1
  Cu  Cu100  1  0.49534854  0.50045883  0.24354085  1
  Cu  Cu101  1  0.65690835  0.32980912  0.49382200  1
  Cu  Cu102  1  0.32419427  0.33057674  0.49725227  1
  Cu  Cu103  1  -0.00092348  0.66988012  0.50408095  1
  Cu  Cu104  1  0.32432481  0.00574946  0.00161607  1
  Cu  Cu105  1  0.83078778  0.16703776  0.75982136  1
  Cu  Cu106  1  0.50364952  0.50041965  0.75234225  1
  Cu  Cu107  1  0.83569980  0.49954815  0.75386138  1
  Cu  Cu108  1  0.33694772  -0.00112997  0.50374368  1
  Cu  Cu109  1  0.00206125  0.32810622  0.49719504  1
  Cu  Cu110  1  0.33128495  0.66776767  0.50336731  1
  Cu  Cu111  1  0.15910051  0.48340798  0.25019455  1
  Cu  Cu112  1  0.16054881  0.16698152  0.74703523  1
  Cu  Cu113  1  0.00677842  0.32470969  0.00233733  1
  Cu  Cu114  1  0.83087764  0.83799399  0.75264455  1
  Se  Se115  1  0.08557770  0.07991091  0.05070445  1
  Se  Se116  1  0.08475559  0.08970768  0.55633507  1
  Se  Se117  1  0.08905850  0.40664606  0.06054679  1
  Se  Se118  1  0.08050928  0.41587385  0.55142388  1
  Se  Se119  1  0.07877968  0.74253315  0.05906529  1
  Se  Se120  1  0.08650198  0.75348045  0.55303871  1
  Se  Se121  1  0.41678244  0.08058125  0.05419471  1
  Se  Se122  1  0.42102181  0.08401063  0.55529251  1
  Se  Se123  1  0.41589944  0.41923516  0.05059492  1
  Se  Se124  1  0.40448499  0.40700601  0.56199779  1
  Se  Se125  1  0.40908540  0.74683641  0.06263449  1
  Se  Se126  1  0.41614688  0.74839682  0.55721530  1
  Se  Se127  1  0.75039766  0.08121447  0.04886391  1
  Se  Se128  1  0.74770856  0.07941888  0.56408807  1
  Se  Se129  1  0.78222907  0.43971472  0.05028052  1
  Se  Se130  1  0.73879197  0.40705915  0.55473648  1
  Se  Se131  1  0.74548296  0.75305141  0.04746343  1
  Se  Se132  1  0.75677745  0.75633152  0.55534526  1
  Se  Se133  1  0.24922140  0.24906554  0.05269498  1
  Se  Se134  1  0.24498587  0.24349695  0.55120952  1
  Se  Se135  1  0.25574979  0.58813137  0.05656512  1
  Se  Se136  1  0.24693112  0.57947444  0.55076206  1
  Se  Se137  1  0.24187549  0.93023936  0.06262944  1
  Se  Se138  1  0.25055278  0.91749656  0.55732015  1
  Se  Se139  1  0.61197264  0.27153814  0.05163671  1
  Se  Se140  1  0.57622671  0.24319963  0.54463848  1
  Se  Se141  1  0.57935357  0.58675944  0.04789075  1
  Se  Se142  1  0.58905300  0.58650325  0.56130546  1
  Se  Se143  1  0.58651600  0.92614693  0.06465967  1
  Se  Se144  1  0.58345946  0.91626562  0.55733177  1
  Se  Se145  1  0.91532125  0.24323648  0.04976266  1
  Se  Se146  1  0.91879381  0.25404779  0.55959015  1
  Se  Se147  1  0.92834606  0.58933977  0.04872267  1
  Se  Se148  1  0.92118117  0.59173546  0.56829776  1
  Se  Se149  1  0.90636227  0.90738420  0.04832504  1
  Se  Se150  1  0.91885443  0.92540455  0.55284966  1
  Se  Se151  1  0.08194894  0.24329103  0.44263606  1
  Se  Se152  1  0.08843740  0.24327714  0.94617552  1
  Se  Se153  1  0.07676782  0.58079754  0.45101412  1
  Se  Se154  1  0.07929362  0.59560367  0.93980987  1
  Se  Se155  1  0.08696987  0.91646983  0.44994672  1
  Se  Se156  1  0.07147360  0.93572766  0.94121629  1
  Se  Se157  1  0.41389032  0.25035166  0.44790585  1
  Se  Se158  1  0.42287809  0.24415520  0.95282340  1
  Se  Se159  1  0.40893270  0.59138255  0.43660291  1
  Se  Se160  1  0.42174732  0.58310830  0.94379200  1
  Se  Se161  1  0.42190310  0.91480637  0.45230892  1
  Se  Se162  1  0.40321599  0.91995794  0.94359087  1
  Se  Se163  1  0.74402330  0.25231736  0.43826809  1
  Se  Se164  1  0.71656019  0.27106995  0.94861329  1
  Se  Se165  1  0.74038485  0.59635774  0.44676129  1
  Se  Se166  1  0.75106907  0.58722276  0.94330718  1
  Se  Se167  1  0.76141224  0.92228660  0.45118742  1
  Se  Se168  1  0.75168381  0.91420837  0.94319456  1
  Se  Se169  1  0.25080512  0.08026380  0.44987891  1
  Se  Se170  1  0.24633912  0.08770103  0.94360396  1
  Se  Se171  1  0.24333583  0.41925704  0.44791925  1
  Se  Se172  1  0.26012448  0.40656186  0.93263885  1
  Se  Se173  1  0.24728524  0.75308843  0.45189205  1
  Se  Se174  1  0.25791157  0.74859270  0.94087441  1
  Se  Se175  1  0.58692284  0.08157357  0.44921499  1
  Se  Se176  1  0.57598404  0.07715219  0.94796890  1
  Se  Se177  1  0.58334117  0.41652546  0.43508740  1
  Se  Se178  1  0.57663471  0.43316042  0.95022211  1
  Se  Se179  1  0.58678709  0.74885643  0.45805560  1
  Se  Se180  1  0.58676969  0.75256601  0.93406296  1
  Se  Se181  1  0.93108506  0.08205721  0.43088806  1
  Se  Se182  1  0.89204459  0.10812779  0.94194372  1
  Se  Se183  1  0.91596547  0.40653357  0.43951309  1
  Se  Se184  1  0.92437845  0.40973677  0.94889807  1
  Se  Se185  1  0.91667521  0.75299133  0.45078819  1
  Se  Se186  1  0.92407177  0.75169137  0.95187459  1
  Se  Se187  1  0.25279482  0.25533449  0.30772386  1
  Se  Se188  1  0.24620621  0.24215396  0.80827598  1
  Se  Se189  1  0.23321519  0.57166887  0.31024516  1
  Se  Se190  1  0.25639418  0.58557862  0.79646611  1
  Se  Se191  1  0.24744670  0.90827000  0.31436887  1
  Se  Se192  1  0.24897162  0.92348757  0.79966997  1
  Se  Se193  1  0.58311513  0.24760352  0.31387984  1
  Se  Se194  1  0.57654488  0.23683119  0.81142041  1
  Se  Se195  1  0.57488813  0.57727923  0.30594747  1
  Se  Se196  1  0.58946521  0.58425465  0.80204873  1
  Se  Se197  1  0.59540476  0.91987855  0.31122265  1
  Se  Se198  1  0.58103343  0.91914145  0.79984817  1
  Se  Se199  1  0.92131476  0.24594873  0.29411693  1
  Se  Se200  1  0.91393009  0.25425031  0.80871717  1
  Se  Se201  1  0.90165264  0.57223653  0.30362826  1
  Se  Se202  1  0.91364528  0.58117146  0.81568671  1
  Se  Se203  1  0.92475875  0.91538357  0.30165542  1
  Se  Se204  1  0.91393566  0.92327818  0.80363582  1
  Se  Se205  1  0.09036541  0.07000816  0.29579504  1
  Se  Se206  1  0.07786960  0.08568435  0.80338810  1
  Se  Se207  1  0.07338907  0.40925216  0.30731828  1
  Se  Se208  1  0.08300121  0.41858213  0.80005326  1
  Se  Se209  1  0.08468659  0.74808437  0.31232807  1
  Se  Se210  1  0.09177541  0.76606536  0.81286090  1
  Se  Se211  1  0.42286671  0.08867875  0.31722083  1
  Se  Se212  1  0.40986790  0.07696507  0.80467162  1
  Se  Se213  1  0.41168922  0.41808019  0.29638525  1
  Se  Se214  1  0.43284903  0.41462294  0.81418881  1
  Se  Se215  1  0.43031365  0.76410542  0.30957652  1
  Se  Se216  1  0.41699537  0.74874962  0.79969570  1
  Se  Se217  1  0.75645431  0.07786012  0.29844970  1
  Se  Se218  1  0.74244961  0.08259088  0.80610867  1
  Se  Se219  1  0.74725531  0.41314571  0.30047668  1
  Se  Se220  1  0.76419509  0.41732999  0.81912528  1
  Se  Se221  1  0.75851782  0.75937848  0.31371672  1
  Se  Se222  1  0.75148763  0.74702588  0.80171661  1
  Se  Se223  1  0.24953602  0.09515573  0.19181453  1
  Se  Se224  1  0.24819402  0.08478821  0.69662264  1
  Se  Se225  1  0.25215574  0.40636467  0.20155537  1
  Se  Se226  1  0.24294755  0.41945697  0.68590191  1
  Se  Se227  1  0.25381453  0.75522574  0.19767326  1
  Se  Se228  1  0.24911469  0.75239006  0.69623473  1
  Se  Se229  1  0.58723433  0.09916524  0.19955000  1
  Se  Se230  1  0.58487325  0.07987500  0.69652132  1
  Se  Se231  1  0.57704515  0.42549867  0.18242456  1
  Se  Se232  1  0.58006979  0.41509234  0.69294917  1
  Se  Se233  1  0.57565693  0.76354405  0.19655186  1
  Se  Se234  1  0.58897797  0.74830820  0.69633798  1
  Se  Se235  1  0.92267327  0.07083854  0.18797578  1
  Se  Se236  1  0.91286346  0.08575275  0.70202091  1
  Se  Se237  1  0.91588214  0.41036855  0.19448059  1
  Se  Se238  1  0.91815433  0.41389150  0.70318700  1
  Se  Se239  1  0.90352911  0.74902234  0.18971285  1
  Se  Se240  1  0.91788820  0.76100120  0.69240791  1
  Se  Se241  1  0.06682399  0.25159493  0.19333850  1
  Se  Se242  1  0.07808085  0.25538551  0.69780990  1
  Se  Se243  1  0.08923467  0.56775688  0.18626646  1
  Se  Se244  1  0.08803259  0.58266382  0.68882400  1
  Se  Se245  1  0.08197370  0.90453918  0.19620996  1
  Se  Se246  1  0.07834625  0.92536024  0.69548592  1
  Se  Se247  1  0.43266891  0.24620782  0.19039403  1
  Se  Se248  1  0.41995354  0.24304022  0.69269477  1
  Se  Se249  1  0.41339214  0.58254933  0.18646886  1
  Se  Se250  1  0.41946940  0.58265264  0.69909970  1
  Se  Se251  1  0.42795088  0.91391844  0.19687448  1
  Se  Se252  1  0.41553937  0.91728830  0.69665104  1
  Se  Se253  1  0.76260442  0.23628222  0.18388117  1
  Se  Se254  1  0.75435896  0.24194453  0.69041071  1
  Se  Se255  1  0.74678299  0.57848164  0.18221217  1
  Se  Se256  1  0.75087462  0.58265844  0.70331276  1
  Se  Se257  1  0.74905483  0.92005005  0.19424656  1
  Se  Se258  1  0.74595196  0.91853183  0.69768915  1
