# generated using pymatgen
data_In86Cu29Se144
_symmetry_space_group_name_H-M   'P 1'
_cell_length_a   17.59263093
_cell_length_b   17.59343683
_cell_length_c   23.44907856
_cell_angle_alpha   90.00006891
_cell_angle_beta   90.00335532
_cell_angle_gamma   90.00829248
_symmetry_Int_Tables_number   1
_chemical_formula_structural   In86Cu29Se144
_chemical_formula_sum   'In86 Cu29 Se144'
_cell_volume   7257.83773206
_cell_formula_units_Z   1
loop_
 _symmetry_equiv_pos_site_id
 _symmetry_equiv_pos_as_xyz
  1  'x, y, z'
loop_
 _atom_site_type_symbol
 _atom_site_label
 _atom_site_symmetry_multiplicity
 _atom_site_fract_x
 _atom_site_fract_y
 _atom_site_fract_z
 _atom_site_occupancy
  In  In0  1  -0.00226067  0.17587919  0.12938870  1
  In  In1  1  0.01175125  0.16505906  0.62463981  1
  In  In2  1  -0.00116143  0.49853971  0.13135376  1
  In  In3  1  -0.00710923  0.50113300  0.62907248  1
  In  In4  1  -0.01374555  0.84272404  0.14311144  1
  In  In5  1  -0.00137284  0.82926022  0.61220169  1
  In  In6  1  0.33723378  0.16338034  0.13165614  1
  In  In7  1  0.32415969  0.17292928  0.62954156  1
  In  In8  1  0.31944855  0.51015066  0.12700842  1
  In  In9  1  0.33770097  0.48162402  0.62111087  1
  In  In10  1  0.33724651  0.82884651  0.12899713  1
  In  In11  1  0.33927981  0.84046222  0.61940587  1
  In  In12  1  0.68076149  0.17262249  0.12050515  1
  In  In13  1  0.67923559  0.17356655  0.62648330  1
  In  In14  1  0.69066411  0.48764823  0.14501868  1
  In  In15  1  0.65944636  0.49818541  0.62427798  1
  In  In16  1  0.66159577  0.82626767  0.12990007  1
  In  In17  1  0.66865228  0.82922933  0.61352939  1
  In  In18  1  0.16548062  -0.00009015  0.37353275  1
  In  In19  1  0.17099156  -0.00622059  0.87309449  1
  In  In20  1  0.15866613  0.32727035  0.37165638  1
  In  In21  1  0.17059767  0.34470693  0.86750905  1
  In  In22  1  0.18020497  0.67370805  0.36968531  1
  In  In23  1  0.15671521  0.66400041  0.87951407  1
  In  In24  1  0.48323710  -0.00186003  0.37189181  1
  In  In25  1  0.48623945  -0.00233830  0.87822512  1
  In  In26  1  0.51121432  0.35094697  0.36916846  1
  In  In27  1  0.49723340  0.33313550  0.86932261  1
  In  In28  1  0.49707999  0.66858820  0.37402802  1
  In  In29  1  0.50934574  0.66613667  0.88372972  1
  In  In30  1  0.83233315  -0.02214340  0.36382710  1
  In  In31  1  0.83663010  0.00401938  0.89378487  1
  In  In32  1  0.84013319  0.34822880  0.35732591  1
  In  In33  1  0.83362210  0.33369233  0.88204823  1
  In  In34  1  0.86809385  0.69823002  0.32033746  1
  In  In35  1  0.83161625  0.66442361  0.89350832  1
  In  In36  1  0.00749696  0.17441301  0.37062997  1
  In  In37  1  -0.01785427  0.17439018  0.88611763  1
  In  In38  1  -0.00635911  0.51288174  0.35259919  1
  In  In39  1  0.00896418  0.48801794  0.89066732  1
  In  In40  1  0.00490594  0.83973826  0.36582840  1
  In  In41  1  -0.00194994  0.82642658  0.88433037  1
  In  In42  1  0.32229047  0.15794270  0.36885743  1
  In  In43  1  0.32891324  0.16493026  0.86948192  1
  In  In44  1  0.34503953  0.50998800  0.36969238  1
  In  In45  1  0.33830863  0.49371827  0.87748927  1
  In  In46  1  0.32971019  0.83423688  0.37702018  1
  In  In47  1  0.32865043  0.84581000  0.87878040  1
  In  In48  1  0.66755955  0.18062216  0.37129211  1
  In  In49  1  0.66804934  0.17889122  0.87980622  1
  In  In50  1  0.66637763  0.50423948  0.36536665  1
  In  In51  1  0.67648770  0.49855588  0.88393870  1
  In  In52  1  0.67802378  0.81672265  0.37486899  1
  In  In53  1  0.66827080  0.83167608  0.88703237  1
  In  In54  1  0.16748968  -0.00401614  0.13381013  1
  In  In55  1  0.17187608  0.01172165  0.61645936  1
  In  In56  1  0.15748867  0.34389707  0.12960681  1
  In  In57  1  0.18086186  0.32789236  0.63047049  1
  In  In58  1  0.17532489  0.65300293  0.13123190  1
  In  In59  1  0.15322282  0.66902369  0.61730876  1
  In  In60  1  0.49558948  -0.01271562  0.12617071  1
  In  In61  1  0.49652033  -0.01503992  0.62104509  1
  In  In62  1  0.50355862  0.33121232  0.12838060  1
  In  In63  1  0.49634810  0.33330459  0.62565136  1
  In  In64  1  0.48917085  0.67542663  0.12907164  1
  In  In65  1  0.50446364  0.66687505  0.61276769  1
  In  In66  1  0.84660836  0.00482561  0.11783771  1
  In  In67  1  0.84473556  -0.00426261  0.62104383  1
  In  In68  1  0.83526873  0.34096944  0.12774156  1
  In  In69  1  0.83464620  0.33546946  0.63695070  1
  In  In70  1  0.83277929  0.66732847  0.13577349  1
  In  In71  1  0.82749348  0.66390770  0.61922944  1
  In  In72  1  -0.00087256  0.66090914  0.74993896  1
  In  In73  1  0.00383160  0.00480980  0.75277364  1
  In  In74  1  0.83801252  0.16184526  0.49837722  1
  In  In75  1  0.50058823  0.50615005  0.00726062  1
  In  In76  1  0.16262789  0.16275583  -0.00060680  1
  In  In77  1  0.16149351  0.82794518  0.00894303  1
  In  In78  1  0.65981461  0.00769204  0.74873985  1
  In  In79  1  0.83107390  0.50677208  0.48276163  1
  In  In80  1  0.66239602  0.00297819  0.24288763  1
  In  In81  1  0.50689754  0.16092590  0.00561003  1
  In  In82  1  0.33215657  0.66182197  0.75255093  1
  In  In83  1  0.49761296  0.16561407  0.49457332  1
  In  In84  1  0.17062921  0.49976343  0.49720650  1
  In  In85  1  0.66620012  0.66192192  0.74906662  1
  Cu  Cu86  1  0.83856117  0.49091971  0.76193516  1
  Cu  Cu87  1  0.16585897  0.17302770  0.74962290  1
  Cu  Cu88  1  0.66282059  -0.01078586  0.49292595  1
  Cu  Cu89  1  0.17176829  0.84008620  0.74521687  1
  Cu  Cu90  1  0.49623490  0.17254088  0.25304726  1
  Cu  Cu91  1  0.33604047  0.67008527  0.49451558  1
  Cu  Cu92  1  0.49724625  0.48984865  0.74719389  1
  Cu  Cu93  1  -0.00578468  0.66693825  0.01215764  1
  Cu  Cu94  1  0.32691747  -0.00313455  0.49600771  1
  Cu  Cu95  1  0.33629943  0.32863249  0.50040813  1
  Cu  Cu96  1  -0.00371996  0.67306917  0.48254816  1
  Cu  Cu97  1  0.66949354  0.67039794  0.49177186  1
  Cu  Cu98  1  -0.00585626  0.33933161  0.00764806  1
  Cu  Cu99  1  0.83457997  0.16983510  0.24398306  1
  Cu  Cu100  1  0.49348240  0.50421794  0.24586521  1
  Cu  Cu101  1  0.16950455  0.83122265  0.25077905  1
  Cu  Cu102  1  -0.00359160  -0.01050747  0.49299973  1
  Cu  Cu103  1  0.32783514  0.33084346  -0.00102771  1
  Cu  Cu104  1  0.83117370  0.83598910  0.75341696  1
  Cu  Cu105  1  0.00691530  0.33154550  0.49722646  1
  Cu  Cu106  1  0.66706629  0.66458949  0.01424778  1
  Cu  Cu107  1  0.49274188  0.83698150  0.74848839  1
  Cu  Cu108  1  0.67029252  0.34246357  0.49452302  1
  Cu  Cu109  1  0.49493262  0.16871435  0.75172626  1
  Cu  Cu110  1  0.16797897  0.16632834  0.25008517  1
  Cu  Cu111  1  0.82984360  0.17614459  0.75773450  1
  Cu  Cu112  1  0.17086280  0.49493771  0.25033288  1
  Cu  Cu113  1  0.66913212  -0.00671028  0.00884150  1
  Cu  Cu114  1  0.49198399  0.83408856  0.25271875  1
  Se  Se115  1  0.07823184  0.07664719  0.06436591  1
  Se  Se116  1  0.07321632  0.07756987  0.54934276  1
  Se  Se117  1  0.08253521  0.42308873  0.05531400  1
  Se  Se118  1  0.07964931  0.41448682  0.56051357  1
  Se  Se119  1  0.07462512  0.74445059  0.07393598  1
  Se  Se120  1  0.08060407  0.74868766  0.54236874  1
  Se  Se121  1  0.40829558  0.07319633  0.05654480  1
  Se  Se122  1  0.40849001  0.07810671  0.55749965  1
  Se  Se123  1  0.40778235  0.40989964  0.06058296  1
  Se  Se124  1  0.42434772  0.41238102  0.54825466  1
  Se  Se125  1  0.41465987  0.75312055  0.05394196  1
  Se  Se126  1  0.41775675  0.75288090  0.55159207  1
  Se  Se127  1  0.75338446  0.08263506  0.05287121  1
  Se  Se128  1  0.74037089  0.07075683  0.55528096  1
  Se  Se129  1  0.74934460  0.42059646  0.05876241  1
  Se  Se130  1  0.75537798  0.41570160  0.55703652  1
  Se  Se131  1  0.75278848  0.74949636  0.06350505  1
  Se  Se132  1  0.75648017  0.74911291  0.54774798  1
  Se  Se133  1  0.25155827  0.25151736  0.06191275  1
  Se  Se134  1  0.24902666  0.24826595  0.55190039  1
  Se  Se135  1  0.24429588  0.58184890  0.04983585  1
  Se  Se136  1  0.26014807  0.58973875  0.55978603  1
  Se  Se137  1  0.25499228  0.92234626  0.05998208  1
  Se  Se138  1  0.24531704  0.91464551  0.55339668  1
  Se  Se139  1  0.59501823  0.26228569  0.05321304  1
  Se  Se140  1  0.59529997  0.25409367  0.55246525  1
  Se  Se141  1  0.59005162  0.58339842  0.07525636  1
  Se  Se142  1  0.59374484  0.58449805  0.54977299  1
  Se  Se143  1  0.58288125  0.91132356  0.05833898  1
  Se  Se144  1  0.57964129  0.91060314  0.54933789  1
  Se  Se145  1  0.91379664  0.25127871  0.05770942  1
  Se  Se146  1  0.92140728  0.25908090  0.55914542  1
  Se  Se147  1  0.91198607  0.58259499  0.06501715  1
  Se  Se148  1  0.92672519  0.59071513  0.55017149  1
  Se  Se149  1  0.92072067  0.90542083  0.05768599  1
  Se  Se150  1  0.90975574  0.90988851  0.54659438  1
  Se  Se151  1  0.08845460  0.24442064  0.44811964  1
  Se  Se152  1  0.07849139  0.26375149  0.94436933  1
  Se  Se153  1  0.07825879  0.58391733  0.43237694  1
  Se  Se154  1  0.07799040  0.58922355  0.95363551  1
  Se  Se155  1  0.08599487  0.91143130  0.44221833  1
  Se  Se156  1  0.07891754  0.92452333  0.94471459  1
  Se  Se157  1  0.41425760  0.25607199  0.43212671  1
  Se  Se158  1  0.41204335  0.25028489  0.94326254  1
  Se  Se159  1  0.42034700  0.58290607  0.44742374  1
  Se  Se160  1  0.40760803  0.59283033  0.94571307  1
  Se  Se161  1  0.41567876  0.91539503  0.44752802  1
  Se  Se162  1  0.42723121  0.90215256  0.94757660  1
  Se  Se163  1  0.75679317  0.26257017  0.43989273  1
  Se  Se164  1  0.76200435  0.23876589  0.94865788  1
  Se  Se165  1  0.74972615  0.60188999  0.42564225  1
  Se  Se166  1  0.74714374  0.58033615  0.95853601  1
  Se  Se167  1  0.75191756  0.91086575  0.44172682  1
  Se  Se168  1  0.75416116  0.91138854  0.95372332  1
  Se  Se169  1  0.24571391  0.08438880  0.44560362  1
  Se  Se170  1  0.25945648  0.07367130  0.94428082  1
  Se  Se171  1  0.25895351  0.41012971  0.43687336  1
  Se  Se172  1  0.24918632  0.41659621  0.94514103  1
  Se  Se173  1  0.24668642  0.75259496  0.44856225  1
  Se  Se174  1  0.25127297  0.74561557  0.94163967  1
  Se  Se175  1  0.59164780  0.07697521  0.43434082  1
  Se  Se176  1  0.59377047  0.07021824  0.94040264  1
  Se  Se177  1  0.58853481  0.42759247  0.44399406  1
  Se  Se178  1  0.58187515  0.41072322  0.94399859  1
  Se  Se179  1  0.58022968  0.75316031  0.44319290  1
  Se  Se180  1  0.58784997  0.74587805  0.95456727  1
  Se  Se181  1  0.91862374  0.07244400  0.43259274  1
  Se  Se182  1  0.92955661  0.07749226  0.95687517  1
  Se  Se183  1  0.93214066  0.41461404  0.43534020  1
  Se  Se184  1  0.90824464  0.42139436  0.95381755  1
  Se  Se185  1  0.91296659  0.74437528  0.42105070  1
  Se  Se186  1  0.91522364  0.75269024  0.95635630  1
  Se  Se187  1  0.24924353  0.25262533  0.30324925  1
  Se  Se188  1  0.25163567  0.25383523  0.80349950  1
  Se  Se189  1  0.25294889  0.58250845  0.30200797  1
  Se  Se190  1  0.23992012  0.57583903  0.81162064  1
  Se  Se191  1  0.25052764  0.91708070  0.30570864  1
  Se  Se192  1  0.25431429  0.92029844  0.80018404  1
  Se  Se193  1  0.58286895  0.25526130  0.30172602  1
  Se  Se194  1  0.58209218  0.24636523  0.80519673  1
  Se  Se195  1  0.57581258  0.58684611  0.30188636  1
  Se  Se196  1  0.57564424  0.57096091  0.80911571  1
  Se  Se197  1  0.57852639  0.91478248  0.30958481  1
  Se  Se198  1  0.58188901  0.90766412  0.80915999  1
  Se  Se199  1  0.91897374  0.24906271  0.30115138  1
  Se  Se200  1  0.91821303  0.25612196  0.80799948  1
  Se  Se201  1  0.87609881  0.55402636  0.29438496  1
  Se  Se202  1  0.91080438  0.58138805  0.81823869  1
  Se  Se203  1  0.92373276  0.91809268  0.29272905  1
  Se  Se204  1  0.91202470  0.91381915  0.81291693  1
  Se  Se205  1  0.08359191  0.08375042  0.30395167  1
  Se  Se206  1  0.08788995  0.09710313  0.81522525  1
  Se  Se207  1  0.08261468  0.41617825  0.30272255  1
  Se  Se208  1  0.07396901  0.42115677  0.80700406  1
  Se  Se209  1  0.08704741  0.74559378  0.30282538  1
  Se  Se210  1  0.08901855  0.76179839  0.80517705  1
  Se  Se211  1  0.41326354  0.08391339  0.29978689  1
  Se  Se212  1  0.41609574  0.08153436  0.80408938  1
  Se  Se213  1  0.41455537  0.41644721  0.30092842  1
  Se  Se214  1  0.41059600  0.41270045  0.80189719  1
  Se  Se215  1  0.40939341  0.74986368  0.30696880  1
  Se  Se216  1  0.42422198  0.75109407  0.81172514  1
  Se  Se217  1  0.75517016  0.09060101  0.30739207  1
  Se  Se218  1  0.75818103  0.08303583  0.81231884  1
  Se  Se219  1  0.72656484  0.39899801  0.30192191  1
  Se  Se220  1  0.74663346  0.41352598  0.81086865  1
  Se  Se221  1  0.74035790  0.75661367  0.28744843  1
  Se  Se222  1  0.75606732  0.75058699  0.81208311  1
  Se  Se223  1  0.25211182  0.08197470  0.19866600  1
  Se  Se224  1  0.24444458  0.08382812  0.69638116  1
  Se  Se225  1  0.25434413  0.41308929  0.19600879  1
  Se  Se226  1  0.25149788  0.42228843  0.69594166  1
  Se  Se227  1  0.25116156  0.74772926  0.19616839  1
  Se  Se228  1  0.24412955  0.75084978  0.68737322  1
  Se  Se229  1  0.57340971  0.09708961  0.18458493  1
  Se  Se230  1  0.57095343  0.09457080  0.68316780  1
  Se  Se231  1  0.57911633  0.41891202  0.19724918  1
  Se  Se232  1  0.58571674  0.41147880  0.69399098  1
  Se  Se233  1  0.57602800  0.75071553  0.20070658  1
  Se  Se234  1  0.57754636  0.75750356  0.69077761  1
  Se  Se235  1  0.91819198  0.08423506  0.19489520  1
  Se  Se236  1  0.90698279  0.09493475  0.69408753  1
  Se  Se237  1  0.92681952  0.40639609  0.19934701  1
  Se  Se238  1  0.92245223  0.41607246  0.70223401  1
  Se  Se239  1  0.92423083  0.73869338  0.20586062  1
  Se  Se240  1  0.90816090  0.75584024  0.69054709  1
  Se  Se241  1  0.08539924  0.25226637  0.19812374  1
  Se  Se242  1  0.08267408  0.25332074  0.69421442  1
  Se  Se243  1  0.08487567  0.58056826  0.20082697  1
  Se  Se244  1  0.09562961  0.57423569  0.69312662  1
  Se  Se245  1  0.08423918  0.91816571  0.20388323  1
  Se  Se246  1  0.08331324  0.91245067  0.68585496  1
  Se  Se247  1  0.41474646  0.25464648  0.19643517  1
  Se  Se248  1  0.41410527  0.25192224  0.69453152  1
  Se  Se249  1  0.40808708  0.58721451  0.19512970  1
  Se  Se250  1  0.42695029  0.57987299  0.68780376  1
  Se  Se251  1  0.41005116  0.91959411  0.20052823  1
  Se  Se252  1  0.41059031  0.92066160  0.69712104  1
  Se  Se253  1  0.74874557  0.25437470  0.19614423  1
  Se  Se254  1  0.74490460  0.25603154  0.70281178  1
  Se  Se255  1  0.75460260  0.58697231  0.21061682  1
  Se  Se256  1  0.76302619  0.56934569  0.69476513  1
  Se  Se257  1  0.75720531  0.91776257  0.18735266  1
  Se  Se258  1  0.75275572  0.91283313  0.69042408  1
