# generated using pymatgen
data_In86Cu29Se144
_symmetry_space_group_name_H-M   'P 1'
_cell_length_a   17.57605920
_cell_length_b   17.57880908
_cell_length_c   23.43693812
_cell_angle_alpha   89.98383607
_cell_angle_beta   89.99762986
_cell_angle_gamma   90.02008804
_symmetry_Int_Tables_number   1
_chemical_formula_structural   In86Cu29Se144
_chemical_formula_sum   'In86 Cu29 Se144'
_cell_volume   7241.22071455
_cell_formula_units_Z   1
loop_
 _symmetry_equiv_pos_site_id
 _symmetry_equiv_pos_as_xyz
  1  'x, y, z'
loop_
 _atom_site_type_symbol
 _atom_site_label
 _atom_site_symmetry_multiplicity
 _atom_site_fract_x
 _atom_site_fract_y
 _atom_site_fract_z
 _atom_site_occupancy
  In  In0  1  0.00142555  0.16158443  0.12455317  1
  In  In1  1  -0.01209005  0.15137338  0.61964601  1
  In  In2  1  -0.01437984  0.49351109  0.10737756  1
  In  In3  1  0.01310639  0.50422901  0.62807179  1
  In  In4  1  0.00672664  0.83492476  0.10699087  1
  In  In5  1  -0.01076969  0.85087991  0.64317255  1
  In  In6  1  0.32206700  0.15346485  0.12031972  1
  In  In7  1  0.33168460  0.15918769  0.61951132  1
  In  In8  1  0.32764809  0.50603350  0.12275014  1
  In  In9  1  0.33899428  0.50829179  0.62884162  1
  In  In10  1  0.32326664  0.84791727  0.12843547  1
  In  In11  1  0.34312660  0.82451382  0.63374651  1
  In  In12  1  0.67782121  0.17656872  0.12144784  1
  In  In13  1  0.67589945  0.16658312  0.61473285  1
  In  In14  1  0.68352782  0.49411888  0.13205676  1
  In  In15  1  0.66459567  0.50059431  0.63611297  1
  In  In16  1  0.67062038  0.81966995  0.12993139  1
  In  In17  1  0.66312655  0.81890882  0.60008793  1
  In  In18  1  0.17609218  0.00626524  0.36308457  1
  In  In19  1  0.14725089  0.00924947  0.88655821  1
  In  In20  1  0.14715555  0.32433350  0.36390889  1
  In  In21  1  0.16249582  0.34052937  0.88449731  1
  In  In22  1  0.16769954  0.66106291  0.37361660  1
  In  In23  1  0.15979925  0.67080391  0.87757984  1
  In  In24  1  0.50111572  0.00268635  0.38037476  1
  In  In25  1  0.50680947  0.00406747  0.87695639  1
  In  In26  1  0.50464260  0.31693339  0.37616702  1
  In  In27  1  0.50461680  0.31896908  0.87324096  1
  In  In28  1  0.51849749  0.66772389  0.38013149  1
  In  In29  1  0.50258710  0.67519229  0.85991472  1
  In  In30  1  0.83806679  -0.01097611  0.38069976  1
  In  In31  1  0.84701310  -0.01859991  0.89903016  1
  In  In32  1  0.82619867  0.32489855  0.36368997  1
  In  In33  1  0.83146812  0.33713739  0.87918048  1
  In  In34  1  0.81991922  0.68294036  0.38283218  1
  In  In35  1  0.83327028  0.66773068  0.87571801  1
  In  In36  1  -0.00035855  0.16116004  0.36990886  1
  In  In37  1  -0.00169986  0.15834270  0.88705317  1
  In  In38  1  0.00820627  0.49646826  0.36765110  1
  In  In39  1  -0.02060808  0.52619116  0.89962280  1
  In  In40  1  -0.02211427  0.84283004  0.37393523  1
  In  In41  1  -0.00221518  0.83070801  0.87954132  1
  In  In42  1  0.34255286  0.14978644  0.37823884  1
  In  In43  1  0.32918628  0.16531663  0.87972101  1
  In  In44  1  0.33225174  0.50822302  0.37345205  1
  In  In45  1  0.32168566  0.51213114  0.88084024  1
  In  In46  1  0.32906146  0.84930808  0.37461297  1
  In  In47  1  0.32329107  0.81609556  0.86418799  1
  In  In48  1  0.66338351  0.16900521  0.37979001  1
  In  In49  1  0.66693631  0.16392368  0.87777990  1
  In  In50  1  0.67818847  0.50508096  0.36753341  1
  In  In51  1  0.67832873  0.50677153  0.86509433  1
  In  In52  1  0.68055214  0.82487339  0.39556593  1
  In  In53  1  0.67502614  0.83309494  0.87400001  1
  In  In54  1  0.15921187  0.00139969  0.11983308  1
  In  In55  1  0.15027530  -0.00392171  0.62874898  1
  In  In56  1  0.15164125  0.31257411  0.11559305  1
  In  In57  1  0.17457878  0.32849046  0.62699109  1
  In  In58  1  0.14624688  0.65793793  0.09778390  1
  In  In59  1  0.15633553  0.69438393  0.65194613  1
  In  In60  1  0.48441609  -0.00138936  0.13031406  1
  In  In61  1  0.51311052  -0.00325593  0.60638797  1
  In  In62  1  0.51868041  0.32952331  0.13095363  1
  In  In63  1  0.51155943  0.33318426  0.62764041  1
  In  In64  1  0.50976000  0.68123474  0.12658776  1
  In  In65  1  0.50309523  0.67563317  0.63222819  1
  In  In66  1  0.84703431  0.00844578  0.11195239  1
  In  In67  1  0.83621460  -0.00075566  0.61955595  1
  In  In68  1  0.83597154  0.33379852  0.12671674  1
  In  In69  1  0.83016538  0.31505753  0.62704886  1
  In  In70  1  0.83737459  0.66259018  0.11167215  1
  In  In71  1  0.82076892  0.68364163  0.63931329  1
  In  In72  1  0.67348769  -0.00347444  0.25183857  1
  In  In73  1  0.16775484  0.83817190  0.50675376  1
  In  In74  1  0.33366406  0.67536927  0.23709953  1
  In  In75  1  -0.00552856  0.33638222  0.75653653  1
  In  In76  1  0.50100670  0.49479390  0.51227701  1
  In  In77  1  0.50215523  0.49626640  0.00024505  1
  In  In78  1  0.83570306  0.49833289  0.49533943  1
  In  In79  1  0.33327631  0.34180661  0.75557445  1
  In  In80  1  0.49604432  0.83951542  -0.00346056  1
  In  In81  1  0.17199585  0.49713459  0.50235975  1
  In  In82  1  0.33784454  0.32861720  0.25358562  1
  In  In83  1  0.33150591  -0.00558609  0.74409671  1
  In  In84  1  -0.00636506  0.67431079  0.24296971  1
  In  In85  1  0.67297076  -0.00657487  0.74661134  1
  Cu  Cu86  1  0.32691111  -0.00220564  0.00022484  1
  Cu  Cu87  1  0.51518825  0.50168058  0.25095124  1
  Cu  Cu88  1  0.15033424  0.16680325  0.75662251  1
  Cu  Cu89  1  0.32861299  0.67043754  -0.00301650  1
  Cu  Cu90  1  0.50342809  0.50242518  0.74908755  1
  Cu  Cu91  1  0.83913540  0.50849031  0.24380386  1
  Cu  Cu92  1  -0.00810128  0.67121202  0.50613096  1
  Cu  Cu93  1  0.83517816  0.83408302  0.75615655  1
  Cu  Cu94  1  0.65960396  0.00283931  0.00266411  1
  Cu  Cu95  1  0.00012973  0.32827360  0.00316473  1
  Cu  Cu96  1  0.50464603  0.16279240  0.25539167  1
  Cu  Cu97  1  0.15922927  0.49095790  0.23776739  1
  Cu  Cu98  1  0.15482533  0.83616135  0.24141905  1
  Cu  Cu99  1  0.33545292  0.67045863  0.51211044  1
  Cu  Cu100  1  0.83692141  0.16850398  0.24482676  1
  Cu  Cu101  1  0.33400163  0.00273798  0.49787621  1
  Cu  Cu102  1  0.16190160  0.15655634  0.24240180  1
  Cu  Cu103  1  0.83599782  0.49996329  0.75646199  1
  Cu  Cu104  1  0.50334276  0.83361102  0.25536697  1
  Cu  Cu105  1  0.67224394  0.66183888  -0.00084523  1
  Cu  Cu106  1  0.82807311  0.15400891  0.74910114  1
  Cu  Cu107  1  -0.00270278  0.31661817  0.49600119  1
  Cu  Cu108  1  0.66496371  0.33210061  0.49967307  1
  Cu  Cu109  1  0.16082957  0.51426862  0.76030843  1
  Cu  Cu110  1  0.50529069  0.16789036  0.74780655  1
  Cu  Cu111  1  0.00569625  0.00051452  0.49840230  1
  Cu  Cu112  1  0.66999975  0.33265745  0.00261365  1
  Cu  Cu113  1  0.32272527  0.32000213  0.49616509  1
  Cu  Cu114  1  0.34106147  0.32655752  -0.00054108  1
  Se  Se115  1  0.09826015  0.10226445  0.05356168  1
  Se  Se116  1  0.08733331  0.08379213  0.55337631  1
  Se  Se117  1  0.08775383  0.41514629  0.05144516  1
  Se  Se118  1  0.07516694  0.40130006  0.55605254  1
  Se  Se119  1  0.07136974  0.74575057  0.03230384  1
  Se  Se120  1  0.07632317  0.74838131  0.56508901  1
  Se  Se121  1  0.41487572  0.07764537  0.05300382  1
  Se  Se122  1  0.41999728  0.08549085  0.55050378  1
  Se  Se123  1  0.41504026  0.40656879  0.06417477  1
  Se  Se124  1  0.39961428  0.40089390  0.56084101  1
  Se  Se125  1  0.40726057  0.74842595  0.06040005  1
  Se  Se126  1  0.42384528  0.75500198  0.55729424  1
  Se  Se127  1  0.74785270  0.08549053  0.05209070  1
  Se  Se128  1  0.75794598  0.08272332  0.55038082  1
  Se  Se129  1  0.75375892  0.41689359  0.05470213  1
  Se  Se130  1  0.74483065  0.41188997  0.56141883  1
  Se  Se131  1  0.74906865  0.75276018  0.05075345  1
  Se  Se132  1  0.77044610  0.74647080  0.54859935  1
  Se  Se133  1  0.25342554  0.24677594  0.05195242  1
  Se  Se134  1  0.24202608  0.24114408  0.55461896  1
  Se  Se135  1  0.25109986  0.57788289  0.04634336  1
  Se  Se136  1  0.24557581  0.59475041  0.56760328  1
  Se  Se137  1  0.24299263  0.91361537  0.05134638  1
  Se  Se138  1  0.26120758  0.92497985  0.56691582  1
  Se  Se139  1  0.58344401  0.24926247  0.05282634  1
  Se  Se140  1  0.58097424  0.25015086  0.55383283  1
  Se  Se141  1  0.59039224  0.58701285  0.06201972  1
  Se  Se142  1  0.59318351  0.58938837  0.56247797  1
  Se  Se143  1  0.58481207  0.91944683  0.06570558  1
  Se  Se144  1  0.61465392  0.93469302  0.54173944  1
  Se  Se145  1  0.91597545  0.24838723  0.05838182  1
  Se  Se146  1  0.91104332  0.24194522  0.55255871  1
  Se  Se147  1  0.92808275  0.59473563  0.04103460  1
  Se  Se148  1  0.91904940  0.58371504  0.56372568  1
  Se  Se149  1  0.93504579  0.93375232  0.04115774  1
  Se  Se150  1  0.92819209  0.91568416  0.55566562  1
  Se  Se151  1  0.08605248  0.24109678  0.44187365  1
  Se  Se152  1  0.08464970  0.24850159  0.94761227  1
  Se  Se153  1  0.07292866  0.58986712  0.44649777  1
  Se  Se154  1  0.11001171  0.55865726  0.94011317  1
  Se  Se155  1  0.08364073  0.91996497  0.43611056  1
  Se  Se156  1  0.05418366  0.93311994  0.95179413  1
  Se  Se157  1  0.41447826  0.24550955  0.44466674  1
  Se  Se158  1  0.42111308  0.24393554  0.94424887  1
  Se  Se159  1  0.41131571  0.58741703  0.44846600  1
  Se  Se160  1  0.42096962  0.59829931  0.94191539  1
  Se  Se161  1  0.41613164  0.91573667  0.44750288  1
  Se  Se162  1  0.40319465  0.92227810  0.93443806  1
  Se  Se163  1  0.75164872  0.25554513  0.44383387  1
  Se  Se164  1  0.74897674  0.25003161  0.94514122  1
  Se  Se165  1  0.73583423  0.59143425  0.44931242  1
  Se  Se166  1  0.75186520  0.57812361  0.94434527  1
  Se  Se167  1  0.73604932  0.93851621  0.45257092  1
  Se  Se168  1  0.73884710  0.91099788  0.95410303  1
  Se  Se169  1  0.24549380  0.07951020  0.44439457  1
  Se  Se170  1  0.24507471  0.08599360  0.94808632  1
  Se  Se171  1  0.25177341  0.40665343  0.43352554  1
  Se  Se172  1  0.26076145  0.41288892  0.94754293  1
  Se  Se173  1  0.25459593  0.74238070  0.44454277  1
  Se  Se174  1  0.24581690  0.75568274  0.94649431  1
  Se  Se175  1  0.57112017  0.09716027  0.44530598  1
  Se  Se176  1  0.57867698  0.08739831  0.94928256  1
  Se  Se177  1  0.58810422  0.41634984  0.43924081  1
  Se  Se178  1  0.59231687  0.41145664  0.93768485  1
  Se  Se179  1  0.57660911  0.75572798  0.45436487  1
  Se  Se180  1  0.58577580  0.74120082  0.94276816  1
  Se  Se181  1  0.92058739  0.08057362  0.44297462  1
  Se  Se182  1  0.88987490  0.10424612  0.94928968  1
  Se  Se183  1  0.92689187  0.40719591  0.43662880  1
  Se  Se184  1  0.91571215  0.41215058  0.95134777  1
  Se  Se185  1  0.91445251  0.75537213  0.44950981  1
  Se  Se186  1  0.91836014  0.74216687  0.94694462  1
  Se  Se187  1  0.24463078  0.23453290  0.30669281  1
  Se  Se188  1  0.23837135  0.24744587  0.80846219  1
  Se  Se189  1  0.24100163  0.57499469  0.29535036  1
  Se  Se190  1  0.25360506  0.59467650  0.80639535  1
  Se  Se191  1  0.24652077  0.91081209  0.29559584  1
  Se  Se192  1  0.24184812  0.92603673  0.81638769  1
  Se  Se193  1  0.58995947  0.25028757  0.30176031  1
  Se  Se194  1  0.59072756  0.24613971  0.80208520  1
  Se  Se195  1  0.59145694  0.59088253  0.30410107  1
  Se  Se196  1  0.58881759  0.58664831  0.79990871  1
  Se  Se197  1  0.58466612  0.91054813  0.31531158  1
  Se  Se198  1  0.57678126  0.90957689  0.80845486  1
  Se  Se199  1  0.92128173  0.24994023  0.30056610  1
  Se  Se200  1  0.90682737  0.23831421  0.80887338  1
  Se  Se201  1  0.91053765  0.58683163  0.31347527  1
  Se  Se202  1  0.91987914  0.58249174  0.80837443  1
  Se  Se203  1  0.90402067  0.91625498  0.29860202  1
  Se  Se204  1  0.91284892  0.91858614  0.81229788  1
  Se  Se205  1  0.07786460  0.07552335  0.29873112  1
  Se  Se206  1  0.06928028  0.08226301  0.80783975  1
  Se  Se207  1  0.07477202  0.41142823  0.29269641  1
  Se  Se208  1  0.08192474  0.42740169  0.81527150  1
  Se  Se209  1  0.08694625  0.75635644  0.31077432  1
  Se  Se210  1  0.08125156  0.75375915  0.80816419  1
  Se  Se211  1  0.42000252  0.07531022  0.30253727  1
  Se  Se212  1  0.42104427  0.09023925  0.80530364  1
  Se  Se213  1  0.42858478  0.42640044  0.31008346  1
  Se  Se214  1  0.42500608  0.42837361  0.81645666  1
  Se  Se215  1  0.41738164  0.75137970  0.31212066  1
  Se  Se216  1  0.42233392  0.76104501  0.79550981  1
  Se  Se217  1  0.75838528  0.09206412  0.31042449  1
  Se  Se218  1  0.75784629  0.07309391  0.81610027  1
  Se  Se219  1  0.75727594  0.42266344  0.29825868  1
  Se  Se220  1  0.75279093  0.40931435  0.80170118  1
  Se  Se221  1  0.74962150  0.76482551  0.30959743  1
  Se  Se222  1  0.74917121  0.74723165  0.80403576  1
  Se  Se223  1  0.24971548  0.07229899  0.19460429  1
  Se  Se224  1  0.23681595  0.09462276  0.69484805  1
  Se  Se225  1  0.24702236  0.41025140  0.18552993  1
  Se  Se226  1  0.23787060  0.43251261  0.69716952  1
  Se  Se227  1  0.22797684  0.74793072  0.17995583  1
  Se  Se228  1  0.26063494  0.75925197  0.70964153  1
  Se  Se229  1  0.58267167  0.08602408  0.18931782  1
  Se  Se230  1  0.58132324  0.08583145  0.68689565  1
  Se  Se231  1  0.59528656  0.41463243  0.19953221  1
  Se  Se232  1  0.58503309  0.41120976  0.70266885  1
  Se  Se233  1  0.58706465  0.74826432  0.20502722  1
  Se  Se234  1  0.59850567  0.76010533  0.68782824  1
  Se  Se235  1  0.91654394  0.08055045  0.19393024  1
  Se  Se236  1  0.91551214  0.07382888  0.69690901  1
  Se  Se237  1  0.92041633  0.42366969  0.19139874  1
  Se  Se238  1  0.90856851  0.42202680  0.68729983  1
  Se  Se239  1  0.91080231  0.76232373  0.17965821  1
  Se  Se240  1  0.92105049  0.74796120  0.70466386  1
  Se  Se241  1  0.07973014  0.24773173  0.19793098  1
  Se  Se242  1  0.07951137  0.24746675  0.68999921  1
  Se  Se243  1  0.08169657  0.58020908  0.18276573  1
  Se  Se244  1  0.07578249  0.59080008  0.70357938  1
  Se  Se245  1  0.07336149  0.91633180  0.18641494  1
  Se  Se246  1  0.10147194  0.90184612  0.70267027  1
  Se  Se247  1  0.42316774  0.23824536  0.19015209  1
  Se  Se248  1  0.41641149  0.24614958  0.69246838  1
  Se  Se249  1  0.43186274  0.57545827  0.18865043  1
  Se  Se250  1  0.41973826  0.58733598  0.69814437  1
  Se  Se251  1  0.41490392  0.91053984  0.20221633  1
  Se  Se252  1  0.43701816  0.92066697  0.68776034  1
  Se  Se253  1  0.75063905  0.25460358  0.19802489  1
  Se  Se254  1  0.74538699  0.23974090  0.69766000  1
  Se  Se255  1  0.75708496  0.59490062  0.19186103  1
  Se  Se256  1  0.75166733  0.58214001  0.70131046  1
  Se  Se257  1  0.75965616  0.91789280  0.18246568  1
  Se  Se258  1  0.75739197  0.90179123  0.68568322  1
