# generated using pymatgen
data_In86Cu29Se144
_symmetry_space_group_name_H-M   'P 1'
_cell_length_a   17.59025586
_cell_length_b   17.59413292
_cell_length_c   23.44496044
_cell_angle_alpha   89.99545902
_cell_angle_beta   89.99760544
_cell_angle_gamma   90.01852014
_symmetry_Int_Tables_number   1
_chemical_formula_structural   In86Cu29Se144
_chemical_formula_sum   'In86 Cu29 Se144'
_cell_volume   7255.87020151
_cell_formula_units_Z   1
loop_
 _symmetry_equiv_pos_site_id
 _symmetry_equiv_pos_as_xyz
  1  'x, y, z'
loop_
 _atom_site_type_symbol
 _atom_site_label
 _atom_site_symmetry_multiplicity
 _atom_site_fract_x
 _atom_site_fract_y
 _atom_site_fract_z
 _atom_site_occupancy
  In  In0  1  -0.00435541  0.17354484  0.13091115  1
  In  In1  1  0.01252448  0.18095025  0.61408055  1
  In  In2  1  -0.00810312  0.48519848  0.12934839  1
  In  In3  1  -0.00217876  0.49491811  0.62086954  1
  In  In4  1  -0.00072214  0.84668214  0.13056456  1
  In  In5  1  0.00383888  0.83459626  0.61368664  1
  In  In6  1  0.33122531  0.17005050  0.13670915  1
  In  In7  1  0.33056722  0.17072609  0.62113233  1
  In  In8  1  0.33572028  0.48805082  0.12749351  1
  In  In9  1  0.31854250  0.49165749  0.62017580  1
  In  In10  1  0.34406585  0.84157285  0.12941312  1
  In  In11  1  0.33762781  0.83865242  0.61335378  1
  In  In12  1  0.66365665  0.15259596  0.12770850  1
  In  In13  1  0.66558888  0.16421603  0.62165056  1
  In  In14  1  0.66847667  0.51117772  0.12807979  1
  In  In15  1  0.66213091  0.48575435  0.62267896  1
  In  In16  1  0.66981475  0.82893942  0.13295005  1
  In  In17  1  0.67259005  0.84104137  0.61800136  1
  In  In18  1  0.16576527  0.00465438  0.38084547  1
  In  In19  1  0.18365753  -0.00330420  0.86643600  1
  In  In20  1  0.16882145  0.33126956  0.38356381  1
  In  In21  1  0.16944942  0.34177216  0.85530984  1
  In  In22  1  0.17962863  0.66105171  0.39566423  1
  In  In23  1  0.16615439  0.66782750  0.86778717  1
  In  In24  1  0.50022087  0.00300975  0.38105447  1
  In  In25  1  0.50560985  0.00045636  0.85952335  1
  In  In26  1  0.47835749  0.33078887  0.37911616  1
  In  In27  1  0.50153844  0.33488642  0.87106292  1
  In  In28  1  0.51966401  0.67242435  0.38029689  1
  In  In29  1  0.48903084  0.65602289  0.87430834  1
  In  In30  1  0.83371455  -0.00051223  0.37245229  1
  In  In31  1  0.82818861  0.00949941  0.87888419  1
  In  In32  1  0.84774081  0.32089217  0.38287935  1
  In  In33  1  0.82622087  0.32046968  0.86584445  1
  In  In34  1  0.80963710  0.68236323  0.39395579  1
  In  In35  1  0.83900993  0.67367038  0.87657534  1
  In  In36  1  0.00272257  0.16542316  0.37533439  1
  In  In37  1  -0.01323103  0.16544951  0.87267486  1
  In  In38  1  0.00610927  0.49126107  0.38133617  1
  In  In39  1  0.00678869  0.49145713  0.86808997  1
  In  In40  1  -0.00752764  0.84304215  0.37925540  1
  In  In41  1  -0.00664535  0.82662352  0.87343400  1
  In  In42  1  0.33566270  0.16985868  0.38430663  1
  In  In43  1  0.33996777  0.16770859  0.86682295  1
  In  In44  1  0.33101318  0.48457673  0.37861994  1
  In  In45  1  0.33793720  0.49927433  0.87262514  1
  In  In46  1  0.32263604  0.85071234  0.39288459  1
  In  In47  1  0.33693964  0.84098533  0.85822016  1
  In  In48  1  0.67839356  0.15449897  0.38200517  1
  In  In49  1  0.67032407  0.16848478  0.86694223  1
  In  In50  1  0.66670397  0.51502377  0.37654126  1
  In  In51  1  0.66608377  0.48382108  0.87111513  1
  In  In52  1  0.66035891  0.83897921  0.37927910  1
  In  In53  1  0.66881069  0.84887319  0.87099939  1
  In  In54  1  0.16473911  0.00573463  0.14090726  1
  In  In55  1  0.17162846  0.00804715  0.61873390  1
  In  In56  1  0.17071429  0.32642752  0.13388967  1
  In  In57  1  0.17142459  0.33210867  0.62543828  1
  In  In58  1  0.16280397  0.66832257  0.13295194  1
  In  In59  1  0.17697764  0.66009516  0.60590937  1
  In  In60  1  0.50121900  0.00418744  0.13885441  1
  In  In61  1  0.49643654  -0.00024395  0.62621046  1
  In  In62  1  0.48866256  0.33614580  0.12574448  1
  In  In63  1  0.50705352  0.32471547  0.62806858  1
  In  In64  1  0.51307920  0.66858302  0.12695790  1
  In  In65  1  0.49463314  0.68142703  0.61106192  1
  In  In66  1  0.83294681  -0.00060372  0.12762583  1
  In  In67  1  0.82713882  -0.00642326  0.61518227  1
  In  In68  1  0.84565451  0.33404853  0.12755369  1
  In  In69  1  0.83133235  0.33026967  0.61959449  1
  In  In70  1  0.81486423  0.66989833  0.13113986  1
  In  In71  1  0.83156476  0.67247706  0.60984541  1
  In  In72  1  0.16136386  0.17205584  0.00443247  1
  In  In73  1  0.50248455  0.83314296  -0.00465746  1
  In  In74  1  0.50388637  0.16808669  -0.00493280  1
  In  In75  1  0.66657399  0.66743403  0.73383563  1
  In  In76  1  0.33964932  0.67043699  0.26414794  1
  In  In77  1  0.49949826  0.50147410  0.50159651  1
  In  In78  1  0.16605249  0.50187124  -0.01292944  1
  In  In79  1  0.66504986  0.33103634  0.25653689  1
  In  In80  1  0.16795321  0.83867920  -0.01241454  1
  In  In81  1  0.33347256  0.66516357  0.73789833  1
  In  In82  1  0.00166619  0.00611444  0.73926403  1
  In  In83  1  0.00514078  0.66577759  0.74393069  1
  In  In84  1  0.83308309  0.50047667  0.00336368  1
  In  In85  1  -0.00378339  0.66774115  0.26616001  1
  Cu  Cu86  1  0.17089714  0.16687442  0.74092685  1
  Cu  Cu87  1  -0.00966010  -0.00197562  0.00170983  1
  Cu  Cu88  1  0.33451797  0.65626044  -0.00206294  1
  Cu  Cu89  1  -0.00131441  0.66372571  0.49713277  1
  Cu  Cu90  1  -0.00010621  0.33101711  -0.00037095  1
  Cu  Cu91  1  0.49869472  0.50208036  0.26071545  1
  Cu  Cu92  1  0.33525962  0.00101538  0.00349858  1
  Cu  Cu93  1  0.49840020  0.49657036  0.74585634  1
  Cu  Cu94  1  -0.00524011  -0.00240253  0.49520339  1
  Cu  Cu95  1  0.66740369  0.33168454  0.49955790  1
  Cu  Cu96  1  0.49592141  0.16462262  0.74323067  1
  Cu  Cu97  1  0.00174784  0.33096686  0.50189751  1
  Cu  Cu98  1  0.66605651  0.66671254  0.00245442  1
  Cu  Cu99  1  0.49539655  0.16599271  0.25800569  1
  Cu  Cu100  1  0.67326153  -0.00335885  0.00346539  1
  Cu  Cu101  1  0.66348932  0.00271402  0.49952850  1
  Cu  Cu102  1  0.33591060  0.00666617  0.50295403  1
  Cu  Cu103  1  0.83749159  0.48999167  0.74452582  1
  Cu  Cu104  1  0.49970062  0.84360912  0.25649442  1
  Cu  Cu105  1  0.16136867  0.48770503  0.25513688  1
  Cu  Cu106  1  0.16820623  0.83799542  0.26315501  1
  Cu  Cu107  1  -0.00876426  0.67971909  0.00338573  1
  Cu  Cu108  1  0.83711811  0.49887134  0.25669194  1
  Cu  Cu109  1  0.17064134  0.16702600  0.26126950  1
  Cu  Cu110  1  0.82994191  0.84023562  0.74356908  1
  Cu  Cu111  1  0.83646303  0.16341869  0.25415260  1
  Cu  Cu112  1  0.82991182  0.83560511  0.25787447  1
  Cu  Cu113  1  0.66789275  0.32863523  -0.00696386  1
  Cu  Cu114  1  0.83220225  0.16937195  0.74391835  1
  Se  Se115  1  0.07704844  0.07259634  0.06119973  1
  Se  Se116  1  0.07706940  0.07780090  0.55149086  1
  Se  Se117  1  0.08319725  0.41176671  0.05698710  1
  Se  Se118  1  0.08542828  0.41351831  0.55550763  1
  Se  Se119  1  0.08326236  0.75142166  0.05817217  1
  Se  Se120  1  0.08495630  0.74760290  0.54793031  1
  Se  Se121  1  0.41500908  0.08064577  0.06200209  1
  Se  Se122  1  0.42104576  0.08886446  0.55580564  1
  Se  Se123  1  0.42094042  0.42293898  0.05405077  1
  Se  Se124  1  0.41528233  0.40637137  0.55956672  1
  Se  Se125  1  0.40982986  0.74237270  0.05775709  1
  Se  Se126  1  0.39506270  0.73768020  0.54287334  1
  Se  Se127  1  0.75176750  0.08369725  0.05635979  1
  Se  Se128  1  0.75024347  0.08591828  0.54999787  1
  Se  Se129  1  0.74167533  0.40724406  0.06128929  1
  Se  Se130  1  0.74970139  0.41696764  0.55053704  1
  Se  Se131  1  0.74556005  0.75232878  0.05569220  1
  Se  Se132  1  0.74414411  0.75306116  0.54726900  1
  Se  Se133  1  0.26112402  0.25690670  0.05859732  1
  Se  Se134  1  0.23185272  0.23568323  0.55439074  1
  Se  Se135  1  0.24806943  0.58855072  0.06043835  1
  Se  Se136  1  0.25151163  0.56706035  0.54079358  1
  Se  Se137  1  0.25102349  0.92234703  0.06085658  1
  Se  Se138  1  0.24770401  0.92051561  0.54906066  1
  Se  Se139  1  0.59113878  0.25560727  0.06140312  1
  Se  Se140  1  0.58334176  0.24914127  0.55189551  1
  Se  Se141  1  0.58355309  0.58209429  0.05418637  1
  Se  Se142  1  0.59416482  0.59109520  0.55784208  1
  Se  Se143  1  0.58372459  0.92347739  0.06171801  1
  Se  Se144  1  0.58054976  0.92001191  0.55382529  1
  Se  Se145  1  0.91718437  0.24947852  0.05416740  1
  Se  Se146  1  0.91191252  0.24626381  0.54921082  1
  Se  Se147  1  0.92233431  0.59202003  0.06495469  1
  Se  Se148  1  0.91704897  0.58066370  0.55224517  1
  Se  Se149  1  0.91299557  0.91245022  0.05668510  1
  Se  Se150  1  0.91298756  0.91158997  0.54866951  1
  Se  Se151  1  0.08235368  0.24568764  0.44808696  1
  Se  Se152  1  0.08030183  0.25883690  0.93449017  1
  Se  Se153  1  0.08412517  0.57699374  0.45135696  1
  Se  Se154  1  0.06638683  0.59900497  0.93920271  1
  Se  Se155  1  0.08498209  0.91453124  0.44722387  1
  Se  Se156  1  0.07289077  0.93258484  0.93376976  1
  Se  Se157  1  0.41010617  0.25560856  0.45647894  1
  Se  Se158  1  0.40778315  0.25689816  0.94227432  1
  Se  Se159  1  0.41579163  0.58676400  0.43355638  1
  Se  Se160  1  0.41943490  0.57275988  0.94823683  1
  Se  Se161  1  0.42331206  0.92053803  0.45478163  1
  Se  Se162  1  0.41131017  0.92534468  0.93818018  1
  Se  Se163  1  0.75208759  0.24828209  0.44767700  1
  Se  Se164  1  0.75045419  0.24422971  0.94243260  1
  Se  Se165  1  0.75261537  0.57260977  0.45324309  1
  Se  Se166  1  0.74361560  0.58739857  0.93893224  1
  Se  Se167  1  0.74941711  0.92256831  0.44443436  1
  Se  Se168  1  0.75343332  0.91506831  0.94602750  1
  Se  Se169  1  0.24822319  0.08679110  0.45067966  1
  Se  Se170  1  0.25564753  0.08156461  0.94391632  1
  Se  Se171  1  0.24235422  0.42420281  0.45205179  1
  Se  Se172  1  0.25469554  0.40339558  0.93815416  1
  Se  Se173  1  0.26444811  0.74607641  0.45808666  1
  Se  Se174  1  0.26368841  0.74298522  0.93573319  1
  Se  Se175  1  0.58060099  0.08996755  0.44957466  1
  Se  Se176  1  0.59150575  0.07096245  0.93974179  1
  Se  Se177  1  0.58707186  0.41035879  0.43671454  1
  Se  Se178  1  0.58289484  0.41404674  0.94498205  1
  Se  Se179  1  0.59398320  0.75003446  0.45392610  1
  Se  Se180  1  0.59133109  0.74092691  0.93454960  1
  Se  Se181  1  0.91465316  0.08348543  0.44199182  1
  Se  Se182  1  0.91347575  0.08792567  0.94895999  1
  Se  Se183  1  0.91697042  0.41558638  0.45050036  1
  Se  Se184  1  0.91856112  0.41127910  0.93939402  1
  Se  Se185  1  0.91794831  0.75261534  0.44744856  1
  Se  Se186  1  0.90840130  0.76022172  0.94927982  1
  Se  Se187  1  0.25377024  0.25199072  0.31207178  1
  Se  Se188  1  0.25405444  0.24743235  0.79908567  1
  Se  Se189  1  0.23951770  0.57629343  0.31042240  1
  Se  Se190  1  0.24362627  0.57589758  0.80242870  1
  Se  Se191  1  0.25385668  0.92243556  0.31183834  1
  Se  Se192  1  0.24954279  0.91477321  0.79151188  1
  Se  Se193  1  0.57702869  0.24445736  0.31868786  1
  Se  Se194  1  0.57668275  0.24457021  0.80378996  1
  Se  Se195  1  0.58648800  0.59027798  0.30186233  1
  Se  Se196  1  0.58250886  0.57817432  0.80346795  1
  Se  Se197  1  0.58516339  0.92564785  0.30808131  1
  Se  Se198  1  0.58542361  0.91207320  0.79658244  1
  Se  Se199  1  0.92047242  0.24839511  0.30345161  1
  Se  Se200  1  0.91910966  0.24935588  0.79736193  1
  Se  Se201  1  0.90542189  0.58003895  0.32364055  1
  Se  Se202  1  0.90797672  0.57790171  0.80527548  1
  Se  Se203  1  0.91992126  0.91872820  0.30189452  1
  Se  Se204  1  0.91285683  0.91673907  0.80461361  1
  Se  Se205  1  0.08372594  0.08027256  0.30612734  1
  Se  Se206  1  0.09149854  0.09116572  0.80803484  1
  Se  Se207  1  0.08044063  0.40610688  0.30979201  1
  Se  Se208  1  0.08200760  0.42285202  0.79155995  1
  Se  Se209  1  0.09695479  0.75025169  0.32204602  1
  Se  Se210  1  0.09204770  0.76424305  0.80198719  1
  Se  Se211  1  0.41344743  0.08415907  0.31245070  1
  Se  Se212  1  0.41361955  0.08011175  0.79779198  1
  Se  Se213  1  0.41116365  0.41388677  0.30159961  1
  Se  Se214  1  0.41624394  0.41628562  0.80207766  1
  Se  Se215  1  0.42388524  0.76536435  0.32152575  1
  Se  Se216  1  0.42844655  0.75048806  0.80042054  1
  Se  Se217  1  0.74894273  0.08083332  0.30200514  1
  Se  Se218  1  0.75420821  0.08337067  0.80047948  1
  Se  Se219  1  0.75621411  0.41735526  0.31712619  1
  Se  Se220  1  0.75066862  0.41239380  0.79919333  1
  Se  Se221  1  0.74511161  0.75309391  0.30985331  1
  Se  Se222  1  0.75654239  0.75216543  0.80270541  1
  Se  Se223  1  0.25394686  0.08403141  0.20508937  1
  Se  Se224  1  0.25420266  0.08059793  0.69283526  1
  Se  Se225  1  0.25065332  0.41543327  0.19900258  1
  Se  Se226  1  0.25311643  0.41280834  0.69727243  1
  Se  Se227  1  0.24700373  0.75859495  0.19850084  1
  Se  Se228  1  0.24193976  0.75338349  0.68131951  1
  Se  Se229  1  0.58460441  0.08653792  0.20631384  1
  Se  Se230  1  0.58336826  0.08335226  0.69302463  1
  Se  Se231  1  0.57837996  0.42440013  0.19556311  1
  Se  Se232  1  0.58635316  0.41158321  0.69872588  1
  Se  Se233  1  0.57728489  0.75654580  0.20091630  1
  Se  Se234  1  0.57293154  0.76157637  0.68579137  1
  Se  Se235  1  0.91796469  0.08198054  0.19565475  1
  Se  Se236  1  0.91113084  0.09239692  0.67967512  1
  Se  Se237  1  0.91704970  0.41122781  0.20595981  1
  Se  Se238  1  0.91878451  0.40912592  0.69004307  1
  Se  Se239  1  0.91114965  0.75279311  0.19603674  1
  Se  Se240  1  0.91031525  0.75652235  0.68756105  1
  Se  Se241  1  0.08781246  0.24431329  0.19973943  1
  Se  Se242  1  0.08232981  0.25102841  0.69565663  1
  Se  Se243  1  0.08199705  0.57383826  0.19748783  1
  Se  Se244  1  0.09473808  0.58045288  0.68370363  1
  Se  Se245  1  0.08431146  0.91444300  0.20447670  1
  Se  Se246  1  0.08979506  0.91007718  0.68663948  1
  Se  Se247  1  0.42095602  0.25173394  0.20013260  1
  Se  Se248  1  0.41314407  0.25088997  0.69394429  1
  Se  Se249  1  0.42117599  0.58258042  0.19445911  1
  Se  Se250  1  0.42765464  0.57669943  0.68000834  1
  Se  Se251  1  0.41188734  0.92376334  0.20420656  1
  Se  Se252  1  0.41083962  0.91311616  0.69007226  1
  Se  Se253  1  0.75493634  0.24461692  0.19268411  1
  Se  Se254  1  0.74681248  0.25060036  0.69097092  1
  Se  Se255  1  0.75134521  0.57961727  0.20407865  1
  Se  Se256  1  0.76336430  0.57394026  0.68391520  1
  Se  Se257  1  0.75027734  0.91681782  0.19767359  1
  Se  Se258  1  0.74663931  0.92342693  0.69285147  1
