# generated using pymatgen
data_In86Cu29Se144
_symmetry_space_group_name_H-M   'P 1'
_cell_length_a   17.58966101
_cell_length_b   17.58790265
_cell_length_c   23.44282542
_cell_angle_alpha   89.99805195
_cell_angle_beta   90.00268922
_cell_angle_gamma   89.96556397
_symmetry_Int_Tables_number   1
_chemical_formula_structural   In86Cu29Se144
_chemical_formula_sum   'In86 Cu29 Se144'
_cell_volume   7252.39412150
_cell_formula_units_Z   1
loop_
 _symmetry_equiv_pos_site_id
 _symmetry_equiv_pos_as_xyz
  1  'x, y, z'
loop_
 _atom_site_type_symbol
 _atom_site_label
 _atom_site_symmetry_multiplicity
 _atom_site_fract_x
 _atom_site_fract_y
 _atom_site_fract_z
 _atom_site_occupancy
  In  In0  1  0.00012737  0.16547729  0.13053754  1
  In  In1  1  -0.00787961  0.15629926  0.62143200  1
  In  In2  1  -0.02074945  0.49292256  0.13150559  1
  In  In3  1  0.00579617  0.51661624  0.62966627  1
  In  In4  1  0.01553572  0.83794184  0.12891934  1
  In  In5  1  -0.00150033  0.83409577  0.61707122  1
  In  In6  1  0.31743371  0.16585300  0.12661875  1
  In  In7  1  0.33229221  0.16753951  0.62180275  1
  In  In8  1  0.34805421  0.51007996  0.12410919  1
  In  In9  1  0.32902415  0.48359727  0.62829517  1
  In  In10  1  0.34082352  0.83017131  0.13730267  1
  In  In11  1  0.33794717  0.84802705  0.62116308  1
  In  In12  1  0.67076748  0.15717038  0.12351302  1
  In  In13  1  0.67167998  0.17898058  0.61280448  1
  In  In14  1  0.67627321  0.51571964  0.13235328  1
  In  In15  1  0.66472490  0.50402937  0.61285186  1
  In  In16  1  0.64897409  0.83074417  0.13106874  1
  In  In17  1  0.66112644  0.81903982  0.60963042  1
  In  In18  1  0.16618440  0.00252172  0.37782874  1
  In  In19  1  0.17447857  0.00763758  0.86605443  1
  In  In20  1  0.14976849  0.33361774  0.37460980  1
  In  In21  1  0.16171981  0.31395943  0.87196581  1
  In  In22  1  0.18627335  0.66875470  0.37510093  1
  In  In23  1  0.16615140  0.68369620  0.87031534  1
  In  In24  1  0.49744024  -0.00679099  0.37817565  1
  In  In25  1  0.48404064  -0.00269005  0.87129432  1
  In  In26  1  0.51058543  0.33061445  0.39298790  1
  In  In27  1  0.50422611  0.33625101  0.85894677  1
  In  In28  1  0.49890161  0.67020324  0.38884964  1
  In  In29  1  0.50843027  0.66077832  0.87421709  1
  In  In30  1  0.83787203  -0.00336187  0.38055408  1
  In  In31  1  0.84650872  0.00167442  0.86969928  1
  In  In32  1  0.83622481  0.32568354  0.39218606  1
  In  In33  1  0.82341676  0.33582308  0.87011917  1
  In  In34  1  0.82037055  0.67203887  0.39385837  1
  In  In35  1  0.82783423  0.66162017  0.85993972  1
  In  In36  1  -0.00120241  0.16857382  0.37856158  1
  In  In37  1  0.01008130  0.15914555  0.87871693  1
  In  In38  1  -0.00222185  0.48587896  0.36980606  1
  In  In39  1  -0.01593584  0.50049767  0.86770605  1
  In  In40  1  -0.00887046  0.84788507  0.37737339  1
  In  In41  1  0.00385923  0.83899800  0.85939215  1
  In  In42  1  0.34085302  0.15054182  0.38039720  1
  In  In43  1  0.32255217  0.15206813  0.86509688  1
  In  In44  1  0.33828355  0.51706606  0.37159244  1
  In  In45  1  0.34995774  0.49999700  0.86851301  1
  In  In46  1  0.33574291  0.82947894  0.38037512  1
  In  In47  1  0.33254653  0.84620936  0.87582146  1
  In  In48  1  0.66760410  0.17043754  0.39207288  1
  In  In49  1  0.66416704  0.18052565  0.86974396  1
  In  In50  1  0.65184946  0.50837401  0.40549140  1
  In  In51  1  0.66691394  0.50116059  0.85973156  1
  In  In52  1  0.66452035  0.82388974  0.38584627  1
  In  In53  1  0.66441327  0.81852139  0.87041614  1
  In  In54  1  0.15765968  0.00687810  0.13671570  1
  In  In55  1  0.16524046  0.00072371  0.62326694  1
  In  In56  1  0.16722275  0.31533165  0.12441435  1
  In  In57  1  0.18985955  0.33789722  0.62905409  1
  In  In58  1  0.17260517  0.68072238  0.12428990  1
  In  In59  1  0.14248232  0.66367100  0.62597668  1
  In  In60  1  0.50171305  -0.01567128  0.12532167  1
  In  In61  1  0.48870650  -0.00400245  0.62078580  1
  In  In62  1  0.50019638  0.33931728  0.12813915  1
  In  In63  1  0.49867139  0.33263328  0.61621700  1
  In  In64  1  0.48089750  0.69707076  0.16471627  1
  In  In65  1  0.51197658  0.67624598  0.61177070  1
  In  In66  1  0.83117607  0.01764690  0.12686043  1
  In  In67  1  0.84159806  0.00603048  0.61865278  1
  In  In68  1  0.85021911  0.33732243  0.13369662  1
  In  In69  1  0.81794991  0.33088701  0.60685029  1
  In  In70  1  0.81798339  0.65947274  0.13525464  1
  In  In71  1  0.83305315  0.66697009  0.61311579  1
  In  In72  1  -0.00005138  0.33516694  0.74509136  1
  In  In73  1  0.17675266  0.84615808  -0.00197074  1
  In  In74  1  0.66621790  -0.01086030  0.26389563  1
  In  In75  1  0.32907985  0.33798608  0.24975860  1
  In  In76  1  0.16848685  0.49860596  0.00119875  1
  In  In77  1  0.16852050  0.50045466  0.50128668  1
  In  In78  1  0.33328880  0.66601227  0.74687542  1
  In  In79  1  0.66815950  -0.00014135  0.73731288  1
  In  In80  1  0.50605706  0.50222095  -0.00267286  1
  In  In81  1  0.67403347  0.33952516  0.26784529  1
  In  In82  1  0.49658388  0.16072472  -0.00489998  1
  In  In83  1  0.83551821  0.83604462  -0.00302432  1
  In  In84  1  -0.00271017  0.66933284  0.25311689  1
  In  In85  1  0.82884992  0.49773191  -0.00122491  1
  Cu  Cu86  1  0.00202853  0.00103194  0.49865161  1
  Cu  Cu87  1  0.15944794  0.83263726  0.74250794  1
  Cu  Cu88  1  0.50953635  0.50209892  0.26512916  1
  Cu  Cu89  1  0.49688276  0.15857976  0.25515116  1
  Cu  Cu90  1  0.33452323  0.66905594  0.50316949  1
  Cu  Cu91  1  0.83708469  0.17328133  0.25494671  1
  Cu  Cu92  1  0.50274622  0.83157633  0.74022128  1
  Cu  Cu93  1  0.50738467  0.49999410  0.73777709  1
  Cu  Cu94  1  0.82757014  0.50302938  0.73666420  1
  Cu  Cu95  1  -0.00528442  0.66570505  -0.00827362  1
  Cu  Cu96  1  0.00185616  0.00742995  0.00207933  1
  Cu  Cu97  1  0.82856765  0.83338900  0.25898191  1
  Cu  Cu98  1  0.32885429  0.00184628  0.49902654  1
  Cu  Cu99  1  0.16237901  0.50081359  0.24763835  1
  Cu  Cu100  1  0.65798345  0.67145394  0.00056317  1
  Cu  Cu101  1  0.67052098  -0.00034562  0.00061979  1
  Cu  Cu102  1  0.16127444  0.16756779  0.25528701  1
  Cu  Cu103  1  0.16886589  0.16294011  0.74672117  1
  Cu  Cu104  1  0.83488033  0.82328156  0.74004027  1
  Cu  Cu105  1  0.49789657  0.17581243  0.74319423  1
  Cu  Cu106  1  0.66204160  -0.00040476  0.50279598  1
  Cu  Cu107  1  0.00491450  0.32781914  0.50529198  1
  Cu  Cu108  1  0.67309444  0.32740346  -0.00214052  1
  Cu  Cu109  1  0.00221246  0.32100850  0.00475085  1
  Cu  Cu110  1  0.32912884  0.32509856  -0.00887668  1
  Cu  Cu111  1  0.32891752  0.33112146  0.49786989  1
  Cu  Cu112  1  0.83136056  0.17175417  0.73933937  1
  Cu  Cu113  1  0.00709528  0.67250689  0.49434635  1
  Cu  Cu114  1  0.17186538  0.83977113  0.25616798  1
  Se  Se115  1  0.08483514  0.08516721  0.05969770  1
  Se  Se116  1  0.08373271  0.08476911  0.55296926  1
  Se  Se117  1  0.07256409  0.41254817  0.06244869  1
  Se  Se118  1  0.08237302  0.41080503  0.56534512  1
  Se  Se119  1  0.07673618  0.74713147  0.04961002  1
  Se  Se120  1  0.08917624  0.75416456  0.54903450  1
  Se  Se121  1  0.41340626  0.08005657  0.06471700  1
  Se  Se122  1  0.41422072  0.08499573  0.55137898  1
  Se  Se123  1  0.40794754  0.40574408  0.05205053  1
  Se  Se124  1  0.40953249  0.41739719  0.55053383  1
  Se  Se125  1  0.42432136  0.74544525  0.07113768  1
  Se  Se126  1  0.41468943  0.75757667  0.55418676  1
  Se  Se127  1  0.75296945  0.08714828  0.04822023  1
  Se  Se128  1  0.74985707  0.08187868  0.55225870  1
  Se  Se129  1  0.74242921  0.40941959  0.06341993  1
  Se  Se130  1  0.77117608  0.44510121  0.54634849  1
  Se  Se131  1  0.74702138  0.74561803  0.05791058  1
  Se  Se132  1  0.75606643  0.75272116  0.54301693  1
  Se  Se133  1  0.24855926  0.24572588  0.04873694  1
  Se  Se134  1  0.24615423  0.24965980  0.55180068  1
  Se  Se135  1  0.25878811  0.59277203  0.05657727  1
  Se  Se136  1  0.25372911  0.59060428  0.56508144  1
  Se  Se137  1  0.25432528  0.92384597  0.07226297  1
  Se  Se138  1  0.24570926  0.91754932  0.55166333  1
  Se  Se139  1  0.58649735  0.25520782  0.05788665  1
  Se  Se140  1  0.57502251  0.24492809  0.54693815  1
  Se  Se141  1  0.58534853  0.59045283  0.06405892  1
  Se  Se142  1  0.57448185  0.57893722  0.54455935  1
  Se  Se143  1  0.58878659  0.91498568  0.05230761  1
  Se  Se144  1  0.57745267  0.91675132  0.55389082  1
  Se  Se145  1  0.91349474  0.24703671  0.06064041  1
  Se  Se146  1  0.91605803  0.24604302  0.55330248  1
  Se  Se147  1  0.91739520  0.59355690  0.05728503  1
  Se  Se148  1  0.93046349  0.58653332  0.55110191  1
  Se  Se149  1  0.92472718  0.92299209  0.06132552  1
  Se  Se150  1  0.91490128  0.91709996  0.54846547  1
  Se  Se151  1  0.08699770  0.24683027  0.44950492  1
  Se  Se152  1  0.08805589  0.24237082  0.95061615  1
  Se  Se153  1  0.08221126  0.58650638  0.43442882  1
  Se  Se154  1  0.07692081  0.58483596  0.93551747  1
  Se  Se155  1  0.08496473  0.91609388  0.44622295  1
  Se  Se156  1  0.07413782  0.92395156  0.93810984  1
  Se  Se157  1  0.41260400  0.24593932  0.44674448  1
  Se  Se158  1  0.41626757  0.25412702  0.93012337  1
  Se  Se159  1  0.41361978  0.57867170  0.45345256  1
  Se  Se160  1  0.40857962  0.59328463  0.94487256  1
  Se  Se161  1  0.41509709  0.91535103  0.45045760  1
  Se  Se162  1  0.41574794  0.91910170  0.94749897  1
  Se  Se163  1  0.74998955  0.24880877  0.46035384  1
  Se  Se164  1  0.75463746  0.24683798  0.94277445  1
  Se  Se165  1  0.76532616  0.56866543  0.46189741  1
  Se  Se166  1  0.73851784  0.59084239  0.93923491  1
  Se  Se167  1  0.74517227  0.92069298  0.44491329  1
  Se  Se168  1  0.74426155  0.92152260  0.93366341  1
  Se  Se169  1  0.24397769  0.08772056  0.44973023  1
  Se  Se170  1  0.25447045  0.07494096  0.94290783  1
  Se  Se171  1  0.25492346  0.41363790  0.43381800  1
  Se  Se172  1  0.25509708  0.41249209  0.93391502  1
  Se  Se173  1  0.24842768  0.75159803  0.45281898  1
  Se  Se174  1  0.26108498  0.74394835  0.94426777  1
  Se  Se175  1  0.57772655  0.07907716  0.44670740  1
  Se  Se176  1  0.59224170  0.07560540  0.93468848  1
  Se  Se177  1  0.59172537  0.40070129  0.46646815  1
  Se  Se178  1  0.59494003  0.40932348  0.93655240  1
  Se  Se179  1  0.58489370  0.74692319  0.45871041  1
  Se  Se180  1  0.57710390  0.75293063  0.94526147  1
  Se  Se181  1  0.91583259  0.08516368  0.44755979  1
  Se  Se182  1  0.91553595  0.08432254  0.94544887  1
  Se  Se183  1  0.92779533  0.41537192  0.45095149  1
  Se  Se184  1  0.92417915  0.40358179  0.94400325  1
  Se  Se185  1  0.91954038  0.75670087  0.44685515  1
  Se  Se186  1  0.91850556  0.74607971  0.93053633  1
  Se  Se187  1  0.24755313  0.24684548  0.31347499  1
  Se  Se188  1  0.25130397  0.24899217  0.79904153  1
  Se  Se189  1  0.24883779  0.58231294  0.29795326  1
  Se  Se190  1  0.24588969  0.58030754  0.81215283  1
  Se  Se191  1  0.25435292  0.91821577  0.31257828  1
  Se  Se192  1  0.24434991  0.90900119  0.80103537  1
  Se  Se193  1  0.57647512  0.24030534  0.31279424  1
  Se  Se194  1  0.58984156  0.25415635  0.79248839  1
  Se  Se195  1  0.58632627  0.58242959  0.32331895  1
  Se  Se196  1  0.58212632  0.58681713  0.79608497  1
  Se  Se197  1  0.57168871  0.89390375  0.31055973  1
  Se  Se198  1  0.58053048  0.91320785  0.80448904  1
  Se  Se199  1  0.91490154  0.25652916  0.31182600  1
  Se  Se200  1  0.91308365  0.24316287  0.80740684  1
  Se  Se201  1  0.91181929  0.58959121  0.32035671  1
  Se  Se202  1  0.91388652  0.58245910  0.79262882  1
  Se  Se203  1  0.91319834  0.92316037  0.30147464  1
  Se  Se204  1  0.90987836  0.91373132  0.79492539  1
  Se  Se205  1  0.07974385  0.08392873  0.30897084  1
  Se  Se206  1  0.08128318  0.08264254  0.79990080  1
  Se  Se207  1  0.08132666  0.41309019  0.29619050  1
  Se  Se208  1  0.08647638  0.41956035  0.81220118  1
  Se  Se209  1  0.08960590  0.75565309  0.31364655  1
  Se  Se210  1  0.07815789  0.74521359  0.79457872  1
  Se  Se211  1  0.41528381  0.07234696  0.30476702  1
  Se  Se212  1  0.42166938  0.08721086  0.79764047  1
  Se  Se213  1  0.42661985  0.41328735  0.31599161  1
  Se  Se214  1  0.42112023  0.42048177  0.79277507  1
  Se  Se215  1  0.40228961  0.72821152  0.31646226  1
  Se  Se216  1  0.42372386  0.75628735  0.80740746  1
  Se  Se217  1  0.75146914  0.09448965  0.31306571  1
  Se  Se218  1  0.75367065  0.08964535  0.80333581  1
  Se  Se219  1  0.75089773  0.42634803  0.33421187  1
  Se  Se220  1  0.75184265  0.41692683  0.79503065  1
  Se  Se221  1  0.75093602  0.74923457  0.31321182  1
  Se  Se222  1  0.74569015  0.74802465  0.79482383  1
  Se  Se223  1  0.24846487  0.08619066  0.20344933  1
  Se  Se224  1  0.25205524  0.08152641  0.69188743  1
  Se  Se225  1  0.24288260  0.42558553  0.18212499  1
  Se  Se226  1  0.24418543  0.42535147  0.70637731  1
  Se  Se227  1  0.24831010  0.74955433  0.20238051  1
  Se  Se228  1  0.24465166  0.75424670  0.68400857  1
  Se  Se229  1  0.58308603  0.08374117  0.19601397  1
  Se  Se230  1  0.57730178  0.09357582  0.68254251  1
  Se  Se231  1  0.58156339  0.42257190  0.19915552  1
  Se  Se232  1  0.58655769  0.41654859  0.68254192  1
  Se  Se233  1  0.61631749  0.72247603  0.20002761  1
  Se  Se234  1  0.58764051  0.74837891  0.69073156  1
  Se  Se235  1  0.91515869  0.08480783  0.20144537  1
  Se  Se236  1  0.91578093  0.08036948  0.69786109  1
  Se  Se237  1  0.90343505  0.42722624  0.20998221  1
  Se  Se238  1  0.91001198  0.41890479  0.68122481  1
  Se  Se239  1  0.90835152  0.76150037  0.18952116  1
  Se  Se240  1  0.91965079  0.74434595  0.68540791  1
  Se  Se241  1  0.08162396  0.25211650  0.20002653  1
  Se  Se242  1  0.08950710  0.24433180  0.68554682  1
  Se  Se243  1  0.08507019  0.58200137  0.18450613  1
  Se  Se244  1  0.09621115  0.57329744  0.70453772  1
  Se  Se245  1  0.08034436  0.91853147  0.20621856  1
  Se  Se246  1  0.07778918  0.91710818  0.68977913  1
  Se  Se247  1  0.42328619  0.24307979  0.19293499  1
  Se  Se248  1  0.41312493  0.25656880  0.68929817  1
  Se  Se249  1  0.41900108  0.57416942  0.20717214  1
  Se  Se250  1  0.42333760  0.58284751  0.68173494  1
  Se  Se251  1  0.42858196  0.91237199  0.20198301  1
  Se  Se252  1  0.41513584  0.92045349  0.69931686  1
  Se  Se253  1  0.74995120  0.24737729  0.19519059  1
  Se  Se254  1  0.74926334  0.25607434  0.68856226  1
  Se  Se255  1  0.76480342  0.56749407  0.20933359  1
  Se  Se256  1  0.74705444  0.58741466  0.68363032  1
  Se  Se257  1  0.75472034  0.91293866  0.18943847  1
  Se  Se258  1  0.75559072  0.90599771  0.68021350  1
