# generated using pymatgen
data_In86Cu29Se144
_symmetry_space_group_name_H-M   'P 1'
_cell_length_a   17.58056862
_cell_length_b   17.57912724
_cell_length_c   23.43742431
_cell_angle_alpha   89.98954784
_cell_angle_beta   90.00973028
_cell_angle_gamma   89.98968389
_symmetry_Int_Tables_number   1
_chemical_formula_structural   In86Cu29Se144
_chemical_formula_sum   'In86 Cu29 Se144'
_cell_volume   7243.36031212
_cell_formula_units_Z   1
loop_
 _symmetry_equiv_pos_site_id
 _symmetry_equiv_pos_as_xyz
  1  'x, y, z'
loop_
 _atom_site_type_symbol
 _atom_site_label
 _atom_site_symmetry_multiplicity
 _atom_site_fract_x
 _atom_site_fract_y
 _atom_site_fract_z
 _atom_site_occupancy
  In  In0  1  -0.01938961  0.18127111  0.13568397  1
  In  In1  1  0.01657774  0.17761519  0.61144479  1
  In  In2  1  -0.00471401  0.48837281  0.11853879  1
  In  In3  1  -0.00325345  0.49540942  0.61652924  1
  In  In4  1  0.00306625  0.84736008  0.12753537  1
  In  In5  1  0.00386903  0.83830311  0.62034831  1
  In  In6  1  0.33893199  0.17433935  0.12295824  1
  In  In7  1  0.33020475  0.17746597  0.63041862  1
  In  In8  1  0.32340134  0.51124130  0.13843724  1
  In  In9  1  0.31589237  0.48841253  0.60855467  1
  In  In10  1  0.33468732  0.81979825  0.12442060  1
  In  In11  1  0.33423585  0.84003066  0.62404324  1
  In  In12  1  0.67958978  0.17331656  0.12293106  1
  In  In13  1  0.66075866  0.15635210  0.62781126  1
  In  In14  1  0.67293556  0.48908864  0.14166937  1
  In  In15  1  0.67463966  0.50940449  0.61950900  1
  In  In16  1  0.66352894  0.82256822  0.11628815  1
  In  In17  1  0.66299761  0.83736354  0.63610793  1
  In  In18  1  0.14192210  0.01479682  0.39915761  1
  In  In19  1  0.18154926  -0.00752146  0.86503270  1
  In  In20  1  0.16371045  0.33630361  0.36746031  1
  In  In21  1  0.16577417  0.33353477  0.87072388  1
  In  In22  1  0.19197244  0.64463817  0.39851313  1
  In  In23  1  0.15586924  0.66215757  0.87325493  1
  In  In24  1  0.50078862  -0.00089092  0.37747969  1
  In  In25  1  0.48679476  -0.01240052  0.86501334  1
  In  In26  1  0.51383312  0.36192122  0.35575216  1
  In  In27  1  0.49252546  0.33909811  0.87329748  1
  In  In28  1  0.47030977  0.61829607  0.32916241  1
  In  In29  1  0.51787950  0.66056651  0.87392343  1
  In  In30  1  0.85376986  0.00463415  0.37886387  1
  In  In31  1  0.82652454  0.00534683  0.88034734  1
  In  In32  1  0.83503314  0.33286114  0.37664245  1
  In  In33  1  0.83945887  0.32350833  0.88772980  1
  In  In34  1  0.81329299  0.65824472  0.36862989  1
  In  In35  1  0.83312969  0.66967590  0.88283366  1
  In  In36  1  -0.00229535  0.17053667  0.37558358  1
  In  In37  1  -0.01307354  0.17181923  0.87588727  1
  In  In38  1  0.01834895  0.48008324  0.37819419  1
  In  In39  1  0.00454176  0.48792624  0.88633580  1
  In  In40  1  0.00415059  0.84475329  0.37374570  1
  In  In41  1  0.00196943  0.82293776  0.87784005  1
  In  In42  1  0.31698987  0.17248509  0.38274673  1
  In  In43  1  0.33710664  0.16752886  0.86136026  1
  In  In44  1  0.32466821  0.49967260  0.37153713  1
  In  In45  1  0.33005299  0.48351009  0.86838726  1
  In  In46  1  0.32605596  0.80571004  0.37409475  1
  In  In47  1  0.32954019  0.84302642  0.87123766  1
  In  In48  1  0.66382572  0.18673237  0.37875972  1
  In  In49  1  0.67891726  0.16684174  0.87463825  1
  In  In50  1  0.66692231  0.50260461  0.37731942  1
  In  In51  1  0.67044253  0.50901715  0.87297591  1
  In  In52  1  0.66961850  0.82244684  0.37478025  1
  In  In53  1  0.66774700  0.82771016  0.87820021  1
  In  In54  1  0.16089844  -0.01205687  0.12989653  1
  In  In55  1  0.16672921  0.01261301  0.61892522  1
  In  In56  1  0.14359693  0.35773887  0.14827379  1
  In  In57  1  0.16767379  0.33264067  0.62080228  1
  In  In58  1  0.18219223  0.66286120  0.13129785  1
  In  In59  1  0.17195679  0.66853707  0.60571128  1
  In  In60  1  0.51423905  -0.00136557  0.11925418  1
  In  In61  1  0.49923450  0.01210605  0.64434572  1
  In  In62  1  0.48584445  0.35658692  0.14687789  1
  In  In63  1  0.48017175  0.33487388  0.62450797  1
  In  In64  1  0.49353017  0.66696555  0.13112422  1
  In  In65  1  0.50776901  0.66884236  0.62278262  1
  In  In66  1  0.84199666  0.01115362  0.11634169  1
  In  In67  1  0.82156800  0.00211475  0.62782187  1
  In  In68  1  0.83679722  0.33153853  0.12598560  1
  In  In69  1  0.84471775  0.34330695  0.62051397  1
  In  In70  1  0.82889096  0.65563274  0.12102013  1
  In  In71  1  0.83117113  0.66303800  0.62359282  1
  In  In72  1  0.00191669  0.66572228  0.74787418  1
  In  In73  1  0.33611291  0.66636651  0.73610355  1
  In  In74  1  0.49884715  0.83061439  0.50353685  1
  In  In75  1  -0.00000606  0.00813205  0.74816321  1
  In  In76  1  0.16655996  0.82971451  -0.00309370  1
  In  In77  1  0.16025366  0.16938154  -0.00012308  1
  In  In78  1  0.32609591  -0.00195307  0.25793216  1
  In  In79  1  0.51580697  0.17192548  -0.00275677  1
  In  In80  1  0.83547092  0.83365304  0.50133304  1
  In  In81  1  0.50475301  0.50209401  0.00136070  1
  In  In82  1  0.66207279  0.32930246  0.75478345  1
  In  In83  1  0.49560335  0.17637778  0.50510585  1
  In  In84  1  0.00330475  0.66382055  0.25358985  1
  In  In85  1  0.67652045  0.00364337  0.24455268  1
  Cu  Cu86  1  0.83455121  0.16951676  0.25159990  1
  Cu  Cu87  1  0.67092658  0.00253926  0.50636708  1
  Cu  Cu88  1  -0.01151411  0.66198825  0.49531341  1
  Cu  Cu89  1  0.00186346  0.66206632  0.00170859  1
  Cu  Cu90  1  0.82705342  0.83296149  0.75736071  1
  Cu  Cu91  1  0.66769443  -0.01035495  -0.00309300  1
  Cu  Cu92  1  0.34072010  -0.00308647  -0.00803427  1
  Cu  Cu93  1  0.32944741  -0.00445967  0.50284945  1
  Cu  Cu94  1  0.50144583  0.83441290  0.24445790  1
  Cu  Cu95  1  0.33280948  0.33344297  0.49320042  1
  Cu  Cu96  1  0.83578950  0.49292718  0.25154812  1
  Cu  Cu97  1  0.83770313  0.17562496  0.75108087  1
  Cu  Cu98  1  0.16503268  0.49474125  0.74511167  1
  Cu  Cu99  1  0.67055217  0.33380644  0.01017627  1
  Cu  Cu100  1  0.33956676  0.65934953  0.00443465  1
  Cu  Cu101  1  0.49958908  0.17669667  0.25420486  1
  Cu  Cu102  1  0.00379693  0.33411892  0.49507892  1
  Cu  Cu103  1  0.83572979  0.83455153  0.25053348  1
  Cu  Cu104  1  0.16493760  0.83377399  0.25830322  1
  Cu  Cu105  1  0.67179972  0.34144493  0.49765978  1
  Cu  Cu106  1  0.49773771  0.49596293  0.74852054  1
  Cu  Cu107  1  0.16256853  0.16191299  0.25754921  1
  Cu  Cu108  1  0.67203182  0.66457998  0.00106581  1
  Cu  Cu109  1  0.50707582  0.82494678  0.75180858  1
  Cu  Cu110  1  0.32361327  0.33813698  0.00041637  1
  Cu  Cu111  1  0.65773083  0.66204540  0.49600151  1
  Cu  Cu112  1  0.16670905  0.17341547  0.74347480  1
  Cu  Cu113  1  -0.00464170  0.00394138  0.00102870  1
  Cu  Cu114  1  0.83654275  0.50112756  0.74590729  1
  Se  Se115  1  0.07750042  0.07683787  0.06371353  1
  Se  Se116  1  0.07925057  0.07886295  0.54573240  1
  Se  Se117  1  0.09007700  0.41223452  0.05559274  1
  Se  Se118  1  0.08681956  0.41680224  0.55101955  1
  Se  Se119  1  0.08161360  0.74315161  0.06354717  1
  Se  Se120  1  0.06924871  0.74604784  0.55021206  1
  Se  Se121  1  0.41622748  0.07933491  0.05333359  1
  Se  Se122  1  0.41373396  0.07506145  0.56153350  1
  Se  Se123  1  0.40883512  0.41641805  0.05908643  1
  Se  Se124  1  0.41724267  0.41665562  0.54615315  1
  Se  Se125  1  0.42118647  0.74699230  0.05340201  1
  Se  Se126  1  0.40480026  0.73822108  0.55781995  1
  Se  Se127  1  0.74277411  0.08005954  0.05164988  1
  Se  Se128  1  0.75189672  0.09081600  0.55516980  1
  Se  Se129  1  0.74991539  0.42077238  0.06241308  1
  Se  Se130  1  0.75572657  0.42205998  0.55358778  1
  Se  Se131  1  0.75838468  0.74879064  0.05163702  1
  Se  Se132  1  0.73446482  0.74832674  0.55729126  1
  Se  Se133  1  0.24730451  0.25792678  0.06168120  1
  Se  Se134  1  0.25483498  0.25031175  0.55253494  1
  Se  Se135  1  0.25210821  0.57996439  0.05557600  1
  Se  Se136  1  0.24892278  0.58136191  0.54027349  1
  Se  Se137  1  0.25875649  0.92244529  0.05639415  1
  Se  Se138  1  0.24523732  0.91532101  0.55649514  1
  Se  Se139  1  0.57889615  0.26657855  0.07028623  1
  Se  Se140  1  0.59266486  0.26343230  0.56246770  1
  Se  Se141  1  0.59364056  0.58595883  0.06504914  1
  Se  Se142  1  0.57802041  0.57867681  0.55222241  1
  Se  Se143  1  0.58114794  0.90927445  0.04882558  1
  Se  Se144  1  0.58421535  0.92744881  0.56409638  1
  Se  Se145  1  0.90832725  0.24306620  0.05426870  1
  Se  Se146  1  0.91878565  0.25448687  0.55091849  1
  Se  Se147  1  0.91684672  0.57886205  0.05305190  1
  Se  Se148  1  0.90876805  0.58149015  0.55312907  1
  Se  Se149  1  0.91725277  0.91388672  0.05255590  1
  Se  Se150  1  0.91946765  0.93121492  0.55793372  1
  Se  Se151  1  0.08783010  0.25238066  0.44075425  1
  Se  Se152  1  0.07055740  0.26108491  0.94311869  1
  Se  Se153  1  0.07804100  0.57853690  0.44850254  1
  Se  Se154  1  0.08745681  0.58121049  0.94839715  1
  Se  Se155  1  0.07831396  0.90656168  0.45567262  1
  Se  Se156  1  0.08020694  0.92942219  0.93901151  1
  Se  Se157  1  0.42075429  0.26122655  0.43228301  1
  Se  Se158  1  0.40655429  0.25416210  0.94433676  1
  Se  Se159  1  0.41826689  0.58805650  0.42857049  1
  Se  Se160  1  0.41154635  0.58285501  0.93486751  1
  Se  Se161  1  0.40685180  0.91869200  0.43975129  1
  Se  Se162  1  0.42037113  0.90686847  0.94445545  1
  Se  Se163  1  0.75373295  0.25143092  0.45046615  1
  Se  Se164  1  0.74562298  0.24660171  0.95299917  1
  Se  Se165  1  0.75125867  0.58162452  0.45068384  1
  Se  Se166  1  0.75267235  0.57877218  0.94819900  1
  Se  Se167  1  0.74321538  0.92414666  0.44000482  1
  Se  Se168  1  0.75571531  0.90909072  0.94559382  1
  Se  Se169  1  0.24853047  0.08651323  0.45532303  1
  Se  Se170  1  0.25721856  0.08108839  0.93923457  1
  Se  Se171  1  0.24495015  0.41448626  0.44186987  1
  Se  Se172  1  0.24373899  0.41867339  0.94297508  1
  Se  Se173  1  0.23988726  0.76096494  0.45538333  1
  Se  Se174  1  0.25938328  0.73757630  0.93936871  1
  Se  Se175  1  0.58848049  0.08129196  0.44565203  1
  Se  Se176  1  0.58827915  0.07098436  0.93495259  1
  Se  Se177  1  0.58199681  0.41799721  0.44470766  1
  Se  Se178  1  0.59357110  0.40683023  0.94183794  1
  Se  Se179  1  0.57795721  0.74181815  0.43692345  1
  Se  Se180  1  0.58428226  0.74495631  0.94894523  1
  Se  Se181  1  0.91831013  0.09189506  0.45008737  1
  Se  Se182  1  0.91308966  0.08705636  0.94716519  1
  Se  Se183  1  0.91704083  0.41812644  0.44489062  1
  Se  Se184  1  0.89907042  0.42902620  0.94831382  1
  Se  Se185  1  0.91278038  0.74311903  0.43287485  1
  Se  Se186  1  0.92086418  0.75003953  0.95083112  1
  Se  Se187  1  0.25005911  0.24703640  0.30286883  1
  Se  Se188  1  0.25005309  0.25489452  0.80045072  1
  Se  Se189  1  0.24406865  0.59126399  0.30555311  1
  Se  Se190  1  0.24517782  0.57947920  0.80280167  1
  Se  Se191  1  0.23979819  0.91542271  0.32320817  1
  Se  Se192  1  0.25551056  0.91263631  0.79327084  1
  Se  Se193  1  0.59062361  0.25757417  0.30026037  1
  Se  Se194  1  0.57182057  0.23825859  0.81352440  1
  Se  Se195  1  0.61286668  0.60675499  0.30864926  1
  Se  Se196  1  0.58535923  0.57757035  0.79779769  1
  Se  Se197  1  0.58052849  0.91483118  0.30474035  1
  Se  Se198  1  0.58678476  0.90985555  0.80703144  1
  Se  Se199  1  0.91792351  0.25346116  0.30446451  1
  Se  Se200  1  0.91677546  0.26097004  0.80457657  1
  Se  Se201  1  0.91442767  0.57309615  0.31356733  1
  Se  Se202  1  0.91559481  0.57859139  0.81096525  1
  Se  Se203  1  0.91738091  0.91876245  0.30224576  1
  Se  Se204  1  0.91575819  0.91188183  0.81117422  1
  Se  Se205  1  0.08068459  0.07810231  0.31048298  1
  Se  Se206  1  0.09225092  0.09582146  0.81148809  1
  Se  Se207  1  0.08418787  0.41525662  0.29405475  1
  Se  Se208  1  0.08099517  0.42056953  0.80502885  1
  Se  Se209  1  0.09162225  0.74753564  0.31804167  1
  Se  Se210  1  0.09529926  0.76234550  0.80196150  1
  Se  Se211  1  0.42126470  0.09285509  0.31281798  1
  Se  Se212  1  0.41202973  0.07606962  0.79810590  1
  Se  Se213  1  0.39908779  0.41076045  0.30006526  1
  Se  Se214  1  0.41342898  0.40912316  0.79581406  1
  Se  Se215  1  0.41751284  0.75279702  0.29768317  1
  Se  Se216  1  0.42157928  0.74521840  0.80918752  1
  Se  Se217  1  0.75400103  0.09139312  0.31461509  1
  Se  Se218  1  0.75833114  0.08681465  0.80247947  1
  Se  Se219  1  0.74988615  0.41604785  0.30908134  1
  Se  Se220  1  0.75830715  0.41953962  0.80866068  1
  Se  Se221  1  0.74780016  0.75194452  0.29740718  1
  Se  Se222  1  0.75022454  0.74263270  0.80853598  1
  Se  Se223  1  0.24345743  0.08903649  0.19024916  1
  Se  Se224  1  0.24834654  0.08574407  0.69338466  1
  Se  Se225  1  0.26812458  0.39926258  0.19651935  1
  Se  Se226  1  0.25187920  0.41468067  0.69150188  1
  Se  Se227  1  0.24999437  0.75616006  0.20119057  1
  Se  Se228  1  0.23660082  0.75446311  0.68620321  1
  Se  Se229  1  0.57719588  0.09580797  0.19236290  1
  Se  Se230  1  0.59845783  0.07860982  0.70707710  1
  Se  Se231  1  0.57895799  0.42639975  0.21186011  1
  Se  Se232  1  0.58199897  0.41904896  0.68689931  1
  Se  Se233  1  0.58551074  0.75095365  0.19297373  1
  Se  Se234  1  0.58826720  0.74037849  0.69861477  1
  Se  Se235  1  0.91327003  0.07878432  0.19922605  1
  Se  Se236  1  0.91422786  0.09734680  0.68605552  1
  Se  Se237  1  0.91979117  0.41363395  0.19632287  1
  Se  Se238  1  0.92336306  0.41986123  0.69556030  1
  Se  Se239  1  0.91536316  0.75335980  0.18948867  1
  Se  Se240  1  0.90877444  0.76143859  0.69167366  1
  Se  Se241  1  0.08074037  0.24444572  0.20156349  1
  Se  Se242  1  0.08087713  0.25523069  0.69231314  1
  Se  Se243  1  0.08627322  0.57617384  0.18819728  1
  Se  Se244  1  0.09222761  0.58068042  0.68422160  1
  Se  Se245  1  0.08144352  0.91738238  0.20604368  1
  Se  Se246  1  0.08927304  0.91660233  0.69116547  1
  Se  Se247  1  0.41029500  0.25042068  0.19991110  1
  Se  Se248  1  0.43646327  0.23244151  0.69445454  1
  Se  Se249  1  0.42204407  0.58080172  0.20255616  1
  Se  Se250  1  0.42003914  0.56810383  0.68098981  1
  Se  Se251  1  0.42047011  0.91941189  0.18877175  1
  Se  Se252  1  0.42321496  0.90619197  0.69686093  1
  Se  Se253  1  0.75074083  0.25278176  0.19830929  1
  Se  Se254  1  0.75539014  0.25122680  0.68824956  1
  Se  Se255  1  0.75684084  0.58395663  0.20077263  1
  Se  Se256  1  0.75105517  0.58550223  0.69688738  1
  Se  Se257  1  0.75858808  0.91004283  0.18350152  1
  Se  Se258  1  0.74936110  0.91959539  0.70200079  1
