# generated using pymatgen
data_In86Cu29Se144
_symmetry_space_group_name_H-M   'P 1'
_cell_length_a   17.59664576
_cell_length_b   17.58688888
_cell_length_c   23.43959170
_cell_angle_alpha   89.99552333
_cell_angle_beta   89.98486205
_cell_angle_gamma   90.02988724
_symmetry_Int_Tables_number   1
_chemical_formula_structural   In86Cu29Se144
_chemical_formula_sum   'In86 Cu29 Se144'
_cell_volume   7253.85512509
_cell_formula_units_Z   1
loop_
 _symmetry_equiv_pos_site_id
 _symmetry_equiv_pos_as_xyz
  1  'x, y, z'
loop_
 _atom_site_type_symbol
 _atom_site_label
 _atom_site_symmetry_multiplicity
 _atom_site_fract_x
 _atom_site_fract_y
 _atom_site_fract_z
 _atom_site_occupancy
  In  In0  1  -0.00054600  0.17258788  0.13231699  1
  In  In1  1  -0.00081462  0.17294631  0.62754574  1
  In  In2  1  -0.02537384  0.48836930  0.13106327  1
  In  In3  1  -0.00928988  0.49186796  0.63106453  1
  In  In4  1  -0.00207795  0.84357590  0.12560100  1
  In  In5  1  -0.00461007  0.84675458  0.62317152  1
  In  In6  1  0.32943978  0.16571149  0.11773798  1
  In  In7  1  0.33177146  0.17259969  0.63263435  1
  In  In8  1  0.36673526  0.47567013  0.14569591  1
  In  In9  1  0.35496916  0.48364257  0.63149887  1
  In  In10  1  0.33398078  0.83406189  0.12732790  1
  In  In11  1  0.33314517  0.82753772  0.63864434  1
  In  In12  1  0.68788184  0.19980285  0.10539865  1
  In  In13  1  0.67986804  0.16702206  0.62592135  1
  In  In14  1  0.66728130  0.48836369  0.13028155  1
  In  In15  1  0.65722439  0.50597213  0.63037466  1
  In  In16  1  0.66905328  0.82090359  0.12327689  1
  In  In17  1  0.66701021  0.82057453  0.62522219  1
  In  In18  1  0.17168602  0.02000108  0.36056993  1
  In  In19  1  0.17908322  0.00640937  0.87337925  1
  In  In20  1  0.16374047  0.32303386  0.36109264  1
  In  In21  1  0.15731516  0.32581320  0.87269678  1
  In  In22  1  0.17203150  0.65662506  0.37024371  1
  In  In23  1  0.17403967  0.66396475  0.87427516  1
  In  In24  1  0.49215753  0.01045221  0.36972246  1
  In  In25  1  0.49245249  0.01316128  0.87801846  1
  In  In26  1  0.49885481  0.33773707  0.36835173  1
  In  In27  1  0.49749381  0.33787818  0.87800348  1
  In  In28  1  0.48725415  0.64946732  0.36279586  1
  In  In29  1  0.49338111  0.65787989  0.87462204  1
  In  In30  1  0.83627689  -0.00174416  0.36951070  1
  In  In31  1  0.83100062  0.00681939  0.88426809  1
  In  In32  1  0.81918517  0.32752458  0.36031304  1
  In  In33  1  0.82675946  0.33240026  0.88189360  1
  In  In34  1  0.83119652  0.67048389  0.37183847  1
  In  In35  1  0.81824155  0.66860157  0.87884179  1
  In  In36  1  -0.01394768  0.15907354  0.35337852  1
  In  In37  1  -0.01260750  0.18241189  0.88861777  1
  In  In38  1  -0.00531330  0.49525188  0.36810160  1
  In  In39  1  -0.00083218  0.48068295  0.87728644  1
  In  In40  1  -0.01658996  0.83479699  0.37403317  1
  In  In41  1  -0.00751559  0.82530962  0.87780876  1
  In  In42  1  0.34114703  0.17656478  0.35550510  1
  In  In43  1  0.32983474  0.16946624  0.87705091  1
  In  In44  1  0.33803681  0.49710073  0.36578735  1
  In  In45  1  0.34617468  0.50614259  0.87428373  1
  In  In46  1  0.33270198  0.83493710  0.37506157  1
  In  In47  1  0.32966745  0.83276784  0.86670737  1
  In  In48  1  0.67293164  0.18199170  0.36833885  1
  In  In49  1  0.63765452  0.20240031  0.91126800  1
  In  In50  1  0.64514973  0.48029683  0.35049979  1
  In  In51  1  0.66022933  0.49188772  0.88245027  1
  In  In52  1  0.67728703  0.83025926  0.37471579  1
  In  In53  1  0.68019011  0.83355715  0.87378569  1
  In  In54  1  0.14668239  0.02684628  0.14630156  1
  In  In55  1  0.16951528  0.00852269  0.62794747  1
  In  In56  1  0.17646994  0.32184449  0.13276121  1
  In  In57  1  0.16952991  0.33147729  0.63224621  1
  In  In58  1  0.17488999  0.67212011  0.12450289  1
  In  In59  1  0.18415472  0.66879915  0.62545601  1
  In  In60  1  0.48398943  0.00976474  0.12678483  1
  In  In61  1  0.49747797  -0.00706264  0.62920896  1
  In  In62  1  0.50570542  0.33182342  0.11520378  1
  In  In63  1  0.49459221  0.34432705  0.62948986  1
  In  In64  1  0.53061955  0.63478648  0.15181966  1
  In  In65  1  0.50866548  0.65615397  0.63036867  1
  In  In66  1  0.84714864  0.01489115  0.11938926  1
  In  In67  1  0.84019481  0.00496658  0.61624579  1
  In  In68  1  0.83310744  0.33375257  0.13469744  1
  In  In69  1  0.83449017  0.32449640  0.63293878  1
  In  In70  1  0.81153363  0.64413790  0.11326183  1
  In  In71  1  0.81626485  0.66236327  0.62420488  1
  In  In72  1  0.50762819  0.17557648  0.48966780  1
  In  In73  1  0.49888633  0.83093672  0.00221093  1
  In  In74  1  0.16679600  0.83657983  -0.00488049  1
  In  In75  1  0.50811194  0.82759444  0.51006895  1
  In  In76  1  0.16136333  0.83805742  0.50245938  1
  In  In77  1  0.16533722  0.49384870  0.48928095  1
  In  In78  1  0.66401590  0.00745918  0.24516087  1
  In  In79  1  0.16335695  0.49790099  0.00172193  1
  In  In80  1  0.00524684  0.00167647  0.74777972  1
  In  In81  1  0.16656672  0.16911025  0.50065701  1
  In  In82  1  -0.00198423  0.66683314  0.25051290  1
  In  In83  1  0.66597717  0.00521578  0.75412487  1
  In  In84  1  0.00469224  0.66163720  0.75536064  1
  In  In85  1  0.82381203  0.49925191  0.49289137  1
  Cu  Cu86  1  0.50255397  0.17218115  0.23777714  1
  Cu  Cu87  1  0.49682057  0.83059603  0.25065885  1
  Cu  Cu88  1  0.17321477  0.84130172  0.25205821  1
  Cu  Cu89  1  0.17415679  0.50590179  0.24412146  1
  Cu  Cu90  1  0.66890287  0.33756199  0.49266653  1
  Cu  Cu91  1  0.83657932  0.83472803  0.24564708  1
  Cu  Cu92  1  0.66492234  0.66486075  0.49844387  1
  Cu  Cu93  1  -0.00998409  0.67281276  0.49925798  1
  Cu  Cu94  1  0.83173736  0.83036743  0.74799116  1
  Cu  Cu95  1  0.82663563  0.17461610  0.76219641  1
  Cu  Cu96  1  0.49900402  0.83099551  0.74994940  1
  Cu  Cu97  1  0.49669224  0.17331403  0.75954422  1
  Cu  Cu98  1  -0.00352947  0.32499413  0.50067013  1
  Cu  Cu99  1  0.33312246  0.33497946  0.00228371  1
  Cu  Cu100  1  0.00255071  0.00481964  0.00879342  1
  Cu  Cu101  1  0.68302268  0.00432130  0.49598522  1
  Cu  Cu102  1  0.16851200  0.16806626  0.75287586  1
  Cu  Cu103  1  0.82823990  0.49146951  0.75315030  1
  Cu  Cu104  1  0.33822508  0.00779287  0.50099686  1
  Cu  Cu105  1  0.66621095  0.66013263  0.00364319  1
  Cu  Cu106  1  0.34690443  0.65622125  0.00682061  1
  Cu  Cu107  1  -0.00720058  -0.00158777  0.48910270  1
  Cu  Cu108  1  0.66876580  -0.00372532  0.00168410  1
  Cu  Cu109  1  0.50485953  0.49764611  0.75463676  1
  Cu  Cu110  1  0.32370216  0.00556468  0.00423124  1
  Cu  Cu111  1  0.17481757  0.49853268  0.75559767  1
  Cu  Cu112  1  -0.01227894  0.66584417  -0.00020514  1
  Cu  Cu113  1  0.33811027  0.65461699  0.49640155  1
  Cu  Cu114  1  -0.00473399  0.33102726  0.00674365  1
  Se  Se115  1  0.08399216  0.09066754  0.05977874  1
  Se  Se116  1  0.07138508  0.07282932  0.55551159  1
  Se  Se117  1  0.07751157  0.41081967  0.06680772  1
  Se  Se118  1  0.07557917  0.40888040  0.55771073  1
  Se  Se119  1  0.07518621  0.74383986  0.05545439  1
  Se  Se120  1  0.07532920  0.74097827  0.56244770  1
  Se  Se121  1  0.41814192  0.08740260  0.04691178  1
  Se  Se122  1  0.42055586  0.08698915  0.55905860  1
  Se  Se123  1  0.41758951  0.42062662  0.05103431  1
  Se  Se124  1  0.42389153  0.41640676  0.54984481  1
  Se  Se125  1  0.42094082  0.73995428  0.06743890  1
  Se  Se126  1  0.40801374  0.73926982  0.56173407  1
  Se  Se127  1  0.74933077  0.08327276  0.05374512  1
  Se  Se128  1  0.75831322  0.09208468  0.55078441  1
  Se  Se129  1  0.76233878  0.42089548  0.06270683  1
  Se  Se130  1  0.74464580  0.41133900  0.56194441  1
  Se  Se131  1  0.75170489  0.74983664  0.04889368  1
  Se  Se132  1  0.74910583  0.74934233  0.54970894  1
  Se  Se133  1  0.24605712  0.25188909  0.05051570  1
  Se  Se134  1  0.25893352  0.26029592  0.55663756  1
  Se  Se135  1  0.25774627  0.58011818  0.06212498  1
  Se  Se136  1  0.25517503  0.57590717  0.55578334  1
  Se  Se137  1  0.24523900  0.92345668  0.06336023  1
  Se  Se138  1  0.26063953  0.92398330  0.55987041  1
  Se  Se139  1  0.58734522  0.26026669  0.03803657  1
  Se  Se140  1  0.59328838  0.25711686  0.55811798  1
  Se  Se141  1  0.58566886  0.57785999  0.05962278  1
  Se  Se142  1  0.58263111  0.58120895  0.55247498  1
  Se  Se143  1  0.58543217  0.92274892  0.06406595  1
  Se  Se144  1  0.60048445  0.93032601  0.55905767  1
  Se  Se145  1  0.91309179  0.24928248  0.06224896  1
  Se  Se146  1  0.91277653  0.24697431  0.55724670  1
  Se  Se147  1  0.91476357  0.57476205  0.05319482  1
  Se  Se148  1  0.91822577  0.58484975  0.55843836  1
  Se  Se149  1  0.91544917  0.91593767  0.05206193  1
  Se  Se150  1  0.91441836  0.91471374  0.54712885  1
  Se  Se151  1  0.07407545  0.24880944  0.43652596  1
  Se  Se152  1  0.08512763  0.25423950  0.95311987  1
  Se  Se153  1  0.06867599  0.59289646  0.43976900  1
  Se  Se154  1  0.07309835  0.59071230  0.93940897  1
  Se  Se155  1  0.08324681  0.92567345  0.43259261  1
  Se  Se156  1  0.07319248  0.92817271  0.93839469  1
  Se  Se157  1  0.40531429  0.25766025  0.43786729  1
  Se  Se158  1  0.41328210  0.25151937  0.94529177  1
  Se  Se159  1  0.41829120  0.57283631  0.44205965  1
  Se  Se160  1  0.42825421  0.57386346  0.95201115  1
  Se  Se161  1  0.41973965  0.92125753  0.44735888  1
  Se  Se162  1  0.40302686  0.92077687  0.94458904  1
  Se  Se163  1  0.75505203  0.25344498  0.44360978  1
  Se  Se164  1  0.77053595  0.22970831  0.95000541  1
  Se  Se165  1  0.73433781  0.58382939  0.43153799  1
  Se  Se166  1  0.74816901  0.57760005  0.94782281  1
  Se  Se167  1  0.75765447  0.91548692  0.44193287  1
  Se  Se168  1  0.75215756  0.91410841  0.94836385  1
  Se  Se169  1  0.26287508  0.08632303  0.43840514  1
  Se  Se170  1  0.24409197  0.09026346  0.94900842  1
  Se  Se171  1  0.25367719  0.40292383  0.43233794  1
  Se  Se172  1  0.25372771  0.41370782  0.93807373  1
  Se  Se173  1  0.25312090  0.74062130  0.44617959  1
  Se  Se174  1  0.26575017  0.73872229  0.94751040  1
  Se  Se175  1  0.59724235  0.07618352  0.43554613  1
  Se  Se176  1  0.57960632  0.07660061  0.95227779  1
  Se  Se177  1  0.58361950  0.41692714  0.43903096  1
  Se  Se178  1  0.59354307  0.39649522  0.95148317  1
  Se  Se179  1  0.58224220  0.74323933  0.43702644  1
  Se  Se180  1  0.59119793  0.74453269  0.94090869  1
  Se  Se181  1  0.91682329  0.08826589  0.43626016  1
  Se  Se182  1  0.91775060  0.08421799  0.95231342  1
  Se  Se183  1  0.91888082  0.40724343  0.44016497  1
  Se  Se184  1  0.91407172  0.41469183  0.95154216  1
  Se  Se185  1  0.90664899  0.75302204  0.44594224  1
  Se  Se186  1  0.90689259  0.74984649  0.94599936  1
  Se  Se187  1  0.23490640  0.23155375  0.29345649  1
  Se  Se188  1  0.25068973  0.25364105  0.80537321  1
  Se  Se189  1  0.25700621  0.58712806  0.29911514  1
  Se  Se190  1  0.25642010  0.58414622  0.80611224  1
  Se  Se191  1  0.25664536  0.92231685  0.30654261  1
  Se  Se192  1  0.24630972  0.91784305  0.80367280  1
  Se  Se193  1  0.57889334  0.24920024  0.30131815  1
  Se  Se194  1  0.58506452  0.24893545  0.81370404  1
  Se  Se195  1  0.59453613  0.59940093  0.29888010  1
  Se  Se196  1  0.58622964  0.58049736  0.81042813  1
  Se  Se197  1  0.57825689  0.91266756  0.31006238  1
  Se  Se198  1  0.57486687  0.91217562  0.81336119  1
  Se  Se199  1  0.93413100  0.27774816  0.30038744  1
  Se  Se200  1  0.91677747  0.25669378  0.80937193  1
  Se  Se201  1  0.90207698  0.57305580  0.30180875  1
  Se  Se202  1  0.90960819  0.57427111  0.81225550  1
  Se  Se203  1  0.91904751  0.91873565  0.29768446  1
  Se  Se204  1  0.90905678  0.91329910  0.80703336  1
  Se  Se205  1  0.07830965  0.08125163  0.29107842  1
  Se  Se206  1  0.08138599  0.09526224  0.81376099  1
  Se  Se207  1  0.09303861  0.42876184  0.30411015  1
  Se  Se208  1  0.08437410  0.41592251  0.80174425  1
  Se  Se209  1  0.09055811  0.75906504  0.31159095  1
  Se  Se210  1  0.09275021  0.76011721  0.80945776  1
  Se  Se211  1  0.42179030  0.08525810  0.29192918  1
  Se  Se212  1  0.41069549  0.08530289  0.80472306  1
  Se  Se213  1  0.42464660  0.42208715  0.29618281  1
  Se  Se214  1  0.41658704  0.41508754  0.80411290  1
  Se  Se215  1  0.41150986  0.75176704  0.30582268  1
  Se  Se216  1  0.41835128  0.74723588  0.80589275  1
  Se  Se217  1  0.75923331  0.09457837  0.30179576  1
  Se  Se218  1  0.74538333  0.09404327  0.81960287  1
  Se  Se219  1  0.74716395  0.41352210  0.29081504  1
  Se  Se220  1  0.74557558  0.41306516  0.81051952  1
  Se  Se221  1  0.75337478  0.75278828  0.29969622  1
  Se  Se222  1  0.74806440  0.74682550  0.79963921  1
  Se  Se223  1  0.27439500  0.06576945  0.18902850  1
  Se  Se224  1  0.25132995  0.08468524  0.69893154  1
  Se  Se225  1  0.25487338  0.41215198  0.19940950  1
  Se  Se226  1  0.25383431  0.41702539  0.69613756  1
  Se  Se227  1  0.24896824  0.75392611  0.19747311  1
  Se  Se228  1  0.24928739  0.74519919  0.70333005  1
  Se  Se229  1  0.58686626  0.09749100  0.17744236  1
  Se  Se230  1  0.57354297  0.09488333  0.69275197  1
  Se  Se231  1  0.55733109  0.42882182  0.19055359  1
  Se  Se232  1  0.58687020  0.41371171  0.69947072  1
  Se  Se233  1  0.58850020  0.75422016  0.20064955  1
  Se  Se234  1  0.58429346  0.74877060  0.69774250  1
  Se  Se235  1  0.91926986  0.08243368  0.19866598  1
  Se  Se236  1  0.90337572  0.09301748  0.69798528  1
  Se  Se237  1  0.93140468  0.39419556  0.20844995  1
  Se  Se238  1  0.91551829  0.41000330  0.70195934  1
  Se  Se239  1  0.90910131  0.74798443  0.18392023  1
  Se  Se240  1  0.91458830  0.75037058  0.68951356  1
  Se  Se241  1  0.09116192  0.24588269  0.20117201  1
  Se  Se242  1  0.08301942  0.24861601  0.69763686  1
  Se  Se243  1  0.08536169  0.57744526  0.18526423  1
  Se  Se244  1  0.09389130  0.57403979  0.68974289  1
  Se  Se245  1  0.08157924  0.91380476  0.19908682  1
  Se  Se246  1  0.09626839  0.90622742  0.69291066  1
  Se  Se247  1  0.41701149  0.25080698  0.18298802  1
  Se  Se248  1  0.41878860  0.25348456  0.69771228  1
  Se  Se249  1  0.39792389  0.60500835  0.19132696  1
  Se  Se250  1  0.42040048  0.58103640  0.69944042  1
  Se  Se251  1  0.41814945  0.91588165  0.19637673  1
  Se  Se252  1  0.41586262  0.91855788  0.70089254  1
  Se  Se253  1  0.73698751  0.25673843  0.19855259  1
  Se  Se254  1  0.74336197  0.25174774  0.70265545  1
  Se  Se255  1  0.73983662  0.58643201  0.19630773  1
  Se  Se256  1  0.74948239  0.57970697  0.69943023  1
  Se  Se257  1  0.75501407  0.91585654  0.18619891  1
  Se  Se258  1  0.75594470  0.91690944  0.68860452  1
