# generated using pymatgen
data_In86Cu29Se144
_symmetry_space_group_name_H-M   'P 1'
_cell_length_a   17.74874164
_cell_length_b   17.75815869
_cell_length_c   23.58432046
_cell_angle_alpha   89.98910896
_cell_angle_beta   89.97251530
_cell_angle_gamma   90.05789180
_symmetry_Int_Tables_number   1
_chemical_formula_structural   In86Cu29Se144
_chemical_formula_sum   'In86 Cu29 Se144'
_cell_volume   7433.41856944
_cell_formula_units_Z   1
loop_
 _symmetry_equiv_pos_site_id
 _symmetry_equiv_pos_as_xyz
  1  'x, y, z'
loop_
 _atom_site_type_symbol
 _atom_site_label
 _atom_site_symmetry_multiplicity
 _atom_site_fract_x
 _atom_site_fract_y
 _atom_site_fract_z
 _atom_site_occupancy
  In  In0  1  0.00555619  0.17449901  0.10752917  1
  In  In1  1  0.00117806  0.16819261  0.64086878  1
  In  In2  1  0.01496682  0.51566343  0.12488496  1
  In  In3  1  0.00768846  0.49741464  0.61691276  1
  In  In4  1  0.00490769  0.81462885  0.13483128  1
  In  In5  1  -0.00976425  0.82333921  0.60749942  1
  In  In6  1  0.32552893  0.16154475  0.11259814  1
  In  In7  1  0.33993302  0.15781935  0.63524308  1
  In  In8  1  0.33189372  0.51529583  0.13193441  1
  In  In9  1  0.33419938  0.49725118  0.62305727  1
  In  In10  1  0.32674003  0.83042167  0.12999917  1
  In  In11  1  0.33171434  0.82815828  0.61676995  1
  In  In12  1  0.66152548  0.16495547  0.10895698  1
  In  In13  1  0.65683016  0.18546146  0.63727090  1
  In  In14  1  0.67950926  0.50541697  0.12704015  1
  In  In15  1  0.66106489  0.48968095  0.61416063  1
  In  In16  1  0.66009420  0.84144662  0.12595620  1
  In  In17  1  0.66866396  0.81612948  0.60398727  1
  In  In18  1  0.16538091  -0.01050395  0.37399519  1
  In  In19  1  0.17872771  -0.01264250  0.87989583  1
  In  In20  1  0.17248266  0.34611045  0.37514492  1
  In  In21  1  0.16698149  0.33578207  0.87206281  1
  In  In22  1  0.17880860  0.67158988  0.36132970  1
  In  In23  1  0.16346869  0.65912820  0.87397310  1
  In  In24  1  0.48995540  0.01739576  0.37764470  1
  In  In25  1  0.49045577  0.00066611  0.87741977  1
  In  In26  1  0.44440551  0.38473647  0.43146079  1
  In  In27  1  0.49401152  0.32984461  0.86739333  1
  In  In28  1  0.45352953  0.70455735  0.43256713  1
  In  In29  1  0.49102703  0.67620561  0.87379029  1
  In  In30  1  0.82818016  -0.00002589  0.37294718  1
  In  In31  1  0.84578125  -0.00565406  0.87474262  1
  In  In32  1  0.83234032  0.34926548  0.38012342  1
  In  In33  1  0.82480214  0.31770648  0.85135175  1
  In  In34  1  0.82831331  0.67290229  0.38106311  1
  In  In35  1  0.83794473  0.65753131  0.86825148  1
  In  In36  1  -0.00142736  0.17865654  0.36990618  1
  In  In37  1  -0.00718583  0.17548152  0.88188742  1
  In  In38  1  -0.03315758  0.55048806  0.42902192  1
  In  In39  1  0.00895567  0.50579821  0.86477611  1
  In  In40  1  0.03691321  0.78323561  0.42586032  1
  In  In41  1  0.01403371  0.82460789  0.87601545  1
  In  In42  1  0.35340359  0.17855232  0.37176449  1
  In  In43  1  0.33559328  0.16560928  0.87665711  1
  In  In44  1  0.27767459  0.53587654  0.43203272  1
  In  In45  1  0.32575949  0.49146022  0.86449896  1
  In  In46  1  0.33012718  0.84065544  0.37061971  1
  In  In47  1  0.32889275  0.82759226  0.86962848  1
  In  In48  1  0.65585009  0.17127823  0.37583863  1
  In  In49  1  0.66005525  0.17180676  0.87893320  1
  In  In50  1  0.62682816  0.54224047  0.41891663  1
  In  In51  1  0.67206739  0.49116550  0.86503588  1
  In  In52  1  0.65174530  0.83497214  0.39229417  1
  In  In53  1  0.65805362  0.81982440  0.87273824  1
  In  In54  1  0.17544227  0.00674046  0.11633340  1
  In  In55  1  0.18006101  -0.00709868  0.62890651  1
  In  In56  1  0.16888539  0.33984679  0.11098408  1
  In  In57  1  0.16675634  0.33722129  0.63379412  1
  In  In58  1  0.16888578  0.67243276  0.13215798  1
  In  In59  1  0.16345473  0.66324543  0.61481752  1
  In  In60  1  0.48564790  -0.01242687  0.12029023  1
  In  In61  1  0.49324840  -0.01680198  0.61786174  1
  In  In62  1  0.50619306  0.33068113  0.11707916  1
  In  In63  1  0.49908690  0.33448012  0.62775868  1
  In  In64  1  0.47763140  0.66550828  0.13259083  1
  In  In65  1  0.48792767  0.65209912  0.60768938  1
  In  In66  1  0.82637503  0.00587877  0.11792209  1
  In  In67  1  0.83403482  -0.00398425  0.62876759  1
  In  In68  1  0.84260474  0.34240723  0.11881120  1
  In  In69  1  0.82284233  0.33793431  0.63107869  1
  In  In70  1  0.83504431  0.67825096  0.13155759  1
  In  In71  1  0.84514337  0.66629450  0.60856776  1
  In  In72  1  0.33795764  0.33451866  0.25362629  1
  In  In73  1  -0.00401629  -0.00185334  0.24485113  1
  In  In74  1  0.01438341  -0.01062754  0.75739734  1
  In  In75  1  0.83584369  0.83801566  0.00348879  1
  In  In76  1  0.66556955  -0.00526461  0.75391355  1
  In  In77  1  0.00619736  0.34163205  0.24163577  1
  In  In78  1  0.83677139  0.49832562  -0.00534113  1
  In  In79  1  0.66285028  0.65962375  0.73180903  1
  In  In80  1  0.18271996  0.16372248  0.51009050  1
  In  In81  1  0.66477786  0.00108862  0.25017191  1
  In  In82  1  0.49425356  0.50205618  -0.00086275  1
  In  In83  1  0.83126949  0.16096070  0.51708009  1
  In  In84  1  0.66632566  0.33723529  0.25327566  1
  In  In85  1  0.65733470  0.66888577  0.26840481  1
  Cu  Cu86  1  0.48719816  0.82625135  0.74141374  1
  Cu  Cu87  1  0.17231530  0.16070344  0.24218373  1
  Cu  Cu88  1  0.50363779  0.50272182  0.73900253  1
  Cu  Cu89  1  -0.00306775  0.34083032  -0.00838545  1
  Cu  Cu90  1  0.32286604  0.66969261  0.00317357  1
  Cu  Cu91  1  0.66530361  0.33176055  0.50059643  1
  Cu  Cu92  1  0.83059931  0.17544730  0.23940380  1
  Cu  Cu93  1  0.33111612  0.00144955  0.50124555  1
  Cu  Cu94  1  0.83523659  0.82071856  0.73700417  1
  Cu  Cu95  1  0.49445076  0.49481111  0.25522434  1
  Cu  Cu96  1  0.84385982  0.83580451  0.25684386  1
  Cu  Cu97  1  0.16351331  0.82869816  0.25786387  1
  Cu  Cu98  1  0.16951159  0.50218115  0.25895177  1
  Cu  Cu99  1  0.49932738  0.16226634  0.75523391  1
  Cu  Cu100  1  0.16927515  0.82049043  0.74602859  1
  Cu  Cu101  1  0.33745425  -0.00679039  -0.00234808  1
  Cu  Cu102  1  0.84572584  0.50038554  0.74193247  1
  Cu  Cu103  1  0.65493476  0.00517557  0.50115689  1
  Cu  Cu104  1  0.66259161  -0.00151554  -0.00216993  1
  Cu  Cu105  1  0.33192200  0.33636575  -0.01006277  1
  Cu  Cu106  1  0.17361614  0.16563970  0.75661035  1
  Cu  Cu107  1  0.16816532  0.50684120  0.74562330  1
  Cu  Cu108  1  0.65577586  0.66446769  -0.00169185  1
  Cu  Cu109  1  0.49910602  0.16444351  0.24585003  1
  Cu  Cu110  1  0.00645863  -0.00244737  -0.00311001  1
  Cu  Cu111  1  0.01371528  0.32685540  0.50473803  1
  Cu  Cu112  1  0.00349611  0.01281034  0.50056929  1
  Cu  Cu113  1  0.49426585  0.82685460  0.25970229  1
  Cu  Cu114  1  0.84367282  0.51297471  0.26355221  1
  Se  Se115  1  0.08814946  0.08394344  0.04834233  1
  Se  Se116  1  0.08076502  0.08233436  0.56705342  1
  Se  Se117  1  0.07397933  0.42057377  0.05341307  1
  Se  Se118  1  0.09644513  0.41189891  0.55432512  1
  Se  Se119  1  0.08320033  0.74648354  0.06115600  1
  Se  Se120  1  0.08128293  0.74580780  0.54327203  1
  Se  Se121  1  0.41721905  0.07957229  0.05154102  1
  Se  Se122  1  0.41343983  0.07889224  0.55898211  1
  Se  Se123  1  0.40289059  0.41388150  0.06031112  1
  Se  Se124  1  0.43252114  0.42706673  0.55727973  1
  Se  Se125  1  0.40883003  0.74722086  0.05896735  1
  Se  Se126  1  0.42103316  0.75273350  0.54411077  1
  Se  Se127  1  0.74976106  0.08238129  0.04546981  1
  Se  Se128  1  0.73126220  0.07552573  0.56984516  1
  Se  Se129  1  0.74000335  0.41282924  0.05343661  1
  Se  Se130  1  0.75391478  0.41090475  0.55068828  1
  Se  Se131  1  0.73853306  0.74395770  0.05817207  1
  Se  Se132  1  0.77479358  0.76022386  0.54163739  1
  Se  Se133  1  0.25071004  0.25372070  0.04711251  1
  Se  Se134  1  0.26477339  0.25653544  0.56894537  1
  Se  Se135  1  0.24726580  0.58584507  0.06113689  1
  Se  Se136  1  0.24903009  0.57408735  0.55195125  1
  Se  Se137  1  0.25457079  0.91403097  0.05553932  1
  Se  Se138  1  0.24795865  0.91583893  0.55102240  1
  Se  Se139  1  0.58314600  0.25384918  0.04690534  1
  Se  Se140  1  0.58401984  0.25329496  0.55769070  1
  Se  Se141  1  0.58364721  0.58936136  0.06558572  1
  Se  Se142  1  0.60912803  0.60377481  0.55892540  1
  Se  Se143  1  0.58166423  0.91604315  0.05358802  1
  Se  Se144  1  0.58112101  0.90871787  0.54860275  1
  Se  Se145  1  0.91525041  0.25806691  0.04769877  1
  Se  Se146  1  0.92956187  0.25343328  0.56417665  1
  Se  Se147  1  0.91391349  0.59227497  0.06088932  1
  Se  Se148  1  0.93110859  0.58168561  0.54396513  1
  Se  Se149  1  0.92945776  0.92225207  0.06440211  1
  Se  Se150  1  0.91892078  0.93123797  0.55434221  1
  Se  Se151  1  0.08974381  0.24615896  0.44310464  1
  Se  Se152  1  0.08398298  0.25622982  0.94384760  1
  Se  Se153  1  0.11375958  0.56594013  0.43097610  1
  Se  Se154  1  0.07181294  0.58713566  0.94156821  1
  Se  Se155  1  0.07714702  0.92522347  0.44587441  1
  Se  Se156  1  0.08603878  0.91120163  0.94563264  1
  Se  Se157  1  0.43037171  0.23901321  0.44986799  1
  Se  Se158  1  0.41845767  0.25305726  0.94272523  1
  Se  Se159  1  0.42234580  0.56301019  0.45061376  1
  Se  Se160  1  0.40338785  0.59010256  0.94080742  1
  Se  Se161  1  0.41240576  0.92518436  0.44037000  1
  Se  Se162  1  0.41288837  0.90810940  0.94016422  1
  Se  Se163  1  0.75308925  0.24780434  0.44472243  1
  Se  Se164  1  0.75234510  0.25868038  0.93452856  1
  Se  Se165  1  0.76781897  0.56373130  0.43990885  1
  Se  Se166  1  0.73809337  0.59014749  0.93865652  1
  Se  Se167  1  0.73987297  0.93122962  0.44370467  1
  Se  Se168  1  0.74109505  0.91624502  0.93742105  1
  Se  Se169  1  0.25713995  0.08058887  0.43575964  1
  Se  Se170  1  0.25587056  0.07807616  0.94466399  1
  Se  Se171  1  0.27781600  0.38703616  0.44297460  1
  Se  Se172  1  0.24789747  0.42144281  0.94177346  1
  Se  Se173  1  0.24979809  0.75367311  0.43629464  1
  Se  Se174  1  0.24708369  0.74667884  0.93973669  1
  Se  Se175  1  0.57889113  0.09088554  0.44678364  1
  Se  Se176  1  0.58164154  0.07863542  0.94117498  1
  Se  Se177  1  0.59543657  0.39754842  0.42759761  1
  Se  Se178  1  0.58348507  0.41796865  0.93660658  1
  Se  Se179  1  0.60308184  0.70877738  0.43363330  1
  Se  Se180  1  0.57544042  0.74908770  0.94647684  1
  Se  Se181  1  0.92077735  0.08918678  0.44104409  1
  Se  Se182  1  0.91983885  0.07713838  0.94552877  1
  Se  Se183  1  0.94076588  0.40366976  0.43993560  1
  Se  Se184  1  0.91747353  0.41374310  0.92790269  1
  Se  Se185  1  0.89381520  0.76950763  0.45011322  1
  Se  Se186  1  0.91512367  0.74473425  0.94046839  1
  Se  Se187  1  0.24173283  0.24204418  0.30813053  1
  Se  Se188  1  0.25496532  0.25102148  0.80857552  1
  Se  Se189  1  0.26233045  0.56230849  0.32007598  1
  Se  Se190  1  0.25062617  0.58591967  0.80224040  1
  Se  Se191  1  0.24738037  0.92063554  0.29983130  1
  Se  Se192  1  0.24456086  0.90882104  0.80040429  1
  Se  Se193  1  0.57238027  0.24790249  0.30563983  1
  Se  Se194  1  0.58346205  0.24747154  0.80338996  1
  Se  Se195  1  0.57165058  0.57220804  0.31713553  1
  Se  Se196  1  0.57839774  0.58176346  0.80551700  1
  Se  Se197  1  0.57640884  0.91420309  0.31230837  1
  Se  Se198  1  0.56962970  0.90036483  0.80433093  1
  Se  Se199  1  0.90718913  0.25498928  0.30094916  1
  Se  Se200  1  0.93475613  0.25262892  0.80024725  1
  Se  Se201  1  0.92370355  0.58809115  0.32397894  1
  Se  Se202  1  0.92093648  0.58623131  0.79685062  1
  Se  Se203  1  0.92101147  0.91484710  0.31605585  1
  Se  Se204  1  0.91093708  0.89578331  0.80438711  1
  Se  Se205  1  0.08561502  0.09209072  0.30442859  1
  Se  Se206  1  0.09301268  0.08615791  0.81768417  1
  Se  Se207  1  0.08102187  0.42589592  0.31218812  1
  Se  Se208  1  0.08978870  0.41922096  0.79999738  1
  Se  Se209  1  0.07559633  0.76035004  0.31891211  1
  Se  Se210  1  0.08406520  0.74390243  0.80182905  1
  Se  Se211  1  0.41278720  0.08532593  0.29845571  1
  Se  Se212  1  0.41378801  0.08024445  0.80549653  1
  Se  Se213  1  0.42871569  0.40869528  0.31646600  1
  Se  Se214  1  0.42459910  0.42403411  0.80061297  1
  Se  Se215  1  0.42788349  0.74571072  0.32573447  1
  Se  Se216  1  0.40959718  0.74375630  0.79860016  1
  Se  Se217  1  0.75565862  0.09878267  0.30414093  1
  Se  Se218  1  0.75458863  0.08007032  0.81399728  1
  Se  Se219  1  0.75460872  0.42904159  0.30896123  1
  Se  Se220  1  0.75505943  0.42156713  0.79212461  1
  Se  Se221  1  0.74858658  0.77041101  0.31384388  1
  Se  Se222  1  0.75063304  0.74753751  0.80001457  1
  Se  Se223  1  0.25620293  0.08151152  0.18994787  1
  Se  Se224  1  0.24882162  0.07955352  0.70053093  1
  Se  Se225  1  0.24080588  0.42025659  0.19307735  1
  Se  Se226  1  0.25381248  0.42106767  0.69732745  1
  Se  Se227  1  0.25102003  0.74904436  0.20443096  1
  Se  Se228  1  0.24777902  0.74482739  0.68348434  1
  Se  Se229  1  0.57858321  0.08624144  0.18548606  1
  Se  Se230  1  0.57432100  0.07963439  0.69195842  1
  Se  Se231  1  0.57643264  0.42882080  0.18794664  1
  Se  Se232  1  0.58915013  0.41696983  0.69284409  1
  Se  Se233  1  0.57630070  0.75512811  0.19548870  1
  Se  Se234  1  0.57239749  0.75455409  0.67968931  1
  Se  Se235  1  0.91291393  0.09647505  0.18328614  1
  Se  Se236  1  0.91456246  0.07578038  0.70218592  1
  Se  Se237  1  0.90994079  0.43737440  0.19133183  1
  Se  Se238  1  0.92330674  0.41609842  0.68635982  1
  Se  Se239  1  0.91858371  0.74447881  0.20683016  1
  Se  Se240  1  0.92136158  0.74306566  0.68485501  1
  Se  Se241  1  0.09427570  0.24481693  0.18502261  1
  Se  Se242  1  0.09182861  0.24725550  0.70220489  1
  Se  Se243  1  0.08932139  0.58591393  0.20288461  1
  Se  Se244  1  0.08455288  0.58268300  0.68737934  1
  Se  Se245  1  0.09403101  0.91210122  0.19082113  1
  Se  Se246  1  0.08613457  0.90012598  0.68579969  1
  Se  Se247  1  0.42049725  0.24558894  0.18494599  1
  Se  Se248  1  0.42256353  0.24731767  0.69774493  1
  Se  Se249  1  0.41154842  0.58366489  0.20859882  1
  Se  Se250  1  0.41815283  0.58499525  0.68960191  1
  Se  Se251  1  0.41917214  0.90725960  0.19755338  1
  Se  Se252  1  0.40776811  0.91260726  0.68987719  1
  Se  Se253  1  0.75033811  0.25293821  0.18116726  1
  Se  Se254  1  0.76760306  0.23345112  0.69555908  1
  Se  Se255  1  0.75609203  0.58714624  0.20289451  1
  Se  Se256  1  0.76337042  0.57590514  0.67945910  1
  Se  Se257  1  0.76283602  0.91027043  0.19360212  1
  Se  Se258  1  0.74609024  0.90004700  0.68711038  1
