# generated using pymatgen
data_In86Cu29Se144
_symmetry_space_group_name_H-M   'P 1'
_cell_length_a   17.57763743
_cell_length_b   17.58683397
_cell_length_c   23.44216575
_cell_angle_alpha   90.01703081
_cell_angle_beta   90.00021132
_cell_angle_gamma   90.01230848
_symmetry_Int_Tables_number   1
_chemical_formula_structural   In86Cu29Se144
_chemical_formula_sum   'In86 Cu29 Se144'
_cell_volume   7246.79321433
_cell_formula_units_Z   1
loop_
 _symmetry_equiv_pos_site_id
 _symmetry_equiv_pos_as_xyz
  1  'x, y, z'
loop_
 _atom_site_type_symbol
 _atom_site_label
 _atom_site_symmetry_multiplicity
 _atom_site_fract_x
 _atom_site_fract_y
 _atom_site_fract_z
 _atom_site_occupancy
  In  In0  1  -0.00595742  0.16734545  0.12465929  1
  In  In1  1  0.00809257  0.17132594  0.62822897  1
  In  In2  1  0.01137385  0.50960615  0.11490903  1
  In  In3  1  0.00065916  0.49938856  0.62570715  1
  In  In4  1  0.00339029  0.83440370  0.13706516  1
  In  In5  1  0.00736349  0.82261213  0.62826716  1
  In  In6  1  0.32551036  0.16181235  0.12699412  1
  In  In7  1  0.32749482  0.16571235  0.62464952  1
  In  In8  1  0.32827528  0.50140844  0.09946068  1
  In  In9  1  0.33441863  0.50160229  0.62719136  1
  In  In10  1  0.33946312  0.83616714  0.12374051  1
  In  In11  1  0.31546447  0.84817267  0.63695701  1
  In  In12  1  0.67175104  0.15355516  0.12402806  1
  In  In13  1  0.66098999  0.16807238  0.62111346  1
  In  In14  1  0.66613074  0.49370977  0.11820987  1
  In  In15  1  0.65856803  0.48743095  0.62055608  1
  In  In16  1  0.67346084  0.84167535  0.12812850  1
  In  In17  1  0.67005766  0.84701519  0.62474081  1
  In  In18  1  0.16637320  -0.00218508  0.37873311  1
  In  In19  1  0.16504811  0.01428480  0.85470802  1
  In  In20  1  0.17103971  0.33582266  0.39664240  1
  In  In21  1  0.18181017  0.34987334  0.84648135  1
  In  In22  1  0.15639004  0.67313309  0.38559008  1
  In  In23  1  0.16435103  0.66166048  0.86987272  1
  In  In24  1  0.50505853  0.00686466  0.37381892  1
  In  In25  1  0.50010529  -0.00754023  0.85717444  1
  In  In26  1  0.48575052  0.33031936  0.39603239  1
  In  In27  1  0.48870650  0.34469359  0.87761371  1
  In  In28  1  0.49068058  0.66717883  0.37828699  1
  In  In29  1  0.46274680  0.65151330  0.86271433  1
  In  In30  1  0.84213439  0.00426853  0.37694231  1
  In  In31  1  0.84777578  0.02320636  0.85951282  1
  In  In32  1  0.83487630  0.33011655  0.38616386  1
  In  In33  1  0.84050958  0.32245420  0.88025550  1
  In  In34  1  0.84633964  0.65075063  0.37908715  1
  In  In35  1  0.83016940  0.65302913  0.87474495  1
  In  In36  1  0.00990633  0.15955789  0.38997238  1
  In  In37  1  -0.00345140  0.17088235  0.85994419  1
  In  In38  1  0.00023595  0.49949639  0.38011843  1
  In  In39  1  0.00058751  0.50008416  0.86979936  1
  In  In40  1  0.02041140  0.84327458  0.36306394  1
  In  In41  1  0.00736387  0.83820502  0.86847160  1
  In  In42  1  0.34025314  0.15866672  0.39032558  1
  In  In43  1  0.32600162  0.17808483  0.85581269  1
  In  In44  1  0.32913484  0.50124061  0.39166801  1
  In  In45  1  0.32439711  0.49383760  0.87661141  1
  In  In46  1  0.30787634  0.83951970  0.37933858  1
  In  In47  1  0.33416990  0.83062199  0.86323033  1
  In  In48  1  0.67438517  0.15863549  0.38560471  1
  In  In49  1  0.67846782  0.16826072  0.87022682  1
  In  In50  1  0.66933627  0.49512703  0.38038727  1
  In  In51  1  0.66470829  0.49743977  0.87954795  1
  In  In52  1  0.65545559  0.84273988  0.37376315  1
  In  In53  1  0.65619168  0.84596472  0.87268024  1
  In  In54  1  0.16985833  -0.00285805  0.13743127  1
  In  In55  1  0.16688659  0.00376800  0.62512689  1
  In  In56  1  0.16052981  0.33613301  0.11890520  1
  In  In57  1  0.17378587  0.33457538  0.62353363  1
  In  In58  1  0.16369267  0.65803236  0.12649428  1
  In  In59  1  0.16939558  0.66665902  0.62544620  1
  In  In60  1  0.50168180  0.00492095  0.13067064  1
  In  In61  1  0.47253253  0.01562926  0.64153688  1
  In  In62  1  0.49255218  0.34883024  0.12460768  1
  In  In63  1  0.47823492  0.31751799  0.61119309  1
  In  In64  1  0.49618080  0.66032672  0.12041082  1
  In  In65  1  0.49667309  0.65214383  0.62484993  1
  In  In66  1  0.83545460  0.00051953  0.12781546  1
  In  In67  1  0.83314572  0.01803003  0.63565779  1
  In  In68  1  0.83870916  0.32845804  0.11261332  1
  In  In69  1  0.83539916  0.33293596  0.62707802  1
  In  In70  1  0.84242519  0.66858802  0.12277079  1
  In  In71  1  0.84885530  0.66119384  0.62905987  1
  In  In72  1  0.49712520  0.82995850  0.50228777  1
  In  In73  1  0.50618133  0.17423602  -0.01053336  1
  In  In74  1  0.66671435  0.33026080  0.74531172  1
  In  In75  1  0.16889624  0.82973892  -0.00719100  1
  In  In76  1  0.66851670  0.67017400  0.75321445  1
  In  In77  1  0.67026968  0.67804695  0.24744940  1
  In  In78  1  0.32682632  0.67334677  0.25001747  1
  In  In79  1  0.84080927  0.83293506  0.50211732  1
  In  In80  1  0.00366386  0.32944362  0.25071142  1
  In  In81  1  0.16278731  0.17758325  -0.00887744  1
  In  In82  1  0.83246413  0.83101198  0.00594971  1
  In  In83  1  0.67045387  0.32351713  0.26320454  1
  In  In84  1  0.50093461  0.82610952  -0.00190392  1
  In  In85  1  0.33001474  0.33056733  0.25062127  1
  Cu  Cu86  1  0.66904161  0.33347023  0.50295367  1
  Cu  Cu87  1  0.49758221  0.17205600  0.74348814  1
  Cu  Cu88  1  0.00117294  0.00325422  0.50357380  1
  Cu  Cu89  1  0.48567763  0.49424145  0.74936299  1
  Cu  Cu90  1  0.16617595  0.50195127  0.24937202  1
  Cu  Cu91  1  -0.00233215  0.66157331  -0.00363440  1
  Cu  Cu92  1  0.66979201  0.33035373  -0.00281768  1
  Cu  Cu93  1  -0.00310017  0.33242474  0.50961790  1
  Cu  Cu94  1  0.16890883  0.83186996  0.74858799  1
  Cu  Cu95  1  0.66247579  0.00759769  0.50439780  1
  Cu  Cu96  1  0.17289292  0.15864468  0.26079863  1
  Cu  Cu97  1  0.83011405  0.83693322  0.25162177  1
  Cu  Cu98  1  0.83821097  0.83675724  0.74530568  1
  Cu  Cu99  1  0.32931620  -0.00130577  0.50608168  1
  Cu  Cu100  1  0.49599603  0.50139581  0.25392585  1
  Cu  Cu101  1  0.50118018  0.16058666  0.25646884  1
  Cu  Cu102  1  0.49320934  0.84950473  0.25035646  1
  Cu  Cu103  1  0.83706755  0.49745891  0.74880243  1
  Cu  Cu104  1  0.84856605  0.50406224  0.24782623  1
  Cu  Cu105  1  0.33445443  0.00475434  -0.00575377  1
  Cu  Cu106  1  0.33220612  0.66345477  0.50534253  1
  Cu  Cu107  1  0.83593057  0.16016719  0.25296645  1
  Cu  Cu108  1  0.00001969  0.33731470  -0.00874667  1
  Cu  Cu109  1  0.65483895  0.65611752  -0.00542353  1
  Cu  Cu110  1  0.67788622  0.65968655  0.50312711  1
  Cu  Cu111  1  0.00073415  0.01130948  -0.00595279  1
  Cu  Cu112  1  0.16475958  0.50595889  0.74539541  1
  Cu  Cu113  1  0.00677654  0.65949698  0.50310531  1
  Cu  Cu114  1  0.67734475  0.00387237  -0.00335189  1
  Se  Se115  1  0.08651716  0.08064653  0.05846728  1
  Se  Se116  1  0.08669525  0.08745223  0.55504590  1
  Se  Se117  1  0.08431422  0.41712382  0.04743360  1
  Se  Se118  1  0.08414773  0.41669707  0.55781773  1
  Se  Se119  1  0.07253789  0.74928940  0.05629096  1
  Se  Se120  1  0.08663206  0.74842433  0.55328559  1
  Se  Se121  1  0.41649170  0.08222306  0.05429179  1
  Se  Se122  1  0.41559008  0.08355446  0.55439259  1
  Se  Se123  1  0.41693034  0.41152251  0.04533462  1
  Se  Se124  1  0.44469181  0.44531598  0.56533681  1
  Se  Se125  1  0.40280274  0.73843421  0.05235099  1
  Se  Se126  1  0.40709369  0.74821009  0.56592024  1
  Se  Se127  1  0.76027076  0.08328509  0.05283700  1
  Se  Se128  1  0.75195623  0.08526816  0.55684286  1
  Se  Se129  1  0.75286206  0.41530445  0.05063177  1
  Se  Se130  1  0.75368318  0.41540759  0.55626068  1
  Se  Se131  1  0.73239129  0.73754216  0.05785272  1
  Se  Se132  1  0.74963790  0.74336915  0.56384725  1
  Se  Se133  1  0.25906917  0.25647999  0.05653894  1
  Se  Se134  1  0.26604774  0.26245896  0.55263192  1
  Se  Se135  1  0.23803891  0.59093183  0.04809033  1
  Se  Se136  1  0.24839410  0.57972770  0.55662351  1
  Se  Se137  1  0.25415912  0.92689871  0.05472836  1
  Se  Se138  1  0.24417760  0.91309219  0.55405014  1
  Se  Se139  1  0.58895030  0.25575310  0.06379438  1
  Se  Se140  1  0.58094079  0.24874612  0.55011744  1
  Se  Se141  1  0.57634059  0.57507527  0.05404866  1
  Se  Se142  1  0.58708665  0.58264687  0.55411722  1
  Se  Se143  1  0.59113137  0.92576050  0.05491905  1
  Se  Se144  1  0.57847683  0.92813546  0.56084674  1
  Se  Se145  1  0.92553716  0.24708058  0.04661495  1
  Se  Se146  1  0.91458456  0.24515830  0.55938378  1
  Se  Se147  1  0.91193265  0.58132623  0.05072908  1
  Se  Se148  1  0.91636310  0.57969436  0.55270582  1
  Se  Se149  1  0.93070329  0.92357318  0.05676617  1
  Se  Se150  1  0.92192527  0.92430462  0.56616299  1
  Se  Se151  1  0.08300902  0.24996522  0.45736039  1
  Se  Se152  1  0.07928154  0.26419006  0.92628540  1
  Se  Se153  1  0.08940283  0.57308261  0.45027511  1
  Se  Se154  1  0.08236991  0.58285076  0.94141123  1
  Se  Se155  1  0.07885677  0.91676540  0.44803415  1
  Se  Se156  1  0.08498271  0.93307968  0.93756828  1
  Se  Se157  1  0.39341792  0.25863873  0.46233498  1
  Se  Se158  1  0.39927277  0.25333149  0.93987524  1
  Se  Se159  1  0.42160519  0.58502109  0.45240900  1
  Se  Se160  1  0.42051190  0.56716331  0.94346481  1
  Se  Se161  1  0.40959077  0.92116216  0.44108134  1
  Se  Se162  1  0.41452364  0.92249303  0.93814039  1
  Se  Se163  1  0.75262291  0.24657305  0.45270283  1
  Se  Se164  1  0.75147585  0.24320909  0.94791707  1
  Se  Se165  1  0.75662162  0.57651794  0.44661459  1
  Se  Se166  1  0.74976740  0.57863068  0.94808188  1
  Se  Se167  1  0.74102539  0.92186267  0.44638665  1
  Se  Se168  1  0.75415327  0.92023631  0.93819413  1
  Se  Se169  1  0.24403432  0.08085625  0.45144125  1
  Se  Se170  1  0.25498164  0.08262167  0.93375161  1
  Se  Se171  1  0.25686207  0.41590382  0.46139097  1
  Se  Se172  1  0.23857579  0.40394300  0.93792966  1
  Se  Se173  1  0.24927370  0.74717121  0.45251457  1
  Se  Se174  1  0.26264808  0.74138578  0.93722571  1
  Se  Se175  1  0.57609022  0.08738764  0.45005020  1
  Se  Se176  1  0.58815759  0.07214581  0.93534259  1
  Se  Se177  1  0.58455487  0.41622240  0.44842451  1
  Se  Se178  1  0.58350870  0.41148702  0.94637313  1
  Se  Se179  1  0.59577282  0.73932777  0.44441132  1
  Se  Se180  1  0.58436311  0.73890354  0.93216946  1
  Se  Se181  1  0.91252199  0.08439488  0.45315096  1
  Se  Se182  1  0.92039634  0.09416192  0.93969508  1
  Se  Se183  1  0.91977102  0.41552160  0.44915144  1
  Se  Se184  1  0.91427222  0.42146060  0.94113192  1
  Se  Se185  1  0.92997558  0.74481504  0.44129350  1
  Se  Se186  1  0.92155566  0.74885814  0.93858344  1
  Se  Se187  1  0.24547715  0.24692862  0.31844760  1
  Se  Se188  1  0.21590624  0.22549197  0.79123920  1
  Se  Se189  1  0.24747216  0.57703286  0.31293419  1
  Se  Se190  1  0.25194255  0.58197270  0.80310154  1
  Se  Se191  1  0.23798148  0.91447959  0.30333584  1
  Se  Se192  1  0.25191216  0.91926192  0.79982056  1
  Se  Se193  1  0.56989220  0.24463422  0.32107695  1
  Se  Se194  1  0.57269531  0.24843115  0.81127047  1
  Se  Se195  1  0.58009298  0.58438230  0.30826019  1
  Se  Se196  1  0.57502857  0.57239916  0.80574598  1
  Se  Se197  1  0.58508407  0.92592953  0.30059099  1
  Se  Se198  1  0.58893251  0.91513386  0.79171661  1
  Se  Se199  1  0.91424110  0.24249629  0.31349133  1
  Se  Se200  1  0.90324490  0.25145382  0.79813066  1
  Se  Se201  1  0.93070630  0.58364742  0.30308297  1
  Se  Se202  1  0.91635137  0.58642290  0.80132328  1
  Se  Se203  1  0.91494288  0.91580631  0.30726775  1
  Se  Se204  1  0.91914089  0.91762049  0.80295918  1
  Se  Se205  1  0.07951949  0.08362881  0.31105672  1
  Se  Se206  1  0.05665001  0.06749981  0.79235347  1
  Se  Se207  1  0.09731868  0.41481367  0.31183628  1
  Se  Se208  1  0.07540068  0.42153573  0.79327102  1
  Se  Se209  1  0.08770204  0.74012991  0.30332063  1
  Se  Se210  1  0.08475570  0.74905070  0.80256338  1
  Se  Se211  1  0.41101019  0.08472453  0.30974959  1
  Se  Se212  1  0.41592862  0.08706269  0.79945981  1
  Se  Se213  1  0.41842692  0.42022778  0.31447171  1
  Se  Se214  1  0.40403897  0.40964321  0.80216353  1
  Se  Se215  1  0.41946034  0.76444294  0.31145568  1
  Se  Se216  1  0.43850742  0.76755430  0.80085729  1
  Se  Se217  1  0.75067362  0.08268949  0.30950792  1
  Se  Se218  1  0.73392168  0.07161888  0.80030256  1
  Se  Se219  1  0.76707278  0.42488884  0.30808501  1
  Se  Se220  1  0.75254780  0.42139943  0.80804686  1
  Se  Se221  1  0.75797898  0.75611136  0.31775538  1
  Se  Se222  1  0.76038980  0.76125750  0.81220444  1
  Se  Se223  1  0.25645959  0.08160540  0.20234035  1
  Se  Se224  1  0.27080922  0.06156362  0.69137242  1
  Se  Se225  1  0.24701143  0.42534431  0.18702463  1
  Se  Se226  1  0.25058875  0.42020301  0.69627957  1
  Se  Se227  1  0.23937423  0.76204066  0.18777473  1
  Se  Se228  1  0.25185867  0.74351671  0.69943926  1
  Se  Se229  1  0.58686071  0.08528997  0.19885353  1
  Se  Se230  1  0.58206832  0.08764967  0.69394164  1
  Se  Se231  1  0.58308225  0.42004111  0.20055313  1
  Se  Se232  1  0.56692239  0.41418463  0.69095880  1
  Se  Se233  1  0.56835808  0.76265072  0.18943557  1
  Se  Se234  1  0.58503158  0.74999788  0.68340838  1
  Se  Se235  1  0.92066468  0.08242846  0.19648154  1
  Se  Se236  1  0.93513594  0.08076842  0.70004028  1
  Se  Se237  1  0.91773363  0.41786213  0.18556149  1
  Se  Se238  1  0.91904485  0.41462135  0.69557640  1
  Se  Se239  1  0.91086037  0.75082162  0.19780754  1
  Se  Se240  1  0.92094250  0.74699084  0.69992581  1
  Se  Se241  1  0.09838762  0.23759926  0.19366878  1
  Se  Se242  1  0.10266196  0.24457068  0.69566924  1
  Se  Se243  1  0.07931778  0.58219840  0.19759437  1
  Se  Se244  1  0.07933354  0.58845105  0.69347974  1
  Se  Se245  1  0.07337644  0.92901194  0.20070074  1
  Se  Se246  1  0.08683016  0.91282185  0.69271866  1
  Se  Se247  1  0.42777261  0.24218624  0.19196797  1
  Se  Se248  1  0.40840082  0.25375646  0.69534876  1
  Se  Se249  1  0.41363970  0.57452214  0.19101639  1
  Se  Se250  1  0.41033685  0.58909282  0.70116360  1
  Se  Se251  1  0.40847876  0.92628597  0.19385441  1
  Se  Se252  1  0.42753155  0.89917578  0.69755590  1
  Se  Se253  1  0.76038045  0.24558320  0.19243913  1
  Se  Se254  1  0.75805613  0.23571155  0.69390662  1
  Se  Se255  1  0.75457946  0.57569432  0.19131571  1
  Se  Se256  1  0.75032075  0.57362623  0.69017723  1
  Se  Se257  1  0.74944158  0.92275277  0.19919770  1
  Se  Se258  1  0.75339860  0.92092168  0.69598724  1
