# generated using pymatgen
data_In86Cu29Se144
_symmetry_space_group_name_H-M   'P 1'
_cell_length_a   17.57852829
_cell_length_b   17.57599120
_cell_length_c   23.43020790
_cell_angle_alpha   89.97573008
_cell_angle_beta   89.98840154
_cell_angle_gamma   90.00512088
_symmetry_Int_Tables_number   1
_chemical_formula_structural   In86Cu29Se144
_chemical_formula_sum   'In86 Cu29 Se144'
_cell_volume   7238.99757354
_cell_formula_units_Z   1
loop_
 _symmetry_equiv_pos_site_id
 _symmetry_equiv_pos_as_xyz
  1  'x, y, z'
loop_
 _atom_site_type_symbol
 _atom_site_label
 _atom_site_symmetry_multiplicity
 _atom_site_fract_x
 _atom_site_fract_y
 _atom_site_fract_z
 _atom_site_occupancy
  In  In0  1  -0.00651623  0.15305017  0.12241307  1
  In  In1  1  -0.00565539  0.15734023  0.62346602  1
  In  In2  1  -0.00286016  0.50753114  0.12033977  1
  In  In3  1  0.00655272  0.50542139  0.63098142  1
  In  In4  1  0.00322510  0.83381395  0.11921028  1
  In  In5  1  0.00803813  0.82628331  0.63583170  1
  In  In6  1  0.33700149  0.18283181  0.12412006  1
  In  In7  1  0.33094393  0.16935664  0.62185978  1
  In  In8  1  0.34616384  0.49240089  0.12990140  1
  In  In9  1  0.33814849  0.49566060  0.63540176  1
  In  In10  1  0.32582869  0.83162367  0.12073330  1
  In  In11  1  0.32868819  0.84128732  0.63243103  1
  In  In12  1  0.67822177  0.16732637  0.12035525  1
  In  In13  1  0.67849141  0.17321448  0.62538127  1
  In  In14  1  0.65372402  0.49364177  0.10431108  1
  In  In15  1  0.66398762  0.49855599  0.63622376  1
  In  In16  1  0.65347791  0.81692814  0.09708304  1
  In  In17  1  0.65475128  0.82850314  0.63305000  1
  In  In18  1  0.16213876  0.00676827  0.38017424  1
  In  In19  1  0.16784923  0.00207589  0.87118500  1
  In  In20  1  0.17174117  0.31844253  0.37889947  1
  In  In21  1  0.16778101  0.31595834  0.87385723  1
  In  In22  1  0.18220215  0.66656350  0.38116353  1
  In  In23  1  0.18136027  0.68275486  0.86651702  1
  In  In24  1  0.50767443  0.00555720  0.37814484  1
  In  In25  1  0.48193745  0.00163825  0.86991582  1
  In  In26  1  0.49248664  0.32616529  0.36720920  1
  In  In27  1  0.51396698  0.34441384  0.86057738  1
  In  In28  1  0.48426005  0.67113084  0.37422244  1
  In  In29  1  0.50048594  0.66362604  0.88448794  1
  In  In30  1  0.84580790  -0.00083983  0.36888663  1
  In  In31  1  0.84098043  -0.00462492  0.87829199  1
  In  In32  1  0.81755422  0.33371219  0.36937904  1
  In  In33  1  0.80805183  0.35103070  0.90129674  1
  In  In34  1  0.83629226  0.66305276  0.36892848  1
  In  In35  1  0.82995308  0.66374825  0.87682715  1
  In  In36  1  0.00946494  0.15370424  0.38074257  1
  In  In37  1  0.00293671  0.16361530  0.87676953  1
  In  In38  1  0.00010099  0.51000855  0.36953723  1
  In  In39  1  -0.01505416  0.50225978  0.87811370  1
  In  In40  1  -0.00260887  0.84764115  0.37176558  1
  In  In41  1  0.00448423  0.83920333  0.87170790  1
  In  In42  1  0.32969141  0.17811164  0.38725503  1
  In  In43  1  0.33508904  0.15671599  0.86008821  1
  In  In44  1  0.33907164  0.50417355  0.37113796  1
  In  In45  1  0.34534081  0.51082241  0.86942531  1
  In  In46  1  0.32735459  0.80967802  0.37547144  1
  In  In47  1  0.33128879  0.83356404  0.87872368  1
  In  In48  1  0.65497694  0.17862621  0.38330459  1
  In  In49  1  0.66315468  0.19723335  0.87645383  1
  In  In50  1  0.67534964  0.48846465  0.36645550  1
  In  In51  1  0.66424146  0.49961622  0.88471314  1
  In  In52  1  0.65929530  0.83122897  0.36842991  1
  In  In53  1  0.67523559  0.81294568  0.89191491  1
  In  In54  1  0.15557699  -0.01099477  0.12017671  1
  In  In55  1  0.16545279  0.00032136  0.62509687  1
  In  In56  1  0.18705159  0.33114116  0.12497028  1
  In  In57  1  0.18330711  0.32432367  0.62578227  1
  In  In58  1  0.16587647  0.68144996  0.12233637  1
  In  In59  1  0.16484229  0.67216951  0.63335960  1
  In  In60  1  0.50787478  -0.00104745  0.12009665  1
  In  In61  1  0.48676138  0.00384095  0.63343962  1
  In  In62  1  0.49697240  0.33767927  0.12661204  1
  In  In63  1  0.50159820  0.32608243  0.63366568  1
  In  In64  1  0.49480233  0.66262453  0.11720813  1
  In  In65  1  0.49495325  0.67329526  0.63943116  1
  In  In66  1  0.84030329  0.00253059  0.12024222  1
  In  In67  1  0.83353831  0.01771939  0.63180029  1
  In  In68  1  0.82251268  0.33145868  0.11606001  1
  In  In69  1  0.83382439  0.31953123  0.62908410  1
  In  In70  1  0.81162785  0.65021481  0.09167833  1
  In  In71  1  0.83051129  0.66609531  0.63770347  1
  In  In72  1  0.67379245  0.00041532  0.24428569  1
  In  In73  1  0.48886529  0.84319843  0.50891276  1
  In  In74  1  0.00358707  0.33100509  0.24815995  1
  In  In75  1  0.66758462  -0.00677366  0.75849741  1
  In  In76  1  0.33246506  0.00255569  0.24960747  1
  In  In77  1  0.83377536  0.84105004  0.49878026  1
  In  In78  1  0.66131077  0.65978781  0.22937031  1
  In  In79  1  0.83475020  0.49698336  0.49091556  1
  In  In80  1  -0.00301931  0.67013349  0.24412207  1
  In  In81  1  0.49690128  0.16594511  -0.00735356  1
  In  In82  1  -0.00462806  0.33584098  0.75559684  1
  In  In83  1  0.17074422  0.49111346  0.50795678  1
  In  In84  1  0.49478214  0.49499176  0.50057527  1
  In  In85  1  0.16435124  0.49788177  -0.00189255  1
  Cu  Cu86  1  0.17910597  0.50013540  0.25139861  1
  Cu  Cu87  1  0.00792290  0.00166339  -0.00374128  1
  Cu  Cu88  1  0.50157235  0.50022372  0.75579518  1
  Cu  Cu89  1  -0.00373980  0.32095320  0.50039307  1
  Cu  Cu90  1  0.00061547  0.31987351  0.00141686  1
  Cu  Cu91  1  0.16811294  0.16157289  0.25521769  1
  Cu  Cu92  1  0.83702115  0.83182279  0.75970683  1
  Cu  Cu93  1  0.82253243  0.50101230  0.76127394  1
  Cu  Cu94  1  0.16606520  0.50477458  0.75105600  1
  Cu  Cu95  1  0.65812680  0.66858329  0.50479784  1
  Cu  Cu96  1  0.66497490  0.00049481  -0.00551925  1
  Cu  Cu97  1  0.50196581  0.82202716  0.76085870  1
  Cu  Cu98  1  0.32410495  0.00067665  -0.00600935  1
  Cu  Cu99  1  0.16524450  0.83393201  0.24602663  1
  Cu  Cu100  1  0.00224181  0.67398135  -0.00720214  1
  Cu  Cu101  1  0.16971876  0.84062734  0.75161278  1
  Cu  Cu102  1  0.50176384  0.17909993  0.25358564  1
  Cu  Cu103  1  0.16867181  0.16140597  0.74814666  1
  Cu  Cu104  1  0.50530196  0.50568811  0.24455796  1
  Cu  Cu105  1  0.00052834  -0.00090543  0.50201810  1
  Cu  Cu106  1  0.33167640  0.66445272  -0.00224127  1
  Cu  Cu107  1  0.00434118  0.67142742  0.50820557  1
  Cu  Cu108  1  0.83235982  0.17517778  0.75677496  1
  Cu  Cu109  1  0.33823959  0.33362568  -0.00283834  1
  Cu  Cu110  1  0.66910984  0.01103383  0.50105172  1
  Cu  Cu111  1  0.83359597  0.16945903  0.24533661  1
  Cu  Cu112  1  0.33036999  0.00078852  0.50570620  1
  Cu  Cu113  1  0.66766853  0.32990249  0.50297091  1
  Cu  Cu114  1  0.83122879  0.82899573  0.23531479  1
  Se  Se115  1  0.08798747  0.08595346  0.05301864  1
  Se  Se116  1  0.08381620  0.08401366  0.55432054  1
  Se  Se117  1  0.07976880  0.40375627  0.06167244  1
  Se  Se118  1  0.07077605  0.40305493  0.56305944  1
  Se  Se119  1  0.08626574  0.75376668  0.04773276  1
  Se  Se120  1  0.08719802  0.75378967  0.55928882  1
  Se  Se121  1  0.40584928  0.07765152  0.05746755  1
  Se  Se122  1  0.41831195  0.08197302  0.55544344  1
  Se  Se123  1  0.41911123  0.41687589  0.05182742  1
  Se  Se124  1  0.40831050  0.40558771  0.56096049  1
  Se  Se125  1  0.41136546  0.75078373  0.05267942  1
  Se  Se126  1  0.40779699  0.74272859  0.56370467  1
  Se  Se127  1  0.74918522  0.07785146  0.05182219  1
  Se  Se128  1  0.75689537  0.08836757  0.55389340  1
  Se  Se129  1  0.75201790  0.41823569  0.04448208  1
  Se  Se130  1  0.74729825  0.41532388  0.56000425  1
  Se  Se131  1  0.77208249  0.77347991  0.04225316  1
  Se  Se132  1  0.74472269  0.74708795  0.55999262  1
  Se  Se133  1  0.25305303  0.24901208  0.04710749  1
  Se  Se134  1  0.24634978  0.24457337  0.54866500  1
  Se  Se135  1  0.25348286  0.58382291  0.06185466  1
  Se  Se136  1  0.25515484  0.58560574  0.56589354  1
  Se  Se137  1  0.24587035  0.91592405  0.05137678  1
  Se  Se138  1  0.24891897  0.91463216  0.55684583  1
  Se  Se139  1  0.58409821  0.25135381  0.05772096  1
  Se  Se140  1  0.58607402  0.25128191  0.56041693  1
  Se  Se141  1  0.60135923  0.61161865  0.05017316  1
  Se  Se142  1  0.58198532  0.58750242  0.56439305  1
  Se  Se143  1  0.57460701  0.91945513  0.04249803  1
  Se  Se144  1  0.59207650  0.92874564  0.56238260  1
  Se  Se145  1  0.91426456  0.24352861  0.05750580  1
  Se  Se146  1  0.91101171  0.24306975  0.55523907  1
  Se  Se147  1  0.92502982  0.58100714  0.04213334  1
  Se  Se148  1  0.91750503  0.58822195  0.55919150  1
  Se  Se149  1  0.92337196  0.92043929  0.05152932  1
  Se  Se150  1  0.92061687  0.92296715  0.56577355  1
  Se  Se151  1  0.08570048  0.24346883  0.44832751  1
  Se  Se152  1  0.08770521  0.24277256  0.94810874  1
  Se  Se153  1  0.07832667  0.58563501  0.44732239  1
  Se  Se154  1  0.08502593  0.59227316  0.93407610  1
  Se  Se155  1  0.08113442  0.91579856  0.44621105  1
  Se  Se156  1  0.08970120  0.91722392  0.94252153  1
  Se  Se157  1  0.43076997  0.24888215  0.44701353  1
  Se  Se158  1  0.41104436  0.25481969  0.93053572  1
  Se  Se159  1  0.40417318  0.59451084  0.45012138  1
  Se  Se160  1  0.41687833  0.57616938  0.95232018  1
  Se  Se161  1  0.40498154  0.92405125  0.43723503  1
  Se  Se162  1  0.41497828  0.91915818  0.94688097  1
  Se  Se163  1  0.75369373  0.25105408  0.44740479  1
  Se  Se164  1  0.75818057  0.23280078  0.95481323  1
  Se  Se165  1  0.73700660  0.59378391  0.44004596  1
  Se  Se166  1  0.75963428  0.57602498  0.94812728  1
  Se  Se167  1  0.73794315  0.92537505  0.43683211  1
  Se  Se168  1  0.75269065  0.91692989  0.94603477  1
  Se  Se169  1  0.24941784  0.08391207  0.44804591  1
  Se  Se170  1  0.25181483  0.08978441  0.93796956  1
  Se  Se171  1  0.26016632  0.41143050  0.44059294  1
  Se  Se172  1  0.25536888  0.41226214  0.93602861  1
  Se  Se173  1  0.24160504  0.75629254  0.45437673  1
  Se  Se174  1  0.24779872  0.75186323  0.95010194  1
  Se  Se175  1  0.57841396  0.08935854  0.45128136  1
  Se  Se176  1  0.58816785  0.07840813  0.93123886  1
  Se  Se177  1  0.59222114  0.41215762  0.44098859  1
  Se  Se178  1  0.58147186  0.40569556  0.94522104  1
  Se  Se179  1  0.58063449  0.75048553  0.44552064  1
  Se  Se180  1  0.58412460  0.73826904  0.95880698  1
  Se  Se181  1  0.91433139  0.07862940  0.44641781  1
  Se  Se182  1  0.91901580  0.08335571  0.94665815  1
  Se  Se183  1  0.92935319  0.40575221  0.43489584  1
  Se  Se184  1  0.92364060  0.41294867  0.95259681  1
  Se  Se185  1  0.92225116  0.74277333  0.44180480  1
  Se  Se186  1  0.91850185  0.75413251  0.93774290  1
  Se  Se187  1  0.25388948  0.24545019  0.30470484  1
  Se  Se188  1  0.25050319  0.24949041  0.79781376  1
  Se  Se189  1  0.25507691  0.58955927  0.30478807  1
  Se  Se190  1  0.25350214  0.58604269  0.80248026  1
  Se  Se191  1  0.24401726  0.91129170  0.31056665  1
  Se  Se192  1  0.25653386  0.91961407  0.80580639  1
  Se  Se193  1  0.59335539  0.25847794  0.30223547  1
  Se  Se194  1  0.56633205  0.23243877  0.80024433  1
  Se  Se195  1  0.58099588  0.58391106  0.31044635  1
  Se  Se196  1  0.58248318  0.58172744  0.81318665  1
  Se  Se197  1  0.57333626  0.91440719  0.30134703  1
  Se  Se198  1  0.58237980  0.90236330  0.82130412  1
  Se  Se199  1  0.91600851  0.24146420  0.31113238  1
  Se  Se200  1  0.90534601  0.25728107  0.82153103  1
  Se  Se201  1  0.90325933  0.57006091  0.29605254  1
  Se  Se202  1  0.91479695  0.58464577  0.80366112  1
  Se  Se203  1  0.91032890  0.90960662  0.29502004  1
  Se  Se204  1  0.92086696  0.92319312  0.80190157  1
  Se  Se205  1  0.08136785  0.07676436  0.30241299  1
  Se  Se206  1  0.08117947  0.08466797  0.80298961  1
  Se  Se207  1  0.09557112  0.42260732  0.31069125  1
  Se  Se208  1  0.08967618  0.42480218  0.81490922  1
  Se  Se209  1  0.08677031  0.75285903  0.31020527  1
  Se  Se210  1  0.08491462  0.75394109  0.80153936  1
  Se  Se211  1  0.42279732  0.09297546  0.30996337  1
  Se  Se212  1  0.42116029  0.08053636  0.79056343  1
  Se  Se213  1  0.42290875  0.42414298  0.30261241  1
  Se  Se214  1  0.41060760  0.41476474  0.80069337  1
  Se  Se215  1  0.42433663  0.76167858  0.30207774  1
  Se  Se216  1  0.41458925  0.74340248  0.81444105  1
  Se  Se217  1  0.75244775  0.09243447  0.31075620  1
  Se  Se218  1  0.75256152  0.09134169  0.81549989  1
  Se  Se219  1  0.75672186  0.41842770  0.29331363  1
  Se  Se220  1  0.74421529  0.41222718  0.81292895  1
  Se  Se221  1  0.75288368  0.75193662  0.29994572  1
  Se  Se222  1  0.74812736  0.74980234  0.80761062  1
  Se  Se223  1  0.24473735  0.08909466  0.18564331  1
  Se  Se224  1  0.25203695  0.08129810  0.69208851  1
  Se  Se225  1  0.25885861  0.41316832  0.19892764  1
  Se  Se226  1  0.24466632  0.41665303  0.69863723  1
  Se  Se227  1  0.25064443  0.75012980  0.19680015  1
  Se  Se228  1  0.25188826  0.75213920  0.70073237  1
  Se  Se229  1  0.57636002  0.09583796  0.19154686  1
  Se  Se230  1  0.58917530  0.08295200  0.69124070  1
  Se  Se231  1  0.58630018  0.42376522  0.18869695  1
  Se  Se232  1  0.58214951  0.41383386  0.70144938  1
  Se  Se233  1  0.57434709  0.76333963  0.18460699  1
  Se  Se234  1  0.58948782  0.74291114  0.70759053  1
  Se  Se235  1  0.91507468  0.07888776  0.19876168  1
  Se  Se236  1  0.91647206  0.09103163  0.70489695  1
  Se  Se237  1  0.91530759  0.41718960  0.18565332  1
  Se  Se238  1  0.90353892  0.42748067  0.69361336  1
  Se  Se239  1  0.90431919  0.74242729  0.17567892  1
  Se  Se240  1  0.91721340  0.74849292  0.70153542  1
  Se  Se241  1  0.09356618  0.24159465  0.18856591  1
  Se  Se242  1  0.08333274  0.24657249  0.69253574  1
  Se  Se243  1  0.09538888  0.57597121  0.19122502  1
  Se  Se244  1  0.07974854  0.58889340  0.70204266  1
  Se  Se245  1  0.07732485  0.91413394  0.19610278  1
  Se  Se246  1  0.08315417  0.92192565  0.69847612  1
  Se  Se247  1  0.41503722  0.25765733  0.19899426  1
  Se  Se248  1  0.40384684  0.25412758  0.69494962  1
  Se  Se249  1  0.41826906  0.58895890  0.19513244  1
  Se  Se250  1  0.41548488  0.58323242  0.70352846  1
  Se  Se251  1  0.42086238  0.91551299  0.18749304  1
  Se  Se252  1  0.42542362  0.90635517  0.70205947  1
  Se  Se253  1  0.74949944  0.25178056  0.19405168  1
  Se  Se254  1  0.74633521  0.25587260  0.70377711  1
  Se  Se255  1  0.75648411  0.57113554  0.17750769  1
  Se  Se256  1  0.74360714  0.58531056  0.70310507  1
  Se  Se257  1  0.74586454  0.90555223  0.17743584  1
  Se  Se258  1  0.75964364  0.90785951  0.69197663  1
