# generated using pymatgen
data_In86Cu29Se144
_symmetry_space_group_name_H-M   'P 1'
_cell_length_a   17.57278331
_cell_length_b   17.57482779
_cell_length_c   23.42299244
_cell_angle_alpha   89.98197296
_cell_angle_beta   90.00073901
_cell_angle_gamma   90.02081879
_symmetry_Int_Tables_number   1
_chemical_formula_structural   In86Cu29Se144
_chemical_formula_sum   'In86 Cu29 Se144'
_cell_volume   7233.92430603
_cell_formula_units_Z   1
loop_
 _symmetry_equiv_pos_site_id
 _symmetry_equiv_pos_as_xyz
  1  'x, y, z'
loop_
 _atom_site_type_symbol
 _atom_site_label
 _atom_site_symmetry_multiplicity
 _atom_site_fract_x
 _atom_site_fract_y
 _atom_site_fract_z
 _atom_site_occupancy
  In  In0  1  -0.00796617  0.17832423  0.12381069  1
  In  In1  1  0.01789604  0.16834206  0.62236545  1
  In  In2  1  0.00381207  0.50628979  0.11085065  1
  In  In3  1  -0.00991397  0.48887315  0.61313357  1
  In  In4  1  -0.00057746  0.81908021  0.11027718  1
  In  In5  1  -0.00596644  0.83675878  0.62771722  1
  In  In6  1  0.35904983  0.15185517  0.14702651  1
  In  In7  1  0.32036219  0.16676088  0.62349355  1
  In  In8  1  0.33154108  0.50116391  0.12448960  1
  In  In9  1  0.32389508  0.51739061  0.62543501  1
  In  In10  1  0.34257290  0.83594396  0.11678339  1
  In  In11  1  0.34630544  0.81970437  0.63137837  1
  In  In12  1  0.66241251  0.16574298  0.12510635  1
  In  In13  1  0.66888552  0.16553941  0.63082387  1
  In  In14  1  0.66868516  0.49467756  0.12071901  1
  In  In15  1  0.66463876  0.48540813  0.62772531  1
  In  In16  1  0.66158469  0.83979820  0.11893264  1
  In  In17  1  0.66485748  0.84467401  0.63191874  1
  In  In18  1  0.18074238  -0.00618659  0.37701748  1
  In  In19  1  0.16805327  -0.01114504  0.87530137  1
  In  In20  1  0.16931124  0.32935871  0.38404697  1
  In  In21  1  0.16719502  0.34690058  0.87353112  1
  In  In22  1  0.16720040  0.65501213  0.37464939  1
  In  In23  1  0.18646342  0.64945934  0.89192018  1
  In  In24  1  0.48880145  -0.00558514  0.36125385  1
  In  In25  1  0.50185829  0.00066860  0.87433191  1
  In  In26  1  0.49724184  0.32777341  0.35379960  1
  In  In27  1  0.51203154  0.32077137  0.88645196  1
  In  In28  1  0.49943434  0.68024814  0.37431158  1
  In  In29  1  0.47888290  0.67973744  0.89577309  1
  In  In30  1  0.82969002  0.00923505  0.37088015  1
  In  In31  1  0.82631769  0.00708847  0.88182137  1
  In  In32  1  0.82804888  0.33995181  0.37014986  1
  In  In33  1  0.82881930  0.33400024  0.87298138  1
  In  In34  1  0.82695209  0.65102041  0.37513819  1
  In  In35  1  0.85194936  0.65956247  0.89853140  1
  In  In36  1  0.00165993  0.18390387  0.38307309  1
  In  In37  1  -0.01952475  0.16627700  0.87288078  1
  In  In38  1  -0.00431128  0.48793948  0.38464893  1
  In  In39  1  0.00887519  0.49396248  0.87867902  1
  In  In40  1  0.01286779  0.82996193  0.37443262  1
  In  In41  1  0.01076771  0.82159716  0.89505642  1
  In  In42  1  0.33114253  0.16180083  0.36735991  1
  In  In43  1  0.35342362  0.16494500  0.87783959  1
  In  In44  1  0.32923756  0.49790192  0.36773562  1
  In  In45  1  0.32986917  0.50351246  0.88857204  1
  In  In46  1  0.33887617  0.84081140  0.36525597  1
  In  In47  1  0.33108588  0.83427720  0.87722210  1
  In  In48  1  0.65569521  0.16065197  0.35375383  1
  In  In49  1  0.66723349  0.16648374  0.87406354  1
  In  In50  1  0.67551297  0.48821251  0.37090948  1
  In  In51  1  0.67127587  0.49421979  0.88281959  1
  In  In52  1  0.64943012  0.82786610  0.37242924  1
  In  In53  1  0.65745187  0.83994192  0.88289704  1
  In  In54  1  0.18545115  0.00230907  0.12694734  1
  In  In55  1  0.17079103  0.01404033  0.62588463  1
  In  In56  1  0.17254428  0.34799696  0.12139618  1
  In  In57  1  0.15600180  0.32670637  0.61446347  1
  In  In58  1  0.19377751  0.68610693  0.09555313  1
  In  In59  1  0.18426550  0.66143695  0.62499645  1
  In  In60  1  0.50230233  0.00305990  0.12327353  1
  In  In61  1  0.50560766  -0.00873999  0.63087940  1
  In  In62  1  0.50010333  0.33223465  0.12755239  1
  In  In63  1  0.50944898  0.34193748  0.63089341  1
  In  In64  1  0.47747589  0.65009508  0.10480793  1
  In  In65  1  0.47810516  0.67178424  0.62786812  1
  In  In66  1  0.81436097  -0.01089027  0.11942949  1
  In  In67  1  0.82769661  -0.00973183  0.63194158  1
  In  In68  1  0.83287816  0.33171533  0.11850447  1
  In  In69  1  0.82514327  0.33901840  0.63007273  1
  In  In70  1  0.83000321  0.66006964  0.11321096  1
  In  In71  1  0.84576222  0.66169713  0.62870550  1
  In  In72  1  0.16923127  0.17313750  0.00662273  1
  In  In73  1  0.16887550  0.83286478  0.50366513  1
  In  In74  1  0.00158445  0.65609500  0.24728753  1
  In  In75  1  0.66035774  0.66433178  0.23694694  1
  In  In76  1  0.83210363  0.83071956  0.51043389  1
  In  In77  1  0.33864071  0.33441246  0.75135703  1
  In  In78  1  -0.00175010  0.00256647  0.75014178  1
  In  In79  1  0.66298543  0.66695710  0.76635090  1
  In  In80  1  0.00173362  0.33606023  0.25151690  1
  In  In81  1  0.49754291  0.50241318  0.49982840  1
  In  In82  1  0.49613499  0.16230436  0.48811142  1
  In  In83  1  0.00921698  0.66464935  0.76023740  1
  In  In84  1  0.00760749  -0.00230284  0.25231683  1
  In  In85  1  0.83462485  0.17120178  0.49746410  1
  Cu  Cu86  1  0.16930870  0.17088105  0.74678080  1
  Cu  Cu87  1  0.33965508  0.00178130  0.00156749  1
  Cu  Cu88  1  0.33573360  -0.00046550  0.49440354  1
  Cu  Cu89  1  0.17436745  0.17096793  0.25529572  1
  Cu  Cu90  1  0.50096793  0.50602074  0.24041549  1
  Cu  Cu91  1  0.49791449  0.83386808  0.75921223  1
  Cu  Cu92  1  0.32684788  0.34000358  0.49822950  1
  Cu  Cu93  1  0.17191633  0.50710228  0.24468044  1
  Cu  Cu94  1  0.82525292  0.16029728  0.24110169  1
  Cu  Cu95  1  -0.00237615  0.00307338  -0.00093122  1
  Cu  Cu96  1  0.17845534  0.83356219  0.23848246  1
  Cu  Cu97  1  0.82982952  0.83885233  0.76512204  1
  Cu  Cu98  1  0.66908392  0.33126258  0.00182483  1
  Cu  Cu99  1  0.66002648  0.00806444  -0.00058132  1
  Cu  Cu100  1  -0.00666884  0.33106635  -0.00346331  1
  Cu  Cu101  1  0.49573587  0.83288536  0.24269986  1
  Cu  Cu102  1  0.49761938  0.50185007  0.75673254  1
  Cu  Cu103  1  0.66643266  0.66955884  0.00092860  1
  Cu  Cu104  1  0.82831772  0.17442161  0.75207854  1
  Cu  Cu105  1  0.82760575  0.83162910  0.24483441  1
  Cu  Cu106  1  0.50623260  0.16093921  0.75303101  1
  Cu  Cu107  1  0.66243042  -0.00958182  0.50001052  1
  Cu  Cu108  1  0.33796110  0.33285188  0.00634644  1
  Cu  Cu109  1  0.66578763  0.33185261  0.49858461  1
  Cu  Cu110  1  0.66418609  0.66143169  0.49750868  1
  Cu  Cu111  1  0.16683718  0.50204678  0.75289851  1
  Cu  Cu112  1  -0.00439209  0.66276378  0.49971298  1
  Cu  Cu113  1  0.82837795  0.49502094  0.75114152  1
  Cu  Cu114  1  0.17921455  0.83285455  0.75290073  1
  Se  Se115  1  0.07805773  0.07869929  0.06448908  1
  Se  Se116  1  0.08428747  0.07817178  0.55270667  1
  Se  Se117  1  0.08179307  0.41086540  0.04814893  1
  Se  Se118  1  0.10462113  0.43967966  0.55674750  1
  Se  Se119  1  0.08037570  0.74296787  0.04000297  1
  Se  Se120  1  0.07276290  0.74131167  0.56266003  1
  Se  Se121  1  0.41630349  0.08945018  0.05637185  1
  Se  Se122  1  0.41379179  0.07870918  0.55877890  1
  Se  Se123  1  0.42074892  0.41920052  0.05770672  1
  Se  Se124  1  0.40926305  0.41081282  0.56316463  1
  Se  Se125  1  0.41190941  0.75053189  0.04215634  1
  Se  Se126  1  0.41351500  0.74925556  0.54930695  1
  Se  Se127  1  0.74783231  0.08675582  0.05325693  1
  Se  Se128  1  0.74405317  0.07340546  0.55672589  1
  Se  Se129  1  0.75476732  0.41853430  0.04958322  1
  Se  Se130  1  0.74714466  0.41505630  0.55269286  1
  Se  Se131  1  0.74833858  0.75486302  0.05442000  1
  Se  Se132  1  0.73933073  0.73811856  0.56653891  1
  Se  Se133  1  0.26505882  0.24896925  0.06988321  1
  Se  Se134  1  0.24907566  0.24904663  0.54973865  1
  Se  Se135  1  0.23724607  0.56067491  0.05063249  1
  Se  Se136  1  0.25351940  0.58877183  0.54550541  1
  Se  Se137  1  0.25151099  0.91979133  0.05116410  1
  Se  Se138  1  0.26095583  0.92238226  0.56229460  1
  Se  Se139  1  0.58244791  0.25165773  0.05557541  1
  Se  Se140  1  0.58391469  0.25021700  0.55645520  1
  Se  Se141  1  0.58741638  0.58040377  0.05248746  1
  Se  Se142  1  0.58547658  0.58820023  0.56603350  1
  Se  Se143  1  0.57733414  0.91952535  0.04932529  1
  Se  Se144  1  0.58026347  0.90995541  0.55536816  1
  Se  Se145  1  0.91112747  0.24554782  0.04759211  1
  Se  Se146  1  0.91862747  0.25528843  0.56419078  1
  Se  Se147  1  0.91719627  0.58613433  0.04525786  1
  Se  Se148  1  0.90763830  0.58061626  0.54995603  1
  Se  Se149  1  0.91760533  0.92115238  0.05775127  1
  Se  Se150  1  0.92597716  0.93164238  0.55666832  1
  Se  Se151  1  0.07548864  0.26456693  0.45416097  1
  Se  Se152  1  0.07848103  0.25198061  0.93762733  1
  Se  Se153  1  0.07815950  0.58289467  0.44382927  1
  Se  Se154  1  0.06002525  0.60670023  0.93731840  1
  Se  Se155  1  0.07735389  0.92557622  0.44481945  1
  Se  Se156  1  0.08860456  0.92169547  0.95290081  1
  Se  Se157  1  0.41059410  0.26439205  0.43711169  1
  Se  Se158  1  0.41991125  0.24654918  0.95441423  1
  Se  Se159  1  0.41113590  0.59019002  0.43780176  1
  Se  Se160  1  0.42027901  0.57364623  0.95731389  1
  Se  Se161  1  0.41877140  0.91740204  0.44038707  1
  Se  Se162  1  0.41821244  0.91886826  0.94346312  1
  Se  Se163  1  0.73439115  0.24576217  0.43481422  1
  Se  Se164  1  0.75003244  0.24930842  0.94356166  1
  Se  Se165  1  0.74412623  0.57479037  0.44648471  1
  Se  Se166  1  0.74931479  0.58139274  0.95183004  1
  Se  Se167  1  0.74765519  0.91483664  0.43951701  1
  Se  Se168  1  0.74510021  0.92189819  0.94916711  1
  Se  Se169  1  0.25335298  0.08665783  0.44433250  1
  Se  Se170  1  0.25479462  0.08221947  0.94221001  1
  Se  Se171  1  0.24887163  0.42647490  0.44431922  1
  Se  Se172  1  0.24906140  0.40994478  0.95187315  1
  Se  Se173  1  0.25304231  0.75158105  0.43495210  1
  Se  Se174  1  0.25157261  0.75478961  0.94981661  1
  Se  Se175  1  0.59158631  0.07152236  0.43481177  1
  Se  Se176  1  0.57840027  0.08979047  0.94322393  1
  Se  Se177  1  0.57950430  0.40609558  0.43796647  1
  Se  Se178  1  0.58327343  0.41661005  0.95176703  1
  Se  Se179  1  0.58152160  0.75012068  0.45109531  1
  Se  Se180  1  0.58054296  0.75531103  0.95327232  1
  Se  Se181  1  0.92478514  0.07583345  0.44096818  1
  Se  Se182  1  0.91258317  0.08770151  0.95055009  1
  Se  Se183  1  0.91360313  0.39895458  0.44665694  1
  Se  Se184  1  0.91403168  0.41646429  0.94154846  1
  Se  Se185  1  0.91806692  0.74510980  0.43901604  1
  Se  Se186  1  0.89890272  0.77422166  0.95596050  1
  Se  Se187  1  0.25124631  0.25988536  0.30815611  1
  Se  Se188  1  0.24904768  0.24395214  0.81336195  1
  Se  Se189  1  0.25349810  0.59078408  0.29947879  1
  Se  Se190  1  0.25351490  0.57740928  0.80956383  1
  Se  Se191  1  0.25109167  0.92081091  0.29719197  1
  Se  Se192  1  0.25753096  0.92255416  0.80346783  1
  Se  Se193  1  0.59481134  0.26156271  0.29026931  1
  Se  Se194  1  0.58350772  0.25091727  0.80461752  1
  Se  Se195  1  0.57909911  0.57917379  0.30957464  1
  Se  Se196  1  0.56943292  0.58073079  0.82384453  1
  Se  Se197  1  0.58118092  0.91207117  0.29846368  1
  Se  Se198  1  0.58686588  0.91779309  0.80482774  1
  Se  Se199  1  0.90730765  0.23742453  0.30355902  1
  Se  Se200  1  0.91638498  0.25699631  0.80060265  1
  Se  Se201  1  0.91130788  0.56620948  0.30707534  1
  Se  Se202  1  0.90699351  0.57771682  0.81045158  1
  Se  Se203  1  0.91122866  0.90411935  0.30879248  1
  Se  Se204  1  0.92212982  0.91317269  0.81967723  1
  Se  Se205  1  0.08940072  0.09424177  0.31504409  1
  Se  Se206  1  0.08955486  0.09285643  0.81156742  1
  Se  Se207  1  0.09389702  0.42745212  0.30834186  1
  Se  Se208  1  0.08082020  0.41638803  0.80043455  1
  Se  Se209  1  0.09590903  0.75573535  0.29959455  1
  Se  Se210  1  0.09859363  0.75767565  0.81558989  1
  Se  Se211  1  0.43380846  0.10419462  0.30213222  1
  Se  Se212  1  0.41719923  0.08012999  0.80170986  1
  Se  Se213  1  0.41701987  0.42521085  0.29696382  1
  Se  Se214  1  0.42276413  0.41753657  0.81909099  1
  Se  Se215  1  0.41603050  0.74897160  0.29886613  1
  Se  Se216  1  0.41506035  0.74719977  0.80949002  1
  Se  Se217  1  0.74626985  0.07285644  0.29461535  1
  Se  Se218  1  0.75184601  0.08329866  0.80430924  1
  Se  Se219  1  0.74685257  0.40969257  0.29589722  1
  Se  Se220  1  0.74202847  0.41588758  0.80448004  1
  Se  Se221  1  0.75148797  0.74848999  0.30717445  1
  Se  Se222  1  0.75995489  0.75021243  0.82449346  1
  Se  Se223  1  0.25307496  0.08085939  0.20502906  1
  Se  Se224  1  0.25464844  0.08345221  0.70105939  1
  Se  Se225  1  0.25352605  0.41617268  0.19782993  1
  Se  Se226  1  0.24544127  0.41929389  0.69100310  1
  Se  Se227  1  0.25645533  0.74845400  0.18352196  1
  Se  Se228  1  0.25524756  0.74387860  0.69955738  1
  Se  Se229  1  0.58201822  0.08339839  0.19452502  1
  Se  Se230  1  0.58787743  0.07843909  0.69631421  1
  Se  Se231  1  0.58618745  0.41998610  0.19356633  1
  Se  Se232  1  0.58405288  0.41886810  0.70653248  1
  Se  Se233  1  0.56670813  0.74936816  0.17878705  1
  Se  Se234  1  0.57741309  0.75162664  0.69664271  1
  Se  Se235  1  0.91396166  0.08010570  0.18842228  1
  Se  Se236  1  0.90885181  0.09483338  0.68902681  1
  Se  Se237  1  0.92025692  0.42294072  0.18487838  1
  Se  Se238  1  0.91606137  0.42039412  0.69458926  1
  Se  Se239  1  0.91033650  0.75077706  0.18972744  1
  Se  Se240  1  0.90987191  0.75908800  0.70343839  1
  Se  Se241  1  0.09406408  0.24525339  0.19143916  1
  Se  Se242  1  0.08512210  0.25513248  0.69669636  1
  Se  Se243  1  0.09561105  0.58377392  0.18073077  1
  Se  Se244  1  0.08674790  0.57917144  0.68916573  1
  Se  Se245  1  0.08638760  0.90703351  0.18336159  1
  Se  Se246  1  0.09349412  0.90891036  0.69351875  1
  Se  Se247  1  0.40798538  0.26833440  0.20092496  1
  Se  Se248  1  0.42658660  0.24014206  0.68919597  1
  Se  Se249  1  0.41309328  0.58895407  0.19293657  1
  Se  Se250  1  0.41392912  0.58016009  0.70051985  1
  Se  Se251  1  0.41400651  0.92044288  0.19130838  1
  Se  Se252  1  0.41713148  0.91391017  0.69878790  1
  Se  Se253  1  0.75157557  0.25219587  0.18945125  1
  Se  Se254  1  0.74256671  0.25584993  0.69829692  1
  Se  Se255  1  0.76227294  0.57453175  0.19171498  1
  Se  Se256  1  0.75012974  0.58265747  0.69499911  1
  Se  Se257  1  0.74009172  0.91364562  0.19701839  1
  Se  Se258  1  0.74787231  0.91684470  0.70679154  1
