# generated using pymatgen
data_In86Cu29Se144
_symmetry_space_group_name_H-M   'P 1'
_cell_length_a   17.60823557
_cell_length_b   17.60713964
_cell_length_c   23.47796367
_cell_angle_alpha   89.99292777
_cell_angle_beta   89.99778535
_cell_angle_gamma   90.00134004
_symmetry_Int_Tables_number   1
_chemical_formula_structural   In86Cu29Se144
_chemical_formula_sum   'In86 Cu29 Se144'
_cell_volume   7278.88856748
_cell_formula_units_Z   1
loop_
 _symmetry_equiv_pos_site_id
 _symmetry_equiv_pos_as_xyz
  1  'x, y, z'
loop_
 _atom_site_type_symbol
 _atom_site_label
 _atom_site_symmetry_multiplicity
 _atom_site_fract_x
 _atom_site_fract_y
 _atom_site_fract_z
 _atom_site_occupancy
  In  In0  1  -0.00403882  0.16950405  0.12726588  1
  In  In1  1  -0.00088106  0.17218713  0.62565496  1
  In  In2  1  -0.00688707  0.50303226  0.12780382  1
  In  In3  1  -0.01582005  0.49245251  0.62120989  1
  In  In4  1  0.01324874  0.83484927  0.12076129  1
  In  In5  1  -0.00244289  0.84509594  0.62299049  1
  In  In6  1  0.33599221  0.16053615  0.12188024  1
  In  In7  1  0.33423697  0.15992456  0.62516562  1
  In  In8  1  0.32332057  0.48501460  0.13166083  1
  In  In9  1  0.34430964  0.48605407  0.62054970  1
  In  In10  1  0.35152146  0.85581976  0.10697115  1
  In  In11  1  0.34527714  0.83631662  0.62818891  1
  In  In12  1  0.66726298  0.16886885  0.12569185  1
  In  In13  1  0.67369533  0.17017203  0.61829624  1
  In  In14  1  0.67361191  0.49009497  0.13748717  1
  In  In15  1  0.65836934  0.49002339  0.61390491  1
  In  In16  1  0.65728362  0.84165604  0.13575403  1
  In  In17  1  0.66258517  0.83250598  0.61360249  1
  In  In18  1  0.17478868  0.00777586  0.35985356  1
  In  In19  1  0.17879324  0.00210275  0.89598355  1
  In  In20  1  0.16323439  0.33667550  0.36019253  1
  In  In21  1  0.15087112  0.33594728  0.87669434  1
  In  In22  1  0.16775149  0.66712367  0.37312555  1
  In  In23  1  0.17717987  0.67769915  0.87329182  1
  In  In24  1  0.49872254  0.00247452  0.37416699  1
  In  In25  1  0.48340265  0.01799061  0.89588015  1
  In  In26  1  0.50071622  0.32687395  0.37729805  1
  In  In27  1  0.50076100  0.31014131  0.87080231  1
  In  In28  1  0.51315977  0.65855922  0.37728477  1
  In  In29  1  0.50892939  0.68233613  0.87655223  1
  In  In30  1  0.83184159  0.00287558  0.37101938  1
  In  In31  1  0.84904684  0.00491013  0.87691495  1
  In  In32  1  0.83217783  0.33130072  0.37484173  1
  In  In33  1  0.83250590  0.33131333  0.87864772  1
  In  In34  1  0.81946256  0.67614337  0.37948214  1
  In  In35  1  0.80997735  0.65741279  0.87894956  1
  In  In36  1  -0.00332971  0.16239029  0.36614522  1
  In  In37  1  -0.01010685  0.17702049  0.88716610  1
  In  In38  1  -0.00476050  0.48026062  0.37100931  1
  In  In39  1  -0.00203805  0.48272378  0.87378478  1
  In  In40  1  -0.01157466  0.83037516  0.36997180  1
  In  In41  1  0.00373114  0.84682525  0.87605483  1
  In  In42  1  0.34774788  0.17733495  0.36839440  1
  In  In43  1  0.33878687  0.15418885  0.88869784  1
  In  In44  1  0.34409637  0.49553368  0.37584249  1
  In  In45  1  0.33183761  0.49696756  0.87380588  1
  In  In46  1  0.33534092  0.84974212  0.37234177  1
  In  In47  1  0.31696762  0.86621790  0.90547543  1
  In  In48  1  0.66519333  0.16641647  0.37283297  1
  In  In49  1  0.65553206  0.17900274  0.88395931  1
  In  In50  1  0.66788780  0.49792447  0.37350381  1
  In  In51  1  0.68096585  0.49900488  0.88180295  1
  In  In52  1  0.66502222  0.83743452  0.37123292  1
  In  In53  1  0.65325131  0.83083185  0.88183696  1
  In  In54  1  0.16941239  0.00071121  0.12194737  1
  In  In55  1  0.17601194  0.01711782  0.63124629  1
  In  In56  1  0.18419976  0.31683315  0.14202156  1
  In  In57  1  0.15754305  0.31090822  0.63088532  1
  In  In58  1  0.15937241  0.67433505  0.11937941  1
  In  In59  1  0.17768861  0.67035113  0.62532662  1
  In  In60  1  0.49767740  0.00729615  0.12091556  1
  In  In61  1  0.49679832  -0.00332336  0.62079082  1
  In  In62  1  0.51030408  0.32398185  0.13324982  1
  In  In63  1  0.50596526  0.34037660  0.61437889  1
  In  In64  1  0.50016391  0.67874830  0.12891404  1
  In  In65  1  0.50736175  0.67158547  0.61759143  1
  In  In66  1  0.81913355  0.01071181  0.13558152  1
  In  In67  1  0.83049370  -0.00255912  0.61034928  1
  In  In68  1  0.83040935  0.33344548  0.12802987  1
  In  In69  1  0.83348810  0.32949575  0.62311510  1
  In  In70  1  0.83276904  0.65303484  0.12242455  1
  In  In71  1  0.82301762  0.65778440  0.61475701  1
  In  In72  1  0.01259580  0.01552792  0.75316589  1
  In  In73  1  0.15522098  0.50025597  0.00338941  1
  In  In74  1  0.33337098  0.66525691  0.24776011  1
  In  In75  1  -0.00017909  0.66621310  0.24343961  1
  In  In76  1  0.32800991  0.32472578  0.74959087  1
  In  In77  1  -0.00197668  0.66681780  0.75705638  1
  In  In78  1  0.33692420  0.67211559  0.74685495  1
  In  In79  1  0.16195523  0.83588897  0.50130321  1
  In  In80  1  0.66232312  0.66276574  0.74551557  1
  In  In81  1  0.50557087  0.50345880  0.00231039  1
  In  In82  1  0.17043972  0.16636903  0.50307469  1
  In  In83  1  0.16661354  0.49679678  0.48984461  1
  In  In84  1  0.83508173  0.83335586  0.00021753  1
  In  In85  1  0.66753759  0.00790570  0.74904471  1
  Cu  Cu86  1  0.33998459  0.00250682  0.49954407  1
  Cu  Cu87  1  0.83457701  0.17210802  0.75028835  1
  Cu  Cu88  1  0.49138545  0.84852665  0.75267859  1
  Cu  Cu89  1  0.66578803  0.33269581  0.00626373  1
  Cu  Cu90  1  -0.00448217  0.33492554  0.00626169  1
  Cu  Cu91  1  -0.00530929  0.66500076  -0.00274872  1
  Cu  Cu92  1  -0.00366242  -0.00421184  0.49074481  1
  Cu  Cu93  1  0.83299220  0.48464573  0.75047908  1
  Cu  Cu94  1  -0.00170940  0.32742066  0.49919060  1
  Cu  Cu95  1  0.67021006  0.33093684  0.49469000  1
  Cu  Cu96  1  0.15628795  0.49818585  0.74491488  1
  Cu  Cu97  1  0.83091930  0.17182340  0.25135247  1
  Cu  Cu98  1  0.50723869  0.49331965  0.74603723  1
  Cu  Cu99  1  0.83213201  0.83847154  0.25192588  1
  Cu  Cu100  1  0.83280795  0.50127124  0.25181539  1
  Cu  Cu101  1  0.17397800  0.84041639  0.24063802  1
  Cu  Cu102  1  -0.01155682  0.66468395  0.49802900  1
  Cu  Cu103  1  0.49828704  0.16300343  0.24924175  1
  Cu  Cu104  1  0.50186166  0.49206665  0.25522126  1
  Cu  Cu105  1  -0.00022025  0.00777374  0.00449872  1
  Cu  Cu106  1  0.34021475  0.66696637  0.49850488  1
  Cu  Cu107  1  0.66858861  0.66941493  0.49349348  1
  Cu  Cu108  1  0.66360505  0.00125653  0.49237175  1
  Cu  Cu109  1  0.67024337  0.00276210  0.00904052  1
  Cu  Cu110  1  0.49923392  0.83798789  0.24910558  1
  Cu  Cu111  1  0.33393044  0.32844326  0.00429177  1
  Cu  Cu112  1  0.33525727  0.67138722  0.00216624  1
  Cu  Cu113  1  0.83237930  0.82889956  0.74331440  1
  Cu  Cu114  1  0.16183063  0.16252119  0.24444799  1
  Se  Se115  1  0.08321163  0.08971487  0.05849590  1
  Se  Se116  1  0.07457085  0.07133041  0.55654717  1
  Se  Se117  1  0.08110221  0.40632988  0.06825755  1
  Se  Se118  1  0.08220648  0.40773262  0.55821194  1
  Se  Se119  1  0.08044484  0.74976248  0.04515415  1
  Se  Se120  1  0.07389882  0.73806273  0.55886708  1
  Se  Se121  1  0.39672191  0.06303214  0.05012563  1
  Se  Se122  1  0.41923775  0.08703802  0.55318848  1
  Se  Se123  1  0.41441655  0.41145489  0.06026537  1
  Se  Se124  1  0.42478102  0.42333649  0.54519685  1
  Se  Se125  1  0.42511402  0.75069304  0.05109378  1
  Se  Se126  1  0.41614867  0.75296878  0.55500732  1
  Se  Se127  1  0.75492581  0.08939752  0.05583236  1
  Se  Se128  1  0.74824427  0.08318350  0.54697296  1
  Se  Se129  1  0.74814975  0.41801482  0.05800660  1
  Se  Se130  1  0.75298682  0.41273737  0.55192879  1
  Se  Se131  1  0.74695942  0.75288047  0.06605675  1
  Se  Se132  1  0.75113655  0.75161749  0.54932541  1
  Se  Se133  1  0.24840340  0.24886628  0.05766382  1
  Se  Se134  1  0.25949998  0.26182696  0.55820214  1
  Se  Se135  1  0.25784468  0.58551525  0.05924786  1
  Se  Se136  1  0.25710663  0.58585194  0.55495889  1
  Se  Se137  1  0.23098072  0.89888748  0.05536564  1
  Se  Se138  1  0.25400968  0.92575710  0.55902933  1
  Se  Se139  1  0.57993222  0.24735287  0.05479705  1
  Se  Se140  1  0.58708358  0.24999566  0.55071700  1
  Se  Se141  1  0.58974366  0.58470064  0.06983994  1
  Se  Se142  1  0.58658121  0.58726930  0.55010929  1
  Se  Se143  1  0.58486373  0.91759877  0.05769092  1
  Se  Se144  1  0.58093027  0.91913717  0.54963182  1
  Se  Se145  1  0.91151335  0.25067448  0.05756933  1
  Se  Se146  1  0.91595528  0.24456208  0.55319621  1
  Se  Se147  1  0.91745091  0.57843060  0.05073453  1
  Se  Se148  1  0.91088687  0.57612671  0.54983941  1
  Se  Se149  1  0.91806912  0.92615750  0.06327651  1
  Se  Se150  1  0.91658303  0.91149315  0.54659485  1
  Se  Se151  1  0.08230767  0.25298327  0.43839490  1
  Se  Se152  1  0.08257094  0.25468476  0.95288794  1
  Se  Se153  1  0.07019682  0.59035243  0.43683016  1
  Se  Se154  1  0.07671857  0.59091037  0.93213289  1
  Se  Se155  1  0.08350562  0.92346202  0.43205821  1
  Se  Se156  1  0.07915108  0.91900016  0.95216597  1
  Se  Se157  1  0.41973413  0.24438043  0.44772234  1
  Se  Se158  1  0.41990883  0.24971023  0.95040787  1
  Se  Se159  1  0.41959429  0.58327477  0.44341790  1
  Se  Se160  1  0.41017988  0.59033746  0.93919230  1
  Se  Se161  1  0.41954628  0.91601966  0.44660918  1
  Se  Se162  1  0.45470733  0.88500905  0.93704991  1
  Se  Se163  1  0.75215003  0.24531281  0.44290142  1
  Se  Se164  1  0.75038777  0.25128861  0.95006205  1
  Se  Se165  1  0.75043632  0.57971015  0.44527653  1
  Se  Se166  1  0.74629705  0.58086625  0.95764283  1
  Se  Se167  1  0.75000769  0.91864982  0.44078510  1
  Se  Se168  1  0.74539785  0.92679663  0.94003116  1
  Se  Se169  1  0.25659998  0.07802470  0.43953995  1
  Se  Se170  1  0.27278237  0.06874043  0.96566471  1
  Se  Se171  1  0.25527883  0.40171509  0.43769030  1
  Se  Se172  1  0.25441506  0.41172794  0.94597977  1
  Se  Se173  1  0.25702533  0.74672435  0.44214582  1
  Se  Se174  1  0.24590244  0.75088256  0.95211239  1
  Se  Se175  1  0.57960592  0.08670540  0.44291145  1
  Se  Se176  1  0.58780107  0.08670983  0.95459368  1
  Se  Se177  1  0.58562709  0.41495757  0.44236795  1
  Se  Se178  1  0.58536021  0.40676317  0.94010730  1
  Se  Se179  1  0.58393628  0.75409670  0.44303120  1
  Se  Se180  1  0.60724582  0.72625931  0.94960640  1
  Se  Se181  1  0.91769380  0.08504328  0.44005637  1
  Se  Se182  1  0.91146035  0.08784323  0.95433704  1
  Se  Se183  1  0.91579922  0.41261011  0.44743233  1
  Se  Se184  1  0.91475047  0.41701978  0.94888737  1
  Se  Se185  1  0.91315308  0.75414216  0.44461788  1
  Se  Se186  1  0.91872902  0.74237402  0.93207835  1
  Se  Se187  1  0.24514674  0.24080284  0.30328314  1
  Se  Se188  1  0.24874840  0.24639428  0.82306975  1
  Se  Se189  1  0.24502519  0.57456484  0.30873547  1
  Se  Se190  1  0.24060720  0.57439153  0.80243583  1
  Se  Se191  1  0.25791728  0.91997634  0.29549481  1
  Se  Se192  1  0.24946766  0.92298445  0.81874432  1
  Se  Se193  1  0.58045698  0.24729443  0.30352370  1
  Se  Se194  1  0.58908630  0.24470534  0.79980661  1
  Se  Se195  1  0.58639341  0.58078025  0.30159657  1
  Se  Se196  1  0.57684894  0.57500882  0.81117154  1
  Se  Se197  1  0.58130550  0.92091559  0.30355406  1
  Se  Se198  1  0.57941197  0.92027273  0.81122322  1
  Se  Se199  1  0.91725425  0.25435642  0.30298488  1
  Se  Se200  1  0.91756876  0.25106771  0.80766215  1
  Se  Se201  1  0.91284375  0.58490385  0.31150637  1
  Se  Se202  1  0.90286905  0.57516794  0.80983026  1
  Se  Se203  1  0.91873666  0.92071657  0.30124028  1
  Se  Se204  1  0.91222320  0.91230481  0.79912797  1
  Se  Se205  1  0.07747546  0.07880464  0.29719324  1
  Se  Se206  1  0.09031358  0.09130201  0.82799409  1
  Se  Se207  1  0.08140982  0.42239108  0.29576018  1
  Se  Se208  1  0.07877139  0.41235601  0.79860898  1
  Se  Se209  1  0.09502613  0.75976877  0.30264750  1
  Se  Se210  1  0.09156588  0.76384248  0.80536658  1
  Se  Se211  1  0.41379967  0.07964090  0.30190779  1
  Se  Se212  1  0.42234902  0.08881517  0.81228994  1
  Se  Se213  1  0.41668117  0.40913249  0.30546307  1
  Se  Se214  1  0.42287482  0.41994805  0.80696006  1
  Se  Se215  1  0.42135734  0.75415741  0.31006882  1
  Se  Se216  1  0.41744897  0.76142566  0.81131974  1
  Se  Se217  1  0.74814748  0.08456744  0.30241293  1
  Se  Se218  1  0.75919994  0.09050736  0.81300408  1
  Se  Se219  1  0.75144604  0.41582612  0.30493886  1
  Se  Se220  1  0.74620640  0.41130883  0.80834352  1
  Se  Se221  1  0.74829626  0.75240425  0.30180139  1
  Se  Se222  1  0.74987652  0.75834392  0.80596523  1
  Se  Se223  1  0.24972853  0.08217298  0.19306679  1
  Se  Se224  1  0.24132754  0.10672106  0.70088851  1
  Se  Se225  1  0.25143938  0.41298934  0.20824465  1
  Se  Se226  1  0.24075067  0.42074067  0.68706615  1
  Se  Se227  1  0.25315786  0.75681943  0.18244419  1
  Se  Se228  1  0.24103764  0.76651330  0.69529821  1
  Se  Se229  1  0.58233562  0.08377064  0.19230249  1
  Se  Se230  1  0.57869229  0.09093172  0.68621080  1
  Se  Se231  1  0.58680537  0.40872096  0.20336542  1
  Se  Se232  1  0.58807726  0.41187521  0.69164267  1
  Se  Se233  1  0.58276599  0.74827634  0.20365687  1
  Se  Se234  1  0.57283537  0.76571121  0.69440140  1
  Se  Se235  1  0.91383288  0.08719914  0.19805746  1
  Se  Se236  1  0.90459687  0.08226558  0.69018608  1
  Se  Se237  1  0.91457711  0.41887889  0.19663383  1
  Se  Se238  1  0.91940247  0.40759475  0.69603550  1
  Se  Se239  1  0.90963094  0.75958073  0.18641299  1
  Se  Se240  1  0.91147690  0.74832473  0.68565597  1
  Se  Se241  1  0.07600844  0.25141903  0.19962231  1
  Se  Se242  1  0.08642372  0.22834375  0.70257955  1
  Se  Se243  1  0.09806562  0.57663794  0.19087036  1
  Se  Se244  1  0.08293637  0.58221700  0.68510097  1
  Se  Se245  1  0.08228616  0.91994276  0.19333521  1
  Se  Se246  1  0.09257267  0.91636820  0.69126815  1
  Se  Se247  1  0.41462568  0.24505924  0.19347343  1
  Se  Se248  1  0.42480325  0.25073583  0.68706455  1
  Se  Se249  1  0.42412360  0.57096959  0.19014997  1
  Se  Se250  1  0.42778738  0.57757136  0.68948114  1
  Se  Se251  1  0.41790164  0.92031883  0.19224300  1
  Se  Se252  1  0.41020616  0.92997129  0.69763033  1
  Se  Se253  1  0.74562119  0.25302317  0.19731232  1
  Se  Se254  1  0.74969643  0.24910878  0.69331980  1
  Se  Se255  1  0.75114891  0.58767577  0.20003441  1
  Se  Se256  1  0.75482728  0.56866873  0.69148777  1
  Se  Se257  1  0.74370948  0.92181407  0.20290609  1
  Se  Se258  1  0.75235808  0.91121177  0.68683094  1
