# generated using pymatgen
data_In86Cu29Se144
_symmetry_space_group_name_H-M   'P 1'
_cell_length_a   17.58550713
_cell_length_b   17.59078236
_cell_length_c   23.44702011
_cell_angle_alpha   90.01335018
_cell_angle_beta   90.00736159
_cell_angle_gamma   90.02022479
_symmetry_Int_Tables_number   1
_chemical_formula_structural   In86Cu29Se144
_chemical_formula_sum   'In86 Cu29 Se144'
_cell_volume   7253.16681102
_cell_formula_units_Z   1
loop_
 _symmetry_equiv_pos_site_id
 _symmetry_equiv_pos_as_xyz
  1  'x, y, z'
loop_
 _atom_site_type_symbol
 _atom_site_label
 _atom_site_symmetry_multiplicity
 _atom_site_fract_x
 _atom_site_fract_y
 _atom_site_fract_z
 _atom_site_occupancy
  In  In0  1  0.00142454  0.18259940  0.12160038  1
  In  In1  1  0.00184264  0.17806666  0.63132761  1
  In  In2  1  -0.00053801  0.49868978  0.11566774  1
  In  In3  1  0.00386498  0.50918432  0.62852418  1
  In  In4  1  0.00357854  0.83287472  0.11249275  1
  In  In5  1  0.01355942  0.80651615  0.63508984  1
  In  In6  1  0.33368483  0.16894199  0.12887239  1
  In  In7  1  0.32809195  0.17085530  0.63231181  1
  In  In8  1  0.32963997  0.50826908  0.12849921  1
  In  In9  1  0.33464833  0.50892296  0.62870410  1
  In  In10  1  0.33172124  0.83205390  0.11922408  1
  In  In11  1  0.33573241  0.82689732  0.62463630  1
  In  In12  1  0.67695233  0.17193251  0.12192682  1
  In  In13  1  0.65961648  0.19425913  0.63218161  1
  In  In14  1  0.66866018  0.49079979  0.12217761  1
  In  In15  1  0.64725074  0.50830605  0.64842752  1
  In  In16  1  0.65829740  0.82816780  0.11510599  1
  In  In17  1  0.64728484  0.82964572  0.62314598  1
  In  In18  1  0.17852460  -0.02102118  0.37662410  1
  In  In19  1  0.17264799  -0.01376568  0.87967814  1
  In  In20  1  0.17448063  0.34008370  0.36890696  1
  In  In21  1  0.17494058  0.34847717  0.86319069  1
  In  In22  1  0.20317944  0.63746559  0.41173164  1
  In  In23  1  0.16439741  0.66166510  0.86359927  1
  In  In24  1  0.48469330  -0.00696431  0.36777675  1
  In  In25  1  0.48243707  -0.01092227  0.87991142  1
  In  In26  1  0.50012991  0.33499363  0.37280016  1
  In  In27  1  0.49554801  0.33902506  0.86192976  1
  In  In28  1  0.46501584  0.68952504  0.41144322  1
  In  In29  1  0.50360349  0.66549395  0.86372939  1
  In  In30  1  0.84045234  0.00127533  0.36899674  1
  In  In31  1  0.83029595  0.00249999  0.88525685  1
  In  In32  1  0.82909034  0.33284579  0.36682955  1
  In  In33  1  0.83987105  0.33573348  0.87225940  1
  In  In34  1  0.83185203  0.67502844  0.37258760  1
  In  In35  1  0.83275304  0.66497873  0.87390610  1
  In  In36  1  -0.01282732  0.17110878  0.37462212  1
  In  In37  1  -0.01415783  0.17831611  0.87633176  1
  In  In38  1  0.02120897  0.50406843  0.37699094  1
  In  In39  1  0.00552766  0.49598162  0.86753751  1
  In  In40  1  0.01385768  0.83046099  0.37728908  1
  In  In41  1  0.01056429  0.81919486  0.88288031  1
  In  In42  1  0.33465069  0.16895000  0.36892337  1
  In  In43  1  0.33343807  0.16359950  0.87066654  1
  In  In44  1  0.33845068  0.49356578  0.38280882  1
  In  In45  1  0.31991720  0.49931269  0.85430525  1
  In  In46  1  0.33163597  0.82470327  0.37313272  1
  In  In47  1  0.33546973  0.82769131  0.87341796  1
  In  In48  1  0.65397807  0.18060400  0.37448493  1
  In  In49  1  0.67609787  0.17995438  0.87034932  1
  In  In50  1  0.66252387  0.49071305  0.37332287  1
  In  In51  1  0.66667164  0.51149932  0.86298406  1
  In  In52  1  0.65301985  0.81683894  0.37108818  1
  In  In53  1  0.66824326  0.82690614  0.88147203  1
  In  In54  1  0.18129515  -0.01281886  0.12778415  1
  In  In55  1  0.18704714  -0.00414799  0.62960871  1
  In  In56  1  0.15930204  0.33919727  0.12947107  1
  In  In57  1  0.14676027  0.36791342  0.64812798  1
  In  In58  1  0.17418443  0.67198537  0.11420730  1
  In  In59  1  0.17525066  0.66549986  0.62192260  1
  In  In60  1  0.48871488  -0.01228949  0.11898123  1
  In  In61  1  0.49633328  -0.01865225  0.62119175  1
  In  In62  1  0.50087812  0.34093842  0.13285920  1
  In  In63  1  0.47425537  0.36373384  0.65397291  1
  In  In64  1  0.48089441  0.66969568  0.12635276  1
  In  In65  1  0.49854406  0.66421062  0.62638024  1
  In  In66  1  0.83080325  0.00360754  0.11207955  1
  In  In67  1  0.83255504  0.00035733  0.62815189  1
  In  In68  1  0.83615620  0.33817998  0.11760099  1
  In  In69  1  0.81861544  0.34055137  0.63978857  1
  In  In70  1  0.83699561  0.66824593  0.10882535  1
  In  In71  1  0.83443149  0.65739384  0.64061828  1
  In  In72  1  0.00922664  0.00666617  0.24852311  1
  In  In73  1  0.16265215  0.16411711  0.00122184  1
  In  In74  1  0.50617001  0.16539052  0.00052640  1
  In  In75  1  0.83595188  0.83027857  0.49739908  1
  In  In76  1  0.84052784  0.50052372  0.50939829  1
  In  In77  1  0.16750340  0.17113530  0.50405221  1
  In  In78  1  0.64985751  0.65415567  0.24306078  1
  In  In79  1  0.49722907  0.16462481  0.49320468  1
  In  In80  1  0.00667024  0.66204602  0.25516474  1
  In  In81  1  0.66451056  0.01040395  0.25160321  1
  In  In82  1  0.66109128  -0.00161209  0.75612979  1
  In  In83  1  0.00320755  0.00208960  0.76550662  1
  In  In84  1  0.49860025  0.50776272  -0.00493572  1
  In  In85  1  0.83297551  0.16797820  0.50965484  1
  Cu  Cu86  1  0.66234826  0.00218172  -0.00228327  1
  Cu  Cu87  1  0.50153570  0.17400815  0.24872764  1
  Cu  Cu88  1  -0.00050957  0.65962610  -0.00987607  1
  Cu  Cu89  1  -0.00144464  -0.00114014  -0.00265521  1
  Cu  Cu90  1  0.00174699  0.34051932  -0.00282648  1
  Cu  Cu91  1  0.33115230  0.33912838  -0.00682309  1
  Cu  Cu92  1  0.49455431  0.50181833  0.25565376  1
  Cu  Cu93  1  0.16685188  0.16786935  0.24800028  1
  Cu  Cu94  1  0.17177426  0.83279192  0.75204888  1
  Cu  Cu95  1  0.67526451  0.34112599  -0.00676483  1
  Cu  Cu96  1  0.48900490  0.82382631  0.74632934  1
  Cu  Cu97  1  0.83777945  0.49385664  0.24328007  1
  Cu  Cu98  1  0.83506539  0.49991430  0.75642795  1
  Cu  Cu99  1  0.66244178  0.66800314  -0.00721403  1
  Cu  Cu100  1  0.00634473  -0.00927762  0.51005633  1
  Cu  Cu101  1  0.82966147  0.82990936  0.75546633  1
  Cu  Cu102  1  0.32651965  0.34409390  0.51092217  1
  Cu  Cu103  1  0.67009854  0.65525676  0.50935391  1
  Cu  Cu104  1  0.17284327  0.50199800  0.25382224  1
  Cu  Cu105  1  0.50286092  0.15650936  0.75466864  1
  Cu  Cu106  1  0.83312852  0.83424911  0.23765552  1
  Cu  Cu107  1  0.18029439  0.82110273  0.24995744  1
  Cu  Cu108  1  0.32591363  0.66515400  -0.00544788  1
  Cu  Cu109  1  0.83747187  0.18404484  0.24312509  1
  Cu  Cu110  1  0.65544310  0.34242174  0.50246447  1
  Cu  Cu111  1  0.66829060  -0.00816778  0.50126877  1
  Cu  Cu112  1  0.17346323  0.17232755  0.75378204  1
  Cu  Cu113  1  0.33751242  -0.01015462  0.49978436  1
  Cu  Cu114  1  0.00587517  0.34566258  0.50368825  1
  Se  Se115  1  0.07581873  0.07342249  0.06509325  1
  Se  Se116  1  0.07967967  0.07825513  0.56684738  1
  Se  Se117  1  0.09043767  0.41769747  0.05101245  1
  Se  Se118  1  0.08748266  0.42816993  0.55734759  1
  Se  Se119  1  0.08041659  0.74312699  0.04718003  1
  Se  Se120  1  0.09477640  0.75405773  0.55482129  1
  Se  Se121  1  0.40591932  0.08109503  0.05339903  1
  Se  Se122  1  0.40872280  0.07977287  0.55895907  1
  Se  Se123  1  0.41388642  0.41368280  0.05632232  1
  Se  Se124  1  0.42022319  0.41922960  0.56068423  1
  Se  Se125  1  0.41239282  0.74575969  0.04782584  1
  Se  Se126  1  0.43038373  0.75770263  0.55721189  1
  Se  Se127  1  0.74646170  0.08929813  0.04712009  1
  Se  Se128  1  0.73447590  0.07821329  0.56323470  1
  Se  Se129  1  0.75546480  0.42477519  0.04828575  1
  Se  Se130  1  0.73936459  0.41804008  0.56278554  1
  Se  Se131  1  0.74674331  0.75181336  0.04780709  1
  Se  Se132  1  0.75050034  0.74211142  0.56466867  1
  Se  Se133  1  0.25590579  0.25871148  0.05632306  1
  Se  Se134  1  0.24498496  0.26363230  0.56870296  1
  Se  Se135  1  0.25071219  0.57692164  0.05011573  1
  Se  Se136  1  0.26923200  0.59427282  0.55259642  1
  Se  Se137  1  0.23621949  0.90157822  0.05086131  1
  Se  Se138  1  0.25131612  0.91186135  0.55431655  1
  Se  Se139  1  0.59033752  0.26722849  0.05552656  1
  Se  Se140  1  0.57202425  0.26059837  0.55781775  1
  Se  Se141  1  0.58713283  0.59318474  0.06174298  1
  Se  Se142  1  0.58502807  0.57456823  0.56147014  1
  Se  Se143  1  0.57909423  0.91771293  0.04944983  1
  Se  Se144  1  0.57776590  0.90880137  0.54606594  1
  Se  Se145  1  0.91862023  0.25316474  0.04813072  1
  Se  Se146  1  0.92065136  0.26818931  0.56197167  1
  Se  Se147  1  0.91595015  0.57802122  0.04563628  1
  Se  Se148  1  0.92496597  0.60320699  0.55963095  1
  Se  Se149  1  0.91315419  0.91459032  0.04940925  1
  Se  Se150  1  0.92269060  0.91175313  0.56746689  1
  Se  Se151  1  0.07421180  0.25674884  0.44255632  1
  Se  Se152  1  0.08528773  0.26112462  0.93798359  1
  Se  Se153  1  0.07766645  0.58742059  0.45439536  1
  Se  Se154  1  0.08625131  0.58000550  0.93786895  1
  Se  Se155  1  0.08641018  0.91622672  0.44927492  1
  Se  Se156  1  0.08358293  0.91403515  0.94879714  1
  Se  Se157  1  0.39972311  0.26167950  0.44549827  1
  Se  Se158  1  0.41584696  0.25789410  0.93997588  1
  Se  Se159  1  0.40298940  0.57720687  0.46239448  1
  Se  Se160  1  0.40425131  0.58582986  0.93180566  1
  Se  Se161  1  0.41866571  0.91028124  0.44305984  1
  Se  Se162  1  0.40911926  0.90726057  0.95020764  1
  Se  Se163  1  0.74213396  0.26015423  0.44738895  1
  Se  Se164  1  0.75702493  0.25222619  0.94452691  1
  Se  Se165  1  0.74979182  0.58629412  0.44202899  1
  Se  Se166  1  0.74401689  0.58231850  0.94121425  1
  Se  Se167  1  0.74545138  0.91906101  0.43317187  1
  Se  Se168  1  0.74753853  0.91485718  0.94885746  1
  Se  Se169  1  0.25801970  0.07830540  0.44357807  1
  Se  Se170  1  0.25843242  0.07730556  0.94572124  1
  Se  Se171  1  0.24212208  0.41635286  0.44874579  1
  Se  Se172  1  0.25443492  0.42421363  0.93782153  1
  Se  Se173  1  0.23156736  0.77309145  0.44461916  1
  Se  Se174  1  0.24381208  0.74372541  0.93590689  1
  Se  Se175  1  0.59165446  0.07196084  0.43651243  1
  Se  Se176  1  0.58900041  0.07924052  0.93179748  1
  Se  Se177  1  0.57411314  0.42084195  0.44514099  1
  Se  Se178  1  0.58664218  0.41428997  0.93632254  1
  Se  Se179  1  0.59220242  0.74399584  0.45382645  1
  Se  Se180  1  0.57241246  0.74611553  0.94190215  1
  Se  Se181  1  0.92461379  0.07113064  0.44976598  1
  Se  Se182  1  0.91845828  0.08754123  0.94794438  1
  Se  Se183  1  0.91938083  0.41237155  0.43845856  1
  Se  Se184  1  0.91951310  0.42109570  0.94129645  1
  Se  Se185  1  0.92981173  0.73838731  0.44261551  1
  Se  Se186  1  0.91165370  0.74840563  0.94619529  1
  Se  Se187  1  0.25115268  0.25099245  0.30167909  1
  Se  Se188  1  0.26065724  0.25550875  0.80398529  1
  Se  Se189  1  0.25082810  0.57972787  0.31656134  1
  Se  Se190  1  0.22120443  0.56746143  0.78757318  1
  Se  Se191  1  0.25847820  0.91452897  0.29913336  1
  Se  Se192  1  0.25432139  0.91740593  0.80412641  1
  Se  Se193  1  0.58549136  0.25981194  0.29877196  1
  Se  Se194  1  0.58235441  0.24732469  0.80292336  1
  Se  Se195  1  0.56945031  0.58304152  0.31904317  1
  Se  Se196  1  0.56820333  0.57031566  0.79394782  1
  Se  Se197  1  0.57710999  0.90886115  0.30177322  1
  Se  Se198  1  0.57006125  0.90334768  0.80899263  1
  Se  Se199  1  0.92319657  0.25913016  0.30065679  1
  Se  Se200  1  0.91871099  0.25493042  0.79926342  1
  Se  Se201  1  0.90858740  0.57250278  0.31097484  1
  Se  Se202  1  0.91956455  0.58667698  0.80480883  1
  Se  Se203  1  0.91585655  0.90652846  0.30165335  1
  Se  Se204  1  0.90890434  0.90725981  0.81712780  1
  Se  Se205  1  0.09482916  0.09009029  0.31771332  1
  Se  Se206  1  0.09644422  0.09563481  0.82006996  1
  Se  Se207  1  0.08410818  0.41780802  0.30110360  1
  Se  Se208  1  0.07807652  0.40975002  0.79515039  1
  Se  Se209  1  0.10096317  0.74593735  0.31314100  1
  Se  Se210  1  0.07986779  0.75284639  0.79956758  1
  Se  Se211  1  0.41847826  0.08852630  0.30031889  1
  Se  Se212  1  0.41610571  0.07591232  0.80595113  1
  Se  Se213  1  0.41177572  0.41368999  0.30573367  1
  Se  Se214  1  0.42551123  0.43142204  0.79539566  1
  Se  Se215  1  0.42735871  0.74365729  0.31446839  1
  Se  Se216  1  0.40677386  0.74065393  0.80030607  1
  Se  Se217  1  0.76078659  0.10341977  0.30844572  1
  Se  Se218  1  0.76161511  0.08620197  0.80603754  1
  Se  Se219  1  0.74864475  0.41959932  0.30029838  1
  Se  Se220  1  0.74908819  0.41514791  0.80499294  1
  Se  Se221  1  0.75128675  0.75303597  0.29630889  1
  Se  Se222  1  0.74360655  0.74757400  0.80701670  1
  Se  Se223  1  0.24795284  0.08459945  0.19418433  1
  Se  Se224  1  0.25275960  0.08368922  0.70279000  1
  Se  Se225  1  0.25016303  0.41837275  0.19452749  1
  Se  Se226  1  0.27534857  0.40058328  0.69191558  1
  Se  Se227  1  0.25706296  0.74013047  0.19022724  1
  Se  Se228  1  0.25257225  0.74958059  0.69626665  1
  Se  Se229  1  0.57548081  0.09288149  0.18359358  1
  Se  Se230  1  0.57718009  0.08330245  0.68532490  1
  Se  Se231  1  0.58310332  0.42696629  0.19881320  1
  Se  Se232  1  0.61384462  0.37588364  0.68870033  1
  Se  Se233  1  0.57047000  0.76009839  0.19105164  1
  Se  Se234  1  0.58355230  0.74589217  0.69877498  1
  Se  Se235  1  0.90931601  0.08890091  0.18898148  1
  Se  Se236  1  0.91715532  0.08507661  0.69543532  1
  Se  Se237  1  0.92286720  0.41623962  0.18854676  1
  Se  Se238  1  0.91509000  0.42584147  0.69300647  1
  Se  Se239  1  0.91789514  0.75003329  0.18686580  1
  Se  Se240  1  0.91605410  0.74716798  0.70475525  1
  Se  Se241  1  0.08139559  0.25064687  0.19804103  1
  Se  Se242  1  0.08590328  0.25221949  0.70153547  1
  Se  Se243  1  0.09239903  0.57784306  0.18832290  1
  Se  Se244  1  0.10455994  0.57565168  0.69518418  1
  Se  Se245  1  0.08911819  0.89949696  0.19523034  1
  Se  Se246  1  0.08725463  0.91723785  0.69471307  1
  Se  Se247  1  0.41529906  0.25499530  0.19552367  1
  Se  Se248  1  0.42038870  0.24104889  0.70072302  1
  Se  Se249  1  0.41336441  0.58438421  0.20053514  1
  Se  Se250  1  0.43764562  0.56761845  0.69805161  1
  Se  Se251  1  0.40681765  0.91850756  0.19145301  1
  Se  Se252  1  0.41186266  0.91729544  0.69646850  1
  Se  Se253  1  0.74908376  0.26137705  0.19048443  1
  Se  Se254  1  0.76968473  0.22729510  0.69870047  1
  Se  Se255  1  0.76153446  0.58287020  0.18693102  1
  Se  Se256  1  0.74551687  0.58401343  0.70871577  1
  Se  Se257  1  0.75005466  0.91808181  0.18599787  1
  Se  Se258  1  0.75074249  0.90667076  0.69288478  1
