# generated using pymatgen
data_In86Cu29Se144
_symmetry_space_group_name_H-M   'P 1'
_cell_length_a   17.59059337
_cell_length_b   17.58977764
_cell_length_c   23.43802865
_cell_angle_alpha   90.01196416
_cell_angle_beta   90.02503069
_cell_angle_gamma   89.99738264
_symmetry_Int_Tables_number   1
_chemical_formula_structural   In86Cu29Se144
_chemical_formula_sum   'In86 Cu29 Se144'
_cell_volume   7252.06800851
_cell_formula_units_Z   1
loop_
 _symmetry_equiv_pos_site_id
 _symmetry_equiv_pos_as_xyz
  1  'x, y, z'
loop_
 _atom_site_type_symbol
 _atom_site_label
 _atom_site_symmetry_multiplicity
 _atom_site_fract_x
 _atom_site_fract_y
 _atom_site_fract_z
 _atom_site_occupancy
  In  In0  1  0.01052109  0.17527711  0.12296267  1
  In  In1  1  -0.00017136  0.16699325  0.62399487  1
  In  In2  1  -0.01943701  0.49940823  0.12093043  1
  In  In3  1  0.00106754  0.50259268  0.61501652  1
  In  In4  1  0.01619044  0.82041808  0.11492308  1
  In  In5  1  0.01127305  0.82139831  0.63273962  1
  In  In6  1  0.32605378  0.15683281  0.11822680  1
  In  In7  1  0.33375832  0.16675793  0.62104152  1
  In  In8  1  0.33720082  0.50684409  0.13185550  1
  In  In9  1  0.33618628  0.50605423  0.61999399  1
  In  In10  1  0.32709696  0.82163246  0.11416534  1
  In  In11  1  0.32421522  0.82599363  0.62394798  1
  In  In12  1  0.69248259  0.19666797  0.10047642  1
  In  In13  1  0.66965573  0.16885581  0.62063755  1
  In  In14  1  0.67394560  0.48554108  0.12614345  1
  In  In15  1  0.67451104  0.50427179  0.62138720  1
  In  In16  1  0.66424905  0.84454291  0.12095862  1
  In  In17  1  0.65258525  0.82937238  0.62632464  1
  In  In18  1  0.15007825  0.00960432  0.39243215  1
  In  In19  1  0.15791041  0.00522033  0.87598079  1
  In  In20  1  0.15700640  0.33351838  0.38634754  1
  In  In21  1  0.15314196  0.33829942  0.87144069  1
  In  In22  1  0.16922588  0.65464448  0.38794576  1
  In  In23  1  0.17430708  0.67512518  0.86408628  1
  In  In24  1  0.49501273  0.00130253  0.38083554  1
  In  In25  1  0.49141181  0.00061087  0.87723099  1
  In  In26  1  0.50855805  0.32469217  0.37712388  1
  In  In27  1  0.50445931  0.33095700  0.88117196  1
  In  In28  1  0.49005383  0.67787935  0.38289143  1
  In  In29  1  0.50288491  0.66742399  0.87076981  1
  In  In30  1  0.84887878  0.01396144  0.37930868  1
  In  In31  1  0.84815447  0.00471163  0.87107043  1
  In  In32  1  0.83137865  0.33834522  0.37593151  1
  In  In33  1  0.84072992  0.32049547  0.88505109  1
  In  In34  1  0.83665938  0.64618808  0.38320053  1
  In  In35  1  0.82995703  0.65890335  0.86602487  1
  In  In36  1  -0.03453921  0.20322788  0.42412470  1
  In  In37  1  0.00144082  0.16887904  0.87288248  1
  In  In38  1  0.02055029  0.47475903  0.40789949  1
  In  In39  1  -0.00795657  0.48681896  0.86249783  1
  In  In40  1  0.01795722  0.83115373  0.39006827  1
  In  In41  1  0.00689430  0.83844397  0.86638828  1
  In  In42  1  0.33610198  0.16627806  0.38096984  1
  In  In43  1  0.33314349  0.16157285  0.87871185  1
  In  In44  1  0.32397443  0.51504078  0.38009623  1
  In  In45  1  0.32331102  0.50820751  0.87004605  1
  In  In46  1  0.33270847  0.83112723  0.37824379  1
  In  In47  1  0.33606561  0.81713318  0.88400145  1
  In  In48  1  0.65669225  0.17403665  0.37535364  1
  In  In49  1  0.66661044  0.17308408  0.88257559  1
  In  In50  1  0.67560302  0.48402600  0.38217583  1
  In  In51  1  0.66515029  0.50663451  0.87595984  1
  In  In52  1  0.66441092  0.82026920  0.37972140  1
  In  In53  1  0.66657780  0.81877578  0.87239101  1
  In  In54  1  0.16914225  -0.00211077  0.12012606  1
  In  In55  1  0.15179550  -0.01053041  0.61250988  1
  In  In56  1  0.16591960  0.31967154  0.12807262  1
  In  In57  1  0.14314156  0.32030240  0.60694108  1
  In  In58  1  0.16584541  0.67619012  0.12048653  1
  In  In59  1  0.16749012  0.66996701  0.62186800  1
  In  In60  1  0.49935782  0.00029624  0.11720800  1
  In  In61  1  0.50684481  0.00291161  0.61955925  1
  In  In62  1  0.51450889  0.33806925  0.12496513  1
  In  In63  1  0.49595703  0.33170301  0.61762955  1
  In  In64  1  0.48589620  0.66162364  0.12433546  1
  In  In65  1  0.49560981  0.66488715  0.63000513  1
  In  In66  1  0.82030743  0.00527576  0.12322850  1
  In  In67  1  0.83814435  0.01559215  0.62196204  1
  In  In68  1  0.84109349  0.33565655  0.12699571  1
  In  In69  1  0.85391883  0.34328517  0.60611264  1
  In  In70  1  0.84455871  0.64678874  0.11556023  1
  In  In71  1  0.84544154  0.65196224  0.63427331  1
  In  In72  1  0.50278457  0.49694333  -0.00312975  1
  In  In73  1  0.00105642  0.00543518  0.25544260  1
  In  In74  1  0.33717623  0.33955660  0.25008476  1
  In  In75  1  0.16263132  0.50540634  -0.00211677  1
  In  In76  1  0.00028841  0.66168908  0.24694292  1
  In  In77  1  0.66267936  0.66382258  0.25323001  1
  In  In78  1  0.67235249  0.33477242  0.75258963  1
  In  In79  1  0.83445205  0.83704694  -0.00365126  1
  In  In80  1  0.32806659  -0.00144895  0.75434285  1
  In  In81  1  0.33138406  -0.00108700  0.25598238  1
  In  In82  1  0.82990400  0.83268164  0.50362471  1
  In  In83  1  0.65807191  0.00630561  0.25050335  1
  In  In84  1  0.32529428  0.34166890  0.74075355  1
  In  In85  1  0.67162462  -0.00007426  0.74373168  1
  Cu  Cu86  1  0.34019709  -0.00405675  0.50321373  1
  Cu  Cu87  1  0.33153570  0.32455258  0.00081769  1
  Cu  Cu88  1  0.15622865  0.17452611  0.25709361  1
  Cu  Cu89  1  0.83822271  0.17864378  0.25227321  1
  Cu  Cu90  1  0.66554440  0.66717969  -0.00452812  1
  Cu  Cu91  1  0.66577006  0.00240368  0.49993655  1
  Cu  Cu92  1  0.15761344  0.50414199  0.74162642  1
  Cu  Cu93  1  0.84318183  0.82939306  0.25327586  1
  Cu  Cu94  1  0.16493508  0.83106367  0.74506905  1
  Cu  Cu95  1  0.16088629  0.16825175  0.74630299  1
  Cu  Cu96  1  0.66280917  0.32693583  0.49878657  1
  Cu  Cu97  1  0.66101487  0.00298574  -0.00392386  1
  Cu  Cu98  1  0.48960013  0.82819462  0.25144501  1
  Cu  Cu99  1  0.83709666  0.49756386  0.74208444  1
  Cu  Cu100  1  0.49830178  0.50239575  0.74895970  1
  Cu  Cu101  1  0.50250797  0.50407437  0.25155052  1
  Cu  Cu102  1  -0.00130016  0.00633837  -0.00308625  1
  Cu  Cu103  1  0.33518157  0.67070405  0.50374213  1
  Cu  Cu104  1  0.65583155  0.66472455  0.50441996  1
  Cu  Cu105  1  0.17230147  0.82941642  0.24921067  1
  Cu  Cu106  1  0.49525617  0.83004071  0.75089912  1
  Cu  Cu107  1  0.83962090  0.48960560  0.25411859  1
  Cu  Cu108  1  0.15683319  0.50001020  0.26261699  1
  Cu  Cu109  1  -0.00033154  0.32831252  -0.00289451  1
  Cu  Cu110  1  0.83625878  0.83169272  0.75157484  1
  Cu  Cu111  1  0.84033965  0.17618788  0.74790746  1
  Cu  Cu112  1  0.32728662  -0.00739722  -0.00410540  1
  Cu  Cu113  1  0.51061066  0.17451587  0.24227792  1
  Cu  Cu114  1  0.33809751  0.34324380  0.49591931  1
  Se  Se115  1  0.08411515  0.08305524  0.05603464  1
  Se  Se116  1  0.10670206  0.10924826  0.55935149  1
  Se  Se117  1  0.07948502  0.40875150  0.05984326  1
  Se  Se118  1  0.07362596  0.41583210  0.54142279  1
  Se  Se119  1  0.08475666  0.73857262  0.04191920  1
  Se  Se120  1  0.09234855  0.76051389  0.55370317  1
  Se  Se121  1  0.41016332  0.07750424  0.05024890  1
  Se  Se122  1  0.41993917  0.08475937  0.55422690  1
  Se  Se123  1  0.40675497  0.41055421  0.06026772  1
  Se  Se124  1  0.42095933  0.42344782  0.55216303  1
  Se  Se125  1  0.42926687  0.75490575  0.05292178  1
  Se  Se126  1  0.41899486  0.75173495  0.55890663  1
  Se  Se127  1  0.75242843  0.08234086  0.04535505  1
  Se  Se128  1  0.75033265  0.08602846  0.55076933  1
  Se  Se129  1  0.77471527  0.43319689  0.05908091  1
  Se  Se130  1  0.74426610  0.41173910  0.55243644  1
  Se  Se131  1  0.74663055  0.74355705  0.06025291  1
  Se  Se132  1  0.74305954  0.74045631  0.56403089  1
  Se  Se133  1  0.24397625  0.24511163  0.05324233  1
  Se  Se134  1  0.26109815  0.26152009  0.55564493  1
  Se  Se135  1  0.26114527  0.58818815  0.05688186  1
  Se  Se136  1  0.24906376  0.58490106  0.55214191  1
  Se  Se137  1  0.24404674  0.91101874  0.05133803  1
  Se  Se138  1  0.25248013  0.91490166  0.55387633  1
  Se  Se139  1  0.56961817  0.24379783  0.05331812  1
  Se  Se140  1  0.57966420  0.24482611  0.55313639  1
  Se  Se141  1  0.59239587  0.58625002  0.06219644  1
  Se  Se142  1  0.57664892  0.58015657  0.56001787  1
  Se  Se143  1  0.58129661  0.91601192  0.04837869  1
  Se  Se144  1  0.58536560  0.91582313  0.55173394  1
  Se  Se145  1  0.91835715  0.24815520  0.05593399  1
  Se  Se146  1  0.91494607  0.23574567  0.54581176  1
  Se  Se147  1  0.94062949  0.59556690  0.04372891  1
  Se  Se148  1  0.90511007  0.57971835  0.55144474  1
  Se  Se149  1  0.92434218  0.92487684  0.06234259  1
  Se  Se150  1  0.92089626  0.91449645  0.56658424  1
  Se  Se151  1  0.10503897  0.22961118  0.45374038  1
  Se  Se152  1  0.08682444  0.24923001  0.94389249  1
  Se  Se153  1  0.06894627  0.59705789  0.45455709  1
  Se  Se154  1  0.08196539  0.58057271  0.92417711  1
  Se  Se155  1  0.08436476  0.91700915  0.46214063  1
  Se  Se156  1  0.07760689  0.91857094  0.94418242  1
  Se  Se157  1  0.41877991  0.25158876  0.44641600  1
  Se  Se158  1  0.41660112  0.24786451  0.94466068  1
  Se  Se159  1  0.41670337  0.58480377  0.44944648  1
  Se  Se160  1  0.40973351  0.58724797  0.94174896  1
  Se  Se161  1  0.41908097  0.91148431  0.44644745  1
  Se  Se162  1  0.41540117  0.91265062  0.94489937  1
  Se  Se163  1  0.74745638  0.24845138  0.44205955  1
  Se  Se164  1  0.74862594  0.25006995  0.95205429  1
  Se  Se165  1  0.73940889  0.58309263  0.45020695  1
  Se  Se166  1  0.75144924  0.58589780  0.94418440  1
  Se  Se167  1  0.74561697  0.92506855  0.43643979  1
  Se  Se168  1  0.74314064  0.92525202  0.93379248  1
  Se  Se169  1  0.25878576  0.07880448  0.44750392  1
  Se  Se170  1  0.24640348  0.08170736  0.94496454  1
  Se  Se171  1  0.24820665  0.42143556  0.44475777  1
  Se  Se172  1  0.25607415  0.40924126  0.94085136  1
  Se  Se173  1  0.25000591  0.75044069  0.44773824  1
  Se  Se174  1  0.24021090  0.74492397  0.94743912  1
  Se  Se175  1  0.58216343  0.08450109  0.44431110  1
  Se  Se176  1  0.57762963  0.08476813  0.94212076  1
  Se  Se177  1  0.57948255  0.41455410  0.44836466  1
  Se  Se178  1  0.60158795  0.40566898  0.94772011  1
  Se  Se179  1  0.57817297  0.75438227  0.45298626  1
  Se  Se180  1  0.58017373  0.74917018  0.94508722  1
  Se  Se181  1  0.93257689  0.06644358  0.45782869  1
  Se  Se182  1  0.91589370  0.08999041  0.94504922  1
  Se  Se183  1  0.89767497  0.42383764  0.45209164  1
  Se  Se184  1  0.92090929  0.41723074  0.94491325  1
  Se  Se185  1  0.91970755  0.74195464  0.44442842  1
  Se  Se186  1  0.91772049  0.74932064  0.93265475  1
  Se  Se187  1  0.24883030  0.24900788  0.31050380  1
  Se  Se188  1  0.24478549  0.24572912  0.80651259  1
  Se  Se189  1  0.24294759  0.58861070  0.30497346  1
  Se  Se190  1  0.24704361  0.58207791  0.79460769  1
  Se  Se191  1  0.23450322  0.91732740  0.31479918  1
  Se  Se192  1  0.24240591  0.90551644  0.81308110  1
  Se  Se193  1  0.58937488  0.25730600  0.29835865  1
  Se  Se194  1  0.57707479  0.24380474  0.80612208  1
  Se  Se195  1  0.57823584  0.57919648  0.31903785  1
  Se  Se196  1  0.58464205  0.58225233  0.80290429  1
  Se  Se197  1  0.57461028  0.90643436  0.30922345  1
  Se  Se198  1  0.57838462  0.91325553  0.80696499  1
  Se  Se199  1  0.92047273  0.24272864  0.32083969  1
  Se  Se200  1  0.92087135  0.25755756  0.80495018  1
  Se  Se201  1  0.92154501  0.56961582  0.31186052  1
  Se  Se202  1  0.91835616  0.58255411  0.79731177  1
  Se  Se203  1  0.91967640  0.90546034  0.31612302  1
  Se  Se204  1  0.91925330  0.92021488  0.79896002  1
  Se  Se205  1  0.07921793  0.09706950  0.31893459  1
  Se  Se206  1  0.08047344  0.08370530  0.80194464  1
  Se  Se207  1  0.07691228  0.41506257  0.31521780  1
  Se  Se208  1  0.08221674  0.41252919  0.79311486  1
  Se  Se209  1  0.08857240  0.75160464  0.30878290  1
  Se  Se210  1  0.07971033  0.74735254  0.79731298  1
  Se  Se211  1  0.42994049  0.09558994  0.30353032  1
  Se  Se212  1  0.42394971  0.09381024  0.80289771  1
  Se  Se213  1  0.42237130  0.42611008  0.31476597  1
  Se  Se214  1  0.42157932  0.42021329  0.81014895  1
  Se  Se215  1  0.40822723  0.74654284  0.30545156  1
  Se  Se216  1  0.41282573  0.74723832  0.80475547  1
  Se  Se217  1  0.75851324  0.09021695  0.30768829  1
  Se  Se218  1  0.75619258  0.09540531  0.80598718  1
  Se  Se219  1  0.74625087  0.41218879  0.30149095  1
  Se  Se220  1  0.76237412  0.42333045  0.81190053  1
  Se  Se221  1  0.76327030  0.74900393  0.31153492  1
  Se  Se222  1  0.74874775  0.74759876  0.79910313  1
  Se  Se223  1  0.23607006  0.09101709  0.19840272  1
  Se  Se224  1  0.24236157  0.08564178  0.68929622  1
  Se  Se225  1  0.23678398  0.42619034  0.19464687  1
  Se  Se226  1  0.23275476  0.42179249  0.67821865  1
  Se  Se227  1  0.25230467  0.74811497  0.19336045  1
  Se  Se228  1  0.25115871  0.74537224  0.69787698  1
  Se  Se229  1  0.58548325  0.09405532  0.17961378  1
  Se  Se230  1  0.57795622  0.09432338  0.69361340  1
  Se  Se231  1  0.58545647  0.41952801  0.20022125  1
  Se  Se232  1  0.57746936  0.41919806  0.69095175  1
  Se  Se233  1  0.57877058  0.75788229  0.19096233  1
  Se  Se234  1  0.58131415  0.74646735  0.70026934  1
  Se  Se235  1  0.90834668  0.08970840  0.19118145  1
  Se  Se236  1  0.91942766  0.08577453  0.69760135  1
  Se  Se237  1  0.92671602  0.41202892  0.19987889  1
  Se  Se238  1  0.92116146  0.41679962  0.68764809  1
  Se  Se239  1  0.91194670  0.75468135  0.18411515  1
  Se  Se240  1  0.91919841  0.74646791  0.69913287  1
  Se  Se241  1  0.07564815  0.25711388  0.20226340  1
  Se  Se242  1  0.07937673  0.25499648  0.69416112  1
  Se  Se243  1  0.09007578  0.57261020  0.18565214  1
  Se  Se244  1  0.07733721  0.58838251  0.68721063  1
  Se  Se245  1  0.08734165  0.90904431  0.19267727  1
  Se  Se246  1  0.08399344  0.92145722  0.69664348  1
  Se  Se247  1  0.41638451  0.24406574  0.18618103  1
  Se  Se248  1  0.42173308  0.24624236  0.69412482  1
  Se  Se249  1  0.41501791  0.58748031  0.20409851  1
  Se  Se250  1  0.40989741  0.58217776  0.69827529  1
  Se  Se251  1  0.41703396  0.91337428  0.18997694  1
  Se  Se252  1  0.42206366  0.91508700  0.69013653  1
  Se  Se253  1  0.75183690  0.25183089  0.19272396  1
  Se  Se254  1  0.76189420  0.25412922  0.68528646  1
  Se  Se255  1  0.76220746  0.57833348  0.19669523  1
  Se  Se256  1  0.74543690  0.58248479  0.69907231  1
  Se  Se257  1  0.75668245  0.90936269  0.19899892  1
  Se  Se258  1  0.76052005  0.90835041  0.68515597  1
