# generated using pymatgen
data_In86Cu29Se144
_symmetry_space_group_name_H-M   'P 1'
_cell_length_a   17.58847680
_cell_length_b   17.58589795
_cell_length_c   23.43895966
_cell_angle_alpha   89.99206173
_cell_angle_beta   90.04379900
_cell_angle_gamma   89.94389296
_symmetry_Int_Tables_number   1
_chemical_formula_structural   In86Cu29Se144
_chemical_formula_sum   'In86 Cu29 Se144'
_cell_volume   7249.87921735
_cell_formula_units_Z   1
loop_
 _symmetry_equiv_pos_site_id
 _symmetry_equiv_pos_as_xyz
  1  'x, y, z'
loop_
 _atom_site_type_symbol
 _atom_site_label
 _atom_site_symmetry_multiplicity
 _atom_site_fract_x
 _atom_site_fract_y
 _atom_site_fract_z
 _atom_site_occupancy
  In  In0  1  0.01392048  0.17371710  0.13255600  1
  In  In1  1  0.01103623  0.16693687  0.61926823  1
  In  In2  1  -0.00470988  0.51090384  0.14693904  1
  In  In3  1  0.01061602  0.49451733  0.60991920  1
  In  In4  1  -0.01055175  0.82235299  0.12082406  1
  In  In5  1  0.00088226  0.82666303  0.61631751  1
  In  In6  1  0.33418756  0.16204709  0.13508354  1
  In  In7  1  0.33275516  0.16987910  0.62643338  1
  In  In8  1  0.31598243  0.50246987  0.15034694  1
  In  In9  1  0.33169675  0.49558194  0.61487020  1
  In  In10  1  0.33240345  0.84715800  0.13382056  1
  In  In11  1  0.34241117  0.83872160  0.61516958  1
  In  In12  1  0.64872946  0.16802151  0.11824312  1
  In  In13  1  0.66382658  0.16380572  0.63246374  1
  In  In14  1  0.67654034  0.50525278  0.12465754  1
  In  In15  1  0.66452476  0.50157360  0.62358085  1
  In  In16  1  0.67351609  0.82275633  0.13415690  1
  In  In17  1  0.65429704  0.83170109  0.63456453  1
  In  In18  1  0.18147466  -0.01377805  0.38187141  1
  In  In19  1  0.16254432  -0.00735077  0.87322259  1
  In  In20  1  0.16150167  0.33511486  0.37599070  1
  In  In21  1  0.17203671  0.32808346  0.87024152  1
  In  In22  1  0.17156296  0.65905720  0.36685204  1
  In  In23  1  0.17850357  0.67491328  0.87421530  1
  In  In24  1  0.47987775  -0.02142804  0.35742813  1
  In  In25  1  0.50885765  0.00570309  0.86904023  1
  In  In26  1  0.50094040  0.34820155  0.37909428  1
  In  In27  1  0.48948564  0.32281934  0.86804127  1
  In  In28  1  0.49396481  0.67002936  0.37264289  1
  In  In29  1  0.50177912  0.65943089  0.86973077  1
  In  In30  1  0.82135199  0.00334089  0.37291806  1
  In  In31  1  0.81670648  -0.00922337  0.87639509  1
  In  In32  1  0.84457236  0.35399563  0.37385465  1
  In  In33  1  0.83869022  0.34944758  0.87842367  1
  In  In34  1  0.82298592  0.65293615  0.37409561  1
  In  In35  1  0.82726060  0.67096937  0.88369676  1
  In  In36  1  0.01628579  0.19573021  0.36441381  1
  In  In37  1  0.01092612  0.16908000  0.87775915  1
  In  In38  1  -0.00370922  0.49699310  0.37749381  1
  In  In39  1  -0.00535619  0.49012079  0.87930641  1
  In  In40  1  0.01987269  0.83170634  0.37347862  1
  In  In41  1  0.00357325  0.82116553  0.88537069  1
  In  In42  1  0.31836640  0.16252042  0.36036960  1
  In  In43  1  0.34164597  0.17298767  0.87106733  1
  In  In44  1  0.32967823  0.50217129  0.36874428  1
  In  In45  1  0.34077956  0.49987205  0.86792248  1
  In  In46  1  0.33660989  0.82369329  0.36896053  1
  In  In47  1  0.32111765  0.83176379  0.87571697  1
  In  In48  1  0.66536526  0.15328929  0.37524453  1
  In  In49  1  0.65547936  0.15364031  0.86944963  1
  In  In50  1  0.64866782  0.53240792  0.40247166  1
  In  In51  1  0.67498024  0.50912951  0.86700295  1
  In  In52  1  0.63668160  0.80880106  0.35454540  1
  In  In53  1  0.66842717  0.83794513  0.87092609  1
  In  In54  1  0.18208581  -0.00127715  0.13287575  1
  In  In55  1  0.17891712  0.00847183  0.61366175  1
  In  In56  1  0.16226044  0.33073493  0.15262847  1
  In  In57  1  0.19390828  0.35223150  0.60292109  1
  In  In58  1  0.15602358  0.66938116  0.13963220  1
  In  In59  1  0.16519609  0.66151992  0.61167995  1
  In  In60  1  0.48859193  0.00594461  0.13322054  1
  In  In61  1  0.50037958  -0.01661319  0.63598467  1
  In  In62  1  0.49658079  0.32594404  0.11935906  1
  In  In63  1  0.49327049  0.34263927  0.62577668  1
  In  In64  1  0.49813858  0.68076750  0.14350524  1
  In  In65  1  0.51475946  0.67740072  0.60446491  1
  In  In66  1  0.83738456  -0.01775500  0.12333843  1
  In  In67  1  0.82012615  -0.00876787  0.62759581  1
  In  In68  1  0.83002074  0.35246130  0.12429926  1
  In  In69  1  0.82378279  0.32981960  0.62715740  1
  In  In70  1  0.83443526  0.66381417  0.13051912  1
  In  In71  1  0.82721722  0.65228629  0.61969904  1
  In  In72  1  0.83276568  0.16349603  -0.00782676  1
  In  In73  1  0.49790774  0.16749256  0.50631458  1
  In  In74  1  0.66885235  0.33952166  0.25072236  1
  In  In75  1  0.17120804  0.16593678  0.01191529  1
  In  In76  1  -0.00566706  -0.00160434  0.74849788  1
  In  In77  1  0.50258344  0.83904639  -0.00013707  1
  In  In78  1  0.83415754  0.83309808  0.50104796  1
  In  In79  1  0.00056354  0.00376506  0.25221951  1
  In  In80  1  0.34074723  0.66749783  0.74393308  1
  In  In81  1  0.83866320  0.17109828  0.49366528  1
  In  In82  1  0.00359186  0.33300850  0.75107481  1
  In  In83  1  -0.00162907  0.66108353  0.73487960  1
  In  In84  1  0.50080376  0.49950659  0.00033075  1
  In  In85  1  0.15910927  0.50160436  0.01000787  1
  Cu  Cu86  1  0.33664380  -0.00518853  0.49178953  1
  Cu  Cu87  1  0.50265181  0.49681650  0.74461632  1
  Cu  Cu88  1  0.01013566  0.66958505  0.49296458  1
  Cu  Cu89  1  0.32929565  0.66186306  0.49099440  1
  Cu  Cu90  1  0.66404480  -0.00376386  -0.00304275  1
  Cu  Cu91  1  0.33234540  0.33006249  0.49248584  1
  Cu  Cu92  1  0.00616895  0.01072917  0.49214778  1
  Cu  Cu93  1  0.33431651  0.00451172  0.00659713  1
  Cu  Cu94  1  0.32587799  0.67525113  0.00570272  1
  Cu  Cu95  1  0.82636146  0.16675874  0.75131451  1
  Cu  Cu96  1  0.18042658  0.17134592  0.74258921  1
  Cu  Cu97  1  0.82913316  0.17065415  0.24955832  1
  Cu  Cu98  1  0.49944496  0.16259232  0.74732510  1
  Cu  Cu99  1  0.83650923  0.82738848  0.24838946  1
  Cu  Cu100  1  0.66277081  0.33517380  -0.00175448  1
  Cu  Cu101  1  0.82747167  0.50406421  0.25521459  1
  Cu  Cu102  1  0.50069511  0.16667680  0.24867661  1
  Cu  Cu103  1  -0.00368102  0.34006702  0.01004753  1
  Cu  Cu104  1  0.16841257  0.83627608  0.74606776  1
  Cu  Cu105  1  0.00373346  -0.01288451  -0.00065082  1
  Cu  Cu106  1  0.82162869  0.83102625  0.75380940  1
  Cu  Cu107  1  0.17017085  0.83093761  0.25221790  1
  Cu  Cu108  1  0.50466834  0.50532069  0.25650179  1
  Cu  Cu109  1  0.65782289  -0.00644223  0.50231009  1
  Cu  Cu110  1  0.33150802  0.33804146  0.00216245  1
  Cu  Cu111  1  -0.00101159  0.65918774  0.00985824  1
  Cu  Cu112  1  0.67738875  0.34209750  0.50058932  1
  Cu  Cu113  1  0.83139163  0.50080778  0.74889291  1
  Cu  Cu114  1  0.67254961  0.66484123  0.00461563  1
  Se  Se115  1  0.07483537  0.07073142  0.06222526  1
  Se  Se116  1  0.09082787  0.08956423  0.54750752  1
  Se  Se117  1  0.07933415  0.40882699  0.07424180  1
  Se  Se118  1  0.08203744  0.40335395  0.54376324  1
  Se  Se119  1  0.08538649  0.74341121  0.05911618  1
  Se  Se120  1  0.08957423  0.75605794  0.54686197  1
  Se  Se121  1  0.41522332  0.08937021  0.05898489  1
  Se  Se122  1  0.41214144  0.06928080  0.56097970  1
  Se  Se123  1  0.40333801  0.42393671  0.06448274  1
  Se  Se124  1  0.41672002  0.41191817  0.54673745  1
  Se  Se125  1  0.41430187  0.74946652  0.06192280  1
  Se  Se126  1  0.41097824  0.74632106  0.54540427  1
  Se  Se127  1  0.74684317  0.07659023  0.05781971  1
  Se  Se128  1  0.74296785  0.08032139  0.55395170  1
  Se  Se129  1  0.74492436  0.42010249  0.04948823  1
  Se  Se130  1  0.75816671  0.42239895  0.55699529  1
  Se  Se131  1  0.75366975  0.74822439  0.05956945  1
  Se  Se132  1  0.74188038  0.74865947  0.56164387  1
  Se  Se133  1  0.25160422  0.26577522  0.06816690  1
  Se  Se134  1  0.25665967  0.24059707  0.54717455  1
  Se  Se135  1  0.25564363  0.58763489  0.06606819  1
  Se  Se136  1  0.24773685  0.57727418  0.54552150  1
  Se  Se137  1  0.25177315  0.91789439  0.05634276  1
  Se  Se138  1  0.25068375  0.91399080  0.54758780  1
  Se  Se139  1  0.57613345  0.25054294  0.04445486  1
  Se  Se140  1  0.59607115  0.25864983  0.55882081  1
  Se  Se141  1  0.58098811  0.59595011  0.06374841  1
  Se  Se142  1  0.57629376  0.56750293  0.54930061  1
  Se  Se143  1  0.58933890  0.92225443  0.06610157  1
  Se  Se144  1  0.57887539  0.91148251  0.55873055  1
  Se  Se145  1  0.91728805  0.24956768  0.06190122  1
  Se  Se146  1  0.92273032  0.25866860  0.55843997  1
  Se  Se147  1  0.91922434  0.57569774  0.06480269  1
  Se  Se148  1  0.92950637  0.59308997  0.55403150  1
  Se  Se149  1  0.91405798  0.90737904  0.04836522  1
  Se  Se150  1  0.92470381  0.93480219  0.55609367  1
  Se  Se151  1  0.08484432  0.25277030  0.44992256  1
  Se  Se152  1  0.08019049  0.26325881  0.95006181  1
  Se  Se153  1  0.08823159  0.58228895  0.43978788  1
  Se  Se154  1  0.07878128  0.59099181  0.93966180  1
  Se  Se155  1  0.08665233  0.91557487  0.44925387  1
  Se  Se156  1  0.09100050  0.90898488  0.94628788  1
  Se  Se157  1  0.41367667  0.24750667  0.43467066  1
  Se  Se158  1  0.41200773  0.25401142  0.94788311  1
  Se  Se159  1  0.41589693  0.57965301  0.43987352  1
  Se  Se160  1  0.40428456  0.59450250  0.94458534  1
  Se  Se161  1  0.41817876  0.90803871  0.44162998  1
  Se  Se162  1  0.40857484  0.92537923  0.94063673  1
  Se  Se163  1  0.74327654  0.25788603  0.43518580  1
  Se  Se164  1  0.74227982  0.25594613  0.93533313  1
  Se  Se165  1  0.75968742  0.58866205  0.46002279  1
  Se  Se166  1  0.74926280  0.57773870  0.94837399  1
  Se  Se167  1  0.74097967  0.91817327  0.44182675  1
  Se  Se168  1  0.74747658  0.90690605  0.95055291  1
  Se  Se169  1  0.25628467  0.08560194  0.44319160  1
  Se  Se170  1  0.25228680  0.08108846  0.94174636  1
  Se  Se171  1  0.25228758  0.41806408  0.44082286  1
  Se  Se172  1  0.25219305  0.41841479  0.94239797  1
  Se  Se173  1  0.24755045  0.74783709  0.43781342  1
  Se  Se174  1  0.24295041  0.75668788  0.95199273  1
  Se  Se175  1  0.57676996  0.07318986  0.44230222  1
  Se  Se176  1  0.57956811  0.08241801  0.94831380  1
  Se  Se177  1  0.58263699  0.41880996  0.45365002  1
  Se  Se178  1  0.58485248  0.41367206  0.93375686  1
  Se  Se179  1  0.58184222  0.74691327  0.44343426  1
  Se  Se180  1  0.58788971  0.73922354  0.94321023  1
  Se  Se181  1  0.92578350  0.08422681  0.42921308  1
  Se  Se182  1  0.92825434  0.06923114  0.93673849  1
  Se  Se183  1  0.91108047  0.42712853  0.45296465  1
  Se  Se184  1  0.91378344  0.42271629  0.95658633  1
  Se  Se185  1  0.92351658  0.74809930  0.43644605  1
  Se  Se186  1  0.91761277  0.74325852  0.95283409  1
  Se  Se187  1  0.25953940  0.27299959  0.30338283  1
  Se  Se188  1  0.25793459  0.25447762  0.80094468  1
  Se  Se189  1  0.26503164  0.59394760  0.29595631  1
  Se  Se190  1  0.24389511  0.57941486  0.80376415  1
  Se  Se191  1  0.25469679  0.91544253  0.30228615  1
  Se  Se192  1  0.24831410  0.91757298  0.80260115  1
  Se  Se193  1  0.57894370  0.24662343  0.31096267  1
  Se  Se194  1  0.58199314  0.24649189  0.80267461  1
  Se  Se195  1  0.58896491  0.58554559  0.30981196  1
  Se  Se196  1  0.58314829  0.58223890  0.79902183  1
  Se  Se197  1  0.60879984  0.94234537  0.31389215  1
  Se  Se198  1  0.57949293  0.91109306  0.80471730  1
  Se  Se199  1  0.90525844  0.25386868  0.30578895  1
  Se  Se200  1  0.91086027  0.24104401  0.81204778  1
  Se  Se201  1  0.91724874  0.58428354  0.30591566  1
  Se  Se202  1  0.91420078  0.58011373  0.80852994  1
  Se  Se203  1  0.91238230  0.90918104  0.31177055  1
  Se  Se204  1  0.91286644  0.90289735  0.81179315  1
  Se  Se205  1  0.09278608  0.08121077  0.31609967  1
  Se  Se206  1  0.09332018  0.09412158  0.80103526  1
  Se  Se207  1  0.06932280  0.40779248  0.30799329  1
  Se  Se208  1  0.09327438  0.42815081  0.80849758  1
  Se  Se209  1  0.08423466  0.74489854  0.29921544  1
  Se  Se210  1  0.08552348  0.75280906  0.80164033  1
  Se  Se211  1  0.41269904  0.08377468  0.29797374  1
  Se  Se212  1  0.41554599  0.08245969  0.80372543  1
  Se  Se213  1  0.42129382  0.41766769  0.30346918  1
  Se  Se214  1  0.41714218  0.41579463  0.79913386  1
  Se  Se215  1  0.43161363  0.76084961  0.29826611  1
  Se  Se216  1  0.42177235  0.75881412  0.80999156  1
  Se  Se217  1  0.74692478  0.08450327  0.29839701  1
  Se  Se218  1  0.74914851  0.07766710  0.80369135  1
  Se  Se219  1  0.73983068  0.43407179  0.31771359  1
  Se  Se220  1  0.75269432  0.41393544  0.80306665  1
  Se  Se221  1  0.75402837  0.74743405  0.30516208  1
  Se  Se222  1  0.74641036  0.74171445  0.80784026  1
  Se  Se223  1  0.23239248  0.10083094  0.19989442  1
  Se  Se224  1  0.25520548  0.07758207  0.69323303  1
  Se  Se225  1  0.26892443  0.39117281  0.21276842  1
  Se  Se226  1  0.25644977  0.41503540  0.68908193  1
  Se  Se227  1  0.25407556  0.75155172  0.19596172  1
  Se  Se228  1  0.24200192  0.75129382  0.68507981  1
  Se  Se229  1  0.58525736  0.08543815  0.19517644  1
  Se  Se230  1  0.58341605  0.07660828  0.69724011  1
  Se  Se231  1  0.57549582  0.42485256  0.18745332  1
  Se  Se232  1  0.58790918  0.41229132  0.69362909  1
  Se  Se233  1  0.58534093  0.75867708  0.20829282  1
  Se  Se234  1  0.57032404  0.74025700  0.69400511  1
  Se  Se235  1  0.90790052  0.08974919  0.18764532  1
  Se  Se236  1  0.90747145  0.09279114  0.68710795  1
  Se  Se237  1  0.90879019  0.41576060  0.20366406  1
  Se  Se238  1  0.91633672  0.42459801  0.68936003  1
  Se  Se239  1  0.92290660  0.74309494  0.19942353  1
  Se  Se240  1  0.90243741  0.76007538  0.68743211  1
  Se  Se241  1  0.07081193  0.25038054  0.21401776  1
  Se  Se242  1  0.09476346  0.25105988  0.68751341  1
  Se  Se243  1  0.11029874  0.55900292  0.20352585  1
  Se  Se244  1  0.09616138  0.56919944  0.68706248  1
  Se  Se245  1  0.08435794  0.90852192  0.19058335  1
  Se  Se246  1  0.08539823  0.91414776  0.68548463  1
  Se  Se247  1  0.42055357  0.25278176  0.19573705  1
  Se  Se248  1  0.42043219  0.24911437  0.69285574  1
  Se  Se249  1  0.41815928  0.58408890  0.20123277  1
  Se  Se250  1  0.42585554  0.57782222  0.68199250  1
  Se  Se251  1  0.42423393  0.91369367  0.20330360  1
  Se  Se252  1  0.40335234  0.91128917  0.69852972  1
  Se  Se253  1  0.75040915  0.24683668  0.18372793  1
  Se  Se254  1  0.74467367  0.25140727  0.69918534  1
  Se  Se255  1  0.74481826  0.58713429  0.20012650  1
  Se  Se256  1  0.74689551  0.58338520  0.69629145  1
  Se  Se257  1  0.75457507  0.91535648  0.19845729  1
  Se  Se258  1  0.74108897  0.91702748  0.70066541  1
