# generated using pymatgen
data_In86Cu29Se144
_symmetry_space_group_name_H-M   'P 1'
_cell_length_a   17.57420744
_cell_length_b   17.57673557
_cell_length_c   23.44002278
_cell_angle_alpha   89.99294296
_cell_angle_beta   89.99064775
_cell_angle_gamma   89.97583137
_symmetry_Int_Tables_number   1
_chemical_formula_structural   In86Cu29Se144
_chemical_formula_sum   'In86 Cu29 Se144'
_cell_volume   7240.55654001
_cell_formula_units_Z   1
loop_
 _symmetry_equiv_pos_site_id
 _symmetry_equiv_pos_as_xyz
  1  'x, y, z'
loop_
 _atom_site_type_symbol
 _atom_site_label
 _atom_site_symmetry_multiplicity
 _atom_site_fract_x
 _atom_site_fract_y
 _atom_site_fract_z
 _atom_site_occupancy
  In  In0  1  0.00634177  0.18014236  0.12685044  1
  In  In1  1  0.00307876  0.16548775  0.62562759  1
  In  In2  1  -0.01187828  0.48934528  0.12226073  1
  In  In3  1  -0.01624713  0.51734154  0.62823967  1
  In  In4  1  0.01359070  0.83172999  0.12148904  1
  In  In5  1  0.01313747  0.82324145  0.62533881  1
  In  In6  1  0.33055864  0.15655487  0.12227238  1
  In  In7  1  0.32635305  0.16718205  0.62948061  1
  In  In8  1  0.34605874  0.49697443  0.12209935  1
  In  In9  1  0.33467489  0.49789214  0.63610908  1
  In  In10  1  0.33160339  0.83129699  0.11881815  1
  In  In11  1  0.32165802  0.84164618  0.63275149  1
  In  In12  1  0.67309407  0.17252144  0.11023115  1
  In  In13  1  0.67649009  0.16395211  0.63581659  1
  In  In14  1  0.66931382  0.50095279  0.11601107  1
  In  In15  1  0.67322094  0.49609139  0.63301656  1
  In  In16  1  0.66038531  0.84679093  0.11958686  1
  In  In17  1  0.67354599  0.83077086  0.64175170  1
  In  In18  1  0.17058845  -0.00457173  0.39033249  1
  In  In19  1  0.16027275  -0.00967740  0.87016550  1
  In  In20  1  0.13864450  0.34072078  0.37480730  1
  In  In21  1  0.16184412  0.32729502  0.86153506  1
  In  In22  1  0.17762501  0.66162300  0.37169455  1
  In  In23  1  0.17534578  0.67594649  0.86715169  1
  In  In24  1  0.48283301  0.01078289  0.37045255  1
  In  In25  1  0.49844574  0.00106804  0.87245290  1
  In  In26  1  0.50009808  0.32917550  0.37389888  1
  In  In27  1  0.50131821  0.33442688  0.87475806  1
  In  In28  1  0.49087185  0.67868519  0.37444605  1
  In  In29  1  0.50164094  0.66907304  0.87659076  1
  In  In30  1  0.85583116  0.00431865  0.38530009  1
  In  In31  1  0.84450178  0.01088344  0.86523639  1
  In  In32  1  0.84184561  0.32828735  0.38470785  1
  In  In33  1  0.83135839  0.33489054  0.87324112  1
  In  In34  1  0.84195507  0.64477630  0.39022639  1
  In  In35  1  0.82402598  0.65601839  0.86729795  1
  In  In36  1  -0.00741656  0.16622141  0.39472250  1
  In  In37  1  -0.00741776  0.16190973  0.86929724  1
  In  In38  1  0.00366360  0.49104101  0.37590093  1
  In  In39  1  -0.00938337  0.49111686  0.86692865  1
  In  In40  1  0.02158558  0.84094723  0.38391851  1
  In  In41  1  0.00883538  0.83764282  0.87004270  1
  In  In42  1  0.32847361  0.14805626  0.36667623  1
  In  In43  1  0.34250405  0.17399424  0.86802164  1
  In  In44  1  0.31224548  0.51434362  0.37195681  1
  In  In45  1  0.34280270  0.51087325  0.86863769  1
  In  In46  1  0.31422245  0.82310044  0.35894454  1
  In  In47  1  0.33356144  0.83548769  0.87515129  1
  In  In48  1  0.67381838  0.17463732  0.38245290  1
  In  In49  1  0.66695997  0.17057391  0.87135112  1
  In  In50  1  0.68450792  0.50141281  0.37953313  1
  In  In51  1  0.66737253  0.50127054  0.87582396  1
  In  In52  1  0.66655523  0.82301610  0.37634024  1
  In  In53  1  0.65946557  0.82370498  0.86632576  1
  In  In54  1  0.18757893  0.00101608  0.13184933  1
  In  In55  1  0.16421093  -0.00044222  0.62348239  1
  In  In56  1  0.15381568  0.31952655  0.13202220  1
  In  In57  1  0.17175923  0.32416274  0.63219940  1
  In  In58  1  0.16723502  0.68211680  0.12191010  1
  In  In59  1  0.15608490  0.67759661  0.62709230  1
  In  In60  1  0.48885173  -0.01203227  0.10609992  1
  In  In61  1  0.50153087  -0.00146217  0.63805476  1
  In  In62  1  0.50660966  0.33870896  0.10941217  1
  In  In63  1  0.50028960  0.33653096  0.63777636  1
  In  In64  1  0.49087602  0.66163510  0.11478098  1
  In  In65  1  0.50030100  0.66556198  0.63719842  1
  In  In66  1  0.82001053  -0.00105653  0.12166514  1
  In  In67  1  0.82828256  0.00841005  0.63342715  1
  In  In68  1  0.83955427  0.33485612  0.11861606  1
  In  In69  1  0.83459397  0.33734365  0.63040710  1
  In  In70  1  0.84222294  0.65149185  0.12302372  1
  In  In71  1  0.83623572  0.66146148  0.62628149  1
  In  In72  1  0.50042830  0.83237874  0.50059072  1
  In  In73  1  0.50169194  0.49595598  0.50954679  1
  In  In74  1  0.82493823  0.82960610  -0.00749795  1
  In  In75  1  0.16849632  0.50258051  -0.00532569  1
  In  In76  1  0.00946194  0.00826966  0.25480771  1
  In  In77  1  0.66392462  0.66132408  0.24108199  1
  In  In78  1  0.65970098  -0.00049009  0.25039573  1
  In  In79  1  0.15884111  0.50432631  0.50081428  1
  In  In80  1  0.16642131  0.16116476  0.00683119  1
  In  In81  1  0.66452978  0.32949539  0.25426388  1
  In  In82  1  0.83956233  0.83116368  0.51380603  1
  In  In83  1  0.50447238  0.16172462  0.50678495  1
  In  In84  1  0.01059455  0.65883055  0.25803772  1
  In  In85  1  0.32668427  0.33775493  0.24662421  1
  Cu  Cu86  1  -0.00205951  0.66151269  -0.00091214  1
  Cu  Cu87  1  0.32526315  0.32179148  0.50012054  1
  Cu  Cu88  1  0.48586489  0.83907135  0.24373718  1
  Cu  Cu89  1  0.49791000  0.50652402  0.24909336  1
  Cu  Cu90  1  0.83328760  0.50432216  0.75046686  1
  Cu  Cu91  1  0.66588788  0.66608084  -0.00544799  1
  Cu  Cu92  1  0.67914140  0.33579568  0.50693215  1
  Cu  Cu93  1  0.50169166  0.50148882  0.75772087  1
  Cu  Cu94  1  0.83600541  0.17623913  0.75029302  1
  Cu  Cu95  1  0.32971554  0.67157218  0.50036449  1
  Cu  Cu96  1  0.84091179  0.83785328  0.75005076  1
  Cu  Cu97  1  -0.00579570  0.32832326  -0.00467467  1
  Cu  Cu98  1  0.83967636  0.16699407  0.25670519  1
  Cu  Cu99  1  0.33456980  0.33777374  -0.00635006  1
  Cu  Cu100  1  0.66817088  0.33073130  -0.00853861  1
  Cu  Cu101  1  0.49907955  0.16630732  0.75312019  1
  Cu  Cu102  1  0.66641334  0.00697913  -0.00839658  1
  Cu  Cu103  1  0.49525231  0.83101188  0.75550491  1
  Cu  Cu104  1  0.49395162  0.15544746  0.23582953  1
  Cu  Cu105  1  0.32536889  -0.00890992  0.50097081  1
  Cu  Cu106  1  0.33344201  0.00161974  -0.00394769  1
  Cu  Cu107  1  0.16340671  0.49918034  0.74737523  1
  Cu  Cu108  1  0.16995805  0.83118951  0.74843102  1
  Cu  Cu109  1  0.67390851  -0.00455449  0.50580735  1
  Cu  Cu110  1  -0.00285017  -0.00111464  -0.00563294  1
  Cu  Cu111  1  0.33636422  0.67322952  -0.00666867  1
  Cu  Cu112  1  0.84113879  0.81946951  0.25665082  1
  Cu  Cu113  1  0.16544541  0.15553604  0.74796232  1
  Cu  Cu114  1  -0.00277884  0.33642499  0.50780040  1
  Se  Se115  1  0.07456355  0.07030785  0.06466605  1
  Se  Se116  1  0.09737474  0.09706662  0.55703902  1
  Se  Se117  1  0.08108027  0.40545302  0.05261866  1
  Se  Se118  1  0.07890999  0.41622410  0.56828935  1
  Se  Se119  1  0.08212912  0.74935585  0.04573030  1
  Se  Se120  1  0.08618063  0.74840085  0.54723476  1
  Se  Se121  1  0.41465574  0.09005841  0.04679646  1
  Se  Se122  1  0.41153121  0.06819497  0.56071242  1
  Se  Se123  1  0.41936148  0.42253549  0.04465799  1
  Se  Se124  1  0.40454439  0.40237724  0.56021752  1
  Se  Se125  1  0.41968180  0.75628641  0.04827926  1
  Se  Se126  1  0.41104859  0.74550083  0.56369863  1
  Se  Se127  1  0.75524066  0.08320856  0.04588015  1
  Se  Se128  1  0.74853773  0.08627587  0.55795562  1
  Se  Se129  1  0.74839446  0.41075396  0.05232120  1
  Se  Se130  1  0.75681565  0.42425994  0.55848246  1
  Se  Se131  1  0.74370756  0.74068117  0.06317803  1
  Se  Se132  1  0.73638176  0.74603029  0.56166566  1
  Se  Se133  1  0.25611927  0.26305219  0.05754686  1
  Se  Se134  1  0.24361480  0.24199082  0.55568503  1
  Se  Se135  1  0.25867405  0.59101523  0.05584366  1
  Se  Se136  1  0.25775210  0.58508340  0.56204995  1
  Se  Se137  1  0.24930214  0.92115900  0.05167220  1
  Se  Se138  1  0.24266362  0.90812283  0.55399025  1
  Se  Se139  1  0.58160346  0.24690630  0.04410910  1
  Se  Se140  1  0.58973119  0.25893652  0.56402815  1
  Se  Se141  1  0.58346604  0.58288254  0.05140573  1
  Se  Se142  1  0.58825269  0.58968943  0.56507804  1
  Se  Se143  1  0.58565549  0.91627100  0.04102049  1
  Se  Se144  1  0.59093026  0.91910721  0.56453322  1
  Se  Se145  1  0.91708901  0.24272249  0.05219818  1
  Se  Se146  1  0.91583655  0.25320872  0.56151727  1
  Se  Se147  1  0.91629096  0.57366042  0.04778302  1
  Se  Se148  1  0.91758928  0.59414655  0.54902858  1
  Se  Se149  1  0.91795447  0.91694265  0.05682739  1
  Se  Se150  1  0.92405784  0.92654084  0.56892597  1
  Se  Se151  1  0.08282058  0.25647379  0.45430304  1
  Se  Se152  1  0.08145735  0.24971919  0.94048875  1
  Se  Se153  1  0.07406801  0.59675210  0.43963868  1
  Se  Se154  1  0.07782511  0.58734330  0.93319282  1
  Se  Se155  1  0.06513984  0.94050171  0.45552309  1
  Se  Se156  1  0.08353217  0.91462878  0.94717182  1
  Se  Se157  1  0.41270379  0.24728565  0.44124946  1
  Se  Se158  1  0.41720437  0.25021995  0.94429611  1
  Se  Se159  1  0.41080976  0.58583034  0.44471408  1
  Se  Se160  1  0.41892492  0.58369992  0.94598668  1
  Se  Se161  1  0.40874568  0.91734545  0.43885528  1
  Se  Se162  1  0.41781813  0.91797797  0.94380214  1
  Se  Se163  1  0.75706423  0.24733026  0.45425635  1
  Se  Se164  1  0.75412931  0.24673253  0.94256496  1
  Se  Se165  1  0.74207817  0.58605147  0.45628001  1
  Se  Se166  1  0.75275831  0.58230433  0.94681656  1
  Se  Se167  1  0.74907017  0.91808549  0.44081890  1
  Se  Se168  1  0.74617436  0.92449999  0.93040874  1
  Se  Se169  1  0.25474940  0.08932533  0.45123952  1
  Se  Se170  1  0.25127198  0.08197340  0.93639910  1
  Se  Se171  1  0.25252963  0.41129312  0.44163911  1
  Se  Se172  1  0.25162354  0.41041990  0.93195188  1
  Se  Se173  1  0.24940039  0.75093666  0.44305024  1
  Se  Se174  1  0.24687312  0.75399078  0.94455184  1
  Se  Se175  1  0.59077906  0.07017358  0.44046593  1
  Se  Se176  1  0.58090460  0.08809933  0.93941414  1
  Se  Se177  1  0.59077975  0.40562572  0.44481834  1
  Se  Se178  1  0.58351024  0.41783460  0.94395421  1
  Se  Se179  1  0.59227197  0.73343544  0.44755894  1
  Se  Se180  1  0.58417804  0.75407251  0.94615489  1
  Se  Se181  1  0.90424321  0.09178241  0.46354967  1
  Se  Se182  1  0.91528403  0.08542372  0.94569031  1
  Se  Se183  1  0.91915790  0.42026215  0.45036906  1
  Se  Se184  1  0.91528548  0.41685960  0.94442708  1
  Se  Se185  1  0.92231833  0.75276106  0.43901752  1
  Se  Se186  1  0.92012543  0.74290202  0.93611046  1
  Se  Se187  1  0.24601322  0.25693352  0.31759631  1
  Se  Se188  1  0.24873651  0.24313006  0.79895192  1
  Se  Se189  1  0.24860218  0.58884601  0.29172214  1
  Se  Se190  1  0.24733975  0.58042341  0.80200379  1
  Se  Se191  1  0.25922828  0.94128638  0.31104119  1
  Se  Se192  1  0.25138287  0.91549703  0.80282014  1
  Se  Se193  1  0.57068694  0.22814358  0.30506841  1
  Se  Se194  1  0.58223883  0.25295077  0.80291768  1
  Se  Se195  1  0.57918912  0.57766011  0.31459196  1
  Se  Se196  1  0.58562409  0.58673784  0.80786816  1
  Se  Se197  1  0.56927967  0.90628512  0.31099115  1
  Se  Se198  1  0.58200310  0.91773546  0.80293038  1
  Se  Se199  1  0.92065288  0.24475140  0.31454850  1
  Se  Se200  1  0.92068114  0.25756526  0.80417660  1
  Se  Se201  1  0.90787839  0.57119849  0.30612316  1
  Se  Se202  1  0.92157580  0.58851957  0.80062876  1
  Se  Se203  1  0.91838948  0.90851085  0.31040768  1
  Se  Se204  1  0.92546429  0.92057907  0.80186283  1
  Se  Se205  1  0.08788320  0.09288460  0.32396067  1
  Se  Se206  1  0.07969979  0.07875402  0.80435196  1
  Se  Se207  1  0.10110642  0.44330543  0.30225558  1
  Se  Se208  1  0.07882687  0.41430633  0.79823582  1
  Se  Se209  1  0.09645418  0.76265412  0.30601660  1
  Se  Se210  1  0.08179325  0.74852099  0.79979102  1
  Se  Se211  1  0.40759031  0.07627158  0.28889930  1
  Se  Se212  1  0.41347157  0.07954070  0.80077692  1
  Se  Se213  1  0.41955254  0.42582871  0.31120382  1
  Se  Se214  1  0.41521684  0.41385414  0.80464823  1
  Se  Se215  1  0.41224155  0.74725632  0.29738264  1
  Se  Se216  1  0.41296407  0.74648279  0.80791501  1
  Se  Se217  1  0.75614149  0.08377709  0.31271494  1
  Se  Se218  1  0.75247520  0.08966830  0.80132851  1
  Se  Se219  1  0.76137255  0.41571098  0.30866947  1
  Se  Se220  1  0.75058099  0.42110579  0.80501576  1
  Se  Se221  1  0.75765959  0.73885575  0.31176046  1
  Se  Se222  1  0.75534330  0.75289096  0.80109525  1
  Se  Se223  1  0.22688619  0.11664725  0.19282411  1
  Se  Se224  1  0.25251697  0.07443176  0.69589869  1
  Se  Se225  1  0.23977247  0.42543965  0.18268081  1
  Se  Se226  1  0.25069907  0.41217069  0.70028320  1
  Se  Se227  1  0.24981738  0.75606962  0.19214614  1
  Se  Se228  1  0.25211213  0.74271767  0.69688174  1
  Se  Se229  1  0.58213207  0.08213671  0.17728999  1
  Se  Se230  1  0.58667768  0.08388243  0.70088463  1
  Se  Se231  1  0.57725775  0.42273912  0.19120800  1
  Se  Se232  1  0.58526671  0.41948666  0.70219320  1
  Se  Se233  1  0.57457105  0.76095980  0.18712020  1
  Se  Se234  1  0.58321596  0.74872493  0.70436284  1
  Se  Se235  1  0.90810676  0.08432361  0.19008222  1
  Se  Se236  1  0.91763816  0.08908332  0.69862615  1
  Se  Se237  1  0.92301756  0.40093075  0.19437442  1
  Se  Se238  1  0.91839876  0.42190231  0.69794807  1
  Se  Se239  1  0.91839108  0.74959520  0.18915047  1
  Se  Se240  1  0.91552156  0.75321302  0.69139873  1
  Se  Se241  1  0.07905621  0.24575470  0.20751501  1
  Se  Se242  1  0.08308532  0.24652050  0.69964727  1
  Se  Se243  1  0.08417417  0.58032511  0.17913066  1
  Se  Se244  1  0.08218629  0.58532911  0.69451894  1
  Se  Se245  1  0.09393507  0.91220040  0.19456340  1
  Se  Se246  1  0.08608322  0.91374125  0.69483270  1
  Se  Se247  1  0.42430871  0.25370880  0.18384135  1
  Se  Se248  1  0.41417081  0.24705612  0.69692552  1
  Se  Se249  1  0.41602591  0.58739062  0.19332718  1
  Se  Se250  1  0.41583705  0.58278782  0.70306874  1
  Se  Se251  1  0.41096102  0.92429422  0.18668380  1
  Se  Se252  1  0.41375369  0.91470127  0.70041290  1
  Se  Se253  1  0.75335907  0.23896673  0.19331830  1
  Se  Se254  1  0.74770564  0.25963772  0.70101734  1
  Se  Se255  1  0.76061477  0.56538091  0.19378932  1
  Se  Se256  1  0.74912085  0.58931759  0.69869789  1
  Se  Se257  1  0.75795903  0.90236523  0.19855963  1
  Se  Se258  1  0.75147465  0.92289323  0.70462649  1
