# generated using pymatgen
data_In86Cu29Se144
_symmetry_space_group_name_H-M   'P 1'
_cell_length_a   17.58555925
_cell_length_b   17.58975355
_cell_length_c   23.44420170
_cell_angle_alpha   90.01768317
_cell_angle_beta   90.00838729
_cell_angle_gamma   90.01727926
_symmetry_Int_Tables_number   1
_chemical_formula_structural   In86Cu29Se144
_chemical_formula_sum   'In86 Cu29 Se144'
_cell_volume   7251.89224901
_cell_formula_units_Z   1
loop_
 _symmetry_equiv_pos_site_id
 _symmetry_equiv_pos_as_xyz
  1  'x, y, z'
loop_
 _atom_site_type_symbol
 _atom_site_label
 _atom_site_symmetry_multiplicity
 _atom_site_fract_x
 _atom_site_fract_y
 _atom_site_fract_z
 _atom_site_occupancy
  In  In0  1  -0.00831312  0.16672469  0.11067384  1
  In  In1  1  -0.01621388  0.17672892  0.63070667  1
  In  In2  1  -0.00137547  0.51525790  0.12594102  1
  In  In3  1  -0.01223278  0.52067662  0.62676851  1
  In  In4  1  -0.00402281  0.82957467  0.11716766  1
  In  In5  1  0.00080102  0.83189157  0.63566058  1
  In  In6  1  0.33408089  0.16698350  0.11925421  1
  In  In7  1  0.34657045  0.16210613  0.62331584  1
  In  In8  1  0.33537791  0.50030919  0.13607781  1
  In  In9  1  0.34837054  0.49962783  0.62290530  1
  In  In10  1  0.33359474  0.83340745  0.12122271  1
  In  In11  1  0.31876246  0.82948887  0.62472538  1
  In  In12  1  0.66979020  0.17205589  0.12340461  1
  In  In13  1  0.67505690  0.15861594  0.63646612  1
  In  In14  1  0.67260793  0.48835763  0.12892945  1
  In  In15  1  0.66762574  0.49782313  0.62683661  1
  In  In16  1  0.68253636  0.84772562  0.11349118  1
  In  In17  1  0.66555099  0.83546312  0.63714900  1
  In  In18  1  0.17182919  -0.01405134  0.36615641  1
  In  In19  1  0.15911519  0.00328412  0.88371891  1
  In  In20  1  0.16771981  0.32236178  0.36584213  1
  In  In21  1  0.15895584  0.32846127  0.88729075  1
  In  In22  1  0.16358859  0.66587752  0.36209379  1
  In  In23  1  0.17515274  0.67733226  0.86956094  1
  In  In24  1  0.50212523  -0.00098678  0.36388585  1
  In  In25  1  0.50703155  -0.00258433  0.88175720  1
  In  In26  1  0.51079465  0.33825254  0.36803943  1
  In  In27  1  0.50541597  0.31714095  0.88270547  1
  In  In28  1  0.49005523  0.66278955  0.37557754  1
  In  In29  1  0.50721161  0.67036681  0.87176312  1
  In  In30  1  0.83449621  0.01502673  0.37190474  1
  In  In31  1  0.83230861  -0.00251977  0.87711195  1
  In  In32  1  0.82089825  0.33912612  0.37512160  1
  In  In33  1  0.82962235  0.34428032  0.88810095  1
  In  In34  1  0.83733326  0.65173154  0.37275799  1
  In  In35  1  0.83262502  0.66878529  0.87523871  1
  In  In36  1  -0.01013940  0.16028487  0.37449816  1
  In  In37  1  0.00977587  0.15761725  0.88862205  1
  In  In38  1  -0.01963774  0.51006374  0.37506928  1
  In  In39  1  -0.01807060  0.50184660  0.87850617  1
  In  In40  1  0.00662122  0.82225386  0.36910068  1
  In  In41  1  -0.00190829  0.83235513  0.87615910  1
  In  In42  1  0.33036278  0.16003095  0.35976918  1
  In  In43  1  0.33904077  0.16792116  0.89373390  1
  In  In44  1  0.34095861  0.50567914  0.37111354  1
  In  In45  1  0.32447775  0.50616571  0.87575996  1
  In  In46  1  0.33100468  0.83328459  0.35745738  1
  In  In47  1  0.34295307  0.82768025  0.88493175  1
  In  In48  1  0.67905176  0.17598006  0.35877283  1
  In  In49  1  0.66996390  0.16721849  0.87684234  1
  In  In50  1  0.68091275  0.48070708  0.38375132  1
  In  In51  1  0.67744779  0.50823870  0.86850337  1
  In  In52  1  0.65635794  0.83673477  0.36862819  1
  In  In53  1  0.66552550  0.83491099  0.87716980  1
  In  In54  1  0.17265814  0.00546421  0.11799511  1
  In  In55  1  0.16442556  -0.01242105  0.62621738  1
  In  In56  1  0.17948489  0.32909342  0.12098169  1
  In  In57  1  0.16579479  0.32818148  0.62292923  1
  In  In58  1  0.16104667  0.68140283  0.13530321  1
  In  In59  1  0.15930141  0.67577251  0.63466764  1
  In  In60  1  0.50331343  0.00198964  0.11943023  1
  In  In61  1  0.50548266  0.01003744  0.62570473  1
  In  In62  1  0.50609079  0.32828172  0.12752842  1
  In  In63  1  0.50141737  0.34749034  0.62454858  1
  In  In64  1  0.48807411  0.67171617  0.12594288  1
  In  In65  1  0.51018119  0.66017434  0.63335410  1
  In  In66  1  0.83096751  0.00215214  0.12062694  1
  In  In67  1  0.82703249  0.00854607  0.63582236  1
  In  In68  1  0.82679755  0.32827570  0.11704594  1
  In  In69  1  0.82022798  0.32570475  0.62257041  1
  In  In70  1  0.83820270  0.67186577  0.11880133  1
  In  In71  1  0.84126185  0.65518379  0.63008030  1
  In  In72  1  0.66493360  0.66750353  0.25073137  1
  In  In73  1  0.16530059  0.49770445  0.00242463  1
  In  In74  1  0.50435268  0.16595634  0.49699122  1
  In  In75  1  -0.00291596  0.00280168  0.23720672  1
  In  In76  1  0.33477703  0.34019391  0.75776455  1
  In  In77  1  -0.00381193  0.33710534  0.24802265  1
  In  In78  1  -0.00542770  0.33515188  0.76221818  1
  In  In79  1  0.33596747  -0.00430513  0.74876597  1
  In  In80  1  0.49641564  0.83063427  0.49427792  1
  In  In81  1  0.50447480  0.50098255  0.01028159  1
  In  In82  1  0.16379302  0.83076204  0.49840705  1
  In  In83  1  0.15987964  0.16208319  0.48834549  1
  In  In84  1  0.16075360  0.50020294  0.49833030  1
  In  In85  1  0.83207417  0.83020395  0.50215098  1
  Cu  Cu86  1  0.50087218  0.83789014  0.24265683  1
  Cu  Cu87  1  0.67062943  0.66743390  -0.00587817  1
  Cu  Cu88  1  0.16306465  0.83420946  0.75475141  1
  Cu  Cu89  1  0.83116110  0.83352945  0.75638603  1
  Cu  Cu90  1  -0.00771838  0.00639234  0.50295140  1
  Cu  Cu91  1  0.66735876  0.65440442  0.50626106  1
  Cu  Cu92  1  0.16724331  0.49990177  0.24506742  1
  Cu  Cu93  1  0.50739089  0.16548828  0.75598910  1
  Cu  Cu94  1  0.67048926  0.00530463  0.50171055  1
  Cu  Cu95  1  0.16670329  0.50820240  0.75092497  1
  Cu  Cu96  1  0.83704240  0.83443170  0.24118815  1
  Cu  Cu97  1  0.66605067  0.00652629  -0.00198113  1
  Cu  Cu98  1  -0.01605697  0.34022686  0.50170644  1
  Cu  Cu99  1  0.17048787  0.16407782  0.24151025  1
  Cu  Cu100  1  0.66645732  0.33231707  0.49830717  1
  Cu  Cu101  1  0.49842941  0.83036833  0.75845090  1
  Cu  Cu102  1  0.00054958  0.66877101  -0.00131949  1
  Cu  Cu103  1  0.82829654  0.49955092  0.75176646  1
  Cu  Cu104  1  0.33659658  0.32988512  0.49482183  1
  Cu  Cu105  1  0.66714184  0.33300899  0.00302381  1
  Cu  Cu106  1  0.33544883  -0.00286773  0.00338447  1
  Cu  Cu107  1  0.50531947  0.50295264  0.74975418  1
  Cu  Cu108  1  0.33101082  0.66194831  0.49886547  1
  Cu  Cu109  1  0.33096672  0.66970401  0.00408380  1
  Cu  Cu110  1  0.16527966  0.16073700  0.76072477  1
  Cu  Cu111  1  0.49947273  0.16295677  0.24097271  1
  Cu  Cu112  1  -0.00612805  -0.01000244  -0.00058644  1
  Cu  Cu113  1  0.50134269  0.49722084  0.25197193  1
  Cu  Cu114  1  0.83407243  0.16167838  0.75708606  1
  Se  Se115  1  0.07687957  0.07578412  0.05154859  1
  Se  Se116  1  0.07737148  0.08214939  0.56295884  1
  Se  Se117  1  0.07671776  0.41235698  0.06493559  1
  Se  Se118  1  0.07049241  0.41107692  0.56225982  1
  Se  Se119  1  0.08708297  0.74763339  0.05277860  1
  Se  Se120  1  0.07114668  0.74365636  0.55742899  1
  Se  Se121  1  0.41978465  0.08498247  0.05084225  1
  Se  Se122  1  0.40962604  0.06883353  0.54968177  1
  Se  Se123  1  0.40836419  0.41170751  0.06226652  1
  Se  Se124  1  0.41667156  0.41422414  0.54884352  1
  Se  Se125  1  0.42099928  0.75385196  0.04971265  1
  Se  Se126  1  0.41009549  0.74304760  0.56047441  1
  Se  Se127  1  0.75062217  0.08787120  0.05244906  1
  Se  Se128  1  0.75160374  0.08528410  0.55868112  1
  Se  Se129  1  0.75066769  0.42267265  0.04959830  1
  Se  Se130  1  0.74791660  0.41665232  0.55415433  1
  Se  Se131  1  0.75416004  0.75111363  0.04896366  1
  Se  Se132  1  0.73938636  0.74493220  0.56375482  1
  Se  Se133  1  0.24028811  0.23692145  0.04985125  1
  Se  Se134  1  0.25749546  0.24862731  0.55386873  1
  Se  Se135  1  0.25446107  0.58646111  0.06346038  1
  Se  Se136  1  0.24904571  0.58924871  0.56299018  1
  Se  Se137  1  0.24847388  0.91294833  0.05137839  1
  Se  Se138  1  0.25895649  0.92678487  0.55097155  1
  Se  Se139  1  0.58133489  0.24951404  0.05239183  1
  Se  Se140  1  0.58976828  0.25233553  0.56301366  1
  Se  Se141  1  0.59600554  0.59517627  0.06519655  1
  Se  Se142  1  0.57792326  0.57670166  0.55765539  1
  Se  Se143  1  0.58496406  0.91779652  0.04908627  1
  Se  Se144  1  0.58960694  0.92034231  0.55656497  1
  Se  Se145  1  0.91449888  0.25617367  0.04644649  1
  Se  Se146  1  0.90900371  0.24844182  0.55336854  1
  Se  Se147  1  0.91682217  0.58409579  0.04928020  1
  Se  Se148  1  0.90937025  0.58383991  0.54843556  1
  Se  Se149  1  0.90732020  0.91152958  0.05312377  1
  Se  Se150  1  0.91947618  0.92179986  0.56406731  1
  Se  Se151  1  0.06728694  0.26358465  0.44041760  1
  Se  Se152  1  0.08907737  0.24259268  0.95711077  1
  Se  Se153  1  0.07725807  0.59444875  0.43947704  1
  Se  Se154  1  0.08227965  0.58918715  0.93745503  1
  Se  Se155  1  0.07123586  0.92675975  0.44134972  1
  Se  Se156  1  0.08303981  0.90993665  0.94815311  1
  Se  Se157  1  0.41117044  0.24813207  0.43359616  1
  Se  Se158  1  0.41748487  0.25740902  0.95653524  1
  Se  Se159  1  0.41739926  0.57881206  0.44939488  1
  Se  Se160  1  0.41290866  0.58770729  0.94566157  1
  Se  Se161  1  0.40945286  0.91929515  0.43350416  1
  Se  Se162  1  0.42190775  0.91659237  0.94958679  1
  Se  Se163  1  0.74536343  0.24688988  0.44289715  1
  Se  Se164  1  0.74961809  0.24952227  0.94865945  1
  Se  Se165  1  0.75138485  0.58163508  0.44595848  1
  Se  Se166  1  0.75444245  0.58067663  0.94564759  1
  Se  Se167  1  0.74398685  0.92014720  0.43990718  1
  Se  Se168  1  0.74756882  0.91720951  0.94697376  1
  Se  Se169  1  0.25630794  0.07314639  0.43664402  1
  Se  Se170  1  0.24974389  0.07937868  0.95064178  1
  Se  Se171  1  0.24996824  0.40782379  0.43876403  1
  Se  Se172  1  0.26229288  0.40847043  0.94616575  1
  Se  Se173  1  0.25743956  0.74413087  0.43701143  1
  Se  Se174  1  0.24764320  0.75086823  0.94869348  1
  Se  Se175  1  0.59261234  0.07849332  0.43537775  1
  Se  Se176  1  0.58092961  0.09117197  0.94684878  1
  Se  Se177  1  0.57889883  0.41468088  0.44819872  1
  Se  Se178  1  0.59069376  0.41840447  0.94142682  1
  Se  Se179  1  0.59424074  0.73737085  0.44245002  1
  Se  Se180  1  0.58191792  0.74983486  0.94631361  1
  Se  Se181  1  0.90925555  0.08897779  0.45036939  1
  Se  Se182  1  0.91327569  0.07892365  0.94871848  1
  Se  Se183  1  0.90656467  0.42113392  0.44334609  1
  Se  Se184  1  0.93488610  0.40447875  0.95102833  1
  Se  Se185  1  0.92227991  0.74385779  0.44133050  1
  Se  Se186  1  0.91460156  0.75057569  0.94563181  1
  Se  Se187  1  0.25201386  0.25058674  0.29410238  1
  Se  Se188  1  0.24735958  0.24381829  0.81504208  1
  Se  Se189  1  0.25228565  0.57976874  0.30199733  1
  Se  Se190  1  0.25502158  0.58857171  0.80132452  1
  Se  Se191  1  0.25249241  0.91938902  0.29129160  1
  Se  Se192  1  0.24751945  0.91243224  0.81386291  1
  Se  Se193  1  0.57947453  0.24733344  0.29796410  1
  Se  Se194  1  0.58869315  0.25270106  0.80578454  1
  Se  Se195  1  0.58250232  0.57494369  0.31436525  1
  Se  Se196  1  0.58840411  0.58746719  0.80278176  1
  Se  Se197  1  0.58718261  0.91963719  0.29458718  1
  Se  Se198  1  0.58134602  0.91791580  0.80677182  1
  Se  Se199  1  0.90737055  0.24539244  0.30720511  1
  Se  Se200  1  0.91134231  0.24037719  0.82078252  1
  Se  Se201  1  0.92345433  0.59292989  0.29589764  1
  Se  Se202  1  0.91295990  0.58384103  0.80318618  1
  Se  Se203  1  0.91441769  0.91305430  0.30751671  1
  Se  Se204  1  0.91687679  0.91706633  0.80691319  1
  Se  Se205  1  0.08861236  0.09003651  0.30589096  1
  Se  Se206  1  0.07872080  0.07856316  0.80891736  1
  Se  Se207  1  0.08625098  0.42675019  0.31170440  1
  Se  Se208  1  0.09337745  0.42654395  0.81415501  1
  Se  Se209  1  0.10262446  0.76876023  0.29840810  1
  Se  Se210  1  0.07841567  0.74822483  0.80450874  1
  Se  Se211  1  0.41708980  0.07820672  0.29515889  1
  Se  Se212  1  0.41713016  0.09078259  0.81167272  1
  Se  Se213  1  0.41510093  0.41367761  0.30401013  1
  Se  Se214  1  0.42980792  0.42589404  0.81642903  1
  Se  Se215  1  0.42689019  0.75010105  0.30038280  1
  Se  Se216  1  0.41210024  0.74718392  0.80727644  1
  Se  Se217  1  0.74352695  0.07102326  0.29856556  1
  Se  Se218  1  0.74710601  0.07914940  0.80761897  1
  Se  Se219  1  0.74653354  0.41635996  0.29933780  1
  Se  Se220  1  0.75348676  0.41044637  0.80651935  1
  Se  Se221  1  0.76001511  0.75866990  0.30922816  1
  Se  Se222  1  0.74624023  0.74979182  0.80753215  1
  Se  Se223  1  0.25499927  0.08076636  0.19091936  1
  Se  Se224  1  0.24450656  0.09166180  0.69101477  1
  Se  Se225  1  0.24891457  0.41138591  0.19731227  1
  Se  Se226  1  0.24223498  0.42299373  0.69055639  1
  Se  Se227  1  0.27471915  0.73461524  0.19118990  1
  Se  Se228  1  0.24969212  0.75185034  0.70207822  1
  Se  Se229  1  0.58683381  0.08283188  0.18932589  1
  Se  Se230  1  0.58539533  0.07781884  0.70215434  1
  Se  Se231  1  0.58329587  0.41565180  0.19717259  1
  Se  Se232  1  0.58590656  0.41464813  0.69871175  1
  Se  Se233  1  0.58618369  0.75978871  0.18441224  1
  Se  Se234  1  0.58316533  0.74948050  0.70224556  1
  Se  Se235  1  0.90475678  0.10044753  0.19021040  1
  Se  Se236  1  0.92099469  0.08423487  0.70178520  1
  Se  Se237  1  0.90872791  0.42392714  0.18664540  1
  Se  Se238  1  0.91111174  0.41795637  0.69159729  1
  Se  Se239  1  0.92016897  0.74913470  0.19226651  1
  Se  Se240  1  0.91107090  0.75034886  0.69807820  1
  Se  Se241  1  0.08284580  0.24311789  0.18718355  1
  Se  Se242  1  0.08976947  0.24606320  0.69960385  1
  Se  Se243  1  0.08298277  0.58736559  0.19859722  1
  Se  Se244  1  0.07806855  0.58639106  0.69895795  1
  Se  Se245  1  0.08959537  0.91129478  0.18481960  1
  Se  Se246  1  0.08217994  0.92021305  0.70166837  1
  Se  Se247  1  0.41442883  0.24884987  0.19185099  1
  Se  Se248  1  0.42465734  0.24621628  0.69613917  1
  Se  Se249  1  0.42153769  0.58497428  0.20049104  1
  Se  Se250  1  0.41577929  0.58252542  0.69826756  1
  Se  Se251  1  0.41839952  0.91947038  0.18805986  1
  Se  Se252  1  0.42595802  0.90530883  0.68712693  1
  Se  Se253  1  0.73928714  0.26599117  0.19212115  1
  Se  Se254  1  0.75350560  0.24840136  0.70275275  1
  Se  Se255  1  0.75744648  0.58270762  0.19116885  1
  Se  Se256  1  0.74705198  0.58331089  0.69662459  1
  Se  Se257  1  0.75248305  0.92065636  0.19447062  1
  Se  Se258  1  0.74926120  0.91943693  0.70226190  1
