# generated using pymatgen
data_In86Cu29Se144
_symmetry_space_group_name_H-M   'P 1'
_cell_length_a   17.58332898
_cell_length_b   17.58433482
_cell_length_c   23.44122877
_cell_angle_alpha   90.00805623
_cell_angle_beta   90.02020681
_cell_angle_gamma   89.98040304
_symmetry_Int_Tables_number   1
_chemical_formula_structural   In86Cu29Se144
_chemical_formula_sum   'In86 Cu29 Se144'
_cell_volume   7247.81939273
_cell_formula_units_Z   1
loop_
 _symmetry_equiv_pos_site_id
 _symmetry_equiv_pos_as_xyz
  1  'x, y, z'
loop_
 _atom_site_type_symbol
 _atom_site_label
 _atom_site_symmetry_multiplicity
 _atom_site_fract_x
 _atom_site_fract_y
 _atom_site_fract_z
 _atom_site_occupancy
  In  In0  1  0.00252505  0.16229769  0.12556893  1
  In  In1  1  0.00112867  0.14767668  0.62461293  1
  In  In2  1  0.01082754  0.49088905  0.14594472  1
  In  In3  1  -0.00333971  0.51813787  0.61814206  1
  In  In4  1  -0.00603325  0.83637121  0.13280902  1
  In  In5  1  0.00806337  0.84143267  0.61501292  1
  In  In6  1  0.32386139  0.17173812  0.12983419  1
  In  In7  1  0.31921148  0.15628614  0.61002573  1
  In  In8  1  0.34117686  0.49287853  0.13121103  1
  In  In9  1  0.34658691  0.49854493  0.61913701  1
  In  In10  1  0.34561830  0.82673118  0.13145944  1
  In  In11  1  0.32948355  0.84116607  0.63188030  1
  In  In12  1  0.66585677  0.15251356  0.11663928  1
  In  In13  1  0.67413324  0.18439968  0.63195892  1
  In  In14  1  0.67354920  0.51209569  0.12278486  1
  In  In15  1  0.66802981  0.49907422  0.62751318  1
  In  In16  1  0.66031140  0.82694065  0.11410346  1
  In  In17  1  0.67107676  0.81063295  0.63059309  1
  In  In18  1  0.16694221  -0.00092964  0.37348402  1
  In  In19  1  0.17570935  0.00492555  0.87182317  1
  In  In20  1  0.16027717  0.32871848  0.37093390  1
  In  In21  1  0.15710800  0.32673166  0.87951674  1
  In  In22  1  0.17185777  0.67536045  0.36802576  1
  In  In23  1  0.17743908  0.66232748  0.87407836  1
  In  In24  1  0.49704724  0.01491058  0.38067701  1
  In  In25  1  0.48482937  -0.00118596  0.87143433  1
  In  In26  1  0.47755712  0.33301938  0.37526886  1
  In  In27  1  0.51717194  0.33876009  0.87845021  1
  In  In28  1  0.49706850  0.66518531  0.36711204  1
  In  In29  1  0.50374161  0.66876055  0.87706680  1
  In  In30  1  0.83425324  -0.01175963  0.37683378  1
  In  In31  1  0.84440314  -0.00937562  0.87356938  1
  In  In32  1  0.84927827  0.33162851  0.37387556  1
  In  In33  1  0.81064207  0.32944368  0.87598632  1
  In  In34  1  0.83011297  0.66803109  0.37683011  1
  In  In35  1  0.82729697  0.68768247  0.87717871  1
  In  In36  1  0.01310039  0.17673265  0.36790315  1
  In  In37  1  0.00867684  0.15319886  0.88289453  1
  In  In38  1  -0.00615287  0.49001501  0.36722953  1
  In  In39  1  0.00141474  0.50292439  0.87939440  1
  In  In40  1  -0.00103209  0.83880947  0.37221116  1
  In  In41  1  -0.01679823  0.83990463  0.87872554  1
  In  In42  1  0.33198892  0.16532409  0.37674977  1
  In  In43  1  0.33169583  0.15430476  0.87457609  1
  In  In44  1  0.31839850  0.49614719  0.35557465  1
  In  In45  1  0.33935150  0.52066239  0.87556716  1
  In  In46  1  0.32299823  0.82338469  0.36822574  1
  In  In47  1  0.34516650  0.84021489  0.86586238  1
  In  In48  1  0.65718412  0.15696291  0.38048363  1
  In  In49  1  0.67106616  0.18297052  0.87174479  1
  In  In50  1  0.66718288  0.51987811  0.37801465  1
  In  In51  1  0.65490527  0.49188516  0.87094843  1
  In  In52  1  0.67815322  0.82621617  0.38418642  1
  In  In53  1  0.67595883  0.82282442  0.87238582  1
  In  In54  1  0.15912396  0.00785822  0.13183710  1
  In  In55  1  0.16712758  -0.00198858  0.62213958  1
  In  In56  1  0.17697355  0.32515808  0.13257716  1
  In  In57  1  0.17343516  0.31445727  0.61479285  1
  In  In58  1  0.17448575  0.65134849  0.14702877  1
  In  In59  1  0.16182938  0.68324665  0.61921121  1
  In  In60  1  0.50549594  -0.01192490  0.12375574  1
  In  In61  1  0.48161875  -0.00677012  0.63247401  1
  In  In62  1  0.48329318  0.32741614  0.12220684  1
  In  In63  1  0.50957280  0.33882896  0.62333279  1
  In  In64  1  0.50479193  0.66975750  0.12398648  1
  In  In65  1  0.50543823  0.66773061  0.63552779  1
  In  In66  1  0.83951657  0.00154726  0.11717773  1
  In  In67  1  0.85332940  0.00093124  0.63456728  1
  In  In68  1  0.84490705  0.33384579  0.12468612  1
  In  In69  1  0.81898265  0.33377063  0.62683540  1
  In  In70  1  0.82707968  0.66956083  0.13142821  1
  In  In71  1  0.81993493  0.66490825  0.61005002  1
  In  In72  1  0.16486358  0.83094550  0.01229163  1
  In  In73  1  0.49924165  0.83274990  0.50716063  1
  In  In74  1  0.66773083  -0.00404029  0.75467034  1
  In  In75  1  0.66517718  -0.00545845  0.25327089  1
  In  In76  1  0.83526658  0.16820982  0.50542896  1
  In  In77  1  0.66794752  0.33419874  0.24452947  1
  In  In78  1  0.33945420  0.33308731  0.74302699  1
  In  In79  1  -0.00551089  0.68106562  0.75111269  1
  In  In80  1  -0.00893750  0.33390478  0.75257131  1
  In  In81  1  0.17351816  0.49446593  0.01566114  1
  In  In82  1  0.83509054  0.49724140  0.00376380  1
  In  In83  1  0.16319769  0.49979864  0.48523407  1
  In  In84  1  0.50007639  0.49815506  0.49914687  1
  In  In85  1  0.50143368  0.16627273  -0.00585222  1
  Cu  Cu86  1  -0.00325518  0.31760856  0.00219918  1
  Cu  Cu87  1  -0.00134590  -0.00391360  0.00397978  1
  Cu  Cu88  1  0.16640941  0.15877966  0.74823462  1
  Cu  Cu89  1  0.17406472  0.50325987  0.74635518  1
  Cu  Cu90  1  0.16420210  0.83878810  0.74621957  1
  Cu  Cu91  1  0.82633281  0.50950518  0.74865172  1
  Cu  Cu92  1  0.33042454  0.33656833  0.00387211  1
  Cu  Cu93  1  -0.00043513  0.66481407  0.00821837  1
  Cu  Cu94  1  0.66615302  0.33759039  0.50207113  1
  Cu  Cu95  1  0.33095598  0.66538176  0.49443752  1
  Cu  Cu96  1  0.67271424  -0.00667157  -0.00848552  1
  Cu  Cu97  1  0.16837466  0.16175817  0.25198471  1
  Cu  Cu98  1  0.66557575  -0.00081651  0.50652958  1
  Cu  Cu99  1  0.48777033  0.16984827  0.25292343  1
  Cu  Cu100  1  0.00677256  0.00429412  0.49698288  1
  Cu  Cu101  1  0.49864090  0.16557820  0.75184285  1
  Cu  Cu102  1  0.34617059  0.67539443  0.00069578  1
  Cu  Cu103  1  0.84312181  0.16178302  0.24686371  1
  Cu  Cu104  1  0.49995029  0.50422003  0.24802937  1
  Cu  Cu105  1  -0.01032811  0.67576597  0.49466103  1
  Cu  Cu106  1  0.33158315  0.00027054  -0.00198056  1
  Cu  Cu107  1  0.83100709  0.83119755  0.25286946  1
  Cu  Cu108  1  0.32700915  -0.00521093  0.49939960  1
  Cu  Cu109  1  0.16502147  0.83898957  0.25042108  1
  Cu  Cu110  1  0.66804458  0.66676274  -0.00087724  1
  Cu  Cu111  1  0.50342954  0.50564089  0.75010981  1
  Cu  Cu112  1  0.83078907  0.50264066  0.25120297  1
  Cu  Cu113  1  0.00168762  0.33613062  0.49508322  1
  Cu  Cu114  1  0.50353211  0.83338476  0.24917198  1
  Se  Se115  1  0.08445290  0.08070643  0.05361403  1
  Se  Se116  1  0.09049447  0.08650259  0.55065999  1
  Se  Se117  1  0.07223180  0.40419867  0.06263137  1
  Se  Se118  1  0.08044400  0.41564122  0.55926741  1
  Se  Se119  1  0.08230639  0.73535728  0.07219961  1
  Se  Se120  1  0.08209761  0.75374507  0.54373379  1
  Se  Se121  1  0.41399873  0.08053516  0.05973601  1
  Se  Se122  1  0.41591805  0.07252589  0.55323450  1
  Se  Se123  1  0.41635652  0.42053364  0.05182536  1
  Se  Se124  1  0.40847952  0.39919996  0.54985700  1
  Se  Se125  1  0.42763395  0.75962347  0.05412787  1
  Se  Se126  1  0.40740366  0.73851303  0.56198765  1
  Se  Se127  1  0.75141058  0.07777568  0.04757471  1
  Se  Se128  1  0.74717753  0.07912371  0.56718921  1
  Se  Se129  1  0.74297634  0.40628038  0.06031130  1
  Se  Se130  1  0.74991049  0.42045123  0.55398947  1
  Se  Se131  1  0.75540042  0.74641262  0.05291311  1
  Se  Se132  1  0.74751531  0.76047068  0.54565043  1
  Se  Se133  1  0.24888386  0.24945115  0.05335709  1
  Se  Se134  1  0.25653920  0.25121705  0.54031426  1
  Se  Se135  1  0.26289978  0.59719726  0.06178175  1
  Se  Se136  1  0.25026321  0.58416000  0.55581230  1
  Se  Se137  1  0.25875638  0.92385637  0.06594779  1
  Se  Se138  1  0.24821605  0.90962128  0.55476182  1
  Se  Se139  1  0.58679373  0.25518407  0.05823167  1
  Se  Se140  1  0.58862517  0.25085199  0.55590014  1
  Se  Se141  1  0.58524619  0.58473133  0.05333470  1
  Se  Se142  1  0.58602768  0.59068988  0.55791753  1
  Se  Se143  1  0.58423690  0.91814607  0.04687178  1
  Se  Se144  1  0.58799136  0.92086941  0.56920808  1
  Se  Se145  1  0.91150108  0.23938450  0.05639815  1
  Se  Se146  1  0.92638879  0.25977457  0.56383297  1
  Se  Se147  1  0.92662254  0.57843926  0.06882038  1
  Se  Se148  1  0.91185246  0.58518803  0.54483620  1
  Se  Se149  1  0.91743849  0.90706184  0.05333316  1
  Se  Se150  1  0.91883968  0.92743267  0.55187778  1
  Se  Se151  1  0.08569365  0.24961952  0.44739248  1
  Se  Se152  1  0.08833815  0.24118566  0.95142365  1
  Se  Se153  1  0.07116913  0.59515728  0.43384427  1
  Se  Se154  1  0.08457032  0.58777307  0.94983202  1
  Se  Se155  1  0.08483018  0.91623487  0.44349940  1
  Se  Se156  1  0.08347017  0.91858801  0.94354688  1
  Se  Se157  1  0.43530935  0.22778581  0.44253026  1
  Se  Se158  1  0.40776905  0.25929990  0.93683647  1
  Se  Se159  1  0.40571636  0.58108715  0.43511492  1
  Se  Se160  1  0.42461285  0.58399793  0.95084111  1
  Se  Se161  1  0.41068453  0.91559170  0.44004620  1
  Se  Se162  1  0.41462509  0.91563892  0.94677178  1
  Se  Se163  1  0.74532760  0.25546852  0.43968734  1
  Se  Se164  1  0.74470913  0.24935434  0.95261663  1
  Se  Se165  1  0.75242740  0.58634362  0.45000775  1
  Se  Se166  1  0.74916763  0.58554409  0.93911559  1
  Se  Se167  1  0.74913219  0.92036302  0.45131611  1
  Se  Se168  1  0.75688310  0.90934664  0.94046856  1
  Se  Se169  1  0.24785913  0.08106504  0.44465843  1
  Se  Se170  1  0.24708142  0.08559437  0.94908178  1
  Se  Se171  1  0.26106224  0.40853234  0.43688451  1
  Se  Se172  1  0.25387154  0.41594846  0.93811484  1
  Se  Se173  1  0.24622257  0.75161728  0.44638549  1
  Se  Se174  1  0.25532704  0.74994777  0.94512983  1
  Se  Se175  1  0.58095451  0.08337009  0.45686199  1
  Se  Se176  1  0.59038954  0.07563067  0.93276527  1
  Se  Se177  1  0.58853327  0.40946950  0.43408196  1
  Se  Se178  1  0.58630182  0.42093567  0.95179387  1
  Se  Se179  1  0.58171916  0.73954763  0.44397989  1
  Se  Se180  1  0.58739101  0.75238088  0.94504424  1
  Se  Se181  1  0.92224527  0.08459282  0.43811953  1
  Se  Se182  1  0.91559509  0.07730509  0.94779555  1
  Se  Se183  1  0.91577515  0.42001619  0.44708782  1
  Se  Se184  1  0.92445734  0.40476772  0.94125811  1
  Se  Se185  1  0.90983483  0.76176550  0.44119772  1
  Se  Se186  1  0.92070955  0.74653075  0.95128239  1
  Se  Se187  1  0.24955887  0.24697858  0.30592186  1
  Se  Se188  1  0.24410393  0.24707852  0.80559749  1
  Se  Se189  1  0.25275143  0.59774810  0.29607304  1
  Se  Se190  1  0.25543599  0.58709873  0.79889112  1
  Se  Se191  1  0.25220214  0.91984955  0.30293712  1
  Se  Se192  1  0.25074321  0.91757991  0.80256186  1
  Se  Se193  1  0.57905265  0.24557358  0.30781842  1
  Se  Se194  1  0.57996886  0.25309632  0.80136755  1
  Se  Se195  1  0.58518381  0.58522453  0.30028390  1
  Se  Se196  1  0.58660914  0.58798195  0.80449055  1
  Se  Se197  1  0.57686733  0.90937022  0.31846494  1
  Se  Se198  1  0.57495302  0.90798120  0.81194579  1
  Se  Se199  1  0.92106129  0.25071298  0.29935599  1
  Se  Se200  1  0.91540285  0.24641245  0.82070716  1
  Se  Se201  1  0.91222626  0.58452254  0.30688827  1
  Se  Se202  1  0.91115978  0.58120417  0.81146961  1
  Se  Se203  1  0.91447063  0.91986447  0.30042333  1
  Se  Se204  1  0.91823578  0.91159877  0.79781489  1
  Se  Se205  1  0.08149453  0.07905582  0.30277262  1
  Se  Se206  1  0.08324733  0.07930777  0.80426472  1
  Se  Se207  1  0.09386170  0.42428041  0.30387807  1
  Se  Se208  1  0.09238072  0.42693053  0.80662267  1
  Se  Se209  1  0.08112106  0.75549947  0.30322018  1
  Se  Se210  1  0.09187571  0.76047356  0.81490795  1
  Se  Se211  1  0.41222977  0.07916907  0.30476874  1
  Se  Se212  1  0.41041260  0.08264014  0.79837829  1
  Se  Se213  1  0.41624543  0.41639102  0.29662807  1
  Se  Se214  1  0.42169952  0.42317463  0.80969077  1
  Se  Se215  1  0.41620967  0.75074273  0.30072962  1
  Se  Se216  1  0.39686035  0.72459669  0.81233853  1
  Se  Se217  1  0.75720927  0.09100578  0.30946894  1
  Se  Se218  1  0.75690931  0.08792290  0.81207872  1
  Se  Se219  1  0.75217887  0.41952971  0.31222914  1
  Se  Se220  1  0.74912454  0.42081053  0.80241423  1
  Se  Se221  1  0.74528940  0.74926652  0.30492027  1
  Se  Se222  1  0.75670402  0.75273337  0.79570790  1
  Se  Se223  1  0.25376312  0.07948469  0.19869690  1
  Se  Se224  1  0.25154113  0.08222121  0.69112993  1
  Se  Se225  1  0.23155805  0.43656548  0.19054850  1
  Se  Se226  1  0.24278845  0.41937051  0.68307193  1
  Se  Se227  1  0.25151421  0.75647119  0.19887991  1
  Se  Se228  1  0.24440927  0.75017252  0.69492994  1
  Se  Se229  1  0.57410599  0.09090397  0.19513091  1
  Se  Se230  1  0.58050558  0.08775044  0.68993297  1
  Se  Se231  1  0.57565760  0.42192699  0.18498333  1
  Se  Se232  1  0.58430111  0.41813892  0.69742616  1
  Se  Se233  1  0.58826920  0.75364762  0.19392546  1
  Se  Se234  1  0.56959335  0.76452880  0.70148206  1
  Se  Se235  1  0.91975900  0.07445082  0.19284734  1
  Se  Se236  1  0.90836997  0.10338533  0.70113500  1
  Se  Se237  1  0.91196686  0.41132705  0.20346581  1
  Se  Se238  1  0.91227001  0.43292979  0.68990885  1
  Se  Se239  1  0.91463712  0.74762181  0.19952743  1
  Se  Se240  1  0.91320838  0.75347551  0.67687845  1
  Se  Se241  1  0.08542105  0.24439629  0.19550408  1
  Se  Se242  1  0.08823297  0.24683089  0.69302922  1
  Se  Se243  1  0.06807260  0.59518163  0.20836190  1
  Se  Se244  1  0.08798005  0.58527298  0.69315079  1
  Se  Se245  1  0.07902747  0.92044907  0.19814126  1
  Se  Se246  1  0.08015335  0.92000158  0.69256565  1
  Se  Se247  1  0.40739017  0.25495456  0.19898347  1
  Se  Se248  1  0.42209994  0.23933827  0.68273936  1
  Se  Se249  1  0.41908250  0.58872014  0.19292772  1
  Se  Se250  1  0.41470456  0.57970979  0.69450248  1
  Se  Se251  1  0.42148093  0.92024245  0.19848758  1
  Se  Se252  1  0.41804151  0.90617409  0.70537049  1
  Se  Se253  1  0.75433171  0.23529328  0.18830885  1
  Se  Se254  1  0.75786103  0.25375395  0.70525967  1
  Se  Se255  1  0.74547232  0.58579226  0.20105801  1
  Se  Se256  1  0.74821956  0.59160818  0.69111164  1
  Se  Se257  1  0.75243906  0.91069224  0.18812135  1
  Se  Se258  1  0.75571147  0.91153375  0.68963533  1
