# generated using pymatgen
data_In86Cu29Se144
_symmetry_space_group_name_H-M   'P 1'
_cell_length_a   17.57050442
_cell_length_b   17.57131197
_cell_length_c   23.42865761
_cell_angle_alpha   90.04251747
_cell_angle_beta   90.01118621
_cell_angle_gamma   90.00448600
_symmetry_Int_Tables_number   1
_chemical_formula_structural   In86Cu29Se144
_chemical_formula_sum   'In86 Cu29 Se144'
_cell_volume   7233.28696696
_cell_formula_units_Z   1
loop_
 _symmetry_equiv_pos_site_id
 _symmetry_equiv_pos_as_xyz
  1  'x, y, z'
loop_
 _atom_site_type_symbol
 _atom_site_label
 _atom_site_symmetry_multiplicity
 _atom_site_fract_x
 _atom_site_fract_y
 _atom_site_fract_z
 _atom_site_occupancy
  In  In0  1  0.01100448  0.15084729  0.12522518  1
  In  In1  1  0.02148188  0.16095214  0.62220239  1
  In  In2  1  0.00403300  0.50980252  0.12807702  1
  In  In3  1  -0.00498786  0.50966201  0.62861996  1
  In  In4  1  0.00493855  0.83366365  0.13202163  1
  In  In5  1  -0.00859437  0.83317464  0.61157517  1
  In  In6  1  0.31279909  0.13462322  0.08963445  1
  In  In7  1  0.33170209  0.16004531  0.62771701  1
  In  In8  1  0.34144452  0.49695205  0.12030490  1
  In  In9  1  0.32293598  0.49871191  0.63080639  1
  In  In10  1  0.32343301  0.84697943  0.12983349  1
  In  In11  1  0.34169969  0.84572992  0.61604717  1
  In  In12  1  0.65497520  0.16093160  0.12385162  1
  In  In13  1  0.65744987  0.17422666  0.62916039  1
  In  In14  1  0.66120605  0.51213217  0.13108865  1
  In  In15  1  0.66847257  0.48911723  0.62383043  1
  In  In16  1  0.66955681  0.83281504  0.14399777  1
  In  In17  1  0.67491708  0.84174789  0.61747030  1
  In  In18  1  0.16979153  -0.00162166  0.37387890  1
  In  In19  1  0.18013313  -0.01206321  0.89260213  1
  In  In20  1  0.15859045  0.32688784  0.37880145  1
  In  In21  1  0.15931911  0.32372388  0.86769819  1
  In  In22  1  0.18445146  0.68599338  0.36250603  1
  In  In23  1  0.16219832  0.67937455  0.87815952  1
  In  In24  1  0.49757095  -0.00060843  0.37652878  1
  In  In25  1  0.50616751  0.01089363  0.87090996  1
  In  In26  1  0.49113190  0.32702641  0.38303869  1
  In  In27  1  0.49483995  0.32547732  0.87451307  1
  In  In28  1  0.51511255  0.68011053  0.36458982  1
  In  In29  1  0.48076040  0.66761915  0.88652590  1
  In  In30  1  0.82229576  -0.02022522  0.35992849  1
  In  In31  1  0.83293131  0.00912689  0.87067515  1
  In  In32  1  0.84273960  0.33683021  0.38394027  1
  In  In33  1  0.83554817  0.33504957  0.86242426  1
  In  In34  1  0.83288689  0.67486973  0.37009480  1
  In  In35  1  0.83771353  0.65432318  0.87517889  1
  In  In36  1  0.01951099  0.15841029  0.37970294  1
  In  In37  1  0.00014513  0.16791213  0.87346130  1
  In  In38  1  -0.01869328  0.51372128  0.37933339  1
  In  In39  1  0.00117195  0.50017245  0.86525595  1
  In  In40  1  0.00334717  0.83725018  0.37027536  1
  In  In41  1  0.02008442  0.83798287  0.87270340  1
  In  In42  1  0.34302349  0.15771580  0.38430513  1
  In  In43  1  0.33183942  0.16219259  0.87667173  1
  In  In44  1  0.32349879  0.50285265  0.37327015  1
  In  In45  1  0.34741949  0.50028406  0.88349604  1
  In  In46  1  0.33390297  0.83921382  0.37537438  1
  In  In47  1  0.32023444  0.83365660  0.87948951  1
  In  In48  1  0.66505869  0.15065692  0.37589133  1
  In  In49  1  0.65931607  0.16300344  0.86609842  1
  In  In50  1  0.67833117  0.51585521  0.36917667  1
  In  In51  1  0.66456722  0.48698073  0.87326159  1
  In  In52  1  0.66543569  0.83190373  0.37496179  1
  In  In53  1  0.65744518  0.84391952  0.87227989  1
  In  In54  1  0.17065150  -0.00346729  0.11930554  1
  In  In55  1  0.16555140  0.00754008  0.61075979  1
  In  In56  1  0.17741784  0.32009550  0.11428330  1
  In  In57  1  0.18057532  0.32025125  0.63983938  1
  In  In58  1  0.15663346  0.68182891  0.13463306  1
  In  In59  1  0.15624404  0.66751749  0.62324552  1
  In  In60  1  0.49531405  0.00292622  0.13188966  1
  In  In61  1  0.49694806  0.00237911  0.62535688  1
  In  In62  1  0.47805115  0.31247082  0.10313126  1
  In  In63  1  0.50498472  0.32477218  0.63437724  1
  In  In64  1  0.49948707  0.66340037  0.13133805  1
  In  In65  1  0.49116003  0.67479154  0.62119422  1
  In  In66  1  0.84264524  -0.01294798  0.14585129  1
  In  In67  1  0.83478389  -0.01601378  0.62026955  1
  In  In68  1  0.83812862  0.33455701  0.12510543  1
  In  In69  1  0.82545806  0.34021890  0.62742629  1
  In  In70  1  0.82964555  0.67320708  0.15940274  1
  In  In71  1  0.84599716  0.67742439  0.61122410  1
  In  In72  1  0.00110927  0.34245591  0.24970285  1
  In  In73  1  0.83654538  0.83049089  0.01754555  1
  In  In74  1  0.33105466  0.33010732  0.23765186  1
  In  In75  1  0.50370163  0.50314365  0.50071539  1
  In  In76  1  0.82926153  0.50363381  0.01131749  1
  In  In77  1  0.49261067  0.84050246  0.00633144  1
  In  In78  1  0.66301818  0.33575744  0.24443383  1
  In  In79  1  0.83283480  0.15870226  -0.00773088  1
  In  In80  1  0.32765993  0.66561283  0.75896208  1
  In  In81  1  0.83818947  0.15556220  0.49789778  1
  In  In82  1  0.00110626  -0.00052287  0.74315682  1
  In  In83  1  0.16771485  0.49948030  0.00062171  1
  In  In84  1  0.15999488  0.49989478  0.50314781  1
  In  In85  1  0.66849284  0.66668377  0.75045625  1
  Cu  Cu86  1  0.49386952  0.16786719  0.75095817  1
  Cu  Cu87  1  0.49837250  0.15772448  0.25073434  1
  Cu  Cu88  1  0.16176962  0.51297671  0.24982604  1
  Cu  Cu89  1  -0.00254993  0.67735012  0.00586748  1
  Cu  Cu90  1  0.17006908  0.84270657  0.25130206  1
  Cu  Cu91  1  0.49577444  0.83376914  0.25378827  1
  Cu  Cu92  1  0.00397800  0.33142700  0.50549086  1
  Cu  Cu93  1  0.16346155  0.49218195  0.75105488  1
  Cu  Cu94  1  0.67411779  -0.00097280  0.00267233  1
  Cu  Cu95  1  0.33077096  0.00184428  0.49862076  1
  Cu  Cu96  1  0.65579336  0.33201407  -0.00626466  1
  Cu  Cu97  1  0.16857972  0.83352281  0.75019749  1
  Cu  Cu98  1  0.83679031  0.82791375  0.74031677  1
  Cu  Cu99  1  0.17101478  0.15772938  0.75171753  1
  Cu  Cu100  1  0.17745995  0.16016488  0.24759038  1
  Cu  Cu101  1  0.49985414  0.84718981  0.74660898  1
  Cu  Cu102  1  0.65681287  0.66644156  0.00939118  1
  Cu  Cu103  1  0.33767204  0.67519259  0.49284877  1
  Cu  Cu104  1  0.67346757  0.67308770  0.49243904  1
  Cu  Cu105  1  0.84096129  0.16421584  0.25378237  1
  Cu  Cu106  1  0.83000839  0.16867628  0.74691896  1
  Cu  Cu107  1  0.49685834  0.49489170  0.24407424  1
  Cu  Cu108  1  -0.00433767  0.33114166  -0.00693358  1
  Cu  Cu109  1  0.65853708  -0.00252781  0.49783349  1
  Cu  Cu110  1  0.33228111  0.32280309  0.50975317  1
  Cu  Cu111  1  0.66744357  0.33589956  0.50513029  1
  Cu  Cu112  1  0.00468816  0.67182650  0.49305633  1
  Cu  Cu113  1  0.83793739  0.50398819  0.74605877  1
  Cu  Cu114  1  0.50225375  0.49491814  0.75522383  1
  Se  Se115  1  0.10501151  0.09949549  0.05230095  1
  Se  Se116  1  0.06049880  0.06534897  0.54595877  1
  Se  Se117  1  0.07137293  0.40761721  0.05961889  1
  Se  Se118  1  0.08416975  0.40708850  0.56968670  1
  Se  Se119  1  0.08411903  0.75846595  0.05611247  1
  Se  Se120  1  0.08693161  0.75184916  0.54994477  1
  Se  Se121  1  0.43878184  0.08218999  0.05005802  1
  Se  Se122  1  0.41458805  0.08359148  0.55468759  1
  Se  Se123  1  0.41105994  0.41698457  0.04545937  1
  Se  Se124  1  0.41123898  0.41489350  0.56231769  1
  Se  Se125  1  0.40867681  0.74841941  0.06623935  1
  Se  Se126  1  0.42078698  0.75704521  0.54772536  1
  Se  Se127  1  0.75595577  0.07375297  0.06577681  1
  Se  Se128  1  0.73923817  0.07789291  0.56000700  1
  Se  Se129  1  0.73459492  0.40515027  0.06060276  1
  Se  Se130  1  0.75523570  0.42152464  0.54974929  1
  Se  Se131  1  0.74239158  0.73626769  0.07097141  1
  Se  Se132  1  0.75490415  0.75767133  0.54848856  1
  Se  Se133  1  0.28429924  0.27027873  0.05162229  1
  Se  Se134  1  0.24339115  0.24229962  0.55891253  1
  Se  Se135  1  0.24369706  0.59011445  0.06767541  1
  Se  Se136  1  0.26035635  0.59333299  0.55496540  1
  Se  Se137  1  0.26036767  0.92320817  0.04941462  1
  Se  Se138  1  0.24714558  0.91482299  0.54870155  1
  Se  Se139  1  0.58442073  0.24014162  0.04766124  1
  Se  Se140  1  0.58044641  0.25412124  0.55463579  1
  Se  Se141  1  0.57442620  0.57883715  0.05693413  1
  Se  Se142  1  0.59562099  0.59619592  0.55968147  1
  Se  Se143  1  0.59726766  0.91714249  0.06402876  1
  Se  Se144  1  0.57770824  0.91599723  0.55554168  1
  Se  Se145  1  0.92133099  0.24935513  0.05690935  1
  Se  Se146  1  0.91913939  0.25053823  0.56233335  1
  Se  Se147  1  0.91358525  0.60369318  0.06798461  1
  Se  Se148  1  0.92553159  0.58406216  0.54787375  1
  Se  Se149  1  0.92787589  0.93126526  0.06185926  1
  Se  Se150  1  0.91642759  0.92153973  0.54371527  1
  Se  Se151  1  0.08675927  0.24665120  0.45392897  1
  Se  Se152  1  0.08163088  0.24834930  0.94439260  1
  Se  Se153  1  0.08917766  0.59343652  0.43404511  1
  Se  Se154  1  0.06762468  0.58830528  0.94512097  1
  Se  Se155  1  0.09229949  0.90937522  0.44030175  1
  Se  Se156  1  0.08882948  0.90508159  0.95354734  1
  Se  Se157  1  0.41930083  0.24445960  0.45565151  1
  Se  Se158  1  0.43229159  0.22808374  0.94214763  1
  Se  Se159  1  0.41561729  0.58896881  0.43621627  1
  Se  Se160  1  0.40751959  0.58842313  0.95886379  1
  Se  Se161  1  0.41672032  0.91773600  0.44754536  1
  Se  Se162  1  0.41297968  0.92670116  0.93787251  1
  Se  Se163  1  0.74339572  0.25220727  0.44236427  1
  Se  Se164  1  0.74707728  0.25871946  0.93664841  1
  Se  Se165  1  0.75793451  0.58599310  0.44494086  1
  Se  Se166  1  0.73730922  0.58889805  0.94562913  1
  Se  Se167  1  0.74581181  0.91935453  0.44371933  1
  Se  Se168  1  0.75307068  0.91670610  0.94413917  1
  Se  Se169  1  0.24515254  0.08594642  0.44705625  1
  Se  Se170  1  0.23825865  0.09820016  0.94963404  1
  Se  Se171  1  0.25754396  0.40631976  0.44714090  1
  Se  Se172  1  0.24875203  0.40879693  0.93668912  1
  Se  Se173  1  0.24829065  0.75731078  0.44583737  1
  Se  Se174  1  0.26426052  0.73143721  0.94548923  1
  Se  Se175  1  0.57657060  0.08583456  0.44861996  1
  Se  Se176  1  0.59543636  0.07971760  0.94438786  1
  Se  Se177  1  0.59330979  0.41447269  0.43746958  1
  Se  Se178  1  0.57491926  0.41797254  0.94236181  1
  Se  Se179  1  0.57968669  0.75266464  0.44741572  1
  Se  Se180  1  0.58808340  0.74875118  0.94443646  1
  Se  Se181  1  0.91425222  0.07155491  0.42705516  1
  Se  Se182  1  0.93203842  0.06642952  0.94315813  1
  Se  Se183  1  0.92361682  0.41810761  0.45324722  1
  Se  Se184  1  0.91520876  0.41797300  0.94115320  1
  Se  Se185  1  0.91922534  0.75322955  0.43975614  1
  Se  Se186  1  0.91658487  0.75008471  0.94048557  1
  Se  Se187  1  0.24881761  0.24601726  0.31014764  1
  Se  Se188  1  0.25147573  0.24493633  0.80381655  1
  Se  Se189  1  0.25664474  0.58693452  0.29875674  1
  Se  Se190  1  0.23890300  0.57190392  0.81671778  1
  Se  Se191  1  0.25765815  0.92378114  0.30297059  1
  Se  Se192  1  0.24584799  0.91726893  0.80722501  1
  Se  Se193  1  0.57523777  0.24541447  0.30874594  1
  Se  Se194  1  0.58221089  0.25325557  0.80005972  1
  Se  Se195  1  0.57792791  0.57456928  0.30188358  1
  Se  Se196  1  0.57267623  0.58561400  0.81426184  1
  Se  Se197  1  0.58002427  0.91688413  0.30749545  1
  Se  Se198  1  0.58744591  0.92681667  0.79921063  1
  Se  Se199  1  0.91937157  0.24564354  0.31275697  1
  Se  Se200  1  0.91889214  0.24540462  0.80086932  1
  Se  Se201  1  0.91547206  0.58929914  0.30126491  1
  Se  Se202  1  0.92034693  0.58867451  0.79876739  1
  Se  Se203  1  0.91381819  0.90313989  0.29458571  1
  Se  Se204  1  0.91262634  0.90782999  0.80698957  1
  Se  Se205  1  0.08921298  0.08272368  0.30116957  1
  Se  Se206  1  0.09049105  0.07680192  0.81162839  1
  Se  Se207  1  0.08977263  0.43024438  0.31420507  1
  Se  Se208  1  0.07567718  0.40823228  0.79991753  1
  Se  Se209  1  0.08538992  0.75353187  0.29897101  1
  Se  Se210  1  0.08321798  0.74749455  0.79900669  1
  Se  Se211  1  0.41185804  0.08021679  0.30592312  1
  Se  Se212  1  0.41232887  0.08096061  0.80292129  1
  Se  Se213  1  0.41896838  0.41643250  0.30785851  1
  Se  Se214  1  0.41467474  0.41659957  0.80757857  1
  Se  Se215  1  0.41108890  0.74912371  0.30554096  1
  Se  Se216  1  0.42488610  0.76270633  0.80847712  1
  Se  Se217  1  0.74949497  0.08412423  0.30147629  1
  Se  Se218  1  0.74916474  0.08245343  0.79952653  1
  Se  Se219  1  0.75876794  0.41358629  0.30913920  1
  Se  Se220  1  0.75147275  0.42264408  0.79857958  1
  Se  Se221  1  0.72901964  0.73594046  0.30573020  1
  Se  Se222  1  0.75870827  0.75785982  0.81126005  1
  Se  Se223  1  0.25793118  0.08496600  0.18543025  1
  Se  Se224  1  0.24405106  0.07336462  0.69119328  1
  Se  Se225  1  0.23322840  0.42542530  0.18766619  1
  Se  Se226  1  0.25684037  0.41343122  0.70517976  1
  Se  Se227  1  0.25188256  0.75497939  0.19962169  1
  Se  Se228  1  0.24997336  0.75359318  0.68872637  1
  Se  Se229  1  0.58808134  0.07837151  0.19999597  1
  Se  Se230  1  0.57872068  0.08589494  0.69563719  1
  Se  Se231  1  0.56527549  0.40959431  0.18011550  1
  Se  Se232  1  0.58568284  0.41780404  0.69764736  1
  Se  Se233  1  0.57840433  0.74626885  0.20222483  1
  Se  Se234  1  0.57748343  0.75761529  0.69131197  1
  Se  Se235  1  0.92764788  0.08419073  0.20122186  1
  Se  Se236  1  0.90876138  0.08995940  0.68383641  1
  Se  Se237  1  0.90497548  0.43153189  0.19417404  1
  Se  Se238  1  0.91833873  0.41646066  0.69347786  1
  Se  Se239  1  0.90365312  0.78313863  0.20554290  1
  Se  Se240  1  0.92400498  0.74862608  0.68930579  1
  Se  Se241  1  0.09462764  0.24828901  0.19359725  1
  Se  Se242  1  0.08362742  0.24244653  0.70167340  1
  Se  Se243  1  0.07313987  0.59480999  0.20126532  1
  Se  Se244  1  0.08798022  0.58213311  0.69733887  1
  Se  Se245  1  0.08827264  0.92444690  0.19470770  1
  Se  Se246  1  0.08932698  0.90781035  0.68440531  1
  Se  Se247  1  0.41879404  0.23220580  0.18685473  1
  Se  Se248  1  0.40915284  0.24996014  0.69673673  1
  Se  Se249  1  0.41004952  0.57958173  0.19630613  1
  Se  Se250  1  0.42412825  0.57905898  0.69522578  1
  Se  Se251  1  0.41503088  0.91871875  0.19974086  1
  Se  Se252  1  0.40888727  0.92299156  0.69553248  1
  Se  Se253  1  0.75985169  0.24029414  0.19088717  1
  Se  Se254  1  0.74617000  0.25417744  0.69555055  1
  Se  Se255  1  0.74515675  0.57291025  0.20738065  1
  Se  Se256  1  0.75811530  0.58434860  0.68483830  1
  Se  Se257  1  0.73875289  0.92849432  0.20814208  1
  Se  Se258  1  0.75030095  0.91558496  0.69607848  1
