# generated using pymatgen
data_In86Cu29Se144
_symmetry_space_group_name_H-M   'P 1'
_cell_length_a   17.58737260
_cell_length_b   17.58700470
_cell_length_c   23.44858847
_cell_angle_alpha   89.99362589
_cell_angle_beta   90.02530516
_cell_angle_gamma   90.00267027
_symmetry_Int_Tables_number   1
_chemical_formula_structural   In86Cu29Se144
_chemical_formula_sum   'In86 Cu29 Se144'
_cell_volume   7252.86348624
_cell_formula_units_Z   1
loop_
 _symmetry_equiv_pos_site_id
 _symmetry_equiv_pos_as_xyz
  1  'x, y, z'
loop_
 _atom_site_type_symbol
 _atom_site_label
 _atom_site_symmetry_multiplicity
 _atom_site_fract_x
 _atom_site_fract_y
 _atom_site_fract_z
 _atom_site_occupancy
  In  In0  1  0.00069869  0.16100469  0.10976174  1
  In  In1  1  0.00248900  0.16854422  0.61685556  1
  In  In2  1  0.03994217  0.47831094  0.15467027  1
  In  In3  1  -0.00947690  0.48491097  0.62768935  1
  In  In4  1  -0.02349785  0.85051162  0.14322055  1
  In  In5  1  0.00835483  0.83184112  0.60917152  1
  In  In6  1  0.32990617  0.18330000  0.13175550  1
  In  In7  1  0.32856708  0.15793803  0.63087856  1
  In  In8  1  0.29650184  0.49307521  0.11805837  1
  In  In9  1  0.33143443  0.49606150  0.63331215  1
  In  In10  1  0.33298642  0.82961523  0.11707877  1
  In  In11  1  0.33557459  0.83634624  0.62555112  1
  In  In12  1  0.67768353  0.14146918  0.13521246  1
  In  In13  1  0.64781620  0.14270149  0.60158541  1
  In  In14  1  0.66565448  0.49445549  0.11968063  1
  In  In15  1  0.67852890  0.51127461  0.62990485  1
  In  In16  1  0.68332786  0.84858596  0.11481490  1
  In  In17  1  0.65963981  0.84056590  0.62250010  1
  In  In18  1  0.15559317  0.01164983  0.38182350  1
  In  In19  1  0.16931830  0.00353788  0.87414278  1
  In  In20  1  0.15180965  0.32053087  0.35674691  1
  In  In21  1  0.16527058  0.32715499  0.87841009  1
  In  In22  1  0.16136556  0.67156220  0.37907297  1
  In  In23  1  0.16421173  0.65913624  0.87458858  1
  In  In24  1  0.50973724  -0.00704167  0.38731353  1
  In  In25  1  0.49417282  -0.00955125  0.86936668  1
  In  In26  1  0.48538616  0.32396036  0.37425908  1
  In  In27  1  0.49589354  0.34363185  0.87418214  1
  In  In28  1  0.51057972  0.67901632  0.37830010  1
  In  In29  1  0.50814027  0.67658051  0.86281257  1
  In  In30  1  0.83667992  0.00327974  0.37655453  1
  In  In31  1  0.82738628  0.01102630  0.87686482  1
  In  In32  1  0.84596337  0.31464476  0.36942166  1
  In  In33  1  0.84100884  0.31023479  0.88421186  1
  In  In34  1  0.84969078  0.67933869  0.37665969  1
  In  In35  1  0.83371372  0.68047403  0.87313585  1
  In  In36  1  0.00165638  0.17019405  0.36783732  1
  In  In37  1  -0.00302304  0.16973410  0.87946794  1
  In  In38  1  0.00609200  0.49820612  0.35825212  1
  In  In39  1  0.01968701  0.49612903  0.88754451  1
  In  In40  1  -0.00601307  0.83520179  0.38161398  1
  In  In41  1  -0.00694805  0.82846635  0.88236434  1
  In  In42  1  0.32291105  0.17107508  0.38366741  1
  In  In43  1  0.32143112  0.15657531  0.85915459  1
  In  In44  1  0.32727858  0.49100470  0.37133750  1
  In  In45  1  0.31945364  0.48767896  0.86140657  1
  In  In46  1  0.33199595  0.83501588  0.38447691  1
  In  In47  1  0.34511688  0.84762711  0.86701735  1
  In  In48  1  0.69395721  0.13364100  0.40646189  1
  In  In49  1  0.67839782  0.15986478  0.87150446  1
  In  In50  1  0.66708944  0.51293863  0.37424139  1
  In  In51  1  0.65531924  0.49826847  0.87146627  1
  In  In52  1  0.66101090  0.85520455  0.39313443  1
  In  In53  1  0.66761983  0.83535130  0.86908383  1
  In  In54  1  0.12574203  0.00921854  0.11936248  1
  In  In55  1  0.17501307  0.00811254  0.62257023  1
  In  In56  1  0.16414680  0.32845106  0.11742107  1
  In  In57  1  0.17376317  0.31195755  0.64225473  1
  In  In58  1  0.16156728  0.65877558  0.12066928  1
  In  In59  1  0.16754865  0.67970682  0.62517376  1
  In  In60  1  0.51328761  -0.00036962  0.12646326  1
  In  In61  1  0.50186496  -0.00332738  0.62345098  1
  In  In62  1  0.48479631  0.32275089  0.12736002  1
  In  In63  1  0.49546136  0.31856868  0.62570939  1
  In  In64  1  0.48511148  0.67603681  0.12166215  1
  In  In65  1  0.48937042  0.67608188  0.63111325  1
  In  In66  1  0.83844591  -0.00494971  0.11909526  1
  In  In67  1  0.81968340  -0.01171830  0.60950613  1
  In  In68  1  0.87374092  0.31003595  0.13198540  1
  In  In69  1  0.84824374  0.32318128  0.63022644  1
  In  In70  1  0.83766656  0.68396871  0.12350319  1
  In  In71  1  0.82566355  0.66800914  0.62900785  1
  In  In72  1  0.32386414  0.66430065  0.25338506  1
  In  In73  1  0.49700092  0.50324286  0.49272987  1
  In  In74  1  0.00116068  0.00773057  0.74857130  1
  In  In75  1  0.66776366  0.32851082  0.74898900  1
  In  In76  1  0.49894725  0.16450995  0.00080888  1
  In  In77  1  0.33072663  0.00356570  0.25556662  1
  In  In78  1  0.83560971  0.50074537  0.50006701  1
  In  In79  1  0.16270822  0.49469565  0.49476651  1
  In  In80  1  0.83929174  0.50393238  0.00652701  1
  In  In81  1  0.16332914  0.83938008  -0.00038759  1
  In  In82  1  -0.00019210  0.66387257  0.75227930  1
  In  In83  1  0.49785558  0.50664959  -0.00741264  1
  In  In84  1  0.66790711  0.32266535  0.25177811  1
  In  In85  1  0.66496244  0.67528346  0.25336790  1
  Cu  Cu86  1  0.50299387  0.83672198  0.74647953  1
  Cu  Cu87  1  0.16568406  0.16483416  0.24421745  1
  Cu  Cu88  1  0.82817123  0.50237649  0.24902823  1
  Cu  Cu89  1  0.15749855  0.83093372  0.25481623  1
  Cu  Cu90  1  0.00594571  0.32691442  0.49635519  1
  Cu  Cu91  1  0.32987210  0.32262770  0.50391718  1
  Cu  Cu92  1  0.34020577  0.67406817  -0.00861710  1
  Cu  Cu93  1  0.83115398  0.83844905  0.74568625  1
  Cu  Cu94  1  0.33463978  -0.00161007  0.50508468  1
  Cu  Cu95  1  0.48269449  0.49359292  0.24538432  1
  Cu  Cu96  1  0.66943350  0.33284440  0.49908559  1
  Cu  Cu97  1  0.67565179  0.32116002  0.00969604  1
  Cu  Cu98  1  0.17303786  0.83973307  0.74803995  1
  Cu  Cu99  1  0.66408474  0.67982406  0.50763649  1
  Cu  Cu100  1  0.83512827  0.49562810  0.75632939  1
  Cu  Cu101  1  0.32725176  0.33827613  -0.00605433  1
  Cu  Cu102  1  0.00584483  0.00417758  0.49553637  1
  Cu  Cu103  1  0.33333982  0.00207814  -0.00123200  1
  Cu  Cu104  1  -0.00140625  0.67133322  0.00804261  1
  Cu  Cu105  1  0.50169876  0.50722274  0.74850338  1
  Cu  Cu106  1  0.49775813  0.16222965  0.74371889  1
  Cu  Cu107  1  0.66402898  0.67607443  -0.00874914  1
  Cu  Cu108  1  0.82972981  0.16167186  0.74696803  1
  Cu  Cu109  1  0.66920993  -0.01003253  -0.00150303  1
  Cu  Cu110  1  0.50702290  0.16176008  0.25719032  1
  Cu  Cu111  1  0.16323303  0.49678352  0.75297913  1
  Cu  Cu112  1  0.83061775  0.84384261  0.25358082  1
  Cu  Cu113  1  0.33309756  0.67193648  0.50475913  1
  Cu  Cu114  1  0.50689441  0.84034168  0.25208208  1
  Se  Se115  1  0.10496199  0.10637725  0.03934191  1
  Se  Se116  1  0.08815866  0.08477146  0.55239081  1
  Se  Se117  1  0.08757410  0.42951180  0.05915952  1
  Se  Se118  1  0.08212886  0.40461696  0.56142913  1
  Se  Se119  1  0.07512278  0.75860875  0.06649029  1
  Se  Se120  1  0.08447451  0.73772309  0.54742423  1
  Se  Se121  1  0.40970783  0.07885323  0.06617252  1
  Se  Se122  1  0.41447648  0.08394869  0.55909948  1
  Se  Se123  1  0.41126633  0.41609609  0.05586144  1
  Se  Se124  1  0.41029141  0.41307561  0.55607315  1
  Se  Se125  1  0.42019326  0.75934233  0.04450292  1
  Se  Se126  1  0.41912325  0.75459657  0.55406403  1
  Se  Se127  1  0.74854977  0.07699304  0.05190578  1
  Se  Se128  1  0.76724105  0.09936582  0.54796440  1
  Se  Se129  1  0.75757853  0.40226057  0.06655187  1
  Se  Se130  1  0.74695527  0.40969518  0.56275566  1
  Se  Se131  1  0.75090694  0.75021889  0.04900168  1
  Se  Se132  1  0.75352130  0.75591476  0.55978738  1
  Se  Se133  1  0.25562205  0.24852386  0.05037729  1
  Se  Se134  1  0.24686602  0.24498783  0.56078757  1
  Se  Se135  1  0.25432312  0.59621594  0.04737863  1
  Se  Se136  1  0.25575157  0.58232511  0.55769557  1
  Se  Se137  1  0.24907102  0.93131081  0.06305764  1
  Se  Se138  1  0.24844919  0.91461998  0.55626295  1
  Se  Se139  1  0.59040997  0.24536695  0.06908270  1
  Se  Se140  1  0.57910765  0.25481884  0.54949397  1
  Se  Se141  1  0.58836058  0.59651110  0.05623589  1
  Se  Se142  1  0.58622572  0.58774730  0.55971855  1
  Se  Se143  1  0.57876340  0.91350921  0.05142798  1
  Se  Se144  1  0.59472444  0.93285680  0.55140575  1
  Se  Se145  1  0.91110316  0.23987795  0.04180230  1
  Se  Se146  1  0.91499993  0.24990554  0.54840677  1
  Se  Se147  1  0.92745192  0.58721671  0.07072531  1
  Se  Se148  1  0.92321381  0.58808668  0.56356338  1
  Se  Se149  1  0.91448982  0.90215136  0.05301386  1
  Se  Se150  1  0.92299539  0.91957192  0.54843290  1
  Se  Se151  1  0.08984948  0.24730048  0.44022898  1
  Se  Se152  1  0.09090186  0.23986630  0.94822393  1
  Se  Se153  1  0.06741125  0.58335094  0.44116792  1
  Se  Se154  1  0.08598745  0.59339839  0.95426862  1
  Se  Se155  1  0.08787900  0.91383493  0.44735248  1
  Se  Se156  1  0.07088613  0.92963251  0.94156745  1
  Se  Se157  1  0.41749667  0.24342315  0.45137543  1
  Se  Se158  1  0.41194960  0.25503206  0.93950980  1
  Se  Se159  1  0.40404528  0.59553422  0.43451656  1
  Se  Se160  1  0.40998671  0.58929436  0.92721231  1
  Se  Se161  1  0.41739050  0.91392286  0.45138561  1
  Se  Se162  1  0.41760476  0.91878680  0.94793421  1
  Se  Se163  1  0.75873670  0.25647315  0.44678809  1
  Se  Se164  1  0.74838034  0.23695650  0.95037592  1
  Se  Se165  1  0.74305561  0.59965565  0.44559766  1
  Se  Se166  1  0.74347853  0.58494788  0.93898115  1
  Se  Se167  1  0.76266698  0.92178845  0.45233996  1
  Se  Se168  1  0.75264902  0.91310762  0.94009173  1
  Se  Se169  1  0.25010105  0.07951152  0.45063663  1
  Se  Se170  1  0.25522688  0.08450421  0.94228176  1
  Se  Se171  1  0.25173906  0.39885482  0.43951395  1
  Se  Se172  1  0.24461173  0.42452415  0.94338066  1
  Se  Se173  1  0.24691171  0.74874992  0.44804762  1
  Se  Se174  1  0.25410019  0.75412186  0.93485003  1
  Se  Se175  1  0.57221353  0.09039649  0.45615617  1
  Se  Se176  1  0.58835095  0.07480883  0.93976227  1
  Se  Se177  1  0.59147426  0.41191419  0.43684362  1
  Se  Se178  1  0.59564359  0.40277455  0.94976977  1
  Se  Se179  1  0.57825296  0.75946383  0.45380264  1
  Se  Se180  1  0.57894208  0.75656142  0.93909270  1
  Se  Se181  1  0.92503728  0.08892750  0.44133378  1
  Se  Se182  1  0.91031260  0.08850105  0.94499406  1
  Se  Se183  1  0.92723197  0.41295125  0.43841969  1
  Se  Se184  1  0.92305255  0.40963387  0.94583396  1
  Se  Se185  1  0.91629539  0.75369541  0.45500923  1
  Se  Se186  1  0.91256327  0.74740387  0.95225071  1
  Se  Se187  1  0.25282633  0.24039325  0.30074147  1
  Se  Se188  1  0.26762790  0.27323544  0.80859559  1
  Se  Se189  1  0.23285900  0.57210865  0.30837259  1
  Se  Se190  1  0.24601046  0.58854699  0.79970121  1
  Se  Se191  1  0.24158015  0.90964369  0.31290399  1
  Se  Se192  1  0.25111483  0.92466904  0.80301436  1
  Se  Se193  1  0.58522226  0.23917847  0.31966662  1
  Se  Se194  1  0.57374928  0.24091858  0.81091699  1
  Se  Se195  1  0.56509134  0.57633151  0.30261552  1
  Se  Se196  1  0.59066495  0.58629309  0.79844138  1
  Se  Se197  1  0.58701915  0.91949912  0.30948906  1
  Se  Se198  1  0.58622725  0.92014575  0.80015170  1
  Se  Se199  1  0.93545576  0.26132186  0.29460779  1
  Se  Se200  1  0.91295126  0.24200258  0.80308262  1
  Se  Se201  1  0.90939528  0.58479684  0.30436817  1
  Se  Se202  1  0.91633925  0.57380831  0.81859415  1
  Se  Se203  1  0.92006300  0.91950890  0.30740420  1
  Se  Se204  1  0.91364510  0.91138726  0.80814331  1
  Se  Se205  1  0.08567730  0.08245217  0.30101717  1
  Se  Se206  1  0.09135322  0.09694150  0.80621622  1
  Se  Se207  1  0.08864897  0.41849996  0.29046542  1
  Se  Se208  1  0.08259332  0.41517935  0.80934076  1
  Se  Se209  1  0.07646289  0.75012859  0.31049796  1
  Se  Se210  1  0.08952061  0.76181505  0.80793346  1
  Se  Se211  1  0.42298891  0.08517092  0.31843088  1
  Se  Se212  1  0.41829159  0.07838529  0.79993591  1
  Se  Se213  1  0.40946502  0.40908161  0.30322804  1
  Se  Se214  1  0.42095993  0.41841679  0.79848156  1
  Se  Se215  1  0.42234590  0.75804828  0.30679121  1
  Se  Se216  1  0.41571407  0.75447554  0.79833737  1
  Se  Se217  1  0.74852133  0.08718761  0.31213692  1
  Se  Se218  1  0.74615701  0.07560607  0.79662632  1
  Se  Se219  1  0.75265074  0.42262250  0.31188148  1
  Se  Se220  1  0.75726080  0.41239396  0.81683165  1
  Se  Se221  1  0.75034672  0.76392097  0.31627089  1
  Se  Se222  1  0.75083603  0.75080149  0.79892270  1
  Se  Se223  1  0.24344008  0.08000716  0.18501373  1
  Se  Se224  1  0.23640045  0.08956245  0.70112677  1
  Se  Se225  1  0.25779626  0.39537909  0.19059168  1
  Se  Se226  1  0.24832332  0.41377122  0.70027493  1
  Se  Se227  1  0.24187524  0.76034062  0.19150053  1
  Se  Se228  1  0.25277964  0.75183305  0.69619817  1
  Se  Se229  1  0.58476033  0.07421448  0.20499881  1
  Se  Se230  1  0.58594959  0.08431171  0.69170039  1
  Se  Se231  1  0.57374788  0.41788044  0.19057700  1
  Se  Se232  1  0.57945371  0.42294474  0.68693560  1
  Se  Se233  1  0.57858640  0.75996510  0.18552432  1
  Se  Se234  1  0.58564199  0.75112068  0.69360352  1
  Se  Se235  1  0.93697156  0.06739990  0.18121404  1
  Se  Se236  1  0.90680574  0.08282807  0.68275235  1
  Se  Se237  1  0.91333026  0.42285301  0.19527267  1
  Se  Se238  1  0.91614714  0.41041219  0.70460251  1
  Se  Se239  1  0.90938720  0.74876014  0.20700168  1
  Se  Se240  1  0.91936183  0.76031198  0.69040989  1
  Se  Se241  1  0.08300562  0.24138885  0.18466285  1
  Se  Se242  1  0.05593276  0.26030312  0.69370597  1
  Se  Se243  1  0.08244206  0.60259510  0.20222425  1
  Se  Se244  1  0.08673007  0.57505459  0.68862222  1
  Se  Se245  1  0.08209509  0.92083563  0.20092589  1
  Se  Se246  1  0.08502078  0.91030667  0.68856867  1
  Se  Se247  1  0.42030998  0.24465532  0.20728511  1
  Se  Se248  1  0.41170942  0.24885067  0.69833500  1
  Se  Se249  1  0.40756498  0.57640321  0.18432757  1
  Se  Se250  1  0.41246132  0.58554341  0.69703311  1
  Se  Se251  1  0.41828874  0.91123806  0.19173942  1
  Se  Se252  1  0.41702947  0.91962661  0.69502679  1
  Se  Se253  1  0.76438415  0.23855301  0.19337385  1
  Se  Se254  1  0.74681033  0.23758304  0.68385798  1
  Se  Se255  1  0.74768789  0.58138201  0.18894012  1
  Se  Se256  1  0.75693795  0.58443793  0.70525251  1
  Se  Se257  1  0.74997721  0.92307400  0.19494150  1
  Se  Se258  1  0.74831664  0.92028484  0.69184481  1
