# generated using pymatgen
data_In86Cu29Se144
_symmetry_space_group_name_H-M   'P 1'
_cell_length_a   17.57875674
_cell_length_b   17.57942120
_cell_length_c   23.43839554
_cell_angle_alpha   89.98133920
_cell_angle_beta   90.00547965
_cell_angle_gamma   90.00700002
_symmetry_Int_Tables_number   1
_chemical_formula_structural   In86Cu29Se144
_chemical_formula_sum   'In86 Cu29 Se144'
_cell_volume   7243.03491912
_cell_formula_units_Z   1
loop_
 _symmetry_equiv_pos_site_id
 _symmetry_equiv_pos_as_xyz
  1  'x, y, z'
loop_
 _atom_site_type_symbol
 _atom_site_label
 _atom_site_symmetry_multiplicity
 _atom_site_fract_x
 _atom_site_fract_y
 _atom_site_fract_z
 _atom_site_occupancy
  In  In0  1  -0.00049409  0.16038595  0.12235175  1
  In  In1  1  0.00095614  0.15737787  0.61396662  1
  In  In2  1  0.02374589  0.49968212  0.12728012  1
  In  In3  1  0.01460621  0.50080127  0.62761887  1
  In  In4  1  -0.00533354  0.83850499  0.13127009  1
  In  In5  1  -0.00833029  0.84896802  0.63532817  1
  In  In6  1  0.33991708  0.17680438  0.11979697  1
  In  In7  1  0.33043825  0.16518013  0.62581564  1
  In  In8  1  0.32959697  0.49254346  0.12888673  1
  In  In9  1  0.33299401  0.49895849  0.63172717  1
  In  In10  1  0.32922514  0.81824009  0.12060599  1
  In  In11  1  0.31157462  0.85350784  0.65385265  1
  In  In12  1  0.66055363  0.17157994  0.13594522  1
  In  In13  1  0.66654511  0.16342489  0.61713851  1
  In  In14  1  0.65165983  0.49578437  0.12527855  1
  In  In15  1  0.65607463  0.51354161  0.61936264  1
  In  In16  1  0.67538701  0.84378424  0.12051464  1
  In  In17  1  0.67623580  0.82454871  0.61905902  1
  In  In18  1  0.16051804  0.01294095  0.37871416  1
  In  In19  1  0.18669132  0.01247322  0.85099821  1
  In  In20  1  0.16347787  0.32394768  0.37073061  1
  In  In21  1  0.18112467  0.31512378  0.89223663  1
  In  In22  1  0.16775575  0.66575568  0.36629687  1
  In  In23  1  0.16067620  0.66593126  0.87194592  1
  In  In24  1  0.51232410  0.00147632  0.37441293  1
  In  In25  1  0.48909700  0.01303894  0.88671804  1
  In  In26  1  0.49927736  0.33294879  0.37551730  1
  In  In27  1  0.48249248  0.34375252  0.88709082  1
  In  In28  1  0.48323997  0.66651958  0.37339462  1
  In  In29  1  0.49770335  0.67110797  0.88778117  1
  In  In30  1  0.83924548  0.00096466  0.37438915  1
  In  In31  1  0.83695956  -0.01229694  0.87493234  1
  In  In32  1  0.81995354  0.33230998  0.36758077  1
  In  In33  1  0.83741471  0.33118843  0.87503229  1
  In  In34  1  0.84667463  0.66504569  0.36563003  1
  In  In35  1  0.85250394  0.67943915  0.87729670  1
  In  In36  1  0.00619168  0.15232776  0.38150715  1
  In  In37  1  0.03938064  0.16184768  0.86976038  1
  In  In38  1  -0.00593895  0.50842260  0.36296484  1
  In  In39  1  0.00377644  0.51343431  0.87979188  1
  In  In40  1  -0.01194033  0.83354455  0.36838719  1
  In  In41  1  0.00462413  0.83482055  0.87111625  1
  In  In42  1  0.32430985  0.17927996  0.38273377  1
  In  In43  1  0.32792965  0.17325229  0.87351650  1
  In  In44  1  0.34031621  0.50901840  0.36926158  1
  In  In45  1  0.33131764  0.49733220  0.87801014  1
  In  In46  1  0.33929289  0.82231860  0.37152972  1
  In  In47  1  0.33899680  0.83813752  0.87099220  1
  In  In48  1  0.66553571  0.16713771  0.37660534  1
  In  In49  1  0.66207905  0.15296578  0.87741822  1
  In  In50  1  0.66550051  0.47804610  0.36608610  1
  In  In51  1  0.66152367  0.48947676  0.88318583  1
  In  In52  1  0.67150373  0.85121534  0.36365029  1
  In  In53  1  0.67186795  0.83285704  0.88763788  1
  In  In54  1  0.15172692  0.00165606  0.12198791  1
  In  In55  1  0.15057237  0.01645276  0.64535633  1
  In  In56  1  0.18014526  0.35167953  0.10873382  1
  In  In57  1  0.18165012  0.33147613  0.62760423  1
  In  In58  1  0.17572346  0.65237368  0.13938932  1
  In  In59  1  0.15817509  0.68515156  0.64876341  1
  In  In60  1  0.50681602  0.01110059  0.11930117  1
  In  In61  1  0.48886074  0.00235765  0.62773581  1
  In  In62  1  0.49571366  0.32987690  0.12916191  1
  In  In63  1  0.48695045  0.32475897  0.61856961  1
  In  In64  1  0.48952249  0.65002731  0.11618883  1
  In  In65  1  0.49248183  0.66193011  0.62029575  1
  In  In66  1  0.84134831  -0.01566366  0.13997941  1
  In  In67  1  0.85420406  0.00770025  0.60202438  1
  In  In68  1  0.83144782  0.32023179  0.13189624  1
  In  In69  1  0.84593922  0.32914925  0.61675825  1
  In  In70  1  0.83655114  0.68600015  0.12970329  1
  In  In71  1  0.83869657  0.68318452  0.61589013  1
  In  In72  1  0.66488108  -0.00485088  0.74578138  1
  In  In73  1  0.17430561  0.49638942  0.50319293  1
  In  In74  1  0.16052419  0.84118069  0.51059957  1
  In  In75  1  0.66226477  0.66760156  0.74708741  1
  In  In76  1  0.16287528  0.83492955  -0.00459126  1
  In  In77  1  0.00440306  0.33594531  0.24737987  1
  In  In78  1  0.50096879  0.83248953  0.50222237  1
  In  In79  1  0.66356581  0.66492006  0.24187919  1
  In  In80  1  0.83065060  0.50937966  0.00458134  1
  In  In81  1  0.83337446  0.16135636  0.00590202  1
  In  In82  1  0.66177129  0.33086275  0.74970318  1
  In  In83  1  0.82976830  0.49511366  0.48565044  1
  In  In84  1  0.33134633  -0.00381600  0.25102365  1
  In  In85  1  0.00802187  0.33221456  0.75353604  1
  Cu  Cu86  1  0.48763488  0.17456658  0.75489523  1
  Cu  Cu87  1  0.82917141  0.16214195  0.25362725  1
  Cu  Cu88  1  0.00272346  0.31807638  0.49358087  1
  Cu  Cu89  1  0.49549034  0.49326165  0.24738533  1
  Cu  Cu90  1  0.15760877  0.83428826  0.24784500  1
  Cu  Cu91  1  0.33397765  0.65607394  0.00287877  1
  Cu  Cu92  1  0.33789619  0.00980082  0.50200113  1
  Cu  Cu93  1  0.65566534  0.32569788  0.00598037  1
  Cu  Cu94  1  0.16924945  0.50135211  0.75607259  1
  Cu  Cu95  1  0.49847584  0.16912600  0.25219168  1
  Cu  Cu96  1  0.84001429  0.83416387  0.74685898  1
  Cu  Cu97  1  0.49387479  0.49506931  0.75477592  1
  Cu  Cu98  1  0.83887839  0.51033049  0.75224365  1
  Cu  Cu99  1  0.67143577  0.00224566  0.49298294  1
  Cu  Cu100  1  0.33100511  0.66830238  0.50399724  1
  Cu  Cu101  1  0.16579941  0.16710708  0.25094761  1
  Cu  Cu102  1  0.84304910  0.16094756  0.74137141  1
  Cu  Cu103  1  0.49949345  0.83637593  0.75969194  1
  Cu  Cu104  1  0.66805805  0.66877476  0.00788151  1
  Cu  Cu105  1  0.00043737  0.00318373  -0.00053617  1
  Cu  Cu106  1  0.66258628  0.33516781  0.49414652  1
  Cu  Cu107  1  0.33156125  0.00218367  -0.00735216  1
  Cu  Cu108  1  0.66604949  -0.00138150  0.00508720  1
  Cu  Cu109  1  -0.00333899  0.66422344  0.49668490  1
  Cu  Cu110  1  0.34046611  0.33285853  0.50255415  1
  Cu  Cu111  1  0.66284578  0.66726030  0.49303442  1
  Cu  Cu112  1  0.00506224  0.67643673  0.00107642  1
  Cu  Cu113  1  0.49759758  0.82842779  0.24585554  1
  Cu  Cu114  1  0.33625587  0.33073166  0.00278969  1
  Se  Se115  1  0.08510318  0.08934961  0.04804569  1
  Se  Se116  1  0.08956775  0.06962179  0.55492645  1
  Se  Se117  1  0.07982567  0.42042004  0.04636553  1
  Se  Se118  1  0.07651220  0.40202975  0.55604535  1
  Se  Se119  1  0.08619389  0.74881138  0.06710783  1
  Se  Se120  1  0.07630716  0.73698284  0.56171547  1
  Se  Se121  1  0.41174060  0.08220539  0.05286191  1
  Se  Se122  1  0.42269121  0.09057650  0.55527220  1
  Se  Se123  1  0.41670162  0.41459668  0.05881546  1
  Se  Se124  1  0.41428330  0.42451959  0.55631406  1
  Se  Se125  1  0.41662680  0.74634073  0.05015061  1
  Se  Se126  1  0.40230566  0.75742026  0.56414219  1
  Se  Se127  1  0.74552296  0.07581333  0.06914495  1
  Se  Se128  1  0.75257940  0.08705669  0.54801656  1
  Se  Se129  1  0.74492200  0.40562112  0.05945294  1
  Se  Se130  1  0.74248772  0.41392042  0.55873309  1
  Se  Se131  1  0.75492707  0.75488479  0.05296911  1
  Se  Se132  1  0.75044813  0.74930559  0.54223259  1
  Se  Se133  1  0.24663344  0.24476560  0.04984826  1
  Se  Se134  1  0.25279673  0.25011340  0.55295583  1
  Se  Se135  1  0.24805533  0.58018011  0.05964660  1
  Se  Se136  1  0.24730235  0.59431217  0.56675696  1
  Se  Se137  1  0.25463575  0.92451494  0.05833194  1
  Se  Se138  1  0.26272205  0.92484932  0.56209468  1
  Se  Se139  1  0.57684671  0.24154994  0.06067602  1
  Se  Se140  1  0.58461329  0.25354011  0.55453546  1
  Se  Se141  1  0.58337679  0.57702795  0.04878908  1
  Se  Se142  1  0.57629536  0.58860383  0.54602493  1
  Se  Se143  1  0.57872908  0.91440109  0.05417358  1
  Se  Se144  1  0.59268911  0.92688164  0.56048000  1
  Se  Se145  1  0.92378573  0.26057393  0.05593854  1
  Se  Se146  1  0.91450504  0.24097122  0.54671203  1
  Se  Se147  1  0.92496456  0.59568052  0.06248283  1
  Se  Se148  1  0.92006177  0.57707299  0.55566815  1
  Se  Se149  1  0.92030842  0.92249489  0.05756889  1
  Se  Se150  1  0.91186698  0.89332326  0.55015692  1
  Se  Se151  1  0.09367081  0.24010553  0.44462135  1
  Se  Se152  1  0.06410458  0.26144263  0.94594392  1
  Se  Se153  1  0.07987791  0.58316672  0.44099967  1
  Se  Se154  1  0.08773802  0.58972042  0.95118539  1
  Se  Se155  1  0.07466515  0.91940157  0.44018387  1
  Se  Se156  1  0.08503636  0.93298273  0.93478249  1
  Se  Se157  1  0.42194363  0.24846680  0.44807717  1
  Se  Se158  1  0.41534369  0.24194920  0.94917378  1
  Se  Se159  1  0.41237844  0.58547737  0.44937765  1
  Se  Se160  1  0.41920120  0.57526038  0.94833169  1
  Se  Se161  1  0.40933592  0.92331657  0.44013736  1
  Se  Se162  1  0.41638908  0.91230376  0.94769203  1
  Se  Se163  1  0.74995967  0.25315175  0.44467776  1
  Se  Se164  1  0.74082247  0.25432266  0.94253482  1
  Se  Se165  1  0.73954363  0.58862844  0.42930820  1
  Se  Se166  1  0.74501269  0.59714942  0.93658369  1
  Se  Se167  1  0.75146856  0.91495972  0.44228808  1
  Se  Se168  1  0.75473228  0.92056089  0.95187142  1
  Se  Se169  1  0.24925242  0.08534740  0.44802065  1
  Se  Se170  1  0.24561127  0.08077719  0.93837237  1
  Se  Se171  1  0.25878695  0.40904661  0.43857354  1
  Se  Se172  1  0.25192889  0.41722245  0.95150493  1
  Se  Se173  1  0.24889463  0.74772484  0.44490683  1
  Se  Se174  1  0.25823649  0.74238228  0.94265474  1
  Se  Se175  1  0.58119789  0.08603395  0.44824504  1
  Se  Se176  1  0.58305561  0.08530296  0.95452686  1
  Se  Se177  1  0.57961143  0.42156845  0.44496205  1
  Se  Se178  1  0.57780354  0.41537811  0.95385941  1
  Se  Se179  1  0.58617976  0.75089736  0.43164407  1
  Se  Se180  1  0.58482964  0.75284802  0.95334060  1
  Se  Se181  1  0.91142889  0.08544763  0.44802816  1
  Se  Se182  1  0.92213688  0.08383170  0.93602911  1
  Se  Se183  1  0.92897447  0.40505554  0.43365388  1
  Se  Se184  1  0.91730772  0.41789434  0.94285731  1
  Se  Se185  1  0.91552455  0.74610374  0.44222311  1
  Se  Se186  1  0.92366956  0.76372642  0.95010236  1
  Se  Se187  1  0.25214262  0.24938017  0.30125128  1
  Se  Se188  1  0.23702842  0.24768281  0.80570916  1
  Se  Se189  1  0.25583106  0.58842972  0.30197082  1
  Se  Se190  1  0.25300600  0.58432198  0.80925890  1
  Se  Se191  1  0.23919830  0.90882929  0.31355183  1
  Se  Se192  1  0.23920174  0.89291873  0.80215437  1
  Se  Se193  1  0.58368269  0.25096612  0.30669957  1
  Se  Se194  1  0.57459672  0.24695640  0.81563952  1
  Se  Se195  1  0.57439370  0.57837316  0.30756630  1
  Se  Se196  1  0.57949336  0.57444632  0.81128563  1
  Se  Se197  1  0.57565469  0.91811951  0.29611172  1
  Se  Se198  1  0.58182393  0.91546781  0.81805626  1
  Se  Se199  1  0.91774180  0.24279749  0.31001918  1
  Se  Se200  1  0.91556170  0.23707673  0.80965608  1
  Se  Se201  1  0.90846920  0.57714607  0.29179760  1
  Se  Se202  1  0.92162768  0.58984732  0.80644166  1
  Se  Se203  1  0.91382218  0.92090344  0.29934914  1
  Se  Se204  1  0.92099858  0.91893940  0.80059138  1
  Se  Se205  1  0.08146877  0.08241262  0.30083932  1
  Se  Se206  1  0.07650305  0.07004221  0.79111716  1
  Se  Se207  1  0.09643525  0.42766070  0.30594684  1
  Se  Se208  1  0.09156814  0.42060347  0.81786650  1
  Se  Se209  1  0.07896311  0.75048506  0.30517243  1
  Se  Se210  1  0.07959263  0.74701031  0.80345167  1
  Se  Se211  1  0.41678964  0.08862271  0.31280035  1
  Se  Se212  1  0.41317212  0.08347479  0.80838934  1
  Se  Se213  1  0.41417666  0.41270070  0.30547164  1
  Se  Se214  1  0.41034471  0.41138230  0.80601848  1
  Se  Se215  1  0.41225750  0.74465481  0.29534569  1
  Se  Se216  1  0.42333804  0.74451451  0.80994929  1
  Se  Se217  1  0.74604111  0.08118177  0.30871239  1
  Se  Se218  1  0.75796387  0.08782692  0.80420247  1
  Se  Se219  1  0.76303906  0.42586100  0.29541177  1
  Se  Se220  1  0.75723813  0.42585308  0.80637952  1
  Se  Se221  1  0.75238186  0.75285718  0.30350179  1
  Se  Se222  1  0.75453103  0.75819174  0.80675797  1
  Se  Se223  1  0.24547645  0.08663285  0.18839046  1
  Se  Se224  1  0.26518566  0.07316165  0.69732066  1
  Se  Se225  1  0.24511622  0.40897258  0.19550712  1
  Se  Se226  1  0.24948002  0.41743565  0.70094451  1
  Se  Se227  1  0.24865272  0.75455419  0.19953694  1
  Se  Se228  1  0.28333321  0.72257886  0.69701027  1
  Se  Se229  1  0.57891644  0.08123258  0.20076189  1
  Se  Se230  1  0.57486837  0.09803576  0.69593214  1
  Se  Se231  1  0.58287307  0.41009812  0.19883970  1
  Se  Se232  1  0.57581200  0.42386533  0.68950518  1
  Se  Se233  1  0.57325738  0.75113988  0.18012840  1
  Se  Se234  1  0.57290570  0.76291688  0.68982424  1
  Se  Se235  1  0.91633962  0.08848605  0.19604597  1
  Se  Se236  1  0.92036982  0.07653406  0.68675812  1
  Se  Se237  1  0.91428748  0.42305424  0.18524656  1
  Se  Se238  1  0.91172133  0.42246536  0.69228595  1
  Se  Se239  1  0.91621146  0.75793016  0.20347009  1
  Se  Se240  1  0.91949036  0.74498543  0.69518439  1
  Se  Se241  1  0.09169161  0.24708680  0.18544089  1
  Se  Se242  1  0.08646694  0.24360544  0.68614708  1
  Se  Se243  1  0.07156542  0.59336914  0.20316478  1
  Se  Se244  1  0.08101594  0.58162110  0.70405369  1
  Se  Se245  1  0.07961174  0.92428198  0.19815926  1
  Se  Se246  1  0.11692422  0.88323286  0.68537268  1
  Se  Se247  1  0.41150807  0.24920512  0.19982530  1
  Se  Se248  1  0.40891158  0.25508096  0.69612729  1
  Se  Se249  1  0.41439172  0.58028832  0.19539679  1
  Se  Se250  1  0.42114448  0.58299340  0.69705027  1
  Se  Se251  1  0.41812689  0.91106061  0.18518155  1
  Se  Se252  1  0.42129354  0.92461357  0.70614914  1
  Se  Se253  1  0.74661020  0.25067941  0.20516824  1
  Se  Se254  1  0.75955207  0.24544681  0.68936211  1
  Se  Se255  1  0.75410315  0.57681180  0.18171592  1
  Se  Se256  1  0.75851454  0.58141664  0.68692859  1
  Se  Se257  1  0.73978637  0.91711848  0.20168144  1
  Se  Se258  1  0.76012778  0.91343813  0.68501826  1
