# generated using pymatgen
data_In86Cu29Se144
_symmetry_space_group_name_H-M   'P 1'
_cell_length_a   17.57941752
_cell_length_b   17.58254391
_cell_length_c   23.44326804
_cell_angle_alpha   89.98423886
_cell_angle_beta   90.03110502
_cell_angle_gamma   89.97492609
_symmetry_Int_Tables_number   1
_chemical_formula_structural   In86Cu29Se144
_chemical_formula_sum   'In86 Cu29 Se144'
_cell_volume   7246.09832233
_cell_formula_units_Z   1
loop_
 _symmetry_equiv_pos_site_id
 _symmetry_equiv_pos_as_xyz
  1  'x, y, z'
loop_
 _atom_site_type_symbol
 _atom_site_label
 _atom_site_symmetry_multiplicity
 _atom_site_fract_x
 _atom_site_fract_y
 _atom_site_fract_z
 _atom_site_occupancy
  In  In0  1  0.02140350  0.16397996  0.12185987  1
  In  In1  1  -0.00506745  0.16061462  0.61938561  1
  In  In2  1  -0.00562932  0.49446925  0.11617564  1
  In  In3  1  0.01185331  0.51049034  0.63151222  1
  In  In4  1  0.00214338  0.82291879  0.12513964  1
  In  In5  1  0.00731014  0.83572882  0.62582477  1
  In  In6  1  0.33018680  0.18222794  0.12691155  1
  In  In7  1  0.32053191  0.16328747  0.61010606  1
  In  In8  1  0.33167620  0.49898172  0.11849685  1
  In  In9  1  0.34840805  0.50146031  0.63539688  1
  In  In10  1  0.32065885  0.81750997  0.12224221  1
  In  In11  1  0.33281294  0.83311117  0.62644213  1
  In  In12  1  0.65423802  0.15696435  0.13229342  1
  In  In13  1  0.66984883  0.17727522  0.62183322  1
  In  In14  1  0.66254939  0.48930684  0.10565120  1
  In  In15  1  0.64016828  0.50044362  0.63258449  1
  In  In16  1  0.66189957  0.84722529  0.13139875  1
  In  In17  1  0.66682368  0.83290035  0.61510295  1
  In  In18  1  0.16893206  -0.00410075  0.38265948  1
  In  In19  1  0.16978526  -0.00148553  0.87306172  1
  In  In20  1  0.16090887  0.32852783  0.36584989  1
  In  In21  1  0.17494049  0.33639076  0.89026408  1
  In  In22  1  0.17819716  0.66655721  0.37413070  1
  In  In23  1  0.17332677  0.66766984  0.87324494  1
  In  In24  1  0.50603204  -0.00623956  0.38230599  1
  In  In25  1  0.48252543  0.00380567  0.87133027  1
  In  In26  1  0.48210930  0.34551698  0.38986677  1
  In  In27  1  0.50785271  0.33793832  0.87695042  1
  In  In28  1  0.48723422  0.68002802  0.38497183  1
  In  In29  1  0.49140819  0.67299106  0.87876359  1
  In  In30  1  0.82994038  0.00448258  0.38035708  1
  In  In31  1  0.83604193  -0.01547994  0.86997338  1
  In  In32  1  0.83233545  0.31771206  0.37336366  1
  In  In33  1  0.82751114  0.34777459  0.87903486  1
  In  In34  1  0.84216924  0.67439805  0.37908940  1
  In  In35  1  0.83790728  0.65210102  0.87361998  1
  In  In36  1  -0.00369351  0.16756305  0.37951627  1
  In  In37  1  0.01552300  0.16801457  0.87141233  1
  In  In38  1  0.01705600  0.49872399  0.36762962  1
  In  In39  1  0.00357222  0.50588947  0.87473309  1
  In  In40  1  -0.00196230  0.83909820  0.38373448  1
  In  In41  1  0.01390026  0.84342618  0.86556546  1
  In  In42  1  0.31991980  0.18092556  0.38971090  1
  In  In43  1  0.33427077  0.15641386  0.87261653  1
  In  In44  1  0.33767345  0.50912104  0.36759148  1
  In  In45  1  0.32490498  0.50911038  0.88316084  1
  In  In46  1  0.33164008  0.83006934  0.37797342  1
  In  In47  1  0.33253792  0.83299612  0.87390432  1
  In  In48  1  0.67040681  0.16308219  0.38335747  1
  In  In49  1  0.65480761  0.17425611  0.87033880  1
  In  In50  1  0.65500453  0.48714425  0.37276026  1
  In  In51  1  0.66591902  0.49357892  0.88349802  1
  In  In52  1  0.66314298  0.84084993  0.37946333  1
  In  In53  1  0.66466176  0.82342910  0.87491371  1
  In  In54  1  0.16553778  -0.00432984  0.11768634  1
  In  In55  1  0.16973488  -0.00157573  0.62469070  1
  In  In56  1  0.17049516  0.33149784  0.11989105  1
  In  In57  1  0.18298449  0.32667865  0.62071286  1
  In  In58  1  0.17860922  0.67825523  0.11876245  1
  In  In59  1  0.15759326  0.67165123  0.63927518  1
  In  In60  1  0.50802019  0.00268517  0.13225635  1
  In  In61  1  0.48781843  -0.00969977  0.61851735  1
  In  In62  1  0.48794441  0.33609463  0.12222004  1
  In  In63  1  0.49764103  0.34553063  0.61684056  1
  In  In64  1  0.48828858  0.65427785  0.11830816  1
  In  In65  1  0.48790202  0.66027319  0.62117857  1
  In  In66  1  0.82303200  -0.01080355  0.13262232  1
  In  In67  1  0.84270541  0.00866082  0.61988646  1
  In  In68  1  0.83061317  0.34825901  0.12276939  1
  In  In69  1  0.83050902  0.31970375  0.62339065  1
  In  In70  1  0.84315941  0.66070465  0.12217582  1
  In  In71  1  0.83527837  0.67845802  0.62464185  1
  In  In72  1  0.66146103  0.32780217  0.24673739  1
  In  In73  1  0.17293851  0.49867143  0.50505468  1
  In  In74  1  0.33369987  0.33688417  0.75113870  1
  In  In75  1  0.49424572  0.17245821  0.00528833  1
  In  In76  1  0.66839255  0.66317998  0.75132484  1
  In  In77  1  0.66766315  0.00184021  0.73740157  1
  In  In78  1  0.83645877  0.17069514  -0.00636225  1
  In  In79  1  0.66540841  0.66635841  0.25305906  1
  In  In80  1  0.83584518  0.82620896  0.00433497  1
  In  In81  1  -0.00073017  0.00141436  0.25066464  1
  In  In82  1  0.82772963  0.49721703  0.49332543  1
  In  In83  1  0.00192868  0.33511958  0.75806575  1
  In  In84  1  0.33728258  -0.00183589  0.26061847  1
  In  In85  1  0.00344698  0.66549235  0.24401525  1
  Cu  Cu86  1  0.00440731  -0.00109380  0.50298320  1
  Cu  Cu87  1  0.00733205  0.66546476  -0.00267246  1
  Cu  Cu88  1  0.66759623  0.00273661  0.50281246  1
  Cu  Cu89  1  0.17459791  0.17126480  0.24864142  1
  Cu  Cu90  1  0.83299297  0.49516093  0.75356133  1
  Cu  Cu91  1  0.83520409  0.49844373  0.24073606  1
  Cu  Cu92  1  0.33195244  0.67006863  0.50309431  1
  Cu  Cu93  1  0.33393873  -0.00413855  0.49991083  1
  Cu  Cu94  1  0.66257510  0.66751108  0.50349366  1
  Cu  Cu95  1  0.17230283  0.83468608  0.75002696  1
  Cu  Cu96  1  0.00135397  0.32576908  0.49707790  1
  Cu  Cu97  1  0.66195752  0.33481690  0.50005268  1
  Cu  Cu98  1  0.17380448  0.49362348  0.24338837  1
  Cu  Cu99  1  0.49154462  0.17193369  0.74836777  1
  Cu  Cu100  1  0.66138481  0.66768369  -0.00440135  1
  Cu  Cu101  1  0.85201654  0.83052257  0.74488986  1
  Cu  Cu102  1  0.48776519  0.50318791  0.24833248  1
  Cu  Cu103  1  0.83192179  0.16647640  0.74503690  1
  Cu  Cu104  1  0.33200363  -0.00505148  -0.00298505  1
  Cu  Cu105  1  0.83822214  0.16613586  0.25656111  1
  Cu  Cu106  1  0.00372872  0.33490141  -0.00227088  1
  Cu  Cu107  1  0.00907139  -0.00323305  -0.00407122  1
  Cu  Cu108  1  0.65878360  0.00025733  0.00570940  1
  Cu  Cu109  1  0.50047446  0.16733666  0.25615872  1
  Cu  Cu110  1  0.16581334  0.16022336  0.74586119  1
  Cu  Cu111  1  0.49310023  0.82764518  0.25578079  1
  Cu  Cu112  1  0.00187077  0.67499679  0.50544924  1
  Cu  Cu113  1  0.49872208  0.83483356  0.74916040  1
  Cu  Cu114  1  0.33300703  0.66926546  -0.00181040  1
  Se  Se115  1  0.09158247  0.08304513  0.04664620  1
  Se  Se116  1  0.08751026  0.08417937  0.55518768  1
  Se  Se117  1  0.08683907  0.41751967  0.05188238  1
  Se  Se118  1  0.07402248  0.40838783  0.56085796  1
  Se  Se119  1  0.08431804  0.75323659  0.05116971  1
  Se  Se120  1  0.09157097  0.74982379  0.55875760  1
  Se  Se121  1  0.40752312  0.07475493  0.06332980  1
  Se  Se122  1  0.41705860  0.08260366  0.54990922  1
  Se  Se123  1  0.42162121  0.42240943  0.05061026  1
  Se  Se124  1  0.39913473  0.41715960  0.55489235  1
  Se  Se125  1  0.41684936  0.75186123  0.05356680  1
  Se  Se126  1  0.41807669  0.75462364  0.55414987  1
  Se  Se127  1  0.74640565  0.07999062  0.05858895  1
  Se  Se128  1  0.75012242  0.08713466  0.55660643  1
  Se  Se129  1  0.76031598  0.41865325  0.04377872  1
  Se  Se130  1  0.74229080  0.41575608  0.56177611  1
  Se  Se131  1  0.73827150  0.74287063  0.06357705  1
  Se  Se132  1  0.75316275  0.74900866  0.54995575  1
  Se  Se133  1  0.24704118  0.24336733  0.05083558  1
  Se  Se134  1  0.25172293  0.25670379  0.54117731  1
  Se  Se135  1  0.24835673  0.58540749  0.05102656  1
  Se  Se136  1  0.25454636  0.59190528  0.56708444  1
  Se  Se137  1  0.25055700  0.91149542  0.05293586  1
  Se  Se138  1  0.25046357  0.91385372  0.55530731  1
  Se  Se139  1  0.59378773  0.25650070  0.06258135  1
  Se  Se140  1  0.57929611  0.25227345  0.55420764  1
  Se  Se141  1  0.57898168  0.58298206  0.04842194  1
  Se  Se142  1  0.57895011  0.58286090  0.55368600  1
  Se  Se143  1  0.57629704  0.91630096  0.05709847  1
  Se  Se144  1  0.58136324  0.91716077  0.55141710  1
  Se  Se145  1  0.92480485  0.25426179  0.05983905  1
  Se  Se146  1  0.91434549  0.24727263  0.55082665  1
  Se  Se147  1  0.91745309  0.58416773  0.04711273  1
  Se  Se148  1  0.92125890  0.58373292  0.55626905  1
  Se  Se149  1  0.92410009  0.92647048  0.05970923  1
  Se  Se150  1  0.92024391  0.91543926  0.55654937  1
  Se  Se151  1  0.08836293  0.24861935  0.44257184  1
  Se  Se152  1  0.08490880  0.24636920  0.94790801  1
  Se  Se153  1  0.07807301  0.59060800  0.44468902  1
  Se  Se154  1  0.09039658  0.58324452  0.94335863  1
  Se  Se155  1  0.08748273  0.91317130  0.45178636  1
  Se  Se156  1  0.09094859  0.91189666  0.94429763  1
  Se  Se157  1  0.42736843  0.23830161  0.45095927  1
  Se  Se158  1  0.40803446  0.25500960  0.93874856  1
  Se  Se159  1  0.41086348  0.58372693  0.44718325  1
  Se  Se160  1  0.41934540  0.58472410  0.94943367  1
  Se  Se161  1  0.41608093  0.91154654  0.44583868  1
  Se  Se162  1  0.41880326  0.91519951  0.94448146  1
  Se  Se163  1  0.75091980  0.25259529  0.45043620  1
  Se  Se164  1  0.73635595  0.25724941  0.94267477  1
  Se  Se165  1  0.73642569  0.59063818  0.43511260  1
  Se  Se166  1  0.74932516  0.58618642  0.94555582  1
  Se  Se167  1  0.75033505  0.91827879  0.44873131  1
  Se  Se168  1  0.74203340  0.92099144  0.94606071  1
  Se  Se169  1  0.24708537  0.08113221  0.45081848  1
  Se  Se170  1  0.25113336  0.08132972  0.94454514  1
  Se  Se171  1  0.25014730  0.41691998  0.43266601  1
  Se  Se172  1  0.25797601  0.41827917  0.95506861  1
  Se  Se173  1  0.24671984  0.75050274  0.44894673  1
  Se  Se174  1  0.24965525  0.75361236  0.94509034  1
  Se  Se175  1  0.58227283  0.08407502  0.44996072  1
  Se  Se176  1  0.58333306  0.07896508  0.94163201  1
  Se  Se177  1  0.57831456  0.42327533  0.45262912  1
  Se  Se178  1  0.58210812  0.41383494  0.95218389  1
  Se  Se179  1  0.58353730  0.75359558  0.44745470  1
  Se  Se180  1  0.57911158  0.75572402  0.94714429  1
  Se  Se181  1  0.91932708  0.08133619  0.44815922  1
  Se  Se182  1  0.92327095  0.07237124  0.93739779  1
  Se  Se183  1  0.92781929  0.41234456  0.43626079  1
  Se  Se184  1  0.92262458  0.41883646  0.94324559  1
  Se  Se185  1  0.91530607  0.75512794  0.45248643  1
  Se  Se186  1  0.92498040  0.74702447  0.93678557  1
  Se  Se187  1  0.25843313  0.25127150  0.30361253  1
  Se  Se188  1  0.23975095  0.24394850  0.80837352  1
  Se  Se189  1  0.24702603  0.58330506  0.29894518  1
  Se  Se190  1  0.26099785  0.59035456  0.80495276  1
  Se  Se191  1  0.23709565  0.90699687  0.30721628  1
  Se  Se192  1  0.25491071  0.91948985  0.80345302  1
  Se  Se193  1  0.57742958  0.25062309  0.31771825  1
  Se  Se194  1  0.57657666  0.25406503  0.79942151  1
  Se  Se195  1  0.56943517  0.57925949  0.31069105  1
  Se  Se196  1  0.57971214  0.58052004  0.81428659  1
  Se  Se197  1  0.57795521  0.91276348  0.30549529  1
  Se  Se198  1  0.58299292  0.91542435  0.80668458  1
  Se  Se199  1  0.92483170  0.25079839  0.30319876  1
  Se  Se200  1  0.90561918  0.24368149  0.81367918  1
  Se  Se201  1  0.90995835  0.57582077  0.30665325  1
  Se  Se202  1  0.92033066  0.58035117  0.79963732  1
  Se  Se203  1  0.90953712  0.91218690  0.30957797  1
  Se  Se204  1  0.92562202  0.92204532  0.79713775  1
  Se  Se205  1  0.09450612  0.08940173  0.30851197  1
  Se  Se206  1  0.08352552  0.07821352  0.80114591  1
  Se  Se207  1  0.08419065  0.41400278  0.29392979  1
  Se  Se208  1  0.09946817  0.41947484  0.81268420  1
  Se  Se209  1  0.08257243  0.75357490  0.31238150  1
  Se  Se210  1  0.08841598  0.74910556  0.80221905  1
  Se  Se211  1  0.42084186  0.09228876  0.31968465  1
  Se  Se212  1  0.41029718  0.08199674  0.79533420  1
  Se  Se213  1  0.41533612  0.41262401  0.30421912  1
  Se  Se214  1  0.41866807  0.42500617  0.81358456  1
  Se  Se215  1  0.40757314  0.74483051  0.30524831  1
  Se  Se216  1  0.41727453  0.75188397  0.80344951  1
  Se  Se217  1  0.75113865  0.08733424  0.30846751  1
  Se  Se218  1  0.75276566  0.08660547  0.80925342  1
  Se  Se219  1  0.75704830  0.41985286  0.30485216  1
  Se  Se220  1  0.74401191  0.41808732  0.80494405  1
  Se  Se221  1  0.75616576  0.75645174  0.31020350  1
  Se  Se222  1  0.76554266  0.75746743  0.80605005  1
  Se  Se223  1  0.24850763  0.08203078  0.19138170  1
  Se  Se224  1  0.25452086  0.08561802  0.69086752  1
  Se  Se225  1  0.25649521  0.41044765  0.18986151  1
  Se  Se226  1  0.23906018  0.42562165  0.69288591  1
  Se  Se227  1  0.24464722  0.74939656  0.20072884  1
  Se  Se228  1  0.25582965  0.74948121  0.69855259  1
  Se  Se229  1  0.58416272  0.07884115  0.20917753  1
  Se  Se230  1  0.57113953  0.09213219  0.68546488  1
  Se  Se231  1  0.57804104  0.42858258  0.19095219  1
  Se  Se232  1  0.57497591  0.40699133  0.69934317  1
  Se  Se233  1  0.57203260  0.75036550  0.19082210  1
  Se  Se234  1  0.58235520  0.75650215  0.69037856  1
  Se  Se235  1  0.91239502  0.09201271  0.18634801  1
  Se  Se236  1  0.91930879  0.08451936  0.69660197  1
  Se  Se237  1  0.92252711  0.41408516  0.19390772  1
  Se  Se238  1  0.91248037  0.41795268  0.68911258  1
  Se  Se239  1  0.90225183  0.75931740  0.19533896  1
  Se  Se240  1  0.93019184  0.74175089  0.69386626  1
  Se  Se241  1  0.08853049  0.25081724  0.19434992  1
  Se  Se242  1  0.08707538  0.24786069  0.68964809  1
  Se  Se243  1  0.09142517  0.57579870  0.18347336  1
  Se  Se244  1  0.08846577  0.57805123  0.70776201  1
  Se  Se245  1  0.08897389  0.90911785  0.19252902  1
  Se  Se246  1  0.08773090  0.91832728  0.69646971  1
  Se  Se247  1  0.42286147  0.24902214  0.19764469  1
  Se  Se248  1  0.41178652  0.24601666  0.68368124  1
  Se  Se249  1  0.40607467  0.58512193  0.19367691  1
  Se  Se250  1  0.42599171  0.58689634  0.70310423  1
  Se  Se251  1  0.41745311  0.90957685  0.19207430  1
  Se  Se252  1  0.41438861  0.91834002  0.69719693  1
  Se  Se253  1  0.75932103  0.24106712  0.18895982  1
  Se  Se254  1  0.74627982  0.25293485  0.69950338  1
  Se  Se255  1  0.74814752  0.57484267  0.18549810  1
  Se  Se256  1  0.75700472  0.57409678  0.68676656  1
  Se  Se257  1  0.74334459  0.91713524  0.20534347  1
  Se  Se258  1  0.76228842  0.90596626  0.68775184  1
