# generated using pymatgen
data_In86Cu29Se144
_symmetry_space_group_name_H-M   'P 1'
_cell_length_a   17.57626594
_cell_length_b   17.56764498
_cell_length_c   23.42779684
_cell_angle_alpha   90.02282722
_cell_angle_beta   89.98567304
_cell_angle_gamma   89.99029477
_symmetry_Int_Tables_number   1
_chemical_formula_structural   In86Cu29Se144
_chemical_formula_sum   'In86 Cu29 Se144'
_cell_volume   7233.88427140
_cell_formula_units_Z   1
loop_
 _symmetry_equiv_pos_site_id
 _symmetry_equiv_pos_as_xyz
  1  'x, y, z'
loop_
 _atom_site_type_symbol
 _atom_site_label
 _atom_site_symmetry_multiplicity
 _atom_site_fract_x
 _atom_site_fract_y
 _atom_site_fract_z
 _atom_site_occupancy
  In  In0  1  0.00027770  0.16218740  0.10475118  1
  In  In1  1  0.00405563  0.16002144  0.64379301  1
  In  In2  1  0.00681841  0.48311040  0.12083043  1
  In  In3  1  -0.01601565  0.49195491  0.61979303  1
  In  In4  1  0.00235882  0.84581040  0.11228625  1
  In  In5  1  0.00788851  0.84310100  0.62387664  1
  In  In6  1  0.33906665  0.16898544  0.11527943  1
  In  In7  1  0.33570920  0.16151857  0.62774235  1
  In  In8  1  0.32815883  0.49791781  0.12996798  1
  In  In9  1  0.32739758  0.49825323  0.62772775  1
  In  In10  1  0.32836259  0.82935783  0.12411012  1
  In  In11  1  0.35268869  0.87092211  0.59603325  1
  In  In12  1  0.66652463  0.16868712  0.12451944  1
  In  In13  1  0.65773221  0.16948489  0.63729015  1
  In  In14  1  0.66732859  0.50043059  0.13284053  1
  In  In15  1  0.67132953  0.48296750  0.62533085  1
  In  In16  1  0.66682970  0.83068607  0.12653205  1
  In  In17  1  0.66556775  0.84746185  0.62590026  1
  In  In18  1  0.17486611  0.00048726  0.39434196  1
  In  In19  1  0.16838840  -0.00244878  0.87360695  1
  In  In20  1  0.17167485  0.32141295  0.37851413  1
  In  In21  1  0.16243326  0.33187035  0.87477331  1
  In  In22  1  0.18077208  0.66379669  0.36759058  1
  In  In23  1  0.15959644  0.68074921  0.88802006  1
  In  In24  1  0.49591996  -0.00528943  0.38524646  1
  In  In25  1  0.51936419  0.02741333  0.85031874  1
  In  In26  1  0.49523201  0.32506153  0.37093624  1
  In  In27  1  0.48086134  0.30035856  0.84917319  1
  In  In28  1  0.50218287  0.67055868  0.37022776  1
  In  In29  1  0.49074910  0.66474060  0.87727057  1
  In  In30  1  0.82300992  0.01467146  0.37548812  1
  In  In31  1  0.83713918  0.00504463  0.87647267  1
  In  In32  1  0.83527352  0.34280719  0.38164120  1
  In  In33  1  0.80670820  0.30199609  0.84380837  1
  In  In34  1  0.81313576  0.66684890  0.37691001  1
  In  In35  1  0.84828707  0.66770151  0.88072168  1
  In  In36  1  0.01773216  0.17931819  0.38211984  1
  In  In37  1  -0.00567797  0.16348255  0.87367759  1
  In  In38  1  -0.00556998  0.47690703  0.38214044  1
  In  In39  1  -0.00089135  0.50055504  0.87152107  1
  In  In40  1  0.00385230  0.84950482  0.37670351  1
  In  In41  1  -0.00995590  0.85184806  0.89786798  1
  In  In42  1  0.32576818  0.17080950  0.38523600  1
  In  In43  1  0.33194063  0.16135521  0.86941709  1
  In  In44  1  0.33726498  0.49924529  0.36364668  1
  In  In45  1  0.33225878  0.48736964  0.87727674  1
  In  In46  1  0.34011786  0.83384769  0.38082667  1
  In  In47  1  0.30930865  0.84519829  0.88708495  1
  In  In48  1  0.65653739  0.15609425  0.36764885  1
  In  In49  1  0.66985317  0.16300306  0.87272741  1
  In  In50  1  0.66635284  0.50116347  0.37549837  1
  In  In51  1  0.67952056  0.47385114  0.87659326  1
  In  In52  1  0.65846116  0.83076874  0.36930574  1
  In  In53  1  0.66068486  0.85478805  0.87656384  1
  In  In54  1  0.17014564  0.00244081  0.10585540  1
  In  In55  1  0.16409598  0.00051955  0.62828466  1
  In  In56  1  0.16729355  0.33640419  0.11324675  1
  In  In57  1  0.18169574  0.32221047  0.63717218  1
  In  In58  1  0.18611226  0.67337053  0.11477721  1
  In  In59  1  0.15826284  0.68570300  0.62526697  1
  In  In60  1  0.50024286  0.01802695  0.12111206  1
  In  In61  1  0.50020126  0.00694514  0.62483581  1
  In  In62  1  0.50539518  0.32527728  0.12833573  1
  In  In63  1  0.50720837  0.31370887  0.63875038  1
  In  In64  1  0.50094803  0.66715730  0.13388277  1
  In  In65  1  0.48232983  0.67452017  0.61870755  1
  In  In66  1  0.82802606  -0.00507454  0.11234573  1
  In  In67  1  0.81880390  0.02469806  0.65786407  1
  In  In68  1  0.83137474  0.32553541  0.12332040  1
  In  In69  1  0.82933566  0.33254694  0.63978648  1
  In  In70  1  0.81744261  0.66872625  0.12461313  1
  In  In71  1  0.84538605  0.66258620  0.62125343  1
  In  In72  1  0.84137462  0.49467203  -0.00221006  1
  In  In73  1  0.49871783  0.49399567  -0.00229537  1
  In  In74  1  0.33618128  -0.00002881  0.24848438  1
  In  In75  1  -0.00280031  0.00467482  0.24254292  1
  In  In76  1  0.00532683  0.66378925  0.75320175  1
  In  In77  1  0.49220780  0.84219375  0.00079070  1
  In  In78  1  -0.00583678  0.66306207  0.24230666  1
  In  In79  1  0.00136176  0.32741116  0.24992130  1
  In  In80  1  0.50541703  0.49860177  0.49665366  1
  In  In81  1  0.16779582  0.50236921  0.50241344  1
  In  In82  1  0.84226718  0.83689672  0.50704424  1
  In  In83  1  0.83731819  0.16922152  0.51507191  1
  In  In84  1  0.32711664  0.67082922  0.75215815  1
  In  In85  1  0.66534385  0.66620927  0.75092385  1
  Cu  Cu86  1  0.33014768  0.32456256  -0.00708463  1
  Cu  Cu87  1  0.50030889  0.16945575  0.24748811  1
  Cu  Cu88  1  0.00561616  0.66805730  0.00345813  1
  Cu  Cu89  1  -0.00676202  0.32826544  -0.01321361  1
  Cu  Cu90  1  0.65925310  -0.00013776  0.50157459  1
  Cu  Cu91  1  0.50009146  0.49356189  0.24949025  1
  Cu  Cu92  1  0.17683245  0.49654016  0.24352220  1
  Cu  Cu93  1  0.66417886  0.66507183  0.49562603  1
  Cu  Cu94  1  0.32959978  0.68085426  0.49446614  1
  Cu  Cu95  1  0.67242014  0.01207639  -0.00662225  1
  Cu  Cu96  1  0.34390859  0.33267552  0.50499841  1
  Cu  Cu97  1  0.16797546  0.16450999  0.75523606  1
  Cu  Cu98  1  0.82161809  0.83685931  0.24507037  1
  Cu  Cu99  1  0.16786620  0.49880908  0.75194522  1
  Cu  Cu100  1  0.66970627  0.67120346  0.00066079  1
  Cu  Cu101  1  0.17186834  0.82935049  0.24791032  1
  Cu  Cu102  1  -0.00000135  0.00656506  0.51135984  1
  Cu  Cu103  1  0.48964791  0.84219475  0.74579391  1
  Cu  Cu104  1  0.82607227  0.50477133  0.25586982  1
  Cu  Cu105  1  0.50462213  0.83594613  0.25503894  1
  Cu  Cu106  1  0.67280883  0.31867754  0.50917414  1
  Cu  Cu107  1  0.50740862  0.49341802  0.75258946  1
  Cu  Cu108  1  -0.00108263  0.66084145  0.49979361  1
  Cu  Cu109  1  0.16930175  0.84631176  0.75062565  1
  Cu  Cu110  1  0.16992136  0.16633378  0.25187663  1
  Cu  Cu111  1  0.83777933  0.83465009  0.76060932  1
  Cu  Cu112  1  0.66309397  0.32318547  -0.00455040  1
  Cu  Cu113  1  0.34196104  0.00422107  -0.00998317  1
  Cu  Cu114  1  0.82278711  0.16968373  0.24711030  1
  Se  Se115  1  0.08108604  0.07676786  0.04018714  1
  Se  Se116  1  0.08135255  0.09162902  0.56334354  1
  Se  Se117  1  0.07758944  0.40977878  0.04244641  1
  Se  Se118  1  0.09148995  0.41239623  0.56831597  1
  Se  Se119  1  0.08842388  0.75200655  0.05577672  1
  Se  Se120  1  0.07332705  0.75226879  0.55003843  1
  Se  Se121  1  0.42217138  0.08879962  0.04484587  1
  Se  Se122  1  0.40350180  0.07118332  0.55546616  1
  Se  Se123  1  0.40907700  0.40368324  0.05752516  1
  Se  Se124  1  0.42116975  0.41432328  0.56531364  1
  Se  Se125  1  0.41467189  0.73882143  0.05785908  1
  Se  Se126  1  0.42195349  0.75999600  0.54173582  1
  Se  Se127  1  0.75196638  0.09358856  0.05194634  1
  Se  Se128  1  0.74312523  0.07281133  0.56524806  1
  Se  Se129  1  0.73804739  0.41215784  0.05495734  1
  Se  Se130  1  0.75701724  0.40560226  0.55699229  1
  Se  Se131  1  0.75113341  0.75793125  0.05155578  1
  Se  Se132  1  0.74343004  0.74382761  0.56046794  1
  Se  Se133  1  0.24570948  0.24355825  0.04927275  1
  Se  Se134  1  0.25819433  0.25275703  0.55813022  1
  Se  Se135  1  0.23747288  0.56051820  0.05704034  1
  Se  Se136  1  0.25692606  0.60052790  0.56025785  1
  Se  Se137  1  0.26634905  0.91899822  0.04942387  1
  Se  Se138  1  0.21698469  0.89217849  0.56220501  1
  Se  Se139  1  0.57957980  0.24571002  0.05301772  1
  Se  Se140  1  0.58184384  0.24192707  0.55908754  1
  Se  Se141  1  0.58968444  0.58887239  0.05792033  1
  Se  Se142  1  0.58829731  0.58952439  0.56323805  1
  Se  Se143  1  0.59223142  0.92984467  0.05550560  1
  Se  Se144  1  0.57758861  0.91467786  0.55420252  1
  Se  Se145  1  0.91084686  0.25395398  0.04840866  1
  Se  Se146  1  0.92908047  0.25515083  0.57206465  1
  Se  Se147  1  0.92295353  0.58885462  0.06469047  1
  Se  Se148  1  0.91199991  0.57733005  0.54624177  1
  Se  Se149  1  0.92907078  0.93487198  0.04573433  1
  Se  Se150  1  0.90985557  0.93739144  0.57168734  1
  Se  Se151  1  0.08424803  0.26454720  0.45459967  1
  Se  Se152  1  0.08282763  0.24446795  0.94203542  1
  Se  Se153  1  0.07855909  0.58635323  0.43436160  1
  Se  Se154  1  0.07722788  0.58197807  0.94396136  1
  Se  Se155  1  0.07820366  0.92045877  0.45462336  1
  Se  Se156  1  0.12100697  0.88443536  0.93849779  1
  Se  Se157  1  0.42222492  0.24876136  0.44797802  1
  Se  Se158  1  0.41697730  0.24516983  0.93963856  1
  Se  Se159  1  0.40733498  0.58825915  0.44133290  1
  Se  Se160  1  0.40248236  0.58774902  0.94691006  1
  Se  Se161  1  0.39444647  0.93370410  0.45040287  1
  Se  Se162  1  0.42476982  0.93042639  0.92637516  1
  Se  Se163  1  0.74860769  0.24326172  0.44090256  1
  Se  Se164  1  0.75476959  0.25057456  0.94003023  1
  Se  Se165  1  0.74879932  0.57655316  0.44999001  1
  Se  Se166  1  0.74374013  0.58612627  0.94058261  1
  Se  Se167  1  0.74602689  0.92097252  0.44391805  1
  Se  Se168  1  0.75263185  0.91875706  0.94687655  1
  Se  Se169  1  0.24333480  0.09657625  0.45694803  1
  Se  Se170  1  0.25033414  0.08324368  0.94217603  1
  Se  Se171  1  0.26464617  0.41612755  0.44390524  1
  Se  Se172  1  0.24582440  0.41342051  0.94710450  1
  Se  Se173  1  0.24011796  0.75583150  0.44076883  1
  Se  Se174  1  0.26582430  0.73627876  0.95181322  1
  Se  Se175  1  0.58124037  0.08584678  0.44681178  1
  Se  Se176  1  0.57951124  0.08617029  0.94152303  1
  Se  Se177  1  0.59462339  0.39966809  0.44503830  1
  Se  Se178  1  0.57899452  0.39884294  0.93601072  1
  Se  Se179  1  0.58302280  0.74935770  0.44330589  1
  Se  Se180  1  0.58608398  0.74794978  0.94117259  1
  Se  Se181  1  0.92398120  0.08251968  0.44334845  1
  Se  Se182  1  0.92827990  0.07348317  0.94783209  1
  Se  Se183  1  0.92472477  0.39893313  0.45738996  1
  Se  Se184  1  0.90918944  0.40356442  0.92743299  1
  Se  Se185  1  0.92056260  0.74541539  0.43635523  1
  Se  Se186  1  0.91488496  0.75037527  0.95660373  1
  Se  Se187  1  0.25420894  0.24828696  0.30486001  1
  Se  Se188  1  0.24921856  0.25337545  0.80592167  1
  Se  Se189  1  0.25736565  0.58478425  0.29489229  1
  Se  Se190  1  0.23953690  0.58282160  0.81495220  1
  Se  Se191  1  0.24064069  0.91674761  0.31065279  1
  Se  Se192  1  0.26006755  0.92376466  0.80182767  1
  Se  Se193  1  0.58532086  0.25162229  0.30133450  1
  Se  Se194  1  0.60696661  0.26295690  0.80350746  1
  Se  Se195  1  0.58033710  0.57846571  0.30637441  1
  Se  Se196  1  0.58103941  0.57392316  0.81614762  1
  Se  Se197  1  0.57924625  0.92597137  0.30858837  1
  Se  Se198  1  0.58520687  0.91663663  0.79433280  1
  Se  Se199  1  0.91050386  0.23820219  0.31132938  1
  Se  Se200  1  0.93087362  0.25477355  0.79941881  1
  Se  Se201  1  0.91446242  0.57677723  0.31514779  1
  Se  Se202  1  0.90254347  0.57646776  0.80236475  1
  Se  Se203  1  0.90450957  0.91525395  0.30563217  1
  Se  Se204  1  0.92455407  0.91445406  0.81187870  1
  Se  Se205  1  0.09044409  0.08392543  0.31164451  1
  Se  Se206  1  0.08368995  0.08057149  0.80697630  1
  Se  Se207  1  0.09533277  0.42121084  0.30744515  1
  Se  Se208  1  0.08249922  0.41807196  0.80434893  1
  Se  Se209  1  0.08171942  0.75687459  0.30578663  1
  Se  Se210  1  0.08918735  0.76101409  0.80904667  1
  Se  Se211  1  0.41928844  0.09168531  0.31059433  1
  Se  Se212  1  0.42227345  0.10254271  0.79134099  1
  Se  Se213  1  0.41590399  0.40853320  0.30040918  1
  Se  Se214  1  0.41442333  0.41773168  0.80207865  1
  Se  Se215  1  0.41539116  0.75528926  0.30555120  1
  Se  Se216  1  0.41800076  0.76186703  0.81135660  1
  Se  Se217  1  0.74379369  0.07878682  0.29694449  1
  Se  Se218  1  0.74625369  0.07186210  0.80618956  1
  Se  Se219  1  0.75016747  0.41458233  0.30903426  1
  Se  Se220  1  0.75830991  0.42461017  0.79362311  1
  Se  Se221  1  0.74570090  0.75034193  0.30142718  1
  Se  Se222  1  0.75421602  0.75371186  0.81654419  1
  Se  Se223  1  0.24274290  0.08496750  0.18678931  1
  Se  Se224  1  0.24717174  0.08261097  0.69674644  1
  Se  Se225  1  0.24918797  0.40141546  0.19235091  1
  Se  Se226  1  0.25797914  0.41742181  0.70276225  1
  Se  Se227  1  0.25563353  0.74525201  0.19756096  1
  Se  Se228  1  0.24924474  0.76558534  0.68968412  1
  Se  Se229  1  0.58413048  0.08531625  0.19588851  1
  Se  Se230  1  0.58383933  0.07449879  0.70033204  1
  Se  Se231  1  0.58494363  0.41271568  0.19605722  1
  Se  Se232  1  0.58808726  0.41072529  0.69767842  1
  Se  Se233  1  0.58557889  0.75194373  0.19856433  1
  Se  Se234  1  0.57011694  0.75459526  0.69010490  1
  Se  Se235  1  0.90867484  0.09651528  0.18459873  1
  Se  Se236  1  0.91720273  0.09333192  0.71869177  1
  Se  Se237  1  0.90694446  0.42417429  0.19496646  1
  Se  Se238  1  0.91688176  0.42188450  0.70038388  1
  Se  Se239  1  0.91060490  0.76486283  0.18515656  1
  Se  Se240  1  0.91346792  0.75793113  0.69376931  1
  Se  Se241  1  0.08570268  0.23749822  0.18650813  1
  Se  Se242  1  0.08672135  0.25444314  0.70505570  1
  Se  Se243  1  0.08924088  0.57397519  0.18676357  1
  Se  Se244  1  0.09141955  0.57659222  0.68614083  1
  Se  Se245  1  0.09638858  0.91464812  0.18786138  1
  Se  Se246  1  0.07554433  0.92334837  0.70092905  1
  Se  Se247  1  0.41216896  0.24594810  0.19269434  1
  Se  Se248  1  0.41132902  0.24421998  0.70219796  1
  Se  Se249  1  0.41766870  0.57776017  0.19594504  1
  Se  Se250  1  0.42584138  0.57774036  0.69551857  1
  Se  Se251  1  0.42847816  0.91101628  0.18707103  1
  Se  Se252  1  0.40838397  0.92225407  0.68998524  1
  Se  Se253  1  0.74360388  0.25815173  0.19581507  1
  Se  Se254  1  0.76568115  0.22654447  0.69821625  1
  Se  Se255  1  0.74597012  0.58897750  0.20035520  1
  Se  Se256  1  0.75487811  0.58062851  0.68804064  1
  Se  Se257  1  0.74672348  0.92481318  0.18929588  1
  Se  Se258  1  0.74974874  0.90934778  0.70353137  1
