# generated using pymatgen
data_In86Cu29Se144
_symmetry_space_group_name_H-M   'P 1'
_cell_length_a   17.57046092
_cell_length_b   17.57033548
_cell_length_c   23.42390960
_cell_angle_alpha   89.99123040
_cell_angle_beta   90.00207921
_cell_angle_gamma   89.99860457
_symmetry_Int_Tables_number   1
_chemical_formula_structural   In86Cu29Se144
_chemical_formula_sum   'In86 Cu29 Se144'
_cell_volume   7231.40334619
_cell_formula_units_Z   1
loop_
 _symmetry_equiv_pos_site_id
 _symmetry_equiv_pos_as_xyz
  1  'x, y, z'
loop_
 _atom_site_type_symbol
 _atom_site_label
 _atom_site_symmetry_multiplicity
 _atom_site_fract_x
 _atom_site_fract_y
 _atom_site_fract_z
 _atom_site_occupancy
  In  In0  1  -0.00844134  0.18807828  0.13196973  1
  In  In1  1  0.01060790  0.17876954  0.61781456  1
  In  In2  1  -0.01280979  0.48987001  0.12219905  1
  In  In3  1  -0.00803227  0.48718717  0.61402586  1
  In  In4  1  0.00929045  0.81900375  0.11859527  1
  In  In5  1  0.00065871  0.83368843  0.62379307  1
  In  In6  1  0.33693615  0.15810787  0.13531514  1
  In  In7  1  0.33609659  0.16911111  0.62118504  1
  In  In8  1  0.34747931  0.49657620  0.14444034  1
  In  In9  1  0.33585077  0.50641131  0.62164427  1
  In  In10  1  0.34190041  0.83017169  0.12518246  1
  In  In11  1  0.34875499  0.82963015  0.63093672  1
  In  In12  1  0.67080575  0.17489882  0.11817885  1
  In  In13  1  0.67397895  0.19301503  0.59287574  1
  In  In14  1  0.68777093  0.45912686  0.17923925  1
  In  In15  1  0.65821179  0.48403218  0.60831347  1
  In  In16  1  0.65042720  0.83630934  0.12490903  1
  In  In17  1  0.64963708  0.84542590  0.61889691  1
  In  In18  1  0.18545483  0.00662279  0.37250747  1
  In  In19  1  0.16719971  -0.00716315  0.87872867  1
  In  In20  1  0.16953094  0.33557044  0.37761026  1
  In  In21  1  0.16826117  0.32753426  0.87337288  1
  In  In22  1  0.17092273  0.64431949  0.37766144  1
  In  In23  1  0.18499338  0.66305678  0.87781819  1
  In  In24  1  0.49173004  0.02084953  0.39429607  1
  In  In25  1  0.49315742  0.00577259  0.87642082  1
  In  In26  1  0.49683833  0.33920685  0.37888451  1
  In  In27  1  0.49795317  0.32633030  0.86736038  1
  In  In28  1  0.50044496  0.66144500  0.37349372  1
  In  In29  1  0.49912685  0.67559647  0.87850849  1
  In  In30  1  0.82537294  0.01660352  0.37498740  1
  In  In31  1  0.84432305  0.00823729  0.87485722  1
  In  In32  1  0.81979476  0.33866324  0.36932216  1
  In  In33  1  0.81781827  0.34973375  0.89036237  1
  In  In34  1  0.79902931  0.64347632  0.35719200  1
  In  In35  1  0.82288635  0.65282466  0.87887232  1
  In  In36  1  -0.02370862  0.19217296  0.38426949  1
  In  In37  1  -0.00237030  0.16223816  0.87828148  1
  In  In38  1  0.00887691  0.48795996  0.37840355  1
  In  In39  1  -0.02051661  0.48664457  0.87215601  1
  In  In40  1  -0.00214960  0.82591238  0.37539962  1
  In  In41  1  0.00900951  0.85011454  0.88109549  1
  In  In42  1  0.33844034  0.17231645  0.37922597  1
  In  In43  1  0.34866610  0.17204137  0.86642802  1
  In  In44  1  0.33389191  0.49313204  0.37308236  1
  In  In45  1  0.33228807  0.49865404  0.86313299  1
  In  In46  1  0.34605577  0.84331989  0.36860701  1
  In  In47  1  0.33506313  0.83430454  0.87678620  1
  In  In48  1  0.64019720  0.19824349  0.40633536  1
  In  In49  1  0.65519993  0.18031666  0.87810626  1
  In  In50  1  0.66477970  0.49265970  0.37764704  1
  In  In51  1  0.67754307  0.48899583  0.87686409  1
  In  In52  1  0.65563450  0.82175264  0.37378834  1
  In  In53  1  0.65915313  0.81616530  0.88291056  1
  In  In54  1  0.18642123  0.00186788  0.12642343  1
  In  In55  1  0.17499111  0.02243492  0.62227960  1
  In  In56  1  0.16730683  0.33437479  0.13418938  1
  In  In57  1  0.19449754  0.35464558  0.59747825  1
  In  In58  1  0.17175637  0.67596175  0.12251433  1
  In  In59  1  0.18302638  0.67283495  0.62449112  1
  In  In60  1  0.49387146  -0.00525971  0.11965287  1
  In  In61  1  0.50298744  -0.00647662  0.61505834  1
  In  In62  1  0.50740925  0.33019793  0.13769541  1
  In  In63  1  0.49001636  0.33906789  0.61386269  1
  In  In64  1  0.49983439  0.66627875  0.13480839  1
  In  In65  1  0.48903228  0.65517385  0.61562523  1
  In  In66  1  0.81870818  0.01613322  0.12337548  1
  In  In67  1  0.81338222  0.02182471  0.62114827  1
  In  In68  1  0.83210964  0.33528836  0.12928531  1
  In  In69  1  0.82951563  0.33233818  0.61747853  1
  In  In70  1  0.82942653  0.63722372  0.13092900  1
  In  In71  1  0.82476523  0.64870948  0.62105695  1
  In  In72  1  0.00854868  0.00664866  0.25032631  1
  In  In73  1  0.00691557  0.65974826  0.25200343  1
  In  In74  1  0.16249595  0.16372320  -0.00104163  1
  In  In75  1  0.00910387  0.00413575  0.75261637  1
  In  In76  1  0.17099307  0.83084932  0.49859434  1
  In  In77  1  0.65780130  0.00471223  0.25382001  1
  In  In78  1  0.65554874  0.65095892  0.74441559  1
  In  In79  1  0.65592578  0.00669198  0.74386312  1
  In  In80  1  0.83211175  0.83513319  -0.00376516  1
  In  In81  1  0.83356121  0.82594868  0.50012087  1
  In  In82  1  0.16334835  0.50470331  0.00758828  1
  In  In83  1  0.01035112  0.65933338  0.76072946  1
  In  In84  1  0.50422507  0.50442131  0.01460958  1
  In  In85  1  0.00120068  0.32823824  0.74798303  1
  Cu  Cu86  1  0.18504907  0.17662547  0.74424724  1
  Cu  Cu87  1  0.49422569  0.83302371  0.75184587  1
  Cu  Cu88  1  -0.00928216  0.65734878  0.49484552  1
  Cu  Cu89  1  0.65868226  0.65939156  0.49256278  1
  Cu  Cu90  1  0.34166243  0.67011785  0.00318200  1
  Cu  Cu91  1  0.18288407  0.84028511  0.75164844  1
  Cu  Cu92  1  0.33422980  0.00440580  0.49941919  1
  Cu  Cu93  1  -0.00089330  0.00557577  0.00480559  1
  Cu  Cu94  1  0.50640258  0.17160285  0.73986750  1
  Cu  Cu95  1  0.82605655  0.17116463  0.74273665  1
  Cu  Cu96  1  0.49511804  0.83531846  0.24993103  1
  Cu  Cu97  1  0.33021161  0.32994759  -0.00098620  1
  Cu  Cu98  1  0.33898007  -0.00493605  0.00176326  1
  Cu  Cu99  1  0.66611101  0.66131003  0.01066768  1
  Cu  Cu100  1  0.82201356  0.18295188  0.25382995  1
  Cu  Cu101  1  0.83128621  0.82069680  0.74334531  1
  Cu  Cu102  1  0.17016835  0.49315580  0.25147738  1
  Cu  Cu103  1  0.17012336  0.17109108  0.25864735  1
  Cu  Cu104  1  0.00456974  0.66120048  0.00030873  1
  Cu  Cu105  1  0.66195948  0.33631359  0.01172220  1
  Cu  Cu106  1  0.83788821  0.83352744  0.24872755  1
  Cu  Cu107  1  0.49934470  0.49333066  0.74127540  1
  Cu  Cu108  1  0.50087019  0.16791651  0.25901510  1
  Cu  Cu109  1  -0.00117944  0.00183455  0.49886032  1
  Cu  Cu110  1  -0.00323352  0.32816185  0.49379443  1
  Cu  Cu111  1  0.66012950  0.00882791  -0.00090618  1
  Cu  Cu112  1  0.18107371  0.83161823  0.24782453  1
  Cu  Cu113  1  0.33664182  0.66045427  0.49811114  1
  Cu  Cu114  1  0.16954233  0.50098334  0.74003048  1
  Se  Se115  1  0.07731403  0.08122263  0.07061347  1
  Se  Se116  1  0.08335376  0.08530932  0.55036440  1
  Se  Se117  1  0.07794956  0.40265506  0.05712138  1
  Se  Se118  1  0.08017233  0.41583090  0.54375122  1
  Se  Se119  1  0.09197984  0.74714550  0.04471795  1
  Se  Se120  1  0.07214434  0.73930302  0.55388087  1
  Se  Se121  1  0.41262009  0.08661380  0.05596293  1
  Se  Se122  1  0.42056092  0.08494197  0.55255311  1
  Se  Se123  1  0.40752006  0.40802192  0.06329674  1
  Se  Se124  1  0.40867736  0.42513322  0.54802260  1
  Se  Se125  1  0.42817164  0.74806034  0.05774641  1
  Se  Se126  1  0.41413125  0.75109214  0.55108816  1
  Se  Se127  1  0.74884536  0.09152941  0.04578551  1
  Se  Se128  1  0.73773042  0.07944240  0.53911597  1
  Se  Se129  1  0.73293185  0.42268830  0.07485447  1
  Se  Se130  1  0.75931409  0.41930884  0.54556349  1
  Se  Se131  1  0.75087673  0.74760733  0.06463658  1
  Se  Se132  1  0.73400422  0.73975137  0.55974886  1
  Se  Se133  1  0.25224216  0.25106283  0.06120214  1
  Se  Se134  1  0.23926316  0.23167915  0.55090580  1
  Se  Se135  1  0.26642593  0.58395440  0.06306762  1
  Se  Se136  1  0.24546799  0.58525909  0.55089919  1
  Se  Se137  1  0.25531347  0.91278528  0.05562579  1
  Se  Se138  1  0.25715081  0.92028287  0.56167298  1
  Se  Se139  1  0.57181592  0.25150696  0.05720371  1
  Se  Se140  1  0.57488006  0.26912190  0.53389764  1
  Se  Se141  1  0.59872610  0.58093615  0.07709944  1
  Se  Se142  1  0.57578616  0.57776265  0.54831546  1
  Se  Se143  1  0.58227644  0.91939077  0.04956111  1
  Se  Se144  1  0.58457622  0.91974254  0.54002240  1
  Se  Se145  1  0.90017018  0.24232838  0.05841914  1
  Se  Se146  1  0.91561194  0.24698805  0.55178170  1
  Se  Se147  1  0.91769855  0.58278955  0.05253384  1
  Se  Se148  1  0.90748958  0.57445882  0.54930532  1
  Se  Se149  1  0.91892680  0.92195675  0.06456626  1
  Se  Se150  1  0.91644042  0.92669446  0.56118856  1
  Se  Se151  1  0.08707122  0.24659031  0.44456882  1
  Se  Se152  1  0.07263089  0.26113220  0.94465497  1
  Se  Se153  1  0.08307455  0.57628356  0.44926409  1
  Se  Se154  1  0.07722032  0.58234796  0.93279462  1
  Se  Se155  1  0.07924869  0.92234504  0.43834470  1
  Se  Se156  1  0.08759809  0.92327138  0.95666043  1
  Se  Se157  1  0.43372734  0.23918820  0.44695187  1
  Se  Se158  1  0.41713044  0.25364198  0.94387863  1
  Se  Se159  1  0.41769657  0.57837604  0.44244746  1
  Se  Se160  1  0.41107641  0.58113239  0.94230593  1
  Se  Se161  1  0.41530020  0.91601806  0.44888230  1
  Se  Se162  1  0.42187829  0.91361481  0.94548520  1
  Se  Se163  1  0.77541123  0.23219030  0.43941222  1
  Se  Se164  1  0.74036624  0.25391426  0.95127675  1
  Se  Se165  1  0.75077161  0.57683929  0.44800662  1
  Se  Se166  1  0.74357533  0.57761820  0.95210933  1
  Se  Se167  1  0.74931942  0.91241091  0.43450289  1
  Se  Se168  1  0.73994323  0.92753013  0.93581461  1
  Se  Se169  1  0.25074662  0.08903489  0.44874259  1
  Se  Se170  1  0.26145576  0.08020869  0.94072373  1
  Se  Se171  1  0.25162122  0.41767692  0.44632126  1
  Se  Se172  1  0.25438650  0.41611098  0.94243281  1
  Se  Se173  1  0.25884252  0.74395301  0.43581873  1
  Se  Se174  1  0.25512761  0.75018423  0.94912840  1
  Se  Se175  1  0.60913487  0.06661585  0.45056746  1
  Se  Se176  1  0.57640831  0.08976634  0.94339174  1
  Se  Se177  1  0.59968709  0.39717145  0.44937668  1
  Se  Se178  1  0.58125913  0.41157306  0.94525386  1
  Se  Se179  1  0.57436409  0.74984045  0.44818561  1
  Se  Se180  1  0.58045007  0.74181315  0.95753900  1
  Se  Se181  1  0.91502201  0.08408368  0.44602432  1
  Se  Se182  1  0.91586321  0.08722665  0.95169520  1
  Se  Se183  1  0.91293669  0.41141204  0.44007382  1
  Se  Se184  1  0.91281254  0.42066066  0.95451162  1
  Se  Se185  1  0.91028646  0.73225862  0.43256463  1
  Se  Se186  1  0.92453905  0.74243743  0.93651435  1
  Se  Se187  1  0.25679434  0.25416806  0.30885757  1
  Se  Se188  1  0.25968920  0.25945114  0.80458579  1
  Se  Se189  1  0.25304995  0.57994830  0.30116618  1
  Se  Se190  1  0.24871063  0.58497620  0.79757728  1
  Se  Se191  1  0.25692067  0.92114517  0.30056818  1
  Se  Se192  1  0.25849199  0.92609387  0.80791921  1
  Se  Se193  1  0.58375590  0.25070153  0.31259152  1
  Se  Se194  1  0.58808612  0.25385793  0.79665805  1
  Se  Se195  1  0.61106398  0.60318830  0.31394725  1
  Se  Se196  1  0.57006964  0.56811994  0.81475964  1
  Se  Se197  1  0.56779987  0.91850825  0.31464482  1
  Se  Se198  1  0.58318818  0.90659898  0.81049534  1
  Se  Se199  1  0.91527372  0.26324716  0.29980528  1
  Se  Se200  1  0.91007761  0.24049878  0.80789535  1
  Se  Se201  1  0.91510136  0.57116772  0.30864277  1
  Se  Se202  1  0.89977444  0.57277037  0.80053677  1
  Se  Se203  1  0.91290302  0.91600469  0.30921075  1
  Se  Se204  1  0.91009273  0.90631147  0.80310240  1
  Se  Se205  1  0.08470514  0.09526758  0.31925203  1
  Se  Se206  1  0.10152533  0.09998517  0.80809206  1
  Se  Se207  1  0.08496014  0.41118539  0.30305638  1
  Se  Se208  1  0.09023904  0.42704131  0.80626617  1
  Se  Se209  1  0.09909227  0.75441344  0.30999647  1
  Se  Se210  1  0.09674045  0.76399981  0.81243875  1
  Se  Se211  1  0.41799995  0.08196484  0.31019612  1
  Se  Se212  1  0.42796699  0.08641431  0.79716735  1
  Se  Se213  1  0.43019923  0.42504698  0.30274971  1
  Se  Se214  1  0.41683499  0.41317617  0.80010365  1
  Se  Se215  1  0.41690444  0.74685327  0.30400768  1
  Se  Se216  1  0.41461048  0.74783300  0.80611500  1
  Se  Se217  1  0.73950978  0.10315142  0.31117284  1
  Se  Se218  1  0.75241791  0.08842121  0.80729801  1
  Se  Se219  1  0.73447465  0.41282969  0.29647922  1
  Se  Se220  1  0.74823481  0.40624940  0.80405128  1
  Se  Se221  1  0.74747757  0.75833025  0.30054346  1
  Se  Se222  1  0.74930147  0.74758939  0.80556551  1
  Se  Se223  1  0.24841057  0.08304387  0.20547499  1
  Se  Se224  1  0.26279773  0.08244462  0.69779214  1
  Se  Se225  1  0.25705555  0.40847191  0.20176852  1
  Se  Se226  1  0.25182252  0.41717144  0.68790000  1
  Se  Se227  1  0.25915535  0.74466904  0.19450500  1
  Se  Se228  1  0.25930063  0.75072604  0.69848216  1
  Se  Se229  1  0.57444114  0.09249984  0.18791303  1
  Se  Se230  1  0.58635158  0.09902138  0.67400710  1
  Se  Se231  1  0.54619838  0.43654146  0.20978043  1
  Se  Se232  1  0.58071706  0.41263461  0.68585703  1
  Se  Se233  1  0.58515031  0.75475070  0.20128708  1
  Se  Se234  1  0.57413528  0.75354879  0.68917664  1
  Se  Se235  1  0.90240173  0.09278285  0.19939670  1
  Se  Se236  1  0.91552286  0.08977930  0.68937364  1
  Se  Se237  1  0.91515650  0.41713493  0.19875955  1
  Se  Se238  1  0.90872514  0.41893606  0.69246392  1
  Se  Se239  1  0.91450162  0.75048715  0.18991749  1
  Se  Se240  1  0.91788266  0.74184513  0.69002702  1
  Se  Se241  1  0.08542612  0.25045201  0.20277693  1
  Se  Se242  1  0.10205016  0.25510028  0.68597680  1
  Se  Se243  1  0.09329077  0.57205297  0.18464745  1
  Se  Se244  1  0.08473254  0.57846544  0.68262248  1
  Se  Se245  1  0.09169127  0.90625316  0.19054984  1
  Se  Se246  1  0.09676230  0.91292722  0.68943984  1
  Se  Se247  1  0.41666187  0.24686615  0.20080796  1
  Se  Se248  1  0.41813889  0.25383192  0.68928876  1
  Se  Se249  1  0.41759949  0.59129546  0.20773318  1
  Se  Se250  1  0.41667452  0.58532623  0.69650017  1
  Se  Se251  1  0.41543675  0.92122924  0.19542583  1
  Se  Se252  1  0.42435528  0.92455062  0.69516027  1
  Se  Se253  1  0.73575390  0.25661511  0.19559144  1
  Se  Se254  1  0.74430665  0.24610470  0.68270247  1
  Se  Se255  1  0.74183516  0.59100481  0.20983206  1
  Se  Se256  1  0.74813763  0.56129424  0.69062500  1
  Se  Se257  1  0.75401087  0.91585672  0.19212764  1
  Se  Se258  1  0.75431994  0.91079263  0.68836675  1
