# generated using pymatgen
data_In86Cu29Se144
_symmetry_space_group_name_H-M   'P 1'
_cell_length_a   17.58245332
_cell_length_b   17.57877220
_cell_length_c   23.44112191
_cell_angle_alpha   90.00562955
_cell_angle_beta   90.01582783
_cell_angle_gamma   89.99859489
_symmetry_Int_Tables_number   1
_chemical_formula_structural   In86Cu29Se144
_chemical_formula_sum   'In86 Cu29 Se144'
_cell_volume   7245.13339609
_cell_formula_units_Z   1
loop_
 _symmetry_equiv_pos_site_id
 _symmetry_equiv_pos_as_xyz
  1  'x, y, z'
loop_
 _atom_site_type_symbol
 _atom_site_label
 _atom_site_symmetry_multiplicity
 _atom_site_fract_x
 _atom_site_fract_y
 _atom_site_fract_z
 _atom_site_occupancy
  In  In0  1  -0.00715497  0.16022168  0.11730034  1
  In  In1  1  0.00378469  0.16941855  0.61746459  1
  In  In2  1  0.01731341  0.50409177  0.12352196  1
  In  In3  1  -0.00297026  0.51279014  0.62233841  1
  In  In4  1  -0.00727576  0.84053013  0.13242855  1
  In  In5  1  -0.00041366  0.81236588  0.62914568  1
  In  In6  1  0.33223220  0.17799348  0.12047332  1
  In  In7  1  0.32237626  0.16482579  0.63584669  1
  In  In8  1  0.33121567  0.50445217  0.12400994  1
  In  In9  1  0.33540814  0.50227475  0.63950976  1
  In  In10  1  0.33148416  0.81847653  0.12177434  1
  In  In11  1  0.33122783  0.83703263  0.62708071  1
  In  In12  1  0.67811184  0.15298884  0.13526113  1
  In  In13  1  0.66407292  0.15694098  0.62368794  1
  In  In14  1  0.65925001  0.50693956  0.13252603  1
  In  In15  1  0.66704015  0.49220692  0.61941132  1
  In  In16  1  0.67208943  0.82823899  0.12089191  1
  In  In17  1  0.67250659  0.85177155  0.62761724  1
  In  In18  1  0.16028602  0.00704471  0.38104070  1
  In  In19  1  0.17780714  0.00114833  0.87214144  1
  In  In20  1  0.16417534  0.31862706  0.37330545  1
  In  In21  1  0.18724644  0.32163494  0.89202980  1
  In  In22  1  0.17733460  0.67472812  0.36827475  1
  In  In23  1  0.15850722  0.65869718  0.87355837  1
  In  In24  1  0.49830460  -0.01619934  0.37579358  1
  In  In25  1  0.49408158  -0.01695838  0.86284586  1
  In  In26  1  0.50084204  0.33602027  0.36518797  1
  In  In27  1  0.47866280  0.33983460  0.87532320  1
  In  In28  1  0.50685847  0.67589200  0.36900770  1
  In  In29  1  0.49956763  0.68202591  0.86964167  1
  In  In30  1  0.84146550  0.00626938  0.37051149  1
  In  In31  1  0.82528622  0.00095337  0.87632819  1
  In  In32  1  0.82797578  0.34180045  0.37596860  1
  In  In33  1  0.82412694  0.32456245  0.88231812  1
  In  In34  1  0.82830400  0.66413125  0.36691477  1
  In  In35  1  0.84630532  0.66974569  0.88112287  1
  In  In36  1  0.00534841  0.15632453  0.37983230  1
  In  In37  1  0.00172107  0.16293035  0.88119309  1
  In  In38  1  -0.01289018  0.49977701  0.37262059  1
  In  In39  1  0.01090282  0.52283641  0.87755679  1
  In  In40  1  0.00716034  0.84382172  0.36841787  1
  In  In41  1  -0.00616136  0.81563728  0.87769495  1
  In  In42  1  0.31889138  0.16795717  0.37368794  1
  In  In43  1  0.32446606  0.16481686  0.87179665  1
  In  In44  1  0.33629961  0.50198153  0.36875440  1
  In  In45  1  0.32180400  0.48882323  0.86429027  1
  In  In46  1  0.33994346  0.82711773  0.38316061  1
  In  In47  1  0.34725470  0.83632656  0.86270637  1
  In  In48  1  0.67407144  0.17441386  0.36691369  1
  In  In49  1  0.67817489  0.16059010  0.87901312  1
  In  In50  1  0.67386240  0.51041132  0.36607493  1
  In  In51  1  0.66257611  0.50203809  0.87916346  1
  In  In52  1  0.65976252  0.82797922  0.36941688  1
  In  In53  1  0.65752029  0.83778167  0.88200246  1
  In  In54  1  0.15139062  -0.00478711  0.12230395  1
  In  In55  1  0.17806194  0.00788892  0.62250980  1
  In  In56  1  0.17943050  0.33957026  0.11152941  1
  In  In57  1  0.17751456  0.32693452  0.62545037  1
  In  In58  1  0.17424300  0.66430927  0.13042171  1
  In  In59  1  0.15974750  0.66882740  0.62949151  1
  In  In60  1  0.51894824  -0.00252324  0.12536204  1
  In  In61  1  0.50559518  -0.01404073  0.63847053  1
  In  In62  1  0.49260536  0.34030310  0.13276358  1
  In  In63  1  0.49715084  0.32367302  0.62920969  1
  In  In64  1  0.49851493  0.67165020  0.12261247  1
  In  In65  1  0.48301153  0.67703056  0.63420987  1
  In  In66  1  0.83437383  -0.00291535  0.12571504  1
  In  In67  1  0.82186641  0.00220627  0.62537023  1
  In  In68  1  0.83343011  0.32022958  0.12473790  1
  In  In69  1  0.83120560  0.33222051  0.61251879  1
  In  In70  1  0.82637121  0.67808013  0.12850983  1
  In  In71  1  0.84569036  0.67042289  0.62412626  1
  In  In72  1  0.65641090  0.33000866  0.75349268  1
  In  In73  1  0.00722239  -0.00430224  0.75612637  1
  In  In74  1  0.49937722  0.50508251  0.50563925  1
  In  In75  1  0.49469178  0.50487229  0.00224164  1
  In  In76  1  0.33311554  0.00061504  0.25291201  1
  In  In77  1  0.00697199  0.33932287  0.74749716  1
  In  In78  1  0.66478552  0.67026733  0.75730181  1
  In  In79  1  0.16245432  0.49760155  0.50524092  1
  In  In80  1  0.83714934  0.50152952  0.00201769  1
  In  In81  1  0.50226755  0.16178015  -0.00048659  1
  In  In82  1  0.83632811  0.83772349  0.50081050  1
  In  In83  1  0.16446134  0.83265264  -0.00329537  1
  In  In84  1  0.00208432  0.33416256  0.24631425  1
  In  In85  1  0.49796701  0.16104426  0.50662760  1
  Cu  Cu86  1  0.83598217  0.16380214  0.24849193  1
  Cu  Cu87  1  0.16962185  0.82711166  0.75077616  1
  Cu  Cu88  1  0.32910258  0.32663834  0.50055062  1
  Cu  Cu89  1  0.16532324  0.83249556  0.24846444  1
  Cu  Cu90  1  0.33283101  0.66623109  -0.00196293  1
  Cu  Cu91  1  -0.00299525  0.32602406  0.49367254  1
  Cu  Cu92  1  0.67170087  -0.00606274  0.00438841  1
  Cu  Cu93  1  0.83242339  0.50480953  0.24817429  1
  Cu  Cu94  1  0.00442172  -0.00219595  0.49956783  1
  Cu  Cu95  1  0.49658289  0.50092846  0.24752895  1
  Cu  Cu96  1  0.33037741  -0.00460917  0.50268920  1
  Cu  Cu97  1  0.50223487  0.16851320  0.24619795  1
  Cu  Cu98  1  0.50137728  0.83122362  0.24792027  1
  Cu  Cu99  1  0.67543876  0.33756040  0.49057600  1
  Cu  Cu100  1  0.33122892  0.67579187  0.50264914  1
  Cu  Cu101  1  0.00108337  0.33513337  0.00171726  1
  Cu  Cu102  1  0.17304882  0.50247452  0.24616351  1
  Cu  Cu103  1  0.33796088  -0.00116803  -0.00896358  1
  Cu  Cu104  1  0.49407806  0.16213969  0.75109675  1
  Cu  Cu105  1  0.16217889  0.50308294  0.75142893  1
  Cu  Cu106  1  0.66298765  0.32474004  0.00656740  1
  Cu  Cu107  1  0.66708876  0.00400471  0.50129205  1
  Cu  Cu108  1  0.66603852  0.66917333  0.49198154  1
  Cu  Cu109  1  -0.00140763  0.66524109  0.49888059  1
  Cu  Cu110  1  0.82850338  0.83490271  0.24862620  1
  Cu  Cu111  1  0.83421925  0.50639548  0.75222639  1
  Cu  Cu112  1  0.83391996  0.16375742  0.75092499  1
  Cu  Cu113  1  -0.00733578  0.00144290  -0.00076453  1
  Cu  Cu114  1  0.16430989  0.16824978  0.24934807  1
  Se  Se115  1  0.08230401  0.08160297  0.04941524  1
  Se  Se116  1  0.08726916  0.08226855  0.55351048  1
  Se  Se117  1  0.08629333  0.42056508  0.04957436  1
  Se  Se118  1  0.07133671  0.40341480  0.56226313  1
  Se  Se119  1  0.08194108  0.75113734  0.06605590  1
  Se  Se120  1  0.08325427  0.74545940  0.55268398  1
  Se  Se121  1  0.41274434  0.07112317  0.06192280  1
  Se  Se122  1  0.40967486  0.07319942  0.56690492  1
  Se  Se123  1  0.40665838  0.40636832  0.05446922  1
  Se  Se124  1  0.40762369  0.40835549  0.56010573  1
  Se  Se125  1  0.41806009  0.75030703  0.04851816  1
  Se  Se126  1  0.41702308  0.75624302  0.55554608  1
  Se  Se127  1  0.75193020  0.08267907  0.05579215  1
  Se  Se128  1  0.75230648  0.08812086  0.55110197  1
  Se  Se129  1  0.74152219  0.41263609  0.06195611  1
  Se  Se130  1  0.75341772  0.42330916  0.54676077  1
  Se  Se131  1  0.76396727  0.75925608  0.05031211  1
  Se  Se132  1  0.74372247  0.74704678  0.55854623  1
  Se  Se133  1  0.24267004  0.23789070  0.04739505  1
  Se  Se134  1  0.25128298  0.24086805  0.55450649  1
  Se  Se135  1  0.24984588  0.58687117  0.05397251  1
  Se  Se136  1  0.25894227  0.58568676  0.56080638  1
  Se  Se137  1  0.25738360  0.92306410  0.05731249  1
  Se  Se138  1  0.24478848  0.91179146  0.55409369  1
  Se  Se139  1  0.58453194  0.24820982  0.06905625  1
  Se  Se140  1  0.59450646  0.26147585  0.55451932  1
  Se  Se141  1  0.59400527  0.59249212  0.05374300  1
  Se  Se142  1  0.58815027  0.59895606  0.56245992  1
  Se  Se143  1  0.58353757  0.91017146  0.05197461  1
  Se  Se144  1  0.58439095  0.92253974  0.55585930  1
  Se  Se145  1  0.91470943  0.25003039  0.04971871  1
  Se  Se146  1  0.91368505  0.24403894  0.54943377  1
  Se  Se147  1  0.92246209  0.58988853  0.06410458  1
  Se  Se148  1  0.91139775  0.58288243  0.54870066  1
  Se  Se149  1  0.91681187  0.91536151  0.05509772  1
  Se  Se150  1  0.92706812  0.92199683  0.56487691  1
  Se  Se151  1  0.08709720  0.24362611  0.44764786  1
  Se  Se152  1  0.08203505  0.24896083  0.94830483  1
  Se  Se153  1  0.08037708  0.58583050  0.43822583  1
  Se  Se154  1  0.08313479  0.59483018  0.95523156  1
  Se  Se155  1  0.08593654  0.91263457  0.44702692  1
  Se  Se156  1  0.07438216  0.92459914  0.93613106  1
  Se  Se157  1  0.41570824  0.25397552  0.44036290  1
  Se  Se158  1  0.40632710  0.25238236  0.94767722  1
  Se  Se159  1  0.41015690  0.59242157  0.44253094  1
  Se  Se160  1  0.40988638  0.58744745  0.93385916  1
  Se  Se161  1  0.41828587  0.91449407  0.45192894  1
  Se  Se162  1  0.41947382  0.91144837  0.94241426  1
  Se  Se163  1  0.75508136  0.24634996  0.44257711  1
  Se  Se164  1  0.74918652  0.24294704  0.95498986  1
  Se  Se165  1  0.75116602  0.58551233  0.44250106  1
  Se  Se166  1  0.74372913  0.59025550  0.94419525  1
  Se  Se167  1  0.74423444  0.92252513  0.43855362  1
  Se  Se168  1  0.75318547  0.91288705  0.94749785  1
  Se  Se169  1  0.25229944  0.08287452  0.44826852  1
  Se  Se170  1  0.24947728  0.08326688  0.94709857  1
  Se  Se171  1  0.25358671  0.41188045  0.44070154  1
  Se  Se172  1  0.24459567  0.43370125  0.94808973  1
  Se  Se173  1  0.24393350  0.75281986  0.44815529  1
  Se  Se174  1  0.25771576  0.74906676  0.93475817  1
  Se  Se175  1  0.58628466  0.08092649  0.43800947  1
  Se  Se176  1  0.58875275  0.06927389  0.94050861  1
  Se  Se177  1  0.58600862  0.41771512  0.43866748  1
  Se  Se178  1  0.58573442  0.40355510  0.94465482  1
  Se  Se179  1  0.57964833  0.75494236  0.44576053  1
  Se  Se180  1  0.58287832  0.74299411  0.94614391  1
  Se  Se181  1  0.91664143  0.07968249  0.44860027  1
  Se  Se182  1  0.90988270  0.08481027  0.94456866  1
  Se  Se183  1  0.91650966  0.41670712  0.44631845  1
  Se  Se184  1  0.92361090  0.41289470  0.93649563  1
  Se  Se185  1  0.92082455  0.74733904  0.43722417  1
  Se  Se186  1  0.91625497  0.75107654  0.95684926  1
  Se  Se187  1  0.25078544  0.25276847  0.29825208  1
  Se  Se188  1  0.25296176  0.26021134  0.80629485  1
  Se  Se189  1  0.25522217  0.58596726  0.30118803  1
  Se  Se190  1  0.24737540  0.58748142  0.80235839  1
  Se  Se191  1  0.24445731  0.91119381  0.31305027  1
  Se  Se192  1  0.24995530  0.91470097  0.80188090  1
  Se  Se193  1  0.58575903  0.25291392  0.29988727  1
  Se  Se194  1  0.57157276  0.23947973  0.81746223  1
  Se  Se195  1  0.58023761  0.58490449  0.30144274  1
  Se  Se196  1  0.57315045  0.57172383  0.80804349  1
  Se  Se197  1  0.58279446  0.91746162  0.30048675  1
  Se  Se198  1  0.59922753  0.92198082  0.80213984  1
  Se  Se199  1  0.91617930  0.24546238  0.31028176  1
  Se  Se200  1  0.91246655  0.24815069  0.80781493  1
  Se  Se201  1  0.91920819  0.58629183  0.29955621  1
  Se  Se202  1  0.91778675  0.58662420  0.80568376  1
  Se  Se203  1  0.91507981  0.91721408  0.30136148  1
  Se  Se204  1  0.91225800  0.90947531  0.81129851  1
  Se  Se205  1  0.08465413  0.08301937  0.30366322  1
  Se  Se206  1  0.09416044  0.09631849  0.80719712  1
  Se  Se207  1  0.09237754  0.42420832  0.30901730  1
  Se  Se208  1  0.08989335  0.42175992  0.81616618  1
  Se  Se209  1  0.08244677  0.74922203  0.30341663  1
  Se  Se210  1  0.08224937  0.74869281  0.80444686  1
  Se  Se211  1  0.42478492  0.09185801  0.31262427  1
  Se  Se212  1  0.41183926  0.08125965  0.80691867  1
  Se  Se213  1  0.41278394  0.41578572  0.29957747  1
  Se  Se214  1  0.41542912  0.41691962  0.79713401  1
  Se  Se215  1  0.41456536  0.75388521  0.30415575  1
  Se  Se216  1  0.42099335  0.74998890  0.79249128  1
  Se  Se217  1  0.75106598  0.08135520  0.30231691  1
  Se  Se218  1  0.74801097  0.08214636  0.80148414  1
  Se  Se219  1  0.75095271  0.41768716  0.30051009  1
  Se  Se220  1  0.75598691  0.42207672  0.80916453  1
  Se  Se221  1  0.74536977  0.74931865  0.30105324  1
  Se  Se222  1  0.75686755  0.75526602  0.81604519  1
  Se  Se223  1  0.24367772  0.08569686  0.18839042  1
  Se  Se224  1  0.24943441  0.07484638  0.70359002  1
  Se  Se225  1  0.25005764  0.41558128  0.19100351  1
  Se  Se226  1  0.24251287  0.41764817  0.69737159  1
  Se  Se227  1  0.25398910  0.75028907  0.19998193  1
  Se  Se228  1  0.25149904  0.74530805  0.69413345  1
  Se  Se229  1  0.58627517  0.07828704  0.20250017  1
  Se  Se230  1  0.58355231  0.08595838  0.69792119  1
  Se  Se231  1  0.58375123  0.41596275  0.19889510  1
  Se  Se232  1  0.57374462  0.42514518  0.69229341  1
  Se  Se233  1  0.58440346  0.75036719  0.19170061  1
  Se  Se234  1  0.58396741  0.76069221  0.69114860  1
  Se  Se235  1  0.91972691  0.08237053  0.19393130  1
  Se  Se236  1  0.91850600  0.08797391  0.69174638  1
  Se  Se237  1  0.91137582  0.42479386  0.18618007  1
  Se  Se238  1  0.90588820  0.42194418  0.68923775  1
  Se  Se239  1  0.91575845  0.75058852  0.19979545  1
  Se  Se240  1  0.91080192  0.74887848  0.70152686  1
  Se  Se241  1  0.08880271  0.24650266  0.18364211  1
  Se  Se242  1  0.09166970  0.23971730  0.69393488  1
  Se  Se243  1  0.08498713  0.58665183  0.19973164  1
  Se  Se244  1  0.07678490  0.58388173  0.69747369  1
  Se  Se245  1  0.08144714  0.92017530  0.20077123  1
  Se  Se246  1  0.08968434  0.90719831  0.68899020  1
  Se  Se247  1  0.41280308  0.24831479  0.19680824  1
  Se  Se248  1  0.41339251  0.24862527  0.69883450  1
  Se  Se249  1  0.41781782  0.58544710  0.19059844  1
  Se  Se250  1  0.42127631  0.58295937  0.70299496  1
  Se  Se251  1  0.41950886  0.91193333  0.18840001  1
  Se  Se252  1  0.40728955  0.91823102  0.70061506  1
  Se  Se253  1  0.75114265  0.25082979  0.20007886  1
  Se  Se254  1  0.75479898  0.24776326  0.69158368  1
  Se  Se255  1  0.74792905  0.58870548  0.19627508  1
  Se  Se256  1  0.75065543  0.57896700  0.68988845  1
  Se  Se257  1  0.74628812  0.91698681  0.19270989  1
  Se  Se258  1  0.76040480  0.91635100  0.69999096  1
