# generated using pymatgen
data_In86Cu29Se144
_symmetry_space_group_name_H-M   'P 1'
_cell_length_a   17.59038941
_cell_length_b   17.58613360
_cell_length_c   23.45723162
_cell_angle_alpha   90.00642978
_cell_angle_beta   89.99296591
_cell_angle_gamma   89.97741951
_symmetry_Int_Tables_number   1
_chemical_formula_structural   In86Cu29Se144
_chemical_formula_sum   'In86 Cu29 Se144'
_cell_volume   7256.42212113
_cell_formula_units_Z   1
loop_
 _symmetry_equiv_pos_site_id
 _symmetry_equiv_pos_as_xyz
  1  'x, y, z'
loop_
 _atom_site_type_symbol
 _atom_site_label
 _atom_site_symmetry_multiplicity
 _atom_site_fract_x
 _atom_site_fract_y
 _atom_site_fract_z
 _atom_site_occupancy
  In  In0  1  -0.00946875  0.16757506  0.14091072  1
  In  In1  1  -0.00030445  0.17039684  0.62664137  1
  In  In2  1  -0.01241562  0.49185700  0.11333969  1
  In  In3  1  0.00008370  0.49804284  0.62544278  1
  In  In4  1  0.00293062  0.83694729  0.12334779  1
  In  In5  1  -0.01051416  0.84208868  0.62977468  1
  In  In6  1  0.33673656  0.16417103  0.13080207  1
  In  In7  1  0.33036167  0.17726849  0.61724345  1
  In  In8  1  0.33296168  0.49710999  0.12913637  1
  In  In9  1  0.33364765  0.49751589  0.61575593  1
  In  In10  1  0.32406522  0.83725609  0.13735161  1
  In  In11  1  0.33572912  0.82502045  0.61612665  1
  In  In12  1  0.66557852  0.19761249  0.13342012  1
  In  In13  1  0.67749264  0.16460962  0.62503733  1
  In  In14  1  0.65702931  0.49335934  0.11859673  1
  In  In15  1  0.65890086  0.48516345  0.62327452  1
  In  In16  1  0.66762210  0.82283765  0.12229141  1
  In  In17  1  0.66856047  0.83333107  0.61458594  1
  In  In18  1  0.17992959  0.02026484  0.37357708  1
  In  In19  1  0.15414970  0.00998611  0.87328276  1
  In  In20  1  0.16349911  0.33101881  0.37435608  1
  In  In21  1  0.17044398  0.34296378  0.87491050  1
  In  In22  1  0.16623750  0.64771758  0.37638150  1
  In  In23  1  0.14833217  0.65110510  0.86904275  1
  In  In24  1  0.47830157  0.00156899  0.37985890  1
  In  In25  1  0.51047266  0.00982112  0.87573724  1
  In  In26  1  0.50945238  0.34383386  0.36793315  1
  In  In27  1  0.50604654  0.33058006  0.87673523  1
  In  In28  1  0.49368787  0.67204422  0.37882597  1
  In  In29  1  0.49057755  0.65481750  0.87339520  1
  In  In30  1  0.84201058  -0.00328617  0.37807568  1
  In  In31  1  0.83832406  -0.00616248  0.87582793  1
  In  In32  1  0.83791552  0.33183114  0.37663063  1
  In  In33  1  0.84324926  0.33829019  0.86712238  1
  In  In34  1  0.83251765  0.66547914  0.38393282  1
  In  In35  1  0.85992523  0.64903065  0.89043519  1
  In  In36  1  -0.00142414  0.17297518  0.37632468  1
  In  In37  1  0.00680554  0.16572167  0.85741105  1
  In  In38  1  0.00832550  0.48611088  0.38282780  1
  In  In39  1  0.00183355  0.49489438  0.87498506  1
  In  In40  1  -0.01319435  0.83597879  0.37888350  1
  In  In41  1  -0.01058016  0.82330369  0.86433294  1
  In  In42  1  0.32181261  0.16101525  0.36991326  1
  In  In43  1  0.34042572  0.18399545  0.87800599  1
  In  In44  1  0.33355843  0.49724592  0.37071391  1
  In  In45  1  0.33860413  0.47841303  0.89523964  1
  In  In46  1  0.33784872  0.84395369  0.37006688  1
  In  In47  1  0.33779983  0.82554804  0.87712044  1
  In  In48  1  0.67067560  0.18434847  0.37187107  1
  In  In49  1  0.64918436  0.18014300  0.87523500  1
  In  In50  1  0.67559710  0.49100531  0.38125368  1
  In  In51  1  0.67264779  0.49213684  0.87363146  1
  In  In52  1  0.66979205  0.82811857  0.38186817  1
  In  In53  1  0.68012426  0.85033332  0.87598774  1
  In  In54  1  0.16009417  0.00297611  0.13489415  1
  In  In55  1  0.15823467  0.00171273  0.62211562  1
  In  In56  1  0.16431097  0.33576245  0.12868683  1
  In  In57  1  0.15067674  0.32039185  0.61509715  1
  In  In58  1  0.17307320  0.66977194  0.12709358  1
  In  In59  1  0.16588299  0.65027663  0.62202648  1
  In  In60  1  0.48572015  0.00126000  0.12949954  1
  In  In61  1  0.51401660  0.00365579  0.61917367  1
  In  In62  1  0.49763346  0.33848067  0.12710822  1
  In  In63  1  0.49604741  0.34528109  0.63035603  1
  In  In64  1  0.49375313  0.65113403  0.12283464  1
  In  In65  1  0.49752069  0.65891378  0.61660729  1
  In  In66  1  0.84724956  0.00540181  0.12814606  1
  In  In67  1  0.83784822  0.01099400  0.61367210  1
  In  In68  1  0.82542894  0.33911473  0.13667223  1
  In  In69  1  0.83534986  0.33478476  0.62557151  1
  In  In70  1  0.83039044  0.66044430  0.11070123  1
  In  In71  1  0.83869938  0.67253192  0.62182083  1
  In  In72  1  0.50385052  0.82657956  0.00030556  1
  In  In73  1  0.82917317  0.16706548  0.00521199  1
  In  In74  1  0.32923127  0.00318759  0.74957447  1
  In  In75  1  0.67447893  0.00825005  0.74724916  1
  In  In76  1  0.66507413  0.00273052  0.25990754  1
  In  In77  1  0.00123605  0.66269050  0.24963464  1
  In  In78  1  0.65977761  0.65999439  0.24228869  1
  In  In79  1  0.32550105  0.65615909  0.74187793  1
  In  In80  1  0.67603888  0.66416759  0.75883901  1
  In  In81  1  0.32728875  0.33184064  0.75327131  1
  In  In82  1  0.17066371  0.17355895  0.00561821  1
  In  In83  1  0.50016590  0.17041982  0.49464808  1
  In  In84  1  0.16405349  0.82618097  0.00520806  1
  In  In85  1  0.16751377  0.83648077  0.50029869  1
  Cu  Cu86  1  0.33692308  0.66257369  0.49608392  1
  Cu  Cu87  1  0.67490634  0.66935516  -0.00618852  1
  Cu  Cu88  1  0.84141976  0.83517522  0.74903025  1
  Cu  Cu89  1  0.16324482  0.49527346  0.74949088  1
  Cu  Cu90  1  0.83353202  0.16968497  0.74464088  1
  Cu  Cu91  1  0.16877466  0.49492782  0.25073163  1
  Cu  Cu92  1  -0.00222044  0.66403832  0.50125655  1
  Cu  Cu93  1  0.50439873  0.83078095  0.74009150  1
  Cu  Cu94  1  0.32901497  0.65829274  0.00313841  1
  Cu  Cu95  1  -0.00324628  0.33353842  0.50124700  1
  Cu  Cu96  1  0.66832312  0.65824592  0.50253362  1
  Cu  Cu97  1  0.83824236  0.50044551  0.75000781  1
  Cu  Cu98  1  0.83374775  0.83391080  0.25093945  1
  Cu  Cu99  1  0.32930160  0.33801742  0.49485584  1
  Cu  Cu100  1  0.49888518  0.49648763  0.24744544  1
  Cu  Cu101  1  0.49848034  0.17024943  0.25314892  1
  Cu  Cu102  1  -0.00095271  0.00600211  0.50054071  1
  Cu  Cu103  1  0.33761721  0.00828072  0.00467561  1
  Cu  Cu104  1  0.66913194  -0.00284337  0.49519134  1
  Cu  Cu105  1  0.66668932  0.00992853  -0.00014899  1
  Cu  Cu106  1  -0.00251788  0.33518475  -0.00188862  1
  Cu  Cu107  1  0.15842152  0.83760279  0.74962529  1
  Cu  Cu108  1  0.67165833  0.33498916  0.50000694  1
  Cu  Cu109  1  0.66460626  0.34041661  0.00196682  1
  Cu  Cu110  1  -0.00247000  -0.00211923  0.00149573  1
  Cu  Cu111  1  0.48617363  0.83316521  0.25561047  1
  Cu  Cu112  1  0.16287100  0.83543860  0.25386013  1
  Cu  Cu113  1  0.83494926  0.49210148  0.25296491  1
  Cu  Cu114  1  0.16497626  0.17095629  0.25236945  1
  Se  Se115  1  0.07419444  0.08215213  0.06091786  1
  Se  Se116  1  0.08178627  0.08847102  0.55393933  1
  Se  Se117  1  0.08423949  0.41135951  0.05396203  1
  Se  Se118  1  0.08222333  0.42007496  0.55168690  1
  Se  Se119  1  0.06998803  0.73394765  0.05754954  1
  Se  Se120  1  0.07812625  0.74643533  0.56136915  1
  Se  Se121  1  0.42144608  0.09013628  0.05585289  1
  Se  Se122  1  0.41372492  0.07888792  0.55607748  1
  Se  Se123  1  0.43674912  0.44140880  0.06239879  1
  Se  Se124  1  0.41844400  0.41238035  0.55053191  1
  Se  Se125  1  0.40292303  0.74904197  0.06104458  1
  Se  Se126  1  0.42059498  0.74681100  0.54831968  1
  Se  Se127  1  0.73940087  0.08263340  0.07001441  1
  Se  Se128  1  0.74688676  0.08681975  0.54699963  1
  Se  Se129  1  0.75369892  0.41482576  0.05771912  1
  Se  Se130  1  0.75396450  0.41831193  0.55468659  1
  Se  Se131  1  0.75220248  0.75592134  0.04827840  1
  Se  Se132  1  0.75204713  0.74751682  0.55070369  1
  Se  Se133  1  0.26399900  0.26129654  0.06074726  1
  Se  Se134  1  0.24715621  0.25218557  0.54650000  1
  Se  Se135  1  0.24678735  0.57968214  0.05967211  1
  Se  Se136  1  0.25039493  0.58115625  0.54829587  1
  Se  Se137  1  0.25338912  0.92668230  0.05962070  1
  Se  Se138  1  0.25983168  0.92728318  0.55684911  1
  Se  Se139  1  0.58190360  0.25615501  0.05527892  1
  Se  Se140  1  0.58763135  0.25553498  0.55999846  1
  Se  Se141  1  0.59051798  0.59283443  0.05235979  1
  Se  Se142  1  0.58366329  0.57448052  0.55358381  1
  Se  Se143  1  0.58726175  0.92514271  0.06027822  1
  Se  Se144  1  0.58367530  0.91603648  0.54791663  1
  Se  Se145  1  0.92230287  0.25528132  0.06270353  1
  Se  Se146  1  0.91479629  0.24915717  0.55586776  1
  Se  Se147  1  0.91635051  0.58226042  0.04552612  1
  Se  Se148  1  0.91603978  0.58109468  0.55621420  1
  Se  Se149  1  0.91492662  0.91628421  0.05573431  1
  Se  Se150  1  0.91717135  0.91676292  0.55101235  1
  Se  Se151  1  0.08322850  0.25181895  0.44780363  1
  Se  Se152  1  0.07394929  0.24950372  0.93966558  1
  Se  Se153  1  0.08181838  0.57985776  0.45033511  1
  Se  Se154  1  0.08343275  0.57463760  0.94665014  1
  Se  Se155  1  0.07972111  0.92638892  0.43885816  1
  Se  Se156  1  0.07841839  0.91770583  0.94196186  1
  Se  Se157  1  0.41168676  0.25914814  0.43337702  1
  Se  Se158  1  0.41598004  0.26222952  0.94851775  1
  Se  Se159  1  0.41798358  0.57686899  0.44242757  1
  Se  Se160  1  0.41822486  0.58064274  0.95066390  1
  Se  Se161  1  0.41986194  0.90519387  0.44876060  1
  Se  Se162  1  0.41353414  0.92442305  0.94267003  1
  Se  Se163  1  0.75369718  0.25015382  0.44802673  1
  Se  Se164  1  0.74605211  0.25886954  0.94180730  1
  Se  Se165  1  0.75392223  0.57741288  0.44965429  1
  Se  Se166  1  0.75186204  0.57823937  0.94334715  1
  Se  Se167  1  0.75546990  0.91373580  0.44471399  1
  Se  Se168  1  0.75403640  0.92631841  0.95232491  1
  Se  Se169  1  0.25773413  0.08638568  0.45150871  1
  Se  Se170  1  0.25527795  0.07904500  0.94055781  1
  Se  Se171  1  0.24589400  0.42016790  0.44073478  1
  Se  Se172  1  0.24037812  0.40936971  0.95632013  1
  Se  Se173  1  0.25274229  0.74332156  0.43836031  1
  Se  Se174  1  0.25157771  0.73685317  0.93965666  1
  Se  Se175  1  0.59062961  0.07865676  0.43345247  1
  Se  Se176  1  0.58153700  0.09214960  0.94950068  1
  Se  Se177  1  0.58316079  0.41495671  0.44789237  1
  Se  Se178  1  0.58338582  0.42117623  0.94467637  1
  Se  Se179  1  0.58684305  0.74299248  0.44716803  1
  Se  Se180  1  0.59212104  0.74512891  0.93150699  1
  Se  Se181  1  0.91581280  0.08793905  0.44579950  1
  Se  Se182  1  0.92589627  0.08647626  0.94104301  1
  Se  Se183  1  0.91222994  0.41847436  0.44964565  1
  Se  Se184  1  0.91281583  0.41605365  0.94475054  1
  Se  Se185  1  0.91526323  0.75043098  0.45062337  1
  Se  Se186  1  0.91145466  0.76504468  0.94533307  1
  Se  Se187  1  0.25052836  0.25466315  0.30309472  1
  Se  Se188  1  0.23596602  0.23676477  0.80832252  1
  Se  Se189  1  0.25046480  0.58220751  0.30088545  1
  Se  Se190  1  0.25051371  0.56694975  0.81178651  1
  Se  Se191  1  0.24581581  0.92101230  0.30585408  1
  Se  Se192  1  0.24429142  0.90652235  0.81239955  1
  Se  Se193  1  0.58649863  0.25511111  0.29876503  1
  Se  Se194  1  0.58486888  0.26133540  0.79904479  1
  Se  Se195  1  0.57908009  0.57518824  0.31104170  1
  Se  Se196  1  0.57539016  0.57338061  0.80493258  1
  Se  Se197  1  0.57393967  0.90673613  0.31364424  1
  Se  Se198  1  0.57857414  0.91137807  0.80321334  1
  Se  Se199  1  0.93043796  0.26510203  0.30627013  1
  Se  Se200  1  0.91882398  0.25195768  0.79724377  1
  Se  Se201  1  0.91149997  0.57617457  0.31252054  1
  Se  Se202  1  0.92201778  0.58213919  0.80457554  1
  Se  Se203  1  0.91753369  0.91641427  0.30212027  1
  Se  Se204  1  0.92099184  0.92491036  0.80033804  1
  Se  Se205  1  0.08297189  0.08743886  0.30744564  1
  Se  Se206  1  0.08319735  0.07533788  0.79284752  1
  Se  Se207  1  0.08150073  0.41512821  0.30345052  1
  Se  Se208  1  0.08150036  0.41089125  0.80316749  1
  Se  Se209  1  0.08584081  0.75322388  0.31490660  1
  Se  Se210  1  0.08256045  0.74643112  0.80069233  1
  Se  Se211  1  0.41394465  0.08393952  0.30241699  1
  Se  Se212  1  0.42243505  0.09188919  0.80842444  1
  Se  Se213  1  0.41466978  0.41334305  0.30045520  1
  Se  Se214  1  0.41778973  0.42406399  0.80947818  1
  Se  Se215  1  0.40786590  0.74339787  0.30589942  1
  Se  Se216  1  0.42212733  0.75258321  0.79948666  1
  Se  Se217  1  0.76081127  0.09199973  0.31151788  1
  Se  Se218  1  0.75719637  0.09651120  0.81472761  1
  Se  Se219  1  0.74931409  0.41183609  0.30618854  1
  Se  Se220  1  0.75323677  0.41621907  0.80034557  1
  Se  Se221  1  0.75297472  0.74796895  0.30501367  1
  Se  Se222  1  0.76469339  0.75882562  0.81391281  1
  Se  Se223  1  0.24749517  0.08588861  0.19787780  1
  Se  Se224  1  0.24445163  0.09323336  0.68802475  1
  Se  Se225  1  0.25274401  0.41172810  0.19808509  1
  Se  Se226  1  0.24318901  0.41871795  0.68589968  1
  Se  Se227  1  0.24539605  0.74879786  0.20319463  1
  Se  Se228  1  0.23857444  0.75861356  0.68866038  1
  Se  Se229  1  0.57940677  0.08915832  0.19224975  1
  Se  Se230  1  0.57521162  0.09568696  0.69471116  1
  Se  Se231  1  0.58859613  0.41554414  0.19723519  1
  Se  Se232  1  0.58775366  0.40959313  0.70085227  1
  Se  Se233  1  0.56556627  0.75815415  0.19082016  1
  Se  Se234  1  0.58590391  0.74678469  0.68735128  1
  Se  Se235  1  0.92243623  0.07191582  0.20608448  1
  Se  Se236  1  0.91292243  0.08216463  0.69199487  1
  Se  Se237  1  0.92337984  0.41807123  0.19655486  1
  Se  Se238  1  0.91978976  0.41522229  0.69584038  1
  Se  Se239  1  0.90695393  0.74892050  0.18890183  1
  Se  Se240  1  0.92014685  0.74589559  0.69702163  1
  Se  Se241  1  0.08239693  0.25333177  0.19808780  1
  Se  Se242  1  0.08196995  0.25263842  0.69597153  1
  Se  Se243  1  0.08671414  0.57227801  0.18825425  1
  Se  Se244  1  0.08263990  0.58236622  0.69687436  1
  Se  Se245  1  0.07773940  0.91434761  0.19886717  1
  Se  Se246  1  0.08027602  0.92174147  0.69430182  1
  Se  Se247  1  0.41752030  0.25258116  0.19648832  1
  Se  Se248  1  0.41952537  0.24265595  0.69247688  1
  Se  Se249  1  0.41417365  0.58440801  0.20000123  1
  Se  Se250  1  0.42523211  0.56926584  0.69087097  1
  Se  Se251  1  0.40881082  0.92204386  0.20245967  1
  Se  Se252  1  0.42163799  0.91357104  0.68620749  1
  Se  Se253  1  0.77149574  0.23384233  0.20187278  1
  Se  Se254  1  0.74837983  0.25318256  0.69486998  1
  Se  Se255  1  0.75902212  0.57349471  0.18933184  1
  Se  Se256  1  0.75535929  0.57780672  0.68910700  1
  Se  Se257  1  0.74830560  0.91104128  0.19243074  1
  Se  Se258  1  0.75750897  0.91151273  0.68788254  1
