# generated using pymatgen
data_In86Cu29Se144
_symmetry_space_group_name_H-M   'P 1'
_cell_length_a   17.71258867
_cell_length_b   17.71060724
_cell_length_c   23.58285634
_cell_angle_alpha   90.04041533
_cell_angle_beta   89.94573015
_cell_angle_gamma   89.94363746
_symmetry_Int_Tables_number   1
_chemical_formula_structural   In86Cu29Se144
_chemical_formula_sum   'In86 Cu29 Se144'
_cell_volume   7397.94982406
_cell_formula_units_Z   1
loop_
 _symmetry_equiv_pos_site_id
 _symmetry_equiv_pos_as_xyz
  1  'x, y, z'
loop_
 _atom_site_type_symbol
 _atom_site_label
 _atom_site_symmetry_multiplicity
 _atom_site_fract_x
 _atom_site_fract_y
 _atom_site_fract_z
 _atom_site_occupancy
  In  In0  1  0.00096094  0.17310703  0.13962735  1
  In  In1  1  0.01488141  0.16380104  0.62517967  1
  In  In2  1  0.00346557  0.50112724  0.12556600  1
  In  In3  1  -0.00536310  0.50289661  0.62727077  1
  In  In4  1  -0.01430849  0.84341797  0.12890161  1
  In  In5  1  -0.01343027  0.82917048  0.62581017  1
  In  In6  1  0.30252592  0.16722771  0.12296382  1
  In  In7  1  0.33359851  0.16120333  0.63012377  1
  In  In8  1  0.30932434  0.49164087  0.11338161  1
  In  In9  1  0.32865114  0.49920596  0.64114694  1
  In  In10  1  0.33531154  0.83259437  0.12139957  1
  In  In11  1  0.32512352  0.84091449  0.63562387  1
  In  In12  1  0.68724244  0.15865336  0.12387717  1
  In  In13  1  0.66101192  0.17065553  0.63409350  1
  In  In14  1  0.66963697  0.48438343  0.12611240  1
  In  In15  1  0.67593614  0.48646045  0.62895360  1
  In  In16  1  0.67233567  0.84106046  0.11743933  1
  In  In17  1  0.68624939  0.83387071  0.62956190  1
  In  In18  1  0.18107799  0.02272205  0.34286682  1
  In  In19  1  0.16650803  0.00572373  0.88502996  1
  In  In20  1  0.15802100  0.33174297  0.37265950  1
  In  In21  1  0.16499162  0.33198685  0.88254041  1
  In  In22  1  0.16759960  0.67884829  0.37052465  1
  In  In23  1  0.15649522  0.66629054  0.86814666  1
  In  In24  1  0.50557000  0.01002858  0.37915434  1
  In  In25  1  0.49072984  -0.01056969  0.87099544  1
  In  In26  1  0.49295041  0.31704004  0.37622620  1
  In  In27  1  0.50262585  0.33695721  0.86537971  1
  In  In28  1  0.48720149  0.66535510  0.37876766  1
  In  In29  1  0.49483990  0.68525497  0.87381457  1
  In  In30  1  0.83125521  -0.00620525  0.37678152  1
  In  In31  1  0.82819171  0.00617720  0.87844231  1
  In  In32  1  0.84510381  0.33688826  0.36457338  1
  In  In33  1  0.83403656  0.33688225  0.87705156  1
  In  In34  1  0.84251002  0.66543170  0.37802457  1
  In  In35  1  0.83772120  0.65464784  0.88187342  1
  In  In36  1  0.01074191  0.17675113  0.36478649  1
  In  In37  1  -0.01576580  0.18409853  0.89305664  1
  In  In38  1  -0.01074160  0.49410462  0.36791116  1
  In  In39  1  -0.00035141  0.49609313  0.88162434  1
  In  In40  1  -0.00226003  0.83457177  0.36852600  1
  In  In41  1  -0.00110921  0.82446307  0.87560243  1
  In  In42  1  0.34172054  0.15748244  0.38457031  1
  In  In43  1  0.32057046  0.15441801  0.87327074  1
  In  In44  1  0.32984358  0.50164356  0.37987631  1
  In  In45  1  0.32586794  0.49489033  0.86597139  1
  In  In46  1  0.32193157  0.84685810  0.37813222  1
  In  In47  1  0.33397622  0.85135281  0.86994035  1
  In  In48  1  0.65659479  0.16662406  0.37565054  1
  In  In49  1  0.67317300  0.17600569  0.86890062  1
  In  In50  1  0.68376892  0.49963006  0.37426396  1
  In  In51  1  0.67919350  0.49884143  0.87328089  1
  In  In52  1  0.67303935  0.84630592  0.37887261  1
  In  In53  1  0.66114184  0.83720388  0.87644108  1
  In  In54  1  0.15513525  0.00823708  0.13621321  1
  In  In55  1  0.16987724  0.01454578  0.62430623  1
  In  In56  1  0.11511662  0.31101995  0.07091336  1
  In  In57  1  0.17324544  0.32301605  0.63168771  1
  In  In58  1  0.15542842  0.63227561  0.10877612  1
  In  In59  1  0.16215268  0.66915846  0.63861766  1
  In  In60  1  0.49705190  -0.00981014  0.12510278  1
  In  In61  1  0.49172047  0.01294218  0.63443213  1
  In  In62  1  0.50779759  0.33559892  0.12982178  1
  In  In63  1  0.50601913  0.31871685  0.63401959  1
  In  In64  1  0.48378704  0.66995767  0.11606630  1
  In  In65  1  0.49887782  0.65607101  0.63134572  1
  In  In66  1  0.89707455  0.04051452  0.07090913  1
  In  In67  1  0.83993331  -0.01468216  0.63063513  1
  In  In68  1  0.83799840  0.33150387  0.12405535  1
  In  In69  1  0.82889614  0.33757721  0.62861253  1
  In  In70  1  0.84733420  0.67844443  0.11515860  1
  In  In71  1  0.84763453  0.66932204  0.61635676  1
  In  In72  1  0.00913257  0.00273849  0.75703856  1
  In  In73  1  0.33310180  0.33360048  0.24576457  1
  In  In74  1  0.16197645  0.84287855  0.50417928  1
  In  In75  1  0.49599163  0.16231304  -0.00057028  1
  In  In76  1  0.66976764  0.66552036  0.75352910  1
  In  In77  1  0.16299204  0.49479940  0.49964385  1
  In  In78  1  0.83365569  0.16484107  0.50084861  1
  In  In79  1  0.32806328  0.66818485  0.23487813  1
  In  In80  1  0.66779444  0.66557244  0.24345068  1
  In  In81  1  0.51143884  0.48346046  0.51719029  1
  In  In82  1  0.50751438  0.83236209  0.50518766  1
  In  In83  1  0.16538434  0.83588297  0.00007892  1
  In  In84  1  0.67045603  -0.00140352  0.25058977  1
  In  In85  1  0.50229238  0.50503525  -0.00938768  1
  Cu  Cu86  1  0.83870699  0.16859703  0.75674073  1
  Cu  Cu87  1  0.00022863  0.66448230  -0.00144663  1
  Cu  Cu88  1  0.16425752  0.17504003  0.75597297  1
  Cu  Cu89  1  0.16350942  0.83820112  0.75526134  1
  Cu  Cu90  1  -0.00241858  0.66368341  0.49589759  1
  Cu  Cu91  1  0.49504681  0.50172798  0.74981656  1
  Cu  Cu92  1  0.00374492  -0.00121786  0.49778893  1
  Cu  Cu93  1  0.49984686  0.16553619  0.75436903  1
  Cu  Cu94  1  0.15551658  0.49457038  0.75505679  1
  Cu  Cu95  1  0.67216632  -0.00199363  0.50335819  1
  Cu  Cu96  1  0.33302439  0.66204147  0.50895417  1
  Cu  Cu97  1  0.67187921  0.33318914  0.50346592  1
  Cu  Cu98  1  0.33675259  0.33801618  -0.00680156  1
  Cu  Cu99  1  0.15619115  0.50150090  0.24706857  1
  Cu  Cu100  1  0.83958178  0.49927182  0.24645016  1
  Cu  Cu101  1  0.49990799  0.83856321  0.75205490  1
  Cu  Cu102  1  0.67789165  0.32506199  0.00069710  1
  Cu  Cu103  1  0.83640219  0.16871579  0.24005132  1
  Cu  Cu104  1  0.15894238  0.82812218  0.24532803  1
  Cu  Cu105  1  0.67914687  0.66773763  0.49896175  1
  Cu  Cu106  1  0.33379934  0.31764960  0.50817775  1
  Cu  Cu107  1  0.66364799  0.00086547  -0.00242157  1
  Cu  Cu108  1  0.49180625  0.83065252  0.24504475  1
  Cu  Cu109  1  0.66513493  0.66381134  -0.00438919  1
  Cu  Cu110  1  0.83974746  0.49579447  0.75463229  1
  Cu  Cu111  1  0.49809786  0.16552752  0.25299891  1
  Cu  Cu112  1  0.83093367  0.83392084  0.24493221  1
  Cu  Cu113  1  0.00087101  0.32930868  0.49175860  1
  Cu  Cu114  1  0.50519657  0.50099933  0.24850936  1
  Se  Se115  1  0.05482220  0.06693876  0.06695397  1
  Se  Se116  1  0.08522279  0.08281981  0.55007660  1
  Se  Se117  1  0.11966695  0.45783705  0.06317871  1
  Se  Se118  1  0.07740735  0.40475375  0.55953893  1
  Se  Se119  1  0.07664854  0.74561990  0.06099839  1
  Se  Se120  1  0.07914694  0.73984105  0.55762494  1
  Se  Se121  1  0.40793840  0.08367393  0.06573851  1
  Se  Se122  1  0.42051380  0.08775349  0.55926333  1
  Se  Se123  1  0.41850481  0.41179036  0.05649023  1
  Se  Se124  1  0.40490326  0.40578171  0.56863150  1
  Se  Se125  1  0.41965069  0.76221394  0.04816681  1
  Se  Se126  1  0.41205783  0.74505036  0.56513791  1
  Se  Se127  1  0.75222388  0.08076919  0.04695970  1
  Se  Se128  1  0.74958281  0.07766658  0.56576516  1
  Se  Se129  1  0.75352505  0.41356295  0.05412422  1
  Se  Se130  1  0.75591384  0.41743986  0.55229755  1
  Se  Se131  1  0.74470905  0.74478717  0.05379706  1
  Se  Se132  1  0.75583249  0.75154745  0.55473784  1
  Se  Se133  1  0.25179545  0.25721139  0.04564094  1
  Se  Se134  1  0.24591630  0.23973481  0.55951701  1
  Se  Se135  1  0.28512824  0.61549349  0.06048436  1
  Se  Se136  1  0.24929631  0.58419231  0.56492615  1
  Se  Se137  1  0.24531262  0.92740298  0.06490992  1
  Se  Se138  1  0.26070167  0.92767821  0.55792001  1
  Se  Se139  1  0.59082158  0.25114789  0.05916958  1
  Se  Se140  1  0.59001488  0.25218750  0.55799963  1
  Se  Se141  1  0.58900008  0.58540098  0.06116695  1
  Se  Se142  1  0.59922833  0.59091996  0.56145318  1
  Se  Se143  1  0.58201724  0.91965338  0.05283859  1
  Se  Se144  1  0.59231622  0.92169097  0.56663152  1
  Se  Se145  1  0.92125205  0.24488896  0.06126282  1
  Se  Se146  1  0.92494563  0.25341583  0.55904915  1
  Se  Se147  1  0.91967817  0.58007894  0.05364666  1
  Se  Se148  1  0.91975717  0.57664060  0.54925510  1
  Se  Se149  1  0.89358194  0.89484807  0.05436246  1
  Se  Se150  1  0.92172012  0.91892066  0.55315092  1
  Se  Se151  1  0.08669148  0.24565315  0.44433197  1
  Se  Se152  1  0.08030165  0.25768636  0.95623618  1
  Se  Se153  1  0.08219539  0.58864015  0.43619451  1
  Se  Se154  1  0.08599938  0.58632247  0.94412277  1
  Se  Se155  1  0.08279544  0.92408736  0.43390498  1
  Se  Se156  1  0.06889151  0.92204235  0.94407873  1
  Se  Se157  1  0.42198410  0.24294938  0.45337446  1
  Se  Se158  1  0.41603349  0.25623696  0.93600350  1
  Se  Se159  1  0.41628446  0.57753446  0.45573396  1
  Se  Se160  1  0.40961102  0.58955640  0.93338795  1
  Se  Se161  1  0.41724944  0.91982713  0.44485407  1
  Se  Se162  1  0.41574819  0.91681663  0.94662972  1
  Se  Se163  1  0.74824270  0.25573107  0.43823029  1
  Se  Se164  1  0.75637556  0.24371356  0.94394775  1
  Se  Se165  1  0.75738541  0.58282565  0.44463029  1
  Se  Se166  1  0.74900116  0.57681031  0.94942724  1
  Se  Se167  1  0.75619367  0.91530760  0.45232771  1
  Se  Se168  1  0.74628758  0.91801265  0.94363610  1
  Se  Se169  1  0.24448859  0.07041319  0.43388497  1
  Se  Se170  1  0.25049126  0.08419414  0.95270982  1
  Se  Se171  1  0.26056472  0.40248371  0.44625581  1
  Se  Se172  1  0.25183423  0.42220545  0.94402780  1
  Se  Se173  1  0.25788401  0.74322045  0.44775740  1
  Se  Se174  1  0.24836390  0.75357217  0.93157494  1
  Se  Se175  1  0.59054322  0.08203368  0.45097567  1
  Se  Se176  1  0.58707366  0.08119183  0.93509157  1
  Se  Se177  1  0.59041473  0.40935643  0.43923277  1
  Se  Se178  1  0.59435470  0.40490142  0.94220896  1
  Se  Se179  1  0.59257424  0.74020261  0.43924297  1
  Se  Se180  1  0.58386300  0.74964501  0.94567300  1
  Se  Se181  1  0.92426366  0.08126653  0.43814561  1
  Se  Se182  1  0.92114265  0.07410036  0.94756144  1
  Se  Se183  1  0.91654076  0.41348695  0.44261707  1
  Se  Se184  1  0.91165441  0.41824765  0.94772559  1
  Se  Se185  1  0.92191711  0.75382178  0.44335226  1
  Se  Se186  1  0.91658355  0.74652914  0.94625478  1
  Se  Se187  1  0.25560678  0.24787041  0.31531281  1
  Se  Se188  1  0.24965289  0.25317956  0.81125725  1
  Se  Se189  1  0.24499909  0.57699035  0.30479517  1
  Se  Se190  1  0.24113071  0.58104315  0.80212529  1
  Se  Se191  1  0.24925088  0.90743871  0.29589489  1
  Se  Se192  1  0.23823608  0.92772226  0.80758220  1
  Se  Se193  1  0.58130089  0.24972048  0.30367176  1
  Se  Se194  1  0.58593334  0.25268609  0.80042708  1
  Se  Se195  1  0.57699259  0.58238355  0.31165419  1
  Se  Se196  1  0.57547754  0.57849953  0.81277469  1
  Se  Se197  1  0.57368846  0.90721987  0.30736370  1
  Se  Se198  1  0.58520237  0.91892425  0.80398806  1
  Se  Se199  1  0.91964794  0.24950201  0.29646459  1
  Se  Se200  1  0.91904973  0.25271705  0.80893779  1
  Se  Se201  1  0.91487372  0.58635806  0.30223475  1
  Se  Se202  1  0.91896543  0.57867913  0.80956701  1
  Se  Se203  1  0.90888554  0.91646317  0.30379915  1
  Se  Se204  1  0.91339987  0.91537652  0.81011320  1
  Se  Se205  1  0.05931538  0.07121323  0.29870197  1
  Se  Se206  1  0.08313566  0.10053973  0.81962416  1
  Se  Se207  1  0.08128510  0.41597773  0.30437683  1
  Se  Se208  1  0.08039775  0.41112968  0.81257820  1
  Se  Se209  1  0.07909019  0.74691278  0.30149676  1
  Se  Se210  1  0.07718796  0.75202812  0.79948923  1
  Se  Se211  1  0.42025057  0.08154045  0.30800037  1
  Se  Se212  1  0.41563630  0.08398996  0.80714125  1
  Se  Se213  1  0.42287519  0.42513728  0.31109358  1
  Se  Se214  1  0.41398755  0.41484977  0.80014462  1
  Se  Se215  1  0.41259447  0.75348599  0.30787462  1
  Se  Se216  1  0.41181545  0.75924610  0.80259432  1
  Se  Se217  1  0.75882180  0.09487650  0.30881274  1
  Se  Se218  1  0.75221302  0.08498770  0.80396143  1
  Se  Se219  1  0.75453480  0.41828718  0.30062621  1
  Se  Se220  1  0.75084599  0.41358077  0.80235180  1
  Se  Se221  1  0.75060589  0.75729526  0.30778727  1
  Se  Se222  1  0.75692230  0.75040858  0.81513108  1
  Se  Se223  1  0.24356842  0.08737301  0.20207232  1
  Se  Se224  1  0.24360653  0.08792201  0.70123946  1
  Se  Se225  1  0.23730782  0.41843307  0.19112450  1
  Se  Se226  1  0.24217348  0.41401994  0.70144896  1
  Se  Se227  1  0.23170998  0.75114133  0.17905629  1
  Se  Se228  1  0.24725084  0.75363423  0.70177449  1
  Se  Se229  1  0.57978961  0.08863202  0.19008700  1
  Se  Se230  1  0.58498044  0.08271113  0.70179394  1
  Se  Se231  1  0.58798859  0.41352324  0.20127189  1
  Se  Se232  1  0.57803819  0.42131382  0.69401160  1
  Se  Se233  1  0.57401361  0.75430698  0.18646468  1
  Se  Se234  1  0.57862232  0.75617752  0.69165893  1
  Se  Se235  1  0.90142033  0.07798800  0.18134429  1
  Se  Se236  1  0.91620960  0.08951931  0.69308751  1
  Se  Se237  1  0.92056255  0.41618314  0.19201143  1
  Se  Se238  1  0.91817177  0.41455538  0.69503373  1
  Se  Se239  1  0.91593402  0.74749320  0.19747784  1
  Se  Se240  1  0.91491003  0.74434396  0.69505734  1
  Se  Se241  1  0.10304181  0.26672341  0.17535204  1
  Se  Se242  1  0.07960071  0.25075135  0.69891994  1
  Se  Se243  1  0.07857871  0.59096705  0.19703281  1
  Se  Se244  1  0.07834458  0.57937772  0.69776981  1
  Se  Se245  1  0.07524749  0.91532280  0.19776500  1
  Se  Se246  1  0.08827787  0.91314554  0.68612227  1
  Se  Se247  1  0.42065265  0.23935868  0.18654792  1
  Se  Se248  1  0.41426646  0.24592641  0.69977605  1
  Se  Se249  1  0.42068958  0.56907024  0.18614287  1
  Se  Se250  1  0.41136455  0.58927440  0.70302817  1
  Se  Se251  1  0.41034857  0.91583754  0.19502622  1
  Se  Se252  1  0.41494950  0.92017655  0.69870871  1
  Se  Se253  1  0.74907063  0.25307388  0.19362134  1
  Se  Se254  1  0.75647007  0.24665184  0.69610709  1
  Se  Se255  1  0.75964983  0.57860043  0.18537543  1
  Se  Se256  1  0.76015348  0.57718517  0.69242069  1
  Se  Se257  1  0.75837122  0.91880505  0.18613532  1
  Se  Se258  1  0.75215462  0.91940148  0.70186683  1
