# generated using pymatgen
data_In86Cu29Se144
_symmetry_space_group_name_H-M   'P 1'
_cell_length_a   17.58220903
_cell_length_b   17.58623475
_cell_length_c   23.44532678
_cell_angle_alpha   90.02066581
_cell_angle_beta   90.00827506
_cell_angle_gamma   89.99417739
_symmetry_Int_Tables_number   1
_chemical_formula_structural   In86Cu29Se144
_chemical_formula_sum   'In86 Cu29 Se144'
_cell_volume   7249.40829219
_cell_formula_units_Z   1
loop_
 _symmetry_equiv_pos_site_id
 _symmetry_equiv_pos_as_xyz
  1  'x, y, z'
loop_
 _atom_site_type_symbol
 _atom_site_label
 _atom_site_symmetry_multiplicity
 _atom_site_fract_x
 _atom_site_fract_y
 _atom_site_fract_z
 _atom_site_occupancy
  In  In0  1  -0.00015113  0.16565523  0.13397014  1
  In  In1  1  0.03325548  0.16346317  0.63283373  1
  In  In2  1  -0.00839147  0.49457633  0.12073939  1
  In  In3  1  -0.00586904  0.50842458  0.63075955  1
  In  In4  1  0.00457430  0.84479225  0.12009754  1
  In  In5  1  0.00763273  0.82096356  0.62810478  1
  In  In6  1  0.35342911  0.15319981  0.14412353  1
  In  In7  1  0.33337763  0.16488106  0.61450205  1
  In  In8  1  0.34747446  0.48753269  0.13558276  1
  In  In9  1  0.34807308  0.49823869  0.62336617  1
  In  In10  1  0.34862959  0.82996160  0.14252845  1
  In  In11  1  0.33641165  0.83402762  0.62321323  1
  In  In12  1  0.66522553  0.18236855  0.13011859  1
  In  In13  1  0.65366831  0.16676187  0.62049757  1
  In  In14  1  0.66057142  0.49593593  0.11803965  1
  In  In15  1  0.67506447  0.49938417  0.62059314  1
  In  In16  1  0.65978322  0.82758553  0.11774044  1
  In  In17  1  0.65474062  0.83091088  0.63006692  1
  In  In18  1  0.17491843  0.00234754  0.38131827  1
  In  In19  1  0.17184668  -0.00878122  0.86902519  1
  In  In20  1  0.16124736  0.32074235  0.37058529  1
  In  In21  1  0.16307295  0.34383087  0.87309510  1
  In  In22  1  0.18456962  0.66464695  0.37599603  1
  In  In23  1  0.17185235  0.67393653  0.85976077  1
  In  In24  1  0.47656758  0.00622487  0.38970645  1
  In  In25  1  0.48733450  0.00186362  0.88184781  1
  In  In26  1  0.50087675  0.33230542  0.36651072  1
  In  In27  1  0.50354160  0.32753997  0.88270473  1
  In  In28  1  0.48779984  0.67884526  0.38701172  1
  In  In29  1  0.49845016  0.66720949  0.87516529  1
  In  In30  1  0.83702439  -0.00841481  0.36703354  1
  In  In31  1  0.81994230  -0.00196141  0.87878445  1
  In  In32  1  0.84021816  0.33447488  0.37238776  1
  In  In33  1  0.84750352  0.34159494  0.88001083  1
  In  In34  1  0.81922482  0.66069906  0.37770270  1
  In  In35  1  0.82782586  0.66611893  0.87394667  1
  In  In36  1  0.01252265  0.16944142  0.37406742  1
  In  In37  1  0.00072548  0.17467089  0.86891851  1
  In  In38  1  -0.00100782  0.48282040  0.37808055  1
  In  In39  1  -0.01333688  0.49413299  0.87188986  1
  In  In40  1  0.00323103  0.84816738  0.37364078  1
  In  In41  1  -0.00514215  0.82172432  0.86765378  1
  In  In42  1  0.33320541  0.15879380  0.37415254  1
  In  In43  1  0.34552572  0.16519503  0.87143908  1
  In  In44  1  0.34711035  0.51465741  0.36778346  1
  In  In45  1  0.33190931  0.51051996  0.87560443  1
  In  In46  1  0.33825201  0.83247388  0.38118457  1
  In  In47  1  0.33796303  0.84312625  0.86693100  1
  In  In48  1  0.63272154  0.16940525  0.36816236  1
  In  In49  1  0.65554509  0.15647669  0.87560904  1
  In  In50  1  0.67126198  0.49345595  0.37830898  1
  In  In51  1  0.65488059  0.51044654  0.88288113  1
  In  In52  1  0.65701129  0.82169444  0.37535795  1
  In  In53  1  0.67256704  0.81960595  0.88105406  1
  In  In54  1  0.16799611  0.00336666  0.13369556  1
  In  In55  1  0.20120448  0.02195985  0.59472876  1
  In  In56  1  0.17333428  0.32798507  0.13506778  1
  In  In57  1  0.16381861  0.31304347  0.62570422  1
  In  In58  1  0.17581064  0.67893158  0.12676417  1
  In  In59  1  0.16164849  0.67789604  0.62692457  1
  In  In60  1  0.49413171  -0.00567078  0.12493215  1
  In  In61  1  0.48685193  -0.00875826  0.61182354  1
  In  In62  1  0.50195590  0.33281289  0.12703906  1
  In  In63  1  0.49192786  0.33081617  0.61390826  1
  In  In64  1  0.49958568  0.66825848  0.12341762  1
  In  In65  1  0.50183881  0.66235698  0.63048798  1
  In  In66  1  0.84199496  0.00303934  0.12428387  1
  In  In67  1  0.82847389  -0.00788278  0.62742193  1
  In  In68  1  0.83408736  0.33942626  0.12864883  1
  In  In69  1  0.83309177  0.34731271  0.62564531  1
  In  In70  1  0.82610686  0.65902971  0.11010210  1
  In  In71  1  0.84530181  0.65910153  0.63721705  1
  In  In72  1  0.66059660  0.66456191  0.24203186  1
  In  In73  1  0.00347802  0.66496292  0.24253794  1
  In  In74  1  0.32678363  0.33365479  0.74505530  1
  In  In75  1  0.16843533  0.49788752  0.49591337  1
  In  In76  1  0.65762683  -0.00766431  0.74357088  1
  In  In77  1  0.17054701  0.17065776  -0.00386260  1
  In  In78  1  0.66372382  0.33457242  0.75682466  1
  In  In79  1  0.16833413  0.50269217  0.00018992  1
  In  In80  1  0.83546382  0.17635029  0.49847771  1
  In  In81  1  0.16934761  0.83575962  -0.00449216  1
  In  In82  1  0.65912810  0.00136905  0.25625467  1
  In  In83  1  0.83271418  0.82500353  0.50543484  1
  In  In84  1  0.00790306  -0.00452928  0.74619043  1
  In  In85  1  0.82547133  0.17150828  0.00788789  1
  Cu  Cu86  1  0.17428630  0.84097858  0.73954152  1
  Cu  Cu87  1  0.83979784  0.49209694  0.25125318  1
  Cu  Cu88  1  0.33821624  0.66983525  0.50268831  1
  Cu  Cu89  1  0.49755076  0.82935967  0.75091974  1
  Cu  Cu90  1  -0.00875463  0.00164203  0.00149141  1
  Cu  Cu91  1  0.50770922  0.50229700  0.24878001  1
  Cu  Cu92  1  0.66449805  0.66944839  -0.00433278  1
  Cu  Cu93  1  -0.00545489  0.33670627  0.50193922  1
  Cu  Cu94  1  0.65889151  0.33130693  0.49533712  1
  Cu  Cu95  1  0.34336784  0.32927724  0.00905779  1
  Cu  Cu96  1  0.65999064  0.65779184  0.50320882  1
  Cu  Cu97  1  -0.00481082  0.66277749  -0.00939264  1
  Cu  Cu98  1  0.34190131  0.66591378  0.00224367  1
  Cu  Cu99  1  0.00823379  0.00046026  0.49788793  1
  Cu  Cu100  1  0.66681362  0.33611600  0.00295055  1
  Cu  Cu101  1  0.83239658  0.50773621  0.75077800  1
  Cu  Cu102  1  0.33892156  -0.00371025  0.00775629  1
  Cu  Cu103  1  0.16166598  0.50600912  0.74808065  1
  Cu  Cu104  1  0.16784840  0.49651430  0.25635378  1
  Cu  Cu105  1  0.33746530  0.33447966  0.49106752  1
  Cu  Cu106  1  0.83817261  0.16769488  0.25103576  1
  Cu  Cu107  1  0.83646318  0.17185300  0.74794867  1
  Cu  Cu108  1  0.65547245  -0.00553717  -0.00181219  1
  Cu  Cu109  1  0.50075037  0.49977544  0.75123764  1
  Cu  Cu110  1  0.66180338  -0.00279527  0.49704938  1
  Cu  Cu111  1  0.17075498  0.83755022  0.25361724  1
  Cu  Cu112  1  0.16871692  0.16185221  0.25618721  1
  Cu  Cu113  1  0.83747771  0.83654957  0.24275186  1
  Cu  Cu114  1  -0.00532823  0.66243203  0.50560993  1
  Se  Se115  1  0.07827989  0.07829083  0.05742239  1
  Se  Se116  1  0.08697110  0.09249439  0.54561330  1
  Se  Se117  1  0.08677593  0.40691838  0.06026468  1
  Se  Se118  1  0.07904885  0.41496792  0.56186642  1
  Se  Se119  1  0.07643796  0.74052671  0.05298846  1
  Se  Se120  1  0.08226624  0.74892232  0.54916478  1
  Se  Se121  1  0.41761335  0.08704532  0.05740409  1
  Se  Se122  1  0.42225609  0.09019755  0.54719575  1
  Se  Se123  1  0.42417899  0.42081509  0.05552365  1
  Se  Se124  1  0.41710663  0.42009514  0.54532738  1
  Se  Se125  1  0.41354334  0.75560344  0.05920061  1
  Se  Se126  1  0.42400072  0.74665156  0.55943331  1
  Se  Se127  1  0.73501146  0.07455014  0.06152478  1
  Se  Se128  1  0.74594075  0.07628627  0.55549919  1
  Se  Se129  1  0.75397670  0.41629713  0.05481039  1
  Se  Se130  1  0.74656280  0.40960512  0.54954490  1
  Se  Se131  1  0.74912197  0.75356458  0.04886448  1
  Se  Se132  1  0.74241255  0.73757441  0.56477392  1
  Se  Se133  1  0.26081357  0.24682824  0.06451817  1
  Se  Se134  1  0.25338568  0.25761337  0.54911945  1
  Se  Se135  1  0.26051362  0.58760867  0.06290888  1
  Se  Se136  1  0.25384307  0.58726027  0.56017167  1
  Se  Se137  1  0.25388914  0.91756211  0.06447632  1
  Se  Se138  1  0.25309588  0.90325964  0.54687401  1
  Se  Se139  1  0.58352657  0.25120375  0.05422453  1
  Se  Se140  1  0.57762899  0.24661029  0.54822970  1
  Se  Se141  1  0.58342323  0.58820580  0.05412328  1
  Se  Se142  1  0.57850123  0.57535845  0.55865828  1
  Se  Se143  1  0.57391650  0.91233637  0.05390911  1
  Se  Se144  1  0.58636910  0.91131738  0.55365477  1
  Se  Se145  1  0.92650743  0.25468433  0.06022524  1
  Se  Se146  1  0.92564788  0.25202575  0.56753454  1
  Se  Se147  1  0.91850413  0.57851769  0.04817686  1
  Se  Se148  1  0.91022048  0.58044881  0.55610823  1
  Se  Se149  1  0.91068691  0.91392373  0.05134265  1
  Se  Se150  1  0.92528113  0.92289105  0.55800188  1
  Se  Se151  1  0.07995458  0.25472007  0.44956050  1
  Se  Se152  1  0.07457730  0.26191116  0.94409939  1
  Se  Se153  1  0.07507607  0.58966960  0.43804711  1
  Se  Se154  1  0.08581611  0.59193437  0.93321079  1
  Se  Se155  1  0.08911472  0.91309873  0.44756281  1
  Se  Se156  1  0.07141186  0.92436689  0.93840296  1
  Se  Se157  1  0.41885414  0.25087539  0.43699175  1
  Se  Se158  1  0.41653167  0.24448548  0.94804830  1
  Se  Se159  1  0.41781955  0.58000004  0.45172501  1
  Se  Se160  1  0.42005309  0.58009846  0.94693465  1
  Se  Se161  1  0.40871797  0.91393960  0.45777073  1
  Se  Se162  1  0.41278416  0.90912611  0.94917119  1
  Se  Se163  1  0.73841683  0.25037841  0.43430769  1
  Se  Se164  1  0.74115894  0.25563401  0.93707937  1
  Se  Se165  1  0.74873936  0.57863961  0.45106280  1
  Se  Se166  1  0.75062504  0.58331640  0.94736682  1
  Se  Se167  1  0.74630763  0.91769761  0.44047237  1
  Se  Se168  1  0.74565780  0.91469987  0.94915360  1
  Se  Se169  1  0.24253916  0.09691518  0.44909207  1
  Se  Se170  1  0.25702150  0.07007131  0.94323047  1
  Se  Se171  1  0.25660593  0.41483878  0.43075320  1
  Se  Se172  1  0.26297918  0.40660446  0.94562191  1
  Se  Se173  1  0.25023949  0.74879186  0.45036451  1
  Se  Se174  1  0.25893349  0.74152266  0.93975290  1
  Se  Se175  1  0.57935087  0.08324337  0.44731861  1
  Se  Se176  1  0.57501651  0.08366819  0.94919083  1
  Se  Se177  1  0.57769428  0.41578401  0.44129402  1
  Se  Se178  1  0.58067826  0.41677811  0.94872305  1
  Se  Se179  1  0.58323136  0.75054248  0.45394009  1
  Se  Se180  1  0.57512888  0.75181012  0.94748089  1
  Se  Se181  1  0.91833596  0.07509597  0.44076315  1
  Se  Se182  1  0.91732189  0.08558382  0.94001098  1
  Se  Se183  1  0.90878678  0.41739740  0.45054670  1
  Se  Se184  1  0.92005167  0.42179451  0.95313354  1
  Se  Se185  1  0.92222952  0.74278862  0.43686281  1
  Se  Se186  1  0.91312526  0.75175819  0.94259934  1
  Se  Se187  1  0.25383840  0.24813461  0.30441444  1
  Se  Se188  1  0.24278528  0.24594496  0.81142086  1
  Se  Se189  1  0.25336604  0.58620812  0.29905951  1
  Se  Se190  1  0.25405521  0.58202393  0.79856560  1
  Se  Se191  1  0.25252834  0.91519753  0.31197195  1
  Se  Se192  1  0.25605996  0.92281895  0.79527319  1
  Se  Se193  1  0.58952992  0.26368756  0.29281372  1
  Se  Se194  1  0.56943979  0.23689027  0.80432981  1
  Se  Se195  1  0.57991301  0.58423224  0.31415188  1
  Se  Se196  1  0.58229737  0.58427169  0.80466004  1
  Se  Se197  1  0.57147931  0.91346150  0.31690372  1
  Se  Se198  1  0.57682656  0.90949673  0.81444198  1
  Se  Se199  1  0.92285254  0.24782585  0.30721244  1
  Se  Se200  1  0.91361198  0.25617594  0.80365187  1
  Se  Se201  1  0.91401897  0.58051182  0.30952124  1
  Se  Se202  1  0.91807311  0.58879417  0.80459116  1
  Se  Se203  1  0.92192825  0.91674471  0.29613889  1
  Se  Se204  1  0.90850460  0.91880909  0.80810479  1
  Se  Se205  1  0.08546008  0.07592117  0.30830629  1
  Se  Se206  1  0.09335441  0.09121757  0.80641763  1
  Se  Se207  1  0.08158929  0.41251527  0.30448057  1
  Se  Se208  1  0.08140333  0.42280952  0.80368236  1
  Se  Se209  1  0.08820599  0.75162112  0.30953666  1
  Se  Se210  1  0.08864252  0.76097702  0.79552295  1
  Se  Se211  1  0.42108876  0.08133445  0.30535338  1
  Se  Se212  1  0.41051771  0.07152646  0.80367066  1
  Se  Se213  1  0.41864317  0.42205377  0.30020041  1
  Se  Se214  1  0.42098195  0.41684540  0.81027383  1
  Se  Se215  1  0.41165594  0.74497096  0.30938216  1
  Se  Se216  1  0.41307019  0.74633105  0.80466206  1
  Se  Se217  1  0.75355814  0.09449905  0.31345807  1
  Se  Se218  1  0.75295378  0.09012438  0.80258138  1
  Se  Se219  1  0.75233004  0.41562399  0.30565357  1
  Se  Se220  1  0.75418037  0.42654081  0.81342639  1
  Se  Se221  1  0.75737916  0.75683032  0.30245738  1
  Se  Se222  1  0.74388404  0.74577452  0.80439258  1
  Se  Se223  1  0.25287832  0.07898441  0.20338421  1
  Se  Se224  1  0.24013003  0.09722512  0.68421760  1
  Se  Se225  1  0.25272460  0.41559393  0.20126008  1
  Se  Se226  1  0.23833424  0.42618139  0.68395647  1
  Se  Se227  1  0.25273848  0.74992382  0.20302263  1
  Se  Se228  1  0.25607535  0.74868467  0.69391168  1
  Se  Se229  1  0.57777252  0.09144664  0.19147708  1
  Se  Se230  1  0.56885938  0.08465177  0.68808716  1
  Se  Se231  1  0.58911893  0.41784058  0.19460705  1
  Se  Se232  1  0.57525495  0.41632742  0.68942340  1
  Se  Se233  1  0.57067392  0.76591778  0.19642033  1
  Se  Se234  1  0.58366420  0.74490163  0.70211068  1
  Se  Se235  1  0.91780249  0.07885865  0.19983531  1
  Se  Se236  1  0.91318721  0.08945953  0.68730167  1
  Se  Se237  1  0.92636974  0.41239390  0.19843594  1
  Se  Se238  1  0.91452369  0.42080332  0.69927277  1
  Se  Se239  1  0.90940523  0.75108725  0.18180745  1
  Se  Se240  1  0.91582820  0.75878507  0.69800521  1
  Se  Se241  1  0.08642038  0.24543751  0.20052036  1
  Se  Se242  1  0.07411301  0.26468992  0.70500748  1
  Se  Se243  1  0.09576021  0.57276939  0.18599975  1
  Se  Se244  1  0.08027677  0.59240581  0.69526549  1
  Se  Se245  1  0.08414494  0.91368241  0.19686073  1
  Se  Se246  1  0.09858971  0.92217468  0.67700940  1
  Se  Se247  1  0.40419182  0.27078592  0.19603022  1
  Se  Se248  1  0.42115838  0.24551237  0.68980455  1
  Se  Se249  1  0.42297439  0.58637209  0.19642110  1
  Se  Se250  1  0.41410309  0.58145909  0.69968906  1
  Se  Se251  1  0.40795049  0.93625380  0.20315418  1
  Se  Se252  1  0.42115379  0.91504276  0.69360431  1
  Se  Se253  1  0.75689027  0.25246540  0.19801561  1
  Se  Se254  1  0.74996118  0.24584036  0.68852697  1
  Se  Se255  1  0.76059876  0.57424442  0.19104342  1
  Se  Se256  1  0.74407386  0.58273701  0.69596397  1
  Se  Se257  1  0.74844569  0.91453897  0.18884494  1
  Se  Se258  1  0.75923589  0.89987997  0.69743586  1
