# generated using pymatgen
data_In86Cu29Se144
_symmetry_space_group_name_H-M   'P 1'
_cell_length_a   17.57152549
_cell_length_b   17.57302243
_cell_length_c   23.43023600
_cell_angle_alpha   90.00339838
_cell_angle_beta   89.98156570
_cell_angle_gamma   90.00179872
_symmetry_Int_Tables_number   1
_chemical_formula_structural   In86Cu29Se144
_chemical_formula_sum   'In86 Cu29 Se144'
_cell_volume   7234.90061800
_cell_formula_units_Z   1
loop_
 _symmetry_equiv_pos_site_id
 _symmetry_equiv_pos_as_xyz
  1  'x, y, z'
loop_
 _atom_site_type_symbol
 _atom_site_label
 _atom_site_symmetry_multiplicity
 _atom_site_fract_x
 _atom_site_fract_y
 _atom_site_fract_z
 _atom_site_occupancy
  In  In0  1  -0.03898488  0.16391390  0.12146708  1
  In  In1  1  0.00533487  0.16104159  0.63689268  1
  In  In2  1  -0.00664208  0.49602732  0.12001012  1
  In  In3  1  -0.00036497  0.50170503  0.62300690  1
  In  In4  1  -0.00003278  0.84680749  0.12712593  1
  In  In5  1  0.00446044  0.82832580  0.63033066  1
  In  In6  1  0.35121385  0.16718753  0.11684754  1
  In  In7  1  0.32397716  0.17157703  0.62681321  1
  In  In8  1  0.37121481  0.46779947  0.16640130  1
  In  In9  1  0.33744855  0.49905642  0.61570131  1
  In  In10  1  0.33124882  0.82770867  0.12703815  1
  In  In11  1  0.33405036  0.84854110  0.62258474  1
  In  In12  1  0.67457979  0.17118812  0.12588645  1
  In  In13  1  0.66780837  0.17520986  0.64969567  1
  In  In14  1  0.66693296  0.49233989  0.12975142  1
  In  In15  1  0.65701093  0.48970004  0.61571574  1
  In  In16  1  0.67514707  0.82420563  0.12552647  1
  In  In17  1  0.67483200  0.83756627  0.62429302  1
  In  In18  1  0.15612599  0.00875619  0.38539039  1
  In  In19  1  0.16516368  0.00491554  0.86503582  1
  In  In20  1  0.16995208  0.32663877  0.37912262  1
  In  In21  1  0.15552135  0.34382456  0.86999582  1
  In  In22  1  0.17085409  0.65653966  0.38604385  1
  In  In23  1  0.16228146  0.67998855  0.87519437  1
  In  In24  1  0.50635603  -0.00448792  0.37284012  1
  In  In25  1  0.50930912  0.01748109  0.86408403  1
  In  In26  1  0.51293613  0.35570910  0.35459249  1
  In  In27  1  0.52050508  0.31191777  0.89138357  1
  In  In28  1  0.48917361  0.64236336  0.35210943  1
  In  In29  1  0.49787954  0.65172752  0.88382921  1
  In  In30  1  0.83470729  0.00157569  0.36278111  1
  In  In31  1  0.83337951  0.00655380  0.87739765  1
  In  In32  1  0.83569654  0.33861595  0.36907548  1
  In  In33  1  0.83003186  0.33485011  0.87211719  1
  In  In34  1  0.81703125  0.65279850  0.36572071  1
  In  In35  1  0.84123646  0.65694949  0.88346612  1
  In  In36  1  0.00933220  0.17207770  0.37556683  1
  In  In37  1  -0.01523794  0.16557448  0.86256123  1
  In  In38  1  -0.00703741  0.50186074  0.38295814  1
  In  In39  1  -0.02352818  0.48473422  0.85549092  1
  In  In40  1  -0.00177206  0.84474926  0.37996065  1
  In  In41  1  -0.00351095  0.82823730  0.86974143  1
  In  In42  1  0.32126545  0.16997146  0.37532831  1
  In  In43  1  0.34574557  0.16062537  0.88036518  1
  In  In44  1  0.33218734  0.49791952  0.36941252  1
  In  In45  1  0.34021353  0.50314733  0.87960615  1
  In  In46  1  0.33296511  0.82094970  0.37596096  1
  In  In47  1  0.32357890  0.83609114  0.87622843  1
  In  In48  1  0.67269957  0.16868853  0.36141833  1
  In  In49  1  0.67002773  0.16939645  0.87106506  1
  In  In50  1  0.66700069  0.49248711  0.37144499  1
  In  In51  1  0.67900368  0.48415031  0.88672070  1
  In  In52  1  0.66984066  0.83497194  0.36669705  1
  In  In53  1  0.67007764  0.85281064  0.87992617  1
  In  In54  1  0.16598374  -0.00955460  0.12326278  1
  In  In55  1  0.16283550  0.00301413  0.62571106  1
  In  In56  1  0.16229804  0.34381430  0.12826031  1
  In  In57  1  0.16704478  0.32733567  0.61584850  1
  In  In58  1  0.17619297  0.67119461  0.13259657  1
  In  In59  1  0.15977469  0.65760390  0.61313671  1
  In  In60  1  0.50624695  0.02334311  0.11405730  1
  In  In61  1  0.50134038  0.00958233  0.64242251  1
  In  In62  1  0.50848501  0.32996662  0.12613722  1
  In  In63  1  0.49637355  0.33484076  0.62751611  1
  In  In64  1  0.52606104  0.63572278  0.15238981  1
  In  In65  1  0.50856992  0.65234492  0.62111790  1
  In  In66  1  0.83624881  0.00199922  0.12231160  1
  In  In67  1  0.82984261  0.01042442  0.64229849  1
  In  In68  1  0.82377930  0.32406707  0.11885517  1
  In  In69  1  0.82475343  0.33935727  0.63393438  1
  In  In70  1  0.81559139  0.64826965  0.11268730  1
  In  In71  1  0.84171221  0.66934045  0.62326078  1
  In  In72  1  0.83785854  0.16792656  0.50890477  1
  In  In73  1  0.66810720  0.67333790  0.75004097  1
  In  In74  1  0.33786680  0.00387388  0.24699147  1
  In  In75  1  -0.00461151  0.67035957  0.25581463  1
  In  In76  1  0.49927776  0.82776362  0.49551011  1
  In  In77  1  0.49470334  0.17467635  0.49992633  1
  In  In78  1  0.33663736  0.32890915  0.74921357  1
  In  In79  1  0.49899533  0.83228536  -0.00012491  1
  In  In80  1  0.16807617  0.83344122  0.00448257  1
  In  In81  1  -0.00721703  0.32475113  0.24543516  1
  In  In82  1  0.32817795  0.66795534  0.74849296  1
  In  In83  1  0.83914570  0.82975599  0.50264774  1
  In  In84  1  0.16469857  0.50979150  0.00230911  1
  In  In85  1  0.15807727  0.16880962  -0.00967447  1
  Cu  Cu86  1  -0.00466751  0.66541449  -0.00404387  1
  Cu  Cu87  1  -0.00341997  0.66423703  0.50099902  1
  Cu  Cu88  1  0.16187832  0.83699579  0.74748989  1
  Cu  Cu89  1  0.50594772  0.84051904  0.24841360  1
  Cu  Cu90  1  0.50430904  0.17250187  0.24233028  1
  Cu  Cu91  1  0.15886326  0.50522602  0.74310782  1
  Cu  Cu92  1  0.34431668  0.65460651  0.01258879  1
  Cu  Cu93  1  0.16303414  0.50091970  0.25705640  1
  Cu  Cu94  1  0.32213293  0.00431107  0.50298442  1
  Cu  Cu95  1  0.00239924  0.00273904  0.50621107  1
  Cu  Cu96  1  0.66014303  0.65421653  0.48929964  1
  Cu  Cu97  1  0.33450682  0.66338025  0.49246856  1
  Cu  Cu98  1  0.33638609  0.33565457  0.00797278  1
  Cu  Cu99  1  0.82938757  0.50432505  0.75198923  1
  Cu  Cu100  1  0.00330557  0.33811555  0.50109593  1
  Cu  Cu101  1  0.66630935  0.66335622  0.00842390  1
  Cu  Cu102  1  -0.00442409  0.00278184  -0.00108617  1
  Cu  Cu103  1  0.66718131  0.33435686  0.49826739  1
  Cu  Cu104  1  0.67280688  0.01037546  -0.00196349  1
  Cu  Cu105  1  0.66489216  0.33359182  0.00261575  1
  Cu  Cu106  1  0.33952299  0.34205838  0.49349887  1
  Cu  Cu107  1  0.66786838  0.00113303  0.50220077  1
  Cu  Cu108  1  0.49346728  0.83712702  0.75317662  1
  Cu  Cu109  1  0.50992891  0.48907236  0.75314176  1
  Cu  Cu110  1  0.16980548  0.83761281  0.25367550  1
  Cu  Cu111  1  0.83419511  0.84131007  0.75479932  1
  Cu  Cu112  1  0.16433251  0.16684453  0.25140323  1
  Cu  Cu113  1  0.83830257  0.83539893  0.24376488  1
  Cu  Cu114  1  0.16532271  0.16892966  0.74779640  1
  Se  Se115  1  0.07729880  0.08045958  0.06042820  1
  Se  Se116  1  0.08261017  0.09136096  0.55742828  1
  Se  Se117  1  0.07408861  0.40741090  0.05035888  1
  Se  Se118  1  0.08748796  0.42161635  0.55419355  1
  Se  Se119  1  0.07700496  0.73922922  0.06066398  1
  Se  Se120  1  0.07756391  0.75208475  0.55237164  1
  Se  Se121  1  0.41470117  0.08277001  0.04192986  1
  Se  Se122  1  0.41381782  0.07559528  0.56069973  1
  Se  Se123  1  0.41355831  0.41749077  0.06667761  1
  Se  Se124  1  0.42568382  0.41603610  0.55157419  1
  Se  Se125  1  0.42406685  0.74002245  0.06798290  1
  Se  Se126  1  0.40997916  0.73952305  0.56088543  1
  Se  Se127  1  0.75684663  0.08993956  0.05434159  1
  Se  Se128  1  0.73936080  0.08281602  0.56609042  1
  Se  Se129  1  0.74836795  0.41897248  0.05403300  1
  Se  Se130  1  0.75342305  0.41323841  0.55330869  1
  Se  Se131  1  0.75462083  0.75358731  0.04849942  1
  Se  Se132  1  0.73603563  0.73701932  0.55232706  1
  Se  Se133  1  0.24696321  0.25481031  0.05951397  1
  Se  Se134  1  0.26129792  0.25458906  0.54889768  1
  Se  Se135  1  0.25893554  0.57833857  0.07057794  1
  Se  Se136  1  0.25263856  0.58050312  0.54901536  1
  Se  Se137  1  0.26715059  0.92538342  0.05390988  1
  Se  Se138  1  0.24182736  0.91684926  0.55401156  1
  Se  Se139  1  0.58483518  0.24550670  0.05503523  1
  Se  Se140  1  0.59520828  0.25067498  0.56242712  1
  Se  Se141  1  0.58254940  0.57945724  0.06000940  1
  Se  Se142  1  0.57676541  0.57292675  0.54464880  1
  Se  Se143  1  0.59368346  0.92363183  0.05675339  1
  Se  Se144  1  0.58202818  0.92299591  0.55951556  1
  Se  Se145  1  0.92037544  0.26168830  0.04859338  1
  Se  Se146  1  0.92678102  0.25987406  0.56634367  1
  Se  Se147  1  0.91588583  0.57875047  0.04933473  1
  Se  Se148  1  0.91179729  0.58093239  0.55261849  1
  Se  Se149  1  0.91713101  0.91449090  0.05177736  1
  Se  Se150  1  0.91562086  0.92832025  0.56570569  1
  Se  Se151  1  0.08438057  0.24929110  0.45039869  1
  Se  Se152  1  0.06744439  0.26011699  0.93504408  1
  Se  Se153  1  0.08115695  0.57790658  0.45100182  1
  Se  Se154  1  0.07454764  0.58726168  0.93376405  1
  Se  Se155  1  0.08286821  0.91574949  0.45343233  1
  Se  Se156  1  0.08091902  0.92306129  0.94121327  1
  Se  Se157  1  0.41806872  0.26311248  0.43025802  1
  Se  Se158  1  0.41413883  0.24911982  0.95292464  1
  Se  Se159  1  0.41815763  0.58201486  0.43800596  1
  Se  Se160  1  0.42258263  0.57025148  0.95667589  1
  Se  Se161  1  0.40616092  0.92731202  0.44234447  1
  Se  Se162  1  0.41872583  0.92078158  0.93363957  1
  Se  Se163  1  0.74643293  0.24910840  0.44217606  1
  Se  Se164  1  0.74679575  0.25456210  0.94360004  1
  Se  Se165  1  0.75242815  0.57238463  0.44417617  1
  Se  Se166  1  0.74879997  0.58350385  0.94978171  1
  Se  Se167  1  0.74871157  0.92218899  0.44314743  1
  Se  Se168  1  0.75722545  0.92130996  0.95178629  1
  Se  Se169  1  0.24496501  0.09205569  0.44960408  1
  Se  Se170  1  0.25255382  0.07172998  0.94275477  1
  Se  Se171  1  0.24929895  0.42007984  0.44195956  1
  Se  Se172  1  0.25468975  0.40928451  0.94361626  1
  Se  Se173  1  0.24756492  0.75282405  0.44985729  1
  Se  Se174  1  0.26373432  0.73494993  0.95111221  1
  Se  Se175  1  0.58982859  0.08341369  0.44239450  1
  Se  Se176  1  0.58537129  0.08726554  0.94316118  1
  Se  Se177  1  0.58143613  0.41279654  0.44288767  1
  Se  Se178  1  0.57809099  0.42022576  0.95301349  1
  Se  Se179  1  0.58527537  0.74161000  0.43134524  1
  Se  Se180  1  0.59368791  0.74190606  0.94012541  1
  Se  Se181  1  0.91978728  0.07592780  0.44255044  1
  Se  Se182  1  0.91847486  0.09090594  0.94511133  1
  Se  Se183  1  0.91253709  0.41079775  0.44678151  1
  Se  Se184  1  0.90668653  0.42726597  0.93940585  1
  Se  Se185  1  0.91673427  0.73711320  0.43465915  1
  Se  Se186  1  0.91658949  0.75559840  0.94559525  1
  Se  Se187  1  0.24789135  0.25224054  0.30149539  1
  Se  Se188  1  0.24365740  0.24518086  0.81343932  1
  Se  Se189  1  0.24599974  0.58846611  0.30617879  1
  Se  Se190  1  0.24019342  0.57505875  0.81006791  1
  Se  Se191  1  0.24896483  0.92050806  0.31360199  1
  Se  Se192  1  0.24885539  0.91449524  0.80196894  1
  Se  Se193  1  0.58791835  0.25403579  0.29688008  1
  Se  Se194  1  0.58245598  0.25293827  0.80465808  1
  Se  Se195  1  0.60744701  0.59297612  0.30137345  1
  Se  Se196  1  0.58544241  0.57649074  0.81094167  1
  Se  Se197  1  0.58968388  0.92409017  0.30031519  1
  Se  Se198  1  0.58290302  0.91472463  0.80467961  1
  Se  Se199  1  0.90635709  0.23192002  0.30687993  1
  Se  Se200  1  0.91398352  0.26182091  0.79774817  1
  Se  Se201  1  0.90787232  0.56575134  0.30180103  1
  Se  Se202  1  0.91301675  0.59504918  0.79790987  1
  Se  Se203  1  0.92191091  0.91371805  0.30127890  1
  Se  Se204  1  0.91903835  0.92271909  0.80791986  1
  Se  Se205  1  0.08387579  0.08284094  0.30604354  1
  Se  Se206  1  0.07943308  0.08590684  0.79960874  1
  Se  Se207  1  0.07923684  0.41705779  0.31125868  1
  Se  Se208  1  0.07864879  0.41628287  0.79336955  1
  Se  Se209  1  0.09072760  0.75646265  0.31468668  1
  Se  Se210  1  0.08189086  0.74909431  0.79925635  1
  Se  Se211  1  0.42635553  0.09555025  0.30889913  1
  Se  Se212  1  0.40550830  0.08058334  0.80112859  1
  Se  Se213  1  0.41236627  0.42539840  0.29254366  1
  Se  Se214  1  0.42451660  0.41512406  0.81393777  1
  Se  Se215  1  0.42299851  0.75872404  0.30306775  1
  Se  Se216  1  0.42342352  0.74942970  0.81321583  1
  Se  Se217  1  0.74021945  0.07080816  0.29840329  1
  Se  Se218  1  0.74296909  0.07386402  0.80633352  1
  Se  Se219  1  0.73773800  0.39855377  0.30285621  1
  Se  Se220  1  0.74449275  0.41890230  0.80175030  1
  Se  Se221  1  0.75635721  0.75429957  0.30029860  1
  Se  Se222  1  0.75573344  0.75762081  0.81514334  1
  Se  Se223  1  0.24626043  0.09197701  0.18622560  1
  Se  Se224  1  0.24858148  0.08450628  0.69530415  1
  Se  Se225  1  0.24205379  0.41253367  0.20491285  1
  Se  Se226  1  0.24873823  0.42478613  0.68986673  1
  Se  Se227  1  0.25430350  0.75364872  0.20383829  1
  Se  Se228  1  0.24239379  0.75666772  0.68572553  1
  Se  Se229  1  0.58667061  0.08551326  0.19280959  1
  Se  Se230  1  0.59718756  0.07397346  0.70827029  1
  Se  Se231  1  0.56721967  0.42824020  0.19659680  1
  Se  Se232  1  0.58910030  0.40936105  0.69443307  1
  Se  Se233  1  0.58922577  0.75358840  0.19901870  1
  Se  Se234  1  0.57041942  0.75863408  0.68880247  1
  Se  Se235  1  0.92974463  0.06480276  0.19605077  1
  Se  Se236  1  0.91533154  0.09143173  0.70598184  1
  Se  Se237  1  0.90625686  0.42090449  0.19041469  1
  Se  Se238  1  0.91468500  0.42552438  0.69491927  1
  Se  Se239  1  0.91219848  0.74865597  0.18364723  1
  Se  Se240  1  0.90968479  0.75520988  0.69677826  1
  Se  Se241  1  0.08323565  0.23696873  0.18393487  1
  Se  Se242  1  0.08911764  0.25865777  0.69439264  1
  Se  Se243  1  0.08445229  0.57700421  0.19281937  1
  Se  Se244  1  0.07876249  0.59212555  0.69161138  1
  Se  Se245  1  0.08675595  0.91844054  0.19956044  1
  Se  Se246  1  0.07817638  0.92227021  0.69574873  1
  Se  Se247  1  0.41365963  0.25124016  0.19336899  1
  Se  Se248  1  0.42855528  0.23414130  0.69491859  1
  Se  Se249  1  0.39749531  0.60482300  0.19928908  1
  Se  Se250  1  0.42532943  0.57142029  0.69650212  1
  Se  Se251  1  0.42894817  0.91824074  0.18434227  1
  Se  Se252  1  0.41075512  0.91983796  0.69967403  1
  Se  Se253  1  0.75452781  0.25130820  0.19774578  1
  Se  Se254  1  0.77442383  0.23974729  0.70667233  1
  Se  Se255  1  0.74379039  0.58761830  0.19499693  1
  Se  Se256  1  0.74877890  0.57971266  0.68623071  1
  Se  Se257  1  0.75239058  0.91635819  0.19036397  1
  Se  Se258  1  0.74467313  0.91594333  0.70032844  1
