# generated using pymatgen
data_In86Cu29Se144
_symmetry_space_group_name_H-M   'P 1'
_cell_length_a   17.58650190
_cell_length_b   17.58802411
_cell_length_c   23.44509937
_cell_angle_alpha   90.00321041
_cell_angle_beta   89.98842109
_cell_angle_gamma   90.02040777
_symmetry_Int_Tables_number   1
_chemical_formula_structural   In86Cu29Se144
_chemical_formula_sum   'In86 Cu29 Se144'
_cell_volume   7251.84572229
_cell_formula_units_Z   1
loop_
 _symmetry_equiv_pos_site_id
 _symmetry_equiv_pos_as_xyz
  1  'x, y, z'
loop_
 _atom_site_type_symbol
 _atom_site_label
 _atom_site_symmetry_multiplicity
 _atom_site_fract_x
 _atom_site_fract_y
 _atom_site_fract_z
 _atom_site_occupancy
  In  In0  1  -0.01127881  0.17637505  0.13071063  1
  In  In1  1  -0.02123624  0.18392890  0.64276485  1
  In  In2  1  -0.01119253  0.50172089  0.13448304  1
  In  In3  1  -0.02121527  0.50474893  0.61707787  1
  In  In4  1  0.00737933  0.82720477  0.12742527  1
  In  In5  1  0.00343838  0.83403567  0.62267974  1
  In  In6  1  0.35735965  0.15916779  0.12460259  1
  In  In7  1  0.33163563  0.15283868  0.62854901  1
  In  In8  1  0.33881699  0.49379318  0.13297127  1
  In  In9  1  0.33951623  0.50834546  0.62769706  1
  In  In10  1  0.32158766  0.83576405  0.12113568  1
  In  In11  1  0.33770506  0.83530999  0.62619939  1
  In  In12  1  0.67162835  0.15747482  0.12395685  1
  In  In13  1  0.66960379  0.16745631  0.61632925  1
  In  In14  1  0.70657008  0.47124630  0.15974568  1
  In  In15  1  0.67458891  0.48305253  0.62481777  1
  In  In16  1  0.66616678  0.83357690  0.13527267  1
  In  In17  1  0.66889501  0.85302605  0.61664360  1
  In  In18  1  0.15605682  0.00815470  0.37357177  1
  In  In19  1  0.16288258  -0.01068964  0.87335044  1
  In  In20  1  0.16579946  0.33514008  0.36660253  1
  In  In21  1  0.15321443  0.34172634  0.87368334  1
  In  In22  1  0.15768046  0.66184369  0.36386161  1
  In  In23  1  0.17908466  0.65865856  0.87518542  1
  In  In24  1  0.50882138  0.00062339  0.38262823  1
  In  In25  1  0.51211506  0.01096896  0.86382238  1
  In  In26  1  0.50209391  0.32401646  0.36423336  1
  In  In27  1  0.50065612  0.31514452  0.88047201  1
  In  In28  1  0.50832703  0.67665799  0.36989889  1
  In  In29  1  0.49520489  0.67920717  0.87562148  1
  In  In30  1  0.83075921  0.00522355  0.37512937  1
  In  In31  1  0.84086338  0.01654560  0.86097450  1
  In  In32  1  0.82980553  0.33285213  0.36580814  1
  In  In33  1  0.83143125  0.32908299  0.87659681  1
  In  In34  1  0.83102817  0.66203153  0.36855588  1
  In  In35  1  0.82645890  0.65539955  0.88350543  1
  In  In36  1  -0.01121434  0.15425024  0.36760715  1
  In  In37  1  -0.01050666  0.16296882  0.86938631  1
  In  In38  1  -0.01694069  0.49841812  0.36192823  1
  In  In39  1  -0.00338545  0.47714412  0.87242436  1
  In  In40  1  -0.00613245  0.83293872  0.36715797  1
  In  In41  1  0.00054317  0.84689669  0.87825710  1
  In  In42  1  0.34319030  0.17779191  0.37010567  1
  In  In43  1  0.35189041  0.16531239  0.87786111  1
  In  In44  1  0.33014582  0.50269218  0.36786006  1
  In  In45  1  0.31960804  0.50631908  0.87044530  1
  In  In46  1  0.34638864  0.83651173  0.37542155  1
  In  In47  1  0.32737556  0.82463419  0.87030308  1
  In  In48  1  0.66188272  0.17296362  0.36913224  1
  In  In49  1  0.66872113  0.16788770  0.87289649  1
  In  In50  1  0.68537258  0.50260628  0.36008648  1
  In  In51  1  0.68423127  0.49415723  0.88256189  1
  In  In52  1  0.66165398  0.83290142  0.37673053  1
  In  In53  1  0.65291942  0.83907497  0.87572208  1
  In  In54  1  0.17377534  -0.01641633  0.11713893  1
  In  In55  1  0.15976819  0.00440622  0.63712850  1
  In  In56  1  0.16200148  0.33590264  0.13330451  1
  In  In57  1  0.16391153  0.32058707  0.62704988  1
  In  In58  1  0.16401442  0.67168289  0.12806692  1
  In  In59  1  0.16627361  0.67582950  0.62363755  1
  In  In60  1  0.50128066  0.02086042  0.12279897  1
  In  In61  1  0.50402684  0.00256616  0.62041857  1
  In  In62  1  0.53014892  0.29495733  0.15543371  1
  In  In63  1  0.52751529  0.33046447  0.62547284  1
  In  In64  1  0.50928159  0.65851593  0.13708843  1
  In  In65  1  0.48759053  0.67031490  0.62125021  1
  In  In66  1  0.82137566  0.00881679  0.12927481  1
  In  In67  1  0.80619579  0.03360729  0.65483524  1
  In  In68  1  0.83822212  0.32589010  0.12503506  1
  In  In69  1  0.83028557  0.33267652  0.61795441  1
  In  In70  1  0.84865798  0.65074262  0.14585263  1
  In  In71  1  0.84229049  0.64940575  0.61589635  1
  In  In72  1  0.49520430  0.83905379  0.00284972  1
  In  In73  1  0.51147654  0.49810424  0.49610987  1
  In  In74  1  0.66037019  0.67147451  0.75487057  1
  In  In75  1  0.15848362  0.49570737  0.49062362  1
  In  In76  1  0.16157753  0.50023743  -0.00386740  1
  In  In77  1  0.16431017  0.83180320  0.50629149  1
  In  In78  1  0.33196045  0.33490210  0.75416253  1
  In  In79  1  0.50123288  0.49677881  0.01145158  1
  In  In80  1  0.17064548  0.16139150  -0.00159929  1
  In  In81  1  0.83039789  0.83870445  0.00319782  1
  In  In82  1  0.00414442  0.66323485  0.74345144  1
  In  In83  1  0.16330427  0.16305483  0.50163473  1
  In  In84  1  0.82959803  0.84008217  0.49654868  1
  In  In85  1  0.33313221  0.00046347  0.24533870  1
  Cu  Cu86  1  0.16081301  0.16584432  0.24844215  1
  Cu  Cu87  1  -0.00958082  0.00314586  0.50417090  1
  Cu  Cu88  1  0.83137533  0.84246198  0.25301703  1
  Cu  Cu89  1  0.49244287  0.50047428  0.25589237  1
  Cu  Cu90  1  -0.00083536  0.66576233  0.00939558  1
  Cu  Cu91  1  0.50142304  0.50147991  0.74938675  1
  Cu  Cu92  1  0.83283022  0.49051355  0.74918306  1
  Cu  Cu93  1  0.16661844  0.83260838  0.24587390  1
  Cu  Cu94  1  0.34111360  0.00389319  0.50056827  1
  Cu  Cu95  1  0.66810164  0.32863828  0.01093631  1
  Cu  Cu96  1  0.67661238  0.33165726  0.49335564  1
  Cu  Cu97  1  0.83292119  0.83819043  0.75057338  1
  Cu  Cu98  1  -0.00111207  0.00531345  -0.00365211  1
  Cu  Cu99  1  0.35059927  0.33109663  0.49800411  1
  Cu  Cu100  1  0.67270680  0.66005755  0.01197546  1
  Cu  Cu101  1  -0.01390116  0.33220231  0.00210287  1
  Cu  Cu102  1  0.33114916  0.66900331  -0.00089672  1
  Cu  Cu103  1  0.49719070  0.83302144  0.25351335  1
  Cu  Cu104  1  0.16247776  0.16394634  0.75514439  1
  Cu  Cu105  1  -0.00777535  0.33009445  0.49526777  1
  Cu  Cu106  1  0.49332703  0.83872522  0.74657602  1
  Cu  Cu107  1  0.33930361  0.32866700  0.00712379  1
  Cu  Cu108  1  0.66646269  0.66591862  0.49259430  1
  Cu  Cu109  1  0.17094995  0.82951077  0.74981652  1
  Cu  Cu110  1  0.66856876  0.00905773  -0.00431537  1
  Cu  Cu111  1  0.50491564  0.16964913  0.74713849  1
  Cu  Cu112  1  0.16594373  0.50462236  0.24856575  1
  Cu  Cu113  1  0.83092975  0.16444611  0.25050574  1
  Cu  Cu114  1  0.33223182  0.67092452  0.49658701  1
  Se  Se115  1  0.07676752  0.08065686  0.06257756  1
  Se  Se116  1  0.07162853  0.08209519  0.56535877  1
  Se  Se117  1  0.07299776  0.41180548  0.05854325  1
  Se  Se118  1  0.07719648  0.40401234  0.55651702  1
  Se  Se119  1  0.08787697  0.75091171  0.05300279  1
  Se  Se120  1  0.06667714  0.73407226  0.55108432  1
  Se  Se121  1  0.40303096  0.06446437  0.04846253  1
  Se  Se122  1  0.41904794  0.09121701  0.55366315  1
  Se  Se123  1  0.42064246  0.40007699  0.07033643  1
  Se  Se124  1  0.42098597  0.41281827  0.56231636  1
  Se  Se125  1  0.41715813  0.73745559  0.06218846  1
  Se  Se126  1  0.41279296  0.75515103  0.55025411  1
  Se  Se127  1  0.75696119  0.08650844  0.04858651  1
  Se  Se128  1  0.75849762  0.07714913  0.55802166  1
  Se  Se129  1  0.75004650  0.41506344  0.06208803  1
  Se  Se130  1  0.75508594  0.42066003  0.54585881  1
  Se  Se131  1  0.75174947  0.74598364  0.06775428  1
  Se  Se132  1  0.74500820  0.74174181  0.55963037  1
  Se  Se133  1  0.25208106  0.25242382  0.06462709  1
  Se  Se134  1  0.26228260  0.25504139  0.55588046  1
  Se  Se135  1  0.25633896  0.58207708  0.05879312  1
  Se  Se136  1  0.25235117  0.58643583  0.55279487  1
  Se  Se137  1  0.26035830  0.91778081  0.04380655  1
  Se  Se138  1  0.25092516  0.93190955  0.55947546  1
  Se  Se139  1  0.58173547  0.24358318  0.05959194  1
  Se  Se140  1  0.58787030  0.25209256  0.54497300  1
  Se  Se141  1  0.59757815  0.57665541  0.07075340  1
  Se  Se142  1  0.59363127  0.58852137  0.56281891  1
  Se  Se143  1  0.59519284  0.92386164  0.05769988  1
  Se  Se144  1  0.57066733  0.90987563  0.54935937  1
  Se  Se145  1  0.90914323  0.23980449  0.05036197  1
  Se  Se146  1  0.91690427  0.24460283  0.55352632  1
  Se  Se147  1  0.91385233  0.58338986  0.05982790  1
  Se  Se148  1  0.91120020  0.57632965  0.53684141  1
  Se  Se149  1  0.92288929  0.92567348  0.06232283  1
  Se  Se150  1  0.91270841  0.92376334  0.56548251  1
  Se  Se151  1  0.07800042  0.25191503  0.43717606  1
  Se  Se152  1  0.07601301  0.25561373  0.94555774  1
  Se  Se153  1  0.06973716  0.58766996  0.43538803  1
  Se  Se154  1  0.06950856  0.58939364  0.93772347  1
  Se  Se155  1  0.07313989  0.92342383  0.44569060  1
  Se  Se156  1  0.08464631  0.91682341  0.95203878  1
  Se  Se157  1  0.42937547  0.24766629  0.44354202  1
  Se  Se158  1  0.42189720  0.24300054  0.95630102  1
  Se  Se159  1  0.41371325  0.58667223  0.44068089  1
  Se  Se160  1  0.41237891  0.58503800  0.94269186  1
  Se  Se161  1  0.41985771  0.91697979  0.44818946  1
  Se  Se162  1  0.42051850  0.91829960  0.92823396  1
  Se  Se163  1  0.75591609  0.24715386  0.43798391  1
  Se  Se164  1  0.74555889  0.25080193  0.94652066  1
  Se  Se165  1  0.74894961  0.58277229  0.44094661  1
  Se  Se166  1  0.75454362  0.57584258  0.95855521  1
  Se  Se167  1  0.73471889  0.93128712  0.44482953  1
  Se  Se168  1  0.74625549  0.92511336  0.93617644  1
  Se  Se169  1  0.25825480  0.07922358  0.43863097  1
  Se  Se170  1  0.25880916  0.07478626  0.93687986  1
  Se  Se171  1  0.26182415  0.40547812  0.44183341  1
  Se  Se172  1  0.25993289  0.40549182  0.94444698  1
  Se  Se173  1  0.24813919  0.74646068  0.43678600  1
  Se  Se174  1  0.24706871  0.74976479  0.94625918  1
  Se  Se175  1  0.57535472  0.10277943  0.44293887  1
  Se  Se176  1  0.58095003  0.08794937  0.94284933  1
  Se  Se177  1  0.59620925  0.41185420  0.43152384  1
  Se  Se178  1  0.58927735  0.40769517  0.94630859  1
  Se  Se179  1  0.57957490  0.75185554  0.44869258  1
  Se  Se180  1  0.59315376  0.73988590  0.95102140  1
  Se  Se181  1  0.91263444  0.08615688  0.44720953  1
  Se  Se182  1  0.91263139  0.08435321  0.94383055  1
  Se  Se183  1  0.91517957  0.41325748  0.43746346  1
  Se  Se184  1  0.90822803  0.41917598  0.94802495  1
  Se  Se185  1  0.91872243  0.74711382  0.44003628  1
  Se  Se186  1  0.92183774  0.74485381  0.94350682  1
  Se  Se187  1  0.24669926  0.24482836  0.30303105  1
  Se  Se188  1  0.24360339  0.24326930  0.81657890  1
  Se  Se189  1  0.25192747  0.58829901  0.29944003  1
  Se  Se190  1  0.25072031  0.58765259  0.79642577  1
  Se  Se191  1  0.24261177  0.91248937  0.31064593  1
  Se  Se192  1  0.25161626  0.91553798  0.80282423  1
  Se  Se193  1  0.59686069  0.26292727  0.29392626  1
  Se  Se194  1  0.58412889  0.25294187  0.80362716  1
  Se  Se195  1  0.58133672  0.58116701  0.30616997  1
  Se  Se196  1  0.57856780  0.57591505  0.81810771  1
  Se  Se197  1  0.57916844  0.91645624  0.30749149  1
  Se  Se198  1  0.58472257  0.91576536  0.79747903  1
  Se  Se199  1  0.91832383  0.24780303  0.30069163  1
  Se  Se200  1  0.93257272  0.27001394  0.80855352  1
  Se  Se201  1  0.91937973  0.59642297  0.29493550  1
  Se  Se202  1  0.90945939  0.57816765  0.80700660  1
  Se  Se203  1  0.91639990  0.92598876  0.30489343  1
  Se  Se204  1  0.91988410  0.91674673  0.80312202  1
  Se  Se205  1  0.07795273  0.07822842  0.29748840  1
  Se  Se206  1  0.08143951  0.07903129  0.80902210  1
  Se  Se207  1  0.08292907  0.42093968  0.30226732  1
  Se  Se208  1  0.10009199  0.43711821  0.80188305  1
  Se  Se209  1  0.07959165  0.75299331  0.29952011  1
  Se  Se210  1  0.08635356  0.75301652  0.81074990  1
  Se  Se211  1  0.42452615  0.08455086  0.30631046  1
  Se  Se212  1  0.41794432  0.08748403  0.79802503  1
  Se  Se213  1  0.41111594  0.41233863  0.30512561  1
  Se  Se214  1  0.42554247  0.42250123  0.81555271  1
  Se  Se215  1  0.41198877  0.74756131  0.30269824  1
  Se  Se216  1  0.41621373  0.74886728  0.79958585  1
  Se  Se217  1  0.74663149  0.08321261  0.30461558  1
  Se  Se218  1  0.74079230  0.08234767  0.79954641  1
  Se  Se219  1  0.76357565  0.42116697  0.28942016  1
  Se  Se220  1  0.74815630  0.41275101  0.80526234  1
  Se  Se221  1  0.75043747  0.75771878  0.30823174  1
  Se  Se222  1  0.75815023  0.75736339  0.81467149  1
  Se  Se223  1  0.24168919  0.08960655  0.18441303  1
  Se  Se224  1  0.24915980  0.08301611  0.70334514  1
  Se  Se225  1  0.24850978  0.41651902  0.19922845  1
  Se  Se226  1  0.24656296  0.42078236  0.68772421  1
  Se  Se227  1  0.25350510  0.75053416  0.19538400  1
  Se  Se228  1  0.25282398  0.74982796  0.69248898  1
  Se  Se229  1  0.58791898  0.08095442  0.19651875  1
  Se  Se230  1  0.58415153  0.08801603  0.68885592  1
  Se  Se231  1  0.57464916  0.42412983  0.19616351  1
  Se  Se232  1  0.58884396  0.41866544  0.70132186  1
  Se  Se233  1  0.58450325  0.75012957  0.20328002  1
  Se  Se234  1  0.57775415  0.75775505  0.68748671  1
  Se  Se235  1  0.91539523  0.08132450  0.19624536  1
  Se  Se236  1  0.93404747  0.06789696  0.70020495  1
  Se  Se237  1  0.90922595  0.41359518  0.19805852  1
  Se  Se238  1  0.91532155  0.41489964  0.68968732  1
  Se  Se239  1  0.91640344  0.76040711  0.19924174  1
  Se  Se240  1  0.90366238  0.75179987  0.68881092  1
  Se  Se241  1  0.07701968  0.25327659  0.19909239  1
  Se  Se242  1  0.08359388  0.25254313  0.70321992  1
  Se  Se243  1  0.08214286  0.58590012  0.19384807  1
  Se  Se244  1  0.08795995  0.57169516  0.68100936  1
  Se  Se245  1  0.08727803  0.91886541  0.19258685  1
  Se  Se246  1  0.08161007  0.90802519  0.69785105  1
  Se  Se247  1  0.40492574  0.25018346  0.20162575  1
  Se  Se248  1  0.42205919  0.25175868  0.68830916  1
  Se  Se249  1  0.41226891  0.58558814  0.20026858  1
  Se  Se250  1  0.42059274  0.58711689  0.69860873  1
  Se  Se251  1  0.42479409  0.91016425  0.18537312  1
  Se  Se252  1  0.41527947  0.92541425  0.69186869  1
  Se  Se253  1  0.75073179  0.24526011  0.19288933  1
  Se  Se254  1  0.74171129  0.25797639  0.68582595  1
  Se  Se255  1  0.72939029  0.60594658  0.19909585  1
  Se  Se256  1  0.75342669  0.58104740  0.69479070  1
  Se  Se257  1  0.74556138  0.92311833  0.19999636  1
  Se  Se258  1  0.74148263  0.91488808  0.70070399  1
