# generated using pymatgen
data_In86Cu29Se144
_symmetry_space_group_name_H-M   'P 1'
_cell_length_a   17.61497005
_cell_length_b   17.61225358
_cell_length_c   23.47818992
_cell_angle_alpha   90.01954975
_cell_angle_beta   90.00785033
_cell_angle_gamma   89.96878724
_symmetry_Int_Tables_number   1
_chemical_formula_structural   In86Cu29Se144
_chemical_formula_sum   'In86 Cu29 Se144'
_cell_volume   7283.85608811
_cell_formula_units_Z   1
loop_
 _symmetry_equiv_pos_site_id
 _symmetry_equiv_pos_as_xyz
  1  'x, y, z'
loop_
 _atom_site_type_symbol
 _atom_site_label
 _atom_site_symmetry_multiplicity
 _atom_site_fract_x
 _atom_site_fract_y
 _atom_site_fract_z
 _atom_site_occupancy
  In  In0  1  -0.00091292  0.16540993  0.12155496  1
  In  In1  1  -0.00099635  0.14712763  0.62838649  1
  In  In2  1  -0.01399610  0.50922856  0.13522207  1
  In  In3  1  0.02632700  0.49890976  0.62690885  1
  In  In4  1  -0.02976707  0.87139224  0.17387065  1
  In  In5  1  -0.00854704  0.84248654  0.62697736  1
  In  In6  1  0.32662623  0.15941162  0.11400276  1
  In  In7  1  0.32185865  0.18299527  0.63989430  1
  In  In8  1  0.33214216  0.49200863  0.12070006  1
  In  In9  1  0.32091085  0.47955399  0.60615805  1
  In  In10  1  0.34842270  0.83788372  0.12191205  1
  In  In11  1  0.34111575  0.83189529  0.62380142  1
  In  In12  1  0.65609471  0.15860817  0.11534332  1
  In  In13  1  0.66440535  0.17240428  0.63847860  1
  In  In14  1  0.67190554  0.51394616  0.12578629  1
  In  In15  1  0.65371805  0.49294144  0.61666336  1
  In  In16  1  0.66705659  0.84001313  0.12688639  1
  In  In17  1  0.66474970  0.83139627  0.61265172  1
  In  In18  1  0.17284571  0.00358722  0.36157390  1
  In  In19  1  0.17812644  0.01012009  0.86893349  1
  In  In20  1  0.16085920  0.34033746  0.39099253  1
  In  In21  1  0.15999173  0.31699495  0.87395467  1
  In  In22  1  0.15949639  0.65972876  0.37726455  1
  In  In23  1  0.16062705  0.67265477  0.86997278  1
  In  In24  1  0.49220210  -0.00532093  0.36754866  1
  In  In25  1  0.48931899  0.00950609  0.88446039  1
  In  In26  1  0.50864609  0.33847289  0.38533493  1
  In  In27  1  0.50272222  0.33102952  0.86903847  1
  In  In28  1  0.50706405  0.66205150  0.37709091  1
  In  In29  1  0.50269220  0.66580825  0.88454787  1
  In  In30  1  0.82962420  -0.01617551  0.35645639  1
  In  In31  1  0.83945420  -0.00804462  0.88656208  1
  In  In32  1  0.83469322  0.31545850  0.37535916  1
  In  In33  1  0.82114347  0.32992932  0.87065016  1
  In  In34  1  0.84249771  0.68387976  0.36257068  1
  In  In35  1  0.84052997  0.67292116  0.87769500  1
  In  In36  1  0.00234910  0.16694970  0.36844502  1
  In  In37  1  0.00871212  0.15549305  0.88547439  1
  In  In38  1  0.00752075  0.50582535  0.37490527  1
  In  In39  1  -0.00270633  0.50564906  0.86974577  1
  In  In40  1  0.00159785  0.81970939  0.35876517  1
  In  In41  1  -0.00576066  0.83402646  0.87501394  1
  In  In42  1  0.33436662  0.15631212  0.37801590  1
  In  In43  1  0.33397695  0.16503737  0.87067041  1
  In  In44  1  0.33739943  0.49308819  0.39313276  1
  In  In45  1  0.34798583  0.50397626  0.87015495  1
  In  In46  1  0.32905076  0.85145413  0.37102652  1
  In  In47  1  0.33029791  0.84543233  0.87555240  1
  In  In48  1  0.67719357  0.15794195  0.37330539  1
  In  In49  1  0.65967523  0.17388293  0.88386846  1
  In  In50  1  0.65143869  0.50589336  0.37757667  1
  In  In51  1  0.66317139  0.48410321  0.86958266  1
  In  In52  1  0.67074762  0.83375002  0.36644145  1
  In  In53  1  0.66730700  0.83879872  0.88777616  1
  In  In54  1  0.15462952  0.00769871  0.13934819  1
  In  In55  1  0.15904577  0.00883702  0.62591991  1
  In  In56  1  0.16515235  0.32199032  0.12104419  1
  In  In57  1  0.18295083  0.33477160  0.60883223  1
  In  In58  1  0.14578977  0.67322816  0.13430755  1
  In  In59  1  0.16210798  0.65337891  0.62520779  1
  In  In60  1  0.50340158  0.00123907  0.12434333  1
  In  In61  1  0.50136939  -0.01036271  0.62713922  1
  In  In62  1  0.49945234  0.33318743  0.11521048  1
  In  In63  1  0.49449210  0.33665162  0.63178913  1
  In  In64  1  0.51038624  0.67781128  0.11793090  1
  In  In65  1  0.49679294  0.66669133  0.61634645  1
  In  In66  1  0.82736669  0.00114124  0.12330812  1
  In  In67  1  0.84091215  0.00032005  0.62433002  1
  In  In68  1  0.84525555  0.33475797  0.12521964  1
  In  In69  1  0.82419444  0.32364751  0.63291344  1
  In  In70  1  0.80960505  0.70225297  0.15809393  1
  In  In71  1  0.83178012  0.68517447  0.62090728  1
  In  In72  1  0.33307679  0.66719139  0.25374196  1
  In  In73  1  0.66910020  0.66485802  0.74153990  1
  In  In74  1  0.16734482  0.49689921  -0.00316128  1
  In  In75  1  0.83683944  0.50526380  0.50189354  1
  In  In76  1  0.49150468  0.16726752  0.51017823  1
  In  In77  1  0.66862044  0.33240671  0.25453280  1
  In  In78  1  0.00371679  0.33054820  0.75022729  1
  In  In79  1  0.82983315  0.16105915  0.50264564  1
  In  In80  1  0.32784867  0.66312167  0.74339837  1
  In  In81  1  0.83053674  0.49917175  -0.00323004  1
  In  In82  1  0.16297119  0.83333150  0.48763570  1
  In  In83  1  0.66372188  0.00543048  0.75650244  1
  In  In84  1  0.16769566  0.83735534  0.00419635  1
  In  In85  1  0.33659586  0.32662077  0.25907271  1
  Cu  Cu86  1  0.49196518  0.83705675  0.75203727  1
  Cu  Cu87  1  0.16141701  0.16979349  0.24632735  1
  Cu  Cu88  1  -0.00697972  -0.00386468  0.49697518  1
  Cu  Cu89  1  0.49806253  0.15996051  0.24673868  1
  Cu  Cu90  1  0.83868598  0.49955513  0.25494343  1
  Cu  Cu91  1  0.33512657  0.66111512  0.00300259  1
  Cu  Cu92  1  0.50536843  0.83824864  0.24595818  1
  Cu  Cu93  1  0.16538021  0.16572811  0.74954361  1
  Cu  Cu94  1  0.67374297  0.67557191  0.49234435  1
  Cu  Cu95  1  0.66475911  -0.00406754  0.49273352  1
  Cu  Cu96  1  0.00206850  -0.00488957  0.01135820  1
  Cu  Cu97  1  0.00013559  0.67043694  0.49380677  1
  Cu  Cu98  1  0.16505300  0.48743904  0.25861146  1
  Cu  Cu99  1  0.83422550  0.16395127  0.24649970  1
  Cu  Cu100  1  0.00149353  0.32673969  0.49920020  1
  Cu  Cu101  1  0.34175699  0.33105847  -0.00651628  1
  Cu  Cu102  1  0.34329253  0.66942362  0.50348585  1
  Cu  Cu103  1  -0.01237749  0.67518897  0.00416950  1
  Cu  Cu104  1  0.83319802  0.83882137  0.75096465  1
  Cu  Cu105  1  0.66133878  0.33127050  -0.00614399  1
  Cu  Cu106  1  0.83874742  0.50546145  0.74869658  1
  Cu  Cu107  1  0.50062440  0.49188612  0.74519518  1
  Cu  Cu108  1  0.66696729  0.66683262  0.00664097  1
  Cu  Cu109  1  0.00216182  0.32883969  0.00161944  1
  Cu  Cu110  1  0.33870132  0.00325615  -0.00278540  1
  Cu  Cu111  1  0.32841202  -0.00060337  0.49620055  1
  Cu  Cu112  1  0.15394565  0.83953661  0.74986481  1
  Cu  Cu113  1  0.50251938  0.50772180  0.24924515  1
  Cu  Cu114  1  0.66952600  -0.00316094  0.00332195  1
  Se  Se115  1  0.08902592  0.08168524  0.05731326  1
  Se  Se116  1  0.07715748  0.07883517  0.54935815  1
  Se  Se117  1  0.07255081  0.41812269  0.06143080  1
  Se  Se118  1  0.08460480  0.41382800  0.54877537  1
  Se  Se119  1  0.07115090  0.75437757  0.06052993  1
  Se  Se120  1  0.07930097  0.75009555  0.55767772  1
  Se  Se121  1  0.42336565  0.08497260  0.05234947  1
  Se  Se122  1  0.40369602  0.07216024  0.56454750  1
  Se  Se123  1  0.41640292  0.41912527  0.04941050  1
  Se  Se124  1  0.43746070  0.42579306  0.55507202  1
  Se  Se125  1  0.41817379  0.75035333  0.05006615  1
  Se  Se126  1  0.42365010  0.76049863  0.54975991  1
  Se  Se127  1  0.75240743  0.08596885  0.05114631  1
  Se  Se128  1  0.73414359  0.07460937  0.56193549  1
  Se  Se129  1  0.74075645  0.40869553  0.05889659  1
  Se  Se130  1  0.74989596  0.40705933  0.55611222  1
  Se  Se131  1  0.75021013  0.74679243  0.06257330  1
  Se  Se132  1  0.75686539  0.75968844  0.54427202  1
  Se  Se133  1  0.25357914  0.25517635  0.04911419  1
  Se  Se134  1  0.25226111  0.23222730  0.55100254  1
  Se  Se135  1  0.24640598  0.59198698  0.06294290  1
  Se  Se136  1  0.25257908  0.59001617  0.55227349  1
  Se  Se137  1  0.25667945  0.92980177  0.06170830  1
  Se  Se138  1  0.24840902  0.91686074  0.55657946  1
  Se  Se139  1  0.57876980  0.24754435  0.04819231  1
  Se  Se140  1  0.59052764  0.25363864  0.56287973  1
  Se  Se141  1  0.58224876  0.57909068  0.05365043  1
  Se  Se142  1  0.59436496  0.59586681  0.55198030  1
  Se  Se143  1  0.58231720  0.91518329  0.05482920  1
  Se  Se144  1  0.57951201  0.91790976  0.54962724  1
  Se  Se145  1  0.91418468  0.24859367  0.05249900  1
  Se  Se146  1  0.92167864  0.25227201  0.56193706  1
  Se  Se147  1  0.90934697  0.59054987  0.06127912  1
  Se  Se148  1  0.92776010  0.59250658  0.56217164  1
  Se  Se149  1  0.92753471  0.91278870  0.07111691  1
  Se  Se150  1  0.91021671  0.91449025  0.55064506  1
  Se  Se151  1  0.07981448  0.23915224  0.44581328  1
  Se  Se152  1  0.08846217  0.24481200  0.95281944  1
  Se  Se153  1  0.08567052  0.57955178  0.45180457  1
  Se  Se154  1  0.07134005  0.59504991  0.94586191  1
  Se  Se155  1  0.07272907  0.92391660  0.43054711  1
  Se  Se156  1  0.08170171  0.92635388  0.94054037  1
  Se  Se157  1  0.40836777  0.25680501  0.44337291  1
  Se  Se158  1  0.42078460  0.24692984  0.93831234  1
  Se  Se159  1  0.42505103  0.58480529  0.44930323  1
  Se  Se160  1  0.41807957  0.57935098  0.94885253  1
  Se  Se161  1  0.41580212  0.91932909  0.44472455  1
  Se  Se162  1  0.41766761  0.91079212  0.94919127  1
  Se  Se163  1  0.73594226  0.25535775  0.44738890  1
  Se  Se164  1  0.75483975  0.25111621  0.94913856  1
  Se  Se165  1  0.75423876  0.59281022  0.43444162  1
  Se  Se166  1  0.73800163  0.58897134  0.93633194  1
  Se  Se167  1  0.75101677  0.92006655  0.43707810  1
  Se  Se168  1  0.75698661  0.91079053  0.95646087  1
  Se  Se169  1  0.24275753  0.07818222  0.44252257  1
  Se  Se170  1  0.25260054  0.08584130  0.94522899  1
  Se  Se171  1  0.25444821  0.41011056  0.45690842  1
  Se  Se172  1  0.25731358  0.41064596  0.93491443  1
  Se  Se173  1  0.26319776  0.74187772  0.43655099  1
  Se  Se174  1  0.25548395  0.74127767  0.94207787  1
  Se  Se175  1  0.58148988  0.08217015  0.44074480  1
  Se  Se176  1  0.58596691  0.07972139  0.94895489  1
  Se  Se177  1  0.58751896  0.42156222  0.45240506  1
  Se  Se178  1  0.57864958  0.41747526  0.94350767  1
  Se  Se179  1  0.58739097  0.75551529  0.43889546  1
  Se  Se180  1  0.58440999  0.75003069  0.95102756  1
  Se  Se181  1  0.91236439  0.07557585  0.43462019  1
  Se  Se182  1  0.92150816  0.07795284  0.95395774  1
  Se  Se183  1  0.91993497  0.40714776  0.44068599  1
  Se  Se184  1  0.92501729  0.40898641  0.93866590  1
  Se  Se185  1  0.92203372  0.75560866  0.43943202  1
  Se  Se186  1  0.90965420  0.76073782  0.94926641  1
  Se  Se187  1  0.23844062  0.24298605  0.31422889  1
  Se  Se188  1  0.24844526  0.24961153  0.80245479  1
  Se  Se189  1  0.25265886  0.56602550  0.31344729  1
  Se  Se190  1  0.24178211  0.57590555  0.80821746  1
  Se  Se191  1  0.24800836  0.91387782  0.29379668  1
  Se  Se192  1  0.24684338  0.91379435  0.80128718  1
  Se  Se193  1  0.57356537  0.24044080  0.31084855  1
  Se  Se194  1  0.60033555  0.25859251  0.80628783  1
  Se  Se195  1  0.58735696  0.58986699  0.30018367  1
  Se  Se196  1  0.57607294  0.58038342  0.80429911  1
  Se  Se197  1  0.58570735  0.92225041  0.30155376  1
  Se  Se198  1  0.57617321  0.90886588  0.81384551  1
  Se  Se199  1  0.91600094  0.24816213  0.29968249  1
  Se  Se200  1  0.92056797  0.24378856  0.81556802  1
  Se  Se201  1  0.92282761  0.58412333  0.30617405  1
  Se  Se202  1  0.91447349  0.59050050  0.80408792  1
  Se  Se203  1  0.92744857  0.91340948  0.29239997  1
  Se  Se204  1  0.91460841  0.92045910  0.80655870  1
  Se  Se205  1  0.07947529  0.08228663  0.29797254  1
  Se  Se206  1  0.08195400  0.08416072  0.80468873  1
  Se  Se207  1  0.08095002  0.40706666  0.31206669  1
  Se  Se208  1  0.09296612  0.42342689  0.80900692  1
  Se  Se209  1  0.10442132  0.74770802  0.30182964  1
  Se  Se210  1  0.07614160  0.75307176  0.80392646  1
  Se  Se211  1  0.41075362  0.08279040  0.30133415  1
  Se  Se212  1  0.40910673  0.07029414  0.80632152  1
  Se  Se213  1  0.42764969  0.42574893  0.31084131  1
  Se  Se214  1  0.41567408  0.41358789  0.80036459  1
  Se  Se215  1  0.42551222  0.75981300  0.30944549  1
  Se  Se216  1  0.41814699  0.74849062  0.80994888  1
  Se  Se217  1  0.74885848  0.08094213  0.29755853  1
  Se  Se218  1  0.75375527  0.08390257  0.82169283  1
  Se  Se219  1  0.75677619  0.42282678  0.31672237  1
  Se  Se220  1  0.75478035  0.41962863  0.79796354  1
  Se  Se221  1  0.75450647  0.75704376  0.29402119  1
  Se  Se222  1  0.74921543  0.75786994  0.80833060  1
  Se  Se223  1  0.25252821  0.09214069  0.19492944  1
  Se  Se224  1  0.24791627  0.07950246  0.69705262  1
  Se  Se225  1  0.24589477  0.41459084  0.19450944  1
  Se  Se226  1  0.24337292  0.41864057  0.68651148  1
  Se  Se227  1  0.25340603  0.75347977  0.18587546  1
  Se  Se228  1  0.23641560  0.76055725  0.68864040  1
  Se  Se229  1  0.58771810  0.08275396  0.19501793  1
  Se  Se230  1  0.56719806  0.08955218  0.69775182  1
  Se  Se231  1  0.57809739  0.41975921  0.19079812  1
  Se  Se232  1  0.59205324  0.41320754  0.69632297  1
  Se  Se233  1  0.58545658  0.75015058  0.19487571  1
  Se  Se234  1  0.57392050  0.75999846  0.69046507  1
  Se  Se235  1  0.91661966  0.08336789  0.19055025  1
  Se  Se236  1  0.90392286  0.08703565  0.69790139  1
  Se  Se237  1  0.91724485  0.41235777  0.20196186  1
  Se  Se238  1  0.91584361  0.42341055  0.68704848  1
  Se  Se239  1  0.94558455  0.72758348  0.18999520  1
  Se  Se240  1  0.91401457  0.75408181  0.69647799  1
  Se  Se241  1  0.07886674  0.25215125  0.19246774  1
  Se  Se242  1  0.08940003  0.24469307  0.68452629  1
  Se  Se243  1  0.08792578  0.57173064  0.20119860  1
  Se  Se244  1  0.07799782  0.59165411  0.70135910  1
  Se  Se245  1  0.10806134  0.90081631  0.20465745  1
  Se  Se246  1  0.07600570  0.92442541  0.69366723  1
  Se  Se247  1  0.42113535  0.24538619  0.18864579  1
  Se  Se248  1  0.42039595  0.25132745  0.70116401  1
  Se  Se249  1  0.41966037  0.58035318  0.18699764  1
  Se  Se250  1  0.42251868  0.57620754  0.68658114  1
  Se  Se251  1  0.41936502  0.92126027  0.19571180  1
  Se  Se252  1  0.41033444  0.91795420  0.69739905  1
  Se  Se253  1  0.75166555  0.24586030  0.18767243  1
  Se  Se254  1  0.76683154  0.22952669  0.70356581  1
  Se  Se255  1  0.75080983  0.57982838  0.20349105  1
  Se  Se256  1  0.75890162  0.57562830  0.68137064  1
  Se  Se257  1  0.75647178  0.91333004  0.19499036  1
  Se  Se258  1  0.74566962  0.91065384  0.69082087  1
