# generated using pymatgen
data_In86Cu29Se144
_symmetry_space_group_name_H-M   'P 1'
_cell_length_a   17.57231462
_cell_length_b   17.57375931
_cell_length_c   23.42932048
_cell_angle_alpha   90.00005309
_cell_angle_beta   89.99513115
_cell_angle_gamma   90.00174665
_symmetry_Int_Tables_number   1
_chemical_formula_structural   In86Cu29Se144
_chemical_formula_sum   'In86 Cu29 Se144'
_cell_volume   7235.24656187
_cell_formula_units_Z   1
loop_
 _symmetry_equiv_pos_site_id
 _symmetry_equiv_pos_as_xyz
  1  'x, y, z'
loop_
 _atom_site_type_symbol
 _atom_site_label
 _atom_site_symmetry_multiplicity
 _atom_site_fract_x
 _atom_site_fract_y
 _atom_site_fract_z
 _atom_site_occupancy
  In  In0  1  0.01261260  0.17017917  0.11864160  1
  In  In1  1  -0.00394584  0.15002544  0.62616380  1
  In  In2  1  0.00628794  0.49509954  0.13719255  1
  In  In3  1  -0.00444601  0.50777783  0.62507014  1
  In  In4  1  -0.01342955  0.83524315  0.12610106  1
  In  In5  1  -0.00222670  0.83332031  0.61914650  1
  In  In6  1  0.33128370  0.17928423  0.10870439  1
  In  In7  1  0.33331388  0.16662074  0.62588759  1
  In  In8  1  0.34344092  0.50731153  0.11292767  1
  In  In9  1  0.32921374  0.48447383  0.62993602  1
  In  In10  1  0.33377005  0.81765950  0.12765663  1
  In  In11  1  0.34001094  0.84822835  0.62470155  1
  In  In12  1  0.65295364  0.16920940  0.12488207  1
  In  In13  1  0.65608315  0.17110075  0.63113151  1
  In  In14  1  0.66408384  0.51579714  0.12345458  1
  In  In15  1  0.63603661  0.46886781  0.58594683  1
  In  In16  1  0.66581392  0.83131506  0.12545202  1
  In  In17  1  0.67951053  0.83308847  0.61820527  1
  In  In18  1  0.16350579  0.00264867  0.38385741  1
  In  In19  1  0.18278269  0.01164423  0.86272899  1
  In  In20  1  0.15809596  0.33415649  0.37635414  1
  In  In21  1  0.19659058  0.30298471  0.91116474  1
  In  In22  1  0.17835927  0.67434665  0.36827109  1
  In  In23  1  0.16350745  0.65243335  0.88060849  1
  In  In24  1  0.51850519  -0.00098246  0.38252509  1
  In  In25  1  0.50124414  0.00178187  0.87481652  1
  In  In26  1  0.50578948  0.33685887  0.38757267  1
  In  In27  1  0.49970148  0.32851692  0.87259071  1
  In  In28  1  0.48928928  0.65704914  0.37039003  1
  In  In29  1  0.50892027  0.66198598  0.89035782  1
  In  In30  1  0.81064855  -0.00544397  0.37843214  1
  In  In31  1  0.82510333  -0.00883687  0.86414371  1
  In  In32  1  0.84486089  0.33455049  0.37355663  1
  In  In33  1  0.82556546  0.34378199  0.86761269  1
  In  In34  1  0.82936701  0.66667885  0.37548012  1
  In  In35  1  0.84092915  0.66829305  0.88098137  1
  In  In36  1  0.00163200  0.17810446  0.37653537  1
  In  In37  1  0.02434788  0.16913425  0.87438868  1
  In  In38  1  -0.00637466  0.49615270  0.36777554  1
  In  In39  1  0.00087784  0.50148111  0.88209784  1
  In  In40  1  0.00790004  0.82721856  0.37960970  1
  In  In41  1  -0.01138200  0.82912908  0.87721019  1
  In  In42  1  0.33606478  0.16689266  0.38346873  1
  In  In43  1  0.34172511  0.16745838  0.87632899  1
  In  In44  1  0.34584596  0.51398314  0.37565602  1
  In  In45  1  0.35324560  0.47235603  0.89204199  1
  In  In46  1  0.33439825  0.81307788  0.37966438  1
  In  In47  1  0.33783638  0.84661981  0.87185184  1
  In  In48  1  0.66870224  0.15718479  0.38016676  1
  In  In49  1  0.65427336  0.15442570  0.86523340  1
  In  In50  1  0.65035267  0.51816219  0.39311667  1
  In  In51  1  0.66843336  0.49051866  0.87186697  1
  In  In52  1  0.67550550  0.84202321  0.37436708  1
  In  In53  1  0.65715543  0.83892574  0.88661572  1
  In  In54  1  0.16138252  0.01056330  0.11838312  1
  In  In55  1  0.16496161  0.00206398  0.62412599  1
  In  In56  1  0.15686454  0.33450163  0.11331818  1
  In  In57  1  0.18493111  0.33243197  0.63037667  1
  In  In58  1  0.17796061  0.65632994  0.13845526  1
  In  In59  1  0.15366355  0.66313898  0.61957009  1
  In  In60  1  0.50887097  0.01059869  0.11986997  1
  In  In61  1  0.48721890  0.00698436  0.63263386  1
  In  In62  1  0.49514972  0.33686019  0.10864846  1
  In  In63  1  0.49862562  0.32642937  0.62732052  1
  In  In64  1  0.50221115  0.66509641  0.12310945  1
  In  In65  1  0.51134540  0.66126270  0.61475216  1
  In  In66  1  0.83116119  -0.01734577  0.12286069  1
  In  In67  1  0.83758137  -0.00572279  0.62996419  1
  In  In68  1  0.83657348  0.34785533  0.12927167  1
  In  In69  1  0.80385843  0.32828119  0.61692185  1
  In  In70  1  0.81825285  0.68271102  0.13895447  1
  In  In71  1  0.81604714  0.66085239  0.60301443  1
  In  In72  1  -0.00001432  0.33310472  0.75426495  1
  In  In73  1  0.17217607  0.50022022  0.49692259  1
  In  In74  1  0.49740140  0.83384435  0.49999142  1
  In  In75  1  0.83392898  0.16567582  -0.00437769  1
  In  In76  1  0.33473036  0.33742812  0.23728811  1
  In  In77  1  0.16717210  0.83656982  0.00060200  1
  In  In78  1  0.33347550  0.67295497  0.74931768  1
  In  In79  1  0.66994300  0.66788094  0.74440919  1
  In  In80  1  0.67236368  0.33806106  0.25156135  1
  In  In81  1  -0.00178955  -0.00035935  0.24583929  1
  In  In82  1  0.83350168  0.16562871  0.50032574  1
  In  In83  1  -0.00204744  0.67028933  0.75097229  1
  In  In84  1  0.83034972  0.50803205  0.00349908  1
  In  In85  1  0.33569093  -0.00439243  0.24573730  1
  Cu  Cu86  1  0.16675654  0.17700729  0.24587378  1
  Cu  Cu87  1  0.33467749  0.66742361  0.00367271  1
  Cu  Cu88  1  0.50600986  0.15969489  0.25033799  1
  Cu  Cu89  1  0.50476267  0.84130581  0.75427561  1
  Cu  Cu90  1  0.49539547  0.16832947  0.75107266  1
  Cu  Cu91  1  0.83378343  0.83205639  0.74782141  1
  Cu  Cu92  1  0.33987312  0.33017299  0.50536889  1
  Cu  Cu93  1  0.50753457  0.82885169  0.25449931  1
  Cu  Cu94  1  0.34179202  0.00102883  -0.00537205  1
  Cu  Cu95  1  0.16464241  0.50027126  0.25320770  1
  Cu  Cu96  1  0.83056595  0.83208828  0.25225244  1
  Cu  Cu97  1  0.00289353  0.00418604  -0.00480159  1
  Cu  Cu98  1  0.83045840  0.16357978  0.74681859  1
  Cu  Cu99  1  0.83724436  0.16359676  0.25542250  1
  Cu  Cu100  1  0.66666651  -0.00342204  -0.00549283  1
  Cu  Cu101  1  0.82491867  0.49683181  0.74141668  1
  Cu  Cu102  1  0.83155799  0.50863279  0.25372696  1
  Cu  Cu103  1  -0.00305504  -0.00442294  0.50269193  1
  Cu  Cu104  1  0.16257684  0.84047575  0.74475233  1
  Cu  Cu105  1  -0.00036226  0.67302936  0.49328737  1
  Cu  Cu106  1  0.00895534  0.32765351  0.50061901  1
  Cu  Cu107  1  0.65781258  0.33120347  -0.00591825  1
  Cu  Cu108  1  0.16868932  0.82922924  0.25470413  1
  Cu  Cu109  1  0.17197033  0.16517983  0.75274149  1
  Cu  Cu110  1  0.33027086  0.00450264  0.50510721  1
  Cu  Cu111  1  0.50091053  0.49342925  0.74606884  1
  Cu  Cu112  1  0.50103851  0.50296513  0.24752614  1
  Cu  Cu113  1  -0.00698445  0.67148360  0.01149599  1
  Cu  Cu114  1  0.17443748  0.49084598  0.76053664  1
  Se  Se115  1  0.08760191  0.08937672  0.04383993  1
  Se  Se116  1  0.08087759  0.08251861  0.55186097  1
  Se  Se117  1  0.07089616  0.42601868  0.05475338  1
  Se  Se118  1  0.08365514  0.41167631  0.56347335  1
  Se  Se119  1  0.08419530  0.74742730  0.06672210  1
  Se  Se120  1  0.08287887  0.75181177  0.55020686  1
  Se  Se121  1  0.41849764  0.08649268  0.05226695  1
  Se  Se122  1  0.41772526  0.08673437  0.55487902  1
  Se  Se123  1  0.39110026  0.39832462  0.04783452  1
  Se  Se124  1  0.41820134  0.41713439  0.55847361  1
  Se  Se125  1  0.41946985  0.75214173  0.05353383  1
  Se  Se126  1  0.40651364  0.74333864  0.55985010  1
  Se  Se127  1  0.74432991  0.07798971  0.05866467  1
  Se  Se128  1  0.74673884  0.08179829  0.56525039  1
  Se  Se129  1  0.73688465  0.40885685  0.05711050  1
  Se  Se130  1  0.77169931  0.43593399  0.54819949  1
  Se  Se131  1  0.75527941  0.75473724  0.05737967  1
  Se  Se132  1  0.74573021  0.75673554  0.53933643  1
  Se  Se133  1  0.23758190  0.25105085  0.04449580  1
  Se  Se134  1  0.24998223  0.24911167  0.55423765  1
  Se  Se135  1  0.24467286  0.58833496  0.05436946  1
  Se  Se136  1  0.25851862  0.58606077  0.56242006  1
  Se  Se137  1  0.26215422  0.92498999  0.06067209  1
  Se  Se138  1  0.24855059  0.91700341  0.55507643  1
  Se  Se139  1  0.57937156  0.24448095  0.04830634  1
  Se  Se140  1  0.59710209  0.26366318  0.55808299  1
  Se  Se141  1  0.56665647  0.56823241  0.05338154  1
  Se  Se142  1  0.60314756  0.60108961  0.54419350  1
  Se  Se143  1  0.58566859  0.91811646  0.05531460  1
  Se  Se144  1  0.57967943  0.92344938  0.56460923  1
  Se  Se145  1  0.91571728  0.25822466  0.05928810  1
  Se  Se146  1  0.92274476  0.25642903  0.56371819  1
  Se  Se147  1  0.91398685  0.59114339  0.07242359  1
  Se  Se148  1  0.92369256  0.58616534  0.54989445  1
  Se  Se149  1  0.92213627  0.91974986  0.04896946  1
  Se  Se150  1  0.90939215  0.91446476  0.55291256  1
  Se  Se151  1  0.09215306  0.24370134  0.44954574  1
  Se  Se152  1  0.06735925  0.25980622  0.95246107  1
  Se  Se153  1  0.08068885  0.58713112  0.43619914  1
  Se  Se154  1  0.07213761  0.58971815  0.95357847  1
  Se  Se155  1  0.08385565  0.91478477  0.44900399  1
  Se  Se156  1  0.08396665  0.92382518  0.93380416  1
  Se  Se157  1  0.42213145  0.24744185  0.44997618  1
  Se  Se158  1  0.41044737  0.26053117  0.94507591  1
  Se  Se159  1  0.42585448  0.57916481  0.45191220  1
  Se  Se160  1  0.41581600  0.58120935  0.95109687  1
  Se  Se161  1  0.40562679  0.92532458  0.43821051  1
  Se  Se162  1  0.42367457  0.91327100  0.94582607  1
  Se  Se163  1  0.74790832  0.25949151  0.44034432  1
  Se  Se164  1  0.74142097  0.25349942  0.93492723  1
  Se  Se165  1  0.77097853  0.56565256  0.44406626  1
  Se  Se166  1  0.73813757  0.59148462  0.94050720  1
  Se  Se167  1  0.73896385  0.92108189  0.45543150  1
  Se  Se168  1  0.75747078  0.91703293  0.94552621  1
  Se  Se169  1  0.24754998  0.08732278  0.44911630  1
  Se  Se170  1  0.25355658  0.08167425  0.94348684  1
  Se  Se171  1  0.26418905  0.40801933  0.43811841  1
  Se  Se172  1  0.22416168  0.44230543  0.93774557  1
  Se  Se173  1  0.24471945  0.74667637  0.44974316  1
  Se  Se174  1  0.25741027  0.74609852  0.93873235  1
  Se  Se175  1  0.57941138  0.09296277  0.45220744  1
  Se  Se176  1  0.58273324  0.08455284  0.94642398  1
  Se  Se177  1  0.58754742  0.41579427  0.45685891  1
  Se  Se178  1  0.57950269  0.41908234  0.94141024  1
  Se  Se179  1  0.58004921  0.75033362  0.43204229  1
  Se  Se180  1  0.58815506  0.74838875  0.95483111  1
  Se  Se181  1  0.92165562  0.07481215  0.43635616  1
  Se  Se182  1  0.92131616  0.07856482  0.93142561  1
  Se  Se183  1  0.92904272  0.41097575  0.44535432  1
  Se  Se184  1  0.91340406  0.40953977  0.94465524  1
  Se  Se185  1  0.91130264  0.75468332  0.44346572  1
  Se  Se186  1  0.91414314  0.75271683  0.95376043  1
  Se  Se187  1  0.25190582  0.24929017  0.30706106  1
  Se  Se188  1  0.24501211  0.24900378  0.81416180  1
  Se  Se189  1  0.25411379  0.57918269  0.30401844  1
  Se  Se190  1  0.25689736  0.57721128  0.81353644  1
  Se  Se191  1  0.24607325  0.91392231  0.31266654  1
  Se  Se192  1  0.25420427  0.91553264  0.79698849  1
  Se  Se193  1  0.57887101  0.24799235  0.30949259  1
  Se  Se194  1  0.58380021  0.25197057  0.80040628  1
  Se  Se195  1  0.58429470  0.58022363  0.30539223  1
  Se  Se196  1  0.57601199  0.57974926  0.80588715  1
  Se  Se197  1  0.58566155  0.91907048  0.30474567  1
  Se  Se198  1  0.59101768  0.91952312  0.80825089  1
  Se  Se199  1  0.92192647  0.25088435  0.30117184  1
  Se  Se200  1  0.90955377  0.23892085  0.81245245  1
  Se  Se201  1  0.91878074  0.59115024  0.30412720  1
  Se  Se202  1  0.90567511  0.57184645  0.80529590  1
  Se  Se203  1  0.91113432  0.91549695  0.31188143  1
  Se  Se204  1  0.92088534  0.91167009  0.80118326  1
  Se  Se205  1  0.09097272  0.09045961  0.30491080  1
  Se  Se206  1  0.08237194  0.07959224  0.79804197  1
  Se  Se207  1  0.08276193  0.41235810  0.30263045  1
  Se  Se208  1  0.08831407  0.41605866  0.81817333  1
  Se  Se209  1  0.08060997  0.74737211  0.30380555  1
  Se  Se210  1  0.09481418  0.75593451  0.81070716  1
  Se  Se211  1  0.42122562  0.08514049  0.30985369  1
  Se  Se212  1  0.41556994  0.08078108  0.80472327  1
  Se  Se213  1  0.42545698  0.41632563  0.30674376  1
  Se  Se214  1  0.41744259  0.41434059  0.80245772  1
  Se  Se215  1  0.41553080  0.74819979  0.30124873  1
  Se  Se216  1  0.43110585  0.75175204  0.81243417  1
  Se  Se217  1  0.74764391  0.08408619  0.30373740  1
  Se  Se218  1  0.74525489  0.07890027  0.79834885  1
  Se  Se219  1  0.75233538  0.42879751  0.31606566  1
  Se  Se220  1  0.74094996  0.41386355  0.79399811  1
  Se  Se221  1  0.74643618  0.74938835  0.30556869  1
  Se  Se222  1  0.75599139  0.75324795  0.81152283  1
  Se  Se223  1  0.24809282  0.09518447  0.18859380  1
  Se  Se224  1  0.25006795  0.08203205  0.69402185  1
  Se  Se225  1  0.24068819  0.42733111  0.18383043  1
  Se  Se226  1  0.25769229  0.40823866  0.70799882  1
  Se  Se227  1  0.25638586  0.74675639  0.20475438  1
  Se  Se228  1  0.23910106  0.75485117  0.68609860  1
  Se  Se229  1  0.59071974  0.07767300  0.19857645  1
  Se  Se230  1  0.57912177  0.08290204  0.69959192  1
  Se  Se231  1  0.57488689  0.41595259  0.18782849  1
  Se  Se232  1  0.58697755  0.42254817  0.68483852  1
  Se  Se233  1  0.58438187  0.74570438  0.19458521  1
  Se  Se234  1  0.57560813  0.76031423  0.68840957  1
  Se  Se235  1  0.91047448  0.09006975  0.18415307  1
  Se  Se236  1  0.91741733  0.07758127  0.70145262  1
  Se  Se237  1  0.91412284  0.41923567  0.20535965  1
  Se  Se238  1  0.91027714  0.41447349  0.68668361  1
  Se  Se239  1  0.92038458  0.75196066  0.20232246  1
  Se  Se240  1  0.90328217  0.74508373  0.68507720  1
  Se  Se241  1  0.08197837  0.25650103  0.19199739  1
  Se  Se242  1  0.08814413  0.24295442  0.69073535  1
  Se  Se243  1  0.08020776  0.58799708  0.20411142  1
  Se  Se244  1  0.09393873  0.57079976  0.70015590  1
  Se  Se245  1  0.09594676  0.91009323  0.18954092  1
  Se  Se246  1  0.07658337  0.91692901  0.68968044  1
  Se  Se247  1  0.42829779  0.23931330  0.18726369  1
  Se  Se248  1  0.41115145  0.25098047  0.69764572  1
  Se  Se249  1  0.41530617  0.58177133  0.19206196  1
  Se  Se250  1  0.42498724  0.58152405  0.68901191  1
  Se  Se251  1  0.42921877  0.90726611  0.18885765  1
  Se  Se252  1  0.41283804  0.91871524  0.70423525  1
  Se  Se253  1  0.75846290  0.24254199  0.19012192  1
  Se  Se254  1  0.74615368  0.25059470  0.69947394  1
  Se  Se255  1  0.74196777  0.58548448  0.20116346  1
  Se  Se256  1  0.74846716  0.57615517  0.68046814  1
  Se  Se257  1  0.74795501  0.91524497  0.19775528  1
  Se  Se258  1  0.74695602  0.91359616  0.69636230  1
