# generated using pymatgen
data_In86Cu29Se144
_symmetry_space_group_name_H-M   'P 1'
_cell_length_a   17.70695060
_cell_length_b   17.72099135
_cell_length_c   23.58746876
_cell_angle_alpha   89.97967416
_cell_angle_beta   90.01442069
_cell_angle_gamma   89.98715808
_symmetry_Int_Tables_number   1
_chemical_formula_structural   In86Cu29Se144
_chemical_formula_sum   'In86 Cu29 Se144'
_cell_volume   7401.38635490
_cell_formula_units_Z   1
loop_
 _symmetry_equiv_pos_site_id
 _symmetry_equiv_pos_as_xyz
  1  'x, y, z'
loop_
 _atom_site_type_symbol
 _atom_site_label
 _atom_site_symmetry_multiplicity
 _atom_site_fract_x
 _atom_site_fract_y
 _atom_site_fract_z
 _atom_site_occupancy
  In  In0  1  -0.01009965  0.17226037  0.12207444  1
  In  In1  1  -0.02090600  0.14658241  0.62045360  1
  In  In2  1  0.00532393  0.50530420  0.11956631  1
  In  In3  1  0.00043614  0.52144159  0.63058597  1
  In  In4  1  -0.01615287  0.83343234  0.12639629  1
  In  In5  1  -0.00092646  0.83658276  0.62759434  1
  In  In6  1  0.34385305  0.15487878  0.12582244  1
  In  In7  1  0.32560079  0.15780486  0.61800801  1
  In  In8  1  0.34865500  0.51686801  0.11926946  1
  In  In9  1  0.33917363  0.49761926  0.61982967  1
  In  In10  1  0.33630229  0.83114803  0.13296502  1
  In  In11  1  0.36416816  0.85429769  0.60268366  1
  In  In12  1  0.65283920  0.15447627  0.10907832  1
  In  In13  1  0.67017545  0.16564737  0.62704823  1
  In  In14  1  0.66290604  0.51152057  0.12380302  1
  In  In15  1  0.66224461  0.49656344  0.62265719  1
  In  In16  1  0.67272523  0.82569536  0.13376164  1
  In  In17  1  0.69241668  0.89136373  0.57038704  1
  In  In18  1  0.17509602  -0.00962259  0.38986974  1
  In  In19  1  0.16871781  -0.00249461  0.86166046  1
  In  In20  1  0.16586409  0.32445435  0.38016058  1
  In  In21  1  0.17874532  0.33436371  0.87866793  1
  In  In22  1  0.17973743  0.68796224  0.36660888  1
  In  In23  1  0.15858389  0.66875856  0.87881380  1
  In  In24  1  0.51719209  -0.00592174  0.39199298  1
  In  In25  1  0.52242000  0.01508187  0.85501055  1
  In  In26  1  0.50397781  0.33332781  0.37984053  1
  In  In27  1  0.54360470  0.30042823  0.91722992  1
  In  In28  1  0.50887446  0.65697276  0.36658974  1
  In  In29  1  0.49606986  0.66419939  0.87958625  1
  In  In30  1  0.81569004  0.00548198  0.39361427  1
  In  In31  1  0.82634112  -0.00114253  0.87090042  1
  In  In32  1  0.84039306  0.33146548  0.38412147  1
  In  In33  1  0.81140800  0.32598962  0.86576460  1
  In  In34  1  0.83422132  0.66700245  0.37481800  1
  In  In35  1  0.83976955  0.66801136  0.87338248  1
  In  In36  1  -0.00144185  0.15920113  0.38789965  1
  In  In37  1  -0.00903527  0.14912409  0.86510791  1
  In  In38  1  -0.01004749  0.50482480  0.37767737  1
  In  In39  1  -0.00366575  0.51326725  0.87688714  1
  In  In40  1  0.00526566  0.82651123  0.38518256  1
  In  In41  1  -0.00955390  0.82957889  0.86170255  1
  In  In42  1  0.34481845  0.15687033  0.38692132  1
  In  In43  1  0.34951036  0.16997268  0.86963138  1
  In  In44  1  0.33985526  0.51363825  0.36327112  1
  In  In45  1  0.34552494  0.48869281  0.88658196  1
  In  In46  1  0.37223263  0.78722773  0.42568527  1
  In  In47  1  0.33118141  0.83445038  0.87092287  1
  In  In48  1  0.66902322  0.16417874  0.38356721  1
  In  In49  1  0.66720533  0.15835957  0.87039401  1
  In  In50  1  0.65974090  0.51050301  0.37475775  1
  In  In51  1  0.66607751  0.49126597  0.87826961  1
  In  In52  1  0.66926967  0.82739211  0.37707061  1
  In  In53  1  0.66312404  0.84526322  0.87033944  1
  In  In54  1  0.17783413  0.00758718  0.12441404  1
  In  In55  1  0.16608322  -0.00342972  0.62539381  1
  In  In56  1  0.15109298  0.33607169  0.12153127  1
  In  In57  1  0.17928203  0.33384456  0.62306103  1
  In  In58  1  0.17700413  0.65938879  0.13640600  1
  In  In59  1  0.15966327  0.67379038  0.62495329  1
  In  In60  1  0.50831602  0.01244106  0.12341382  1
  In  In61  1  0.50234975  0.00121649  0.62032162  1
  In  In62  1  0.50297281  0.32711298  0.12021221  1
  In  In63  1  0.50976005  0.33701918  0.62049054  1
  In  In64  1  0.51404011  0.64791992  0.16105737  1
  In  In65  1  0.50588749  0.67279076  0.61049577  1
  In  In66  1  0.81967569  -0.01504127  0.11419189  1
  In  In67  1  0.83266030  0.00458556  0.63281548  1
  In  In68  1  0.82818601  0.32973286  0.11668677  1
  In  In69  1  0.81370775  0.31857192  0.61968029  1
  In  In70  1  0.81600302  0.68569254  0.14070256  1
  In  In71  1  0.83669193  0.68355578  0.61753043  1
  In  In72  1  -0.00299953  0.33207878  0.24400342  1
  In  In73  1  0.49619591  0.83017360  -0.00183025  1
  In  In74  1  0.16724208  0.49915372  0.49364826  1
  In  In75  1  0.34172488  0.33821932  0.75101127  1
  In  In76  1  0.34918419  -0.01844009  0.27911786  1
  In  In77  1  0.32746536  0.66944828  0.74340164  1
  In  In78  1  0.33545242  0.33322430  0.24218129  1
  In  In79  1  0.16260497  0.16880235  -0.00540064  1
  In  In80  1  -0.00499610  -0.00615411  0.25624325  1
  In  In81  1  0.66400469  0.67441339  0.73819189  1
  In  In82  1  0.15854804  0.83501292  0.00589475  1
  In  In83  1  0.83072742  0.50081040  -0.00271826  1
  In  In84  1  -0.00057398  0.33649176  0.74833113  1
  In  In85  1  0.67189728  0.33033003  0.24887078  1
  Cu  Cu86  1  0.34381717  0.00320351  -0.00699006  1
  Cu  Cu87  1  0.83286395  0.50369301  0.25309641  1
  Cu  Cu88  1  0.16680884  0.51175956  0.75591321  1
  Cu  Cu89  1  0.50118929  0.16770623  0.74962249  1
  Cu  Cu90  1  -0.00456818  0.00256856  0.50719696  1
  Cu  Cu91  1  0.50372673  0.50166385  0.74710222  1
  Cu  Cu92  1  0.34217952  0.33393624  0.50076334  1
  Cu  Cu93  1  -0.00744819  -0.00011091  -0.00826012  1
  Cu  Cu94  1  -0.01060885  0.33003582  -0.00242357  1
  Cu  Cu95  1  0.82957128  0.83854510  0.73681292  1
  Cu  Cu96  1  0.49765912  0.83632028  0.73849283  1
  Cu  Cu97  1  0.83101377  0.83662134  0.25552375  1
  Cu  Cu98  1  0.15807626  0.49864065  0.24774279  1
  Cu  Cu99  1  0.33013736  0.33691975  0.00459282  1
  Cu  Cu100  1  -0.00203070  0.66412566  -0.00074344  1
  Cu  Cu101  1  0.66817281  -0.00490455  -0.00532569  1
  Cu  Cu102  1  0.83171409  0.15940619  0.25351841  1
  Cu  Cu103  1  -0.00242698  0.66863195  0.50030280  1
  Cu  Cu104  1  0.66745888  0.65619968  0.49491759  1
  Cu  Cu105  1  0.33119080  0.66613480  0.00913397  1
  Cu  Cu106  1  0.00249066  0.33468242  0.50476946  1
  Cu  Cu107  1  0.49788254  0.83579988  0.26698735  1
  Cu  Cu108  1  0.15638502  0.83099134  0.25188475  1
  Cu  Cu109  1  0.17293543  0.83366084  0.74357804  1
  Cu  Cu110  1  0.16386285  0.16427022  0.74055964  1
  Cu  Cu111  1  0.66956791  0.33610767  0.49914087  1
  Cu  Cu112  1  0.17487219  0.15583088  0.25646065  1
  Cu  Cu113  1  0.33044469  0.00757581  0.49913899  1
  Cu  Cu114  1  0.83500470  0.50331678  0.75327092  1
  Se  Se115  1  0.07447298  0.07471156  0.05593507  1
  Se  Se116  1  0.08356910  0.08411024  0.55882572  1
  Se  Se117  1  0.07306804  0.41360824  0.04885905  1
  Se  Se118  1  0.08012089  0.41841627  0.56351012  1
  Se  Se119  1  0.07521594  0.74124153  0.06462780  1
  Se  Se120  1  0.07747565  0.75233011  0.55542784  1
  Se  Se121  1  0.42280618  0.08387561  0.05019260  1
  Se  Se122  1  0.41731602  0.08516924  0.55188621  1
  Se  Se123  1  0.41537275  0.41391324  0.05920602  1
  Se  Se124  1  0.42275001  0.41838171  0.55332053  1
  Se  Se125  1  0.41504852  0.74428207  0.06529778  1
  Se  Se126  1  0.40344575  0.73595608  0.54535565  1
  Se  Se127  1  0.75038236  0.08001888  0.04744881  1
  Se  Se128  1  0.73688001  0.06712039  0.56091887  1
  Se  Se129  1  0.73667684  0.41394437  0.05526845  1
  Se  Se130  1  0.75084403  0.41897839  0.55465493  1
  Se  Se131  1  0.75562738  0.75820082  0.05880098  1
  Se  Se132  1  0.73220762  0.74517892  0.55615930  1
  Se  Se133  1  0.25253609  0.25075953  0.06315898  1
  Se  Se134  1  0.25418052  0.25415661  0.55148036  1
  Se  Se135  1  0.24433962  0.58244485  0.05732528  1
  Se  Se136  1  0.25039088  0.58675864  0.55934586  1
  Se  Se137  1  0.26502757  0.92407270  0.05510049  1
  Se  Se138  1  0.25161478  0.92189587  0.55281706  1
  Se  Se139  1  0.58288270  0.25255339  0.04716381  1
  Se  Se140  1  0.59115941  0.25152927  0.55571075  1
  Se  Se141  1  0.57634052  0.60275607  0.06867446  1
  Se  Se142  1  0.58280768  0.57654850  0.55097800  1
  Se  Se143  1  0.58873815  0.91695301  0.05826248  1
  Se  Se144  1  0.54791792  0.89577463  0.55083986  1
  Se  Se145  1  0.90877992  0.24504320  0.04877415  1
  Se  Se146  1  0.91849361  0.25351996  0.55895975  1
  Se  Se147  1  0.91131803  0.59321846  0.06137375  1
  Se  Se148  1  0.91624720  0.58779093  0.55549034  1
  Se  Se149  1  0.91796335  0.91503117  0.05004959  1
  Se  Se150  1  0.91491047  0.92053426  0.56201017  1
  Se  Se151  1  0.08128075  0.25000256  0.44970171  1
  Se  Se152  1  0.07000615  0.25393450  0.93295234  1
  Se  Se153  1  0.08023976  0.59446602  0.43750216  1
  Se  Se154  1  0.08434555  0.58239409  0.94896021  1
  Se  Se155  1  0.07659152  0.91977290  0.45188446  1
  Se  Se156  1  0.07979797  0.92192875  0.93590181  1
  Se  Se157  1  0.42452834  0.24918807  0.44848964  1
  Se  Se158  1  0.40824070  0.25361109  0.94731796  1
  Se  Se159  1  0.41893958  0.58257363  0.43663461  1
  Se  Se160  1  0.41338151  0.58854993  0.95011943  1
  Se  Se161  1  0.38715633  0.93580119  0.42271652  1
  Se  Se162  1  0.42032010  0.92405859  0.93127974  1
  Se  Se163  1  0.75322228  0.25101382  0.44828198  1
  Se  Se164  1  0.73640385  0.25260290  0.93970107  1
  Se  Se165  1  0.75462129  0.57824497  0.44203809  1
  Se  Se166  1  0.74293598  0.59408394  0.93932085  1
  Se  Se167  1  0.74808088  0.90324662  0.45283783  1
  Se  Se168  1  0.75103322  0.91125758  0.94289302  1
  Se  Se169  1  0.24257429  0.09357273  0.45008003  1
  Se  Se170  1  0.25563326  0.07841775  0.93654544  1
  Se  Se171  1  0.26353803  0.41094906  0.43637149  1
  Se  Se172  1  0.24714179  0.41913936  0.95146554  1
  Se  Se173  1  0.23386815  0.75671074  0.45287903  1
  Se  Se174  1  0.25624978  0.74878674  0.94682169  1
  Se  Se175  1  0.59466628  0.08142282  0.45579469  1
  Se  Se176  1  0.58227726  0.07713130  0.94246719  1
  Se  Se177  1  0.58863601  0.41816155  0.44341152  1
  Se  Se178  1  0.56700205  0.43780437  0.94679379  1
  Se  Se179  1  0.58551102  0.73913476  0.44006507  1
  Se  Se180  1  0.59185481  0.74633764  0.93875990  1
  Se  Se181  1  0.91010094  0.08465560  0.45501066  1
  Se  Se182  1  0.90951450  0.08254616  0.94089727  1
  Se  Se183  1  0.92239896  0.41706064  0.44954407  1
  Se  Se184  1  0.91466374  0.40931007  0.93284424  1
  Se  Se185  1  0.91108398  0.74944315  0.44762017  1
  Se  Se186  1  0.92437428  0.74930577  0.94063047  1
  Se  Se187  1  0.25318466  0.24219034  0.31089077  1
  Se  Se188  1  0.24408226  0.24252826  0.80314606  1
  Se  Se189  1  0.23816767  0.58154700  0.30322376  1
  Se  Se190  1  0.25435747  0.58080882  0.81640095  1
  Se  Se191  1  0.23828569  0.89989383  0.31619011  1
  Se  Se192  1  0.25626688  0.91443408  0.79857218  1
  Se  Se193  1  0.58376072  0.24433517  0.31101473  1
  Se  Se194  1  0.57167844  0.24852544  0.81559359  1
  Se  Se195  1  0.58900392  0.57874089  0.29457951  1
  Se  Se196  1  0.58037885  0.58591033  0.80595123  1
  Se  Se197  1  0.58608884  0.91782674  0.31332295  1
  Se  Se198  1  0.58624487  0.91313896  0.79202221  1
  Se  Se199  1  0.91595120  0.23912538  0.30920666  1
  Se  Se200  1  0.90807805  0.24490233  0.80363281  1
  Se  Se201  1  0.91799619  0.58526860  0.30376839  1
  Se  Se202  1  0.91950681  0.58769869  0.80192861  1
  Se  Se203  1  0.90603684  0.91356718  0.32126111  1
  Se  Se204  1  0.90844302  0.91728315  0.79935591  1
  Se  Se205  1  0.08961899  0.08183606  0.31482418  1
  Se  Se206  1  0.08456325  0.08224513  0.79748270  1
  Se  Se207  1  0.08588987  0.41539303  0.30953259  1
  Se  Se208  1  0.09213940  0.42357960  0.81220212  1
  Se  Se209  1  0.07306551  0.74938154  0.30537146  1
  Se  Se210  1  0.09411970  0.75526555  0.80499652  1
  Se  Se211  1  0.43608961  0.08932965  0.31555692  1
  Se  Se212  1  0.41454880  0.08151341  0.79765251  1
  Se  Se213  1  0.42575180  0.41709734  0.30440585  1
  Se  Se214  1  0.43101041  0.42165166  0.81135370  1
  Se  Se215  1  0.41384178  0.75550323  0.32081151  1
  Se  Se216  1  0.42588758  0.75478132  0.80278483  1
  Se  Se217  1  0.75245711  0.08443420  0.31279194  1
  Se  Se218  1  0.72942788  0.06146831  0.80310735  1
  Se  Se219  1  0.76090211  0.41731487  0.31200293  1
  Se  Se220  1  0.74486183  0.42349695  0.80057481  1
  Se  Se221  1  0.75047514  0.74781091  0.30553217  1
  Se  Se222  1  0.75562123  0.75767677  0.80368483  1
  Se  Se223  1  0.26043035  0.07595363  0.20211973  1
  Se  Se224  1  0.25097750  0.08116140  0.69278512  1
  Se  Se225  1  0.23819720  0.42058347  0.18668780  1
  Se  Se226  1  0.24510352  0.43139564  0.69572480  1
  Se  Se227  1  0.24860045  0.75542124  0.20000459  1
  Se  Se228  1  0.25555580  0.76550585  0.67933368  1
  Se  Se229  1  0.59597754  0.08069334  0.19284249  1
  Se  Se230  1  0.57890949  0.08517568  0.69224886  1
  Se  Se231  1  0.58034800  0.41749780  0.18985604  1
  Se  Se232  1  0.58436886  0.41644781  0.69543014  1
  Se  Se233  1  0.58156704  0.76150374  0.20633280  1
  Se  Se234  1  0.57936072  0.76297060  0.67824249  1
  Se  Se235  1  0.91000628  0.08140608  0.18989146  1
  Se  Se236  1  0.91378215  0.08327341  0.70373830  1
  Se  Se237  1  0.90524163  0.42380950  0.18730840  1
  Se  Se238  1  0.91279289  0.42662781  0.68814236  1
  Se  Se239  1  0.91725129  0.75359446  0.20386241  1
  Se  Se240  1  0.91737515  0.74967381  0.69566451  1
  Se  Se241  1  0.09297199  0.23251067  0.19439373  1
  Se  Se242  1  0.08748510  0.25043362  0.68507735  1
  Se  Se243  1  0.07681676  0.58364169  0.19537281  1
  Se  Se244  1  0.08697337  0.59428192  0.70119516  1
  Se  Se245  1  0.09044843  0.91619160  0.18744301  1
  Se  Se246  1  0.08416960  0.91711850  0.69632649  1
  Se  Se247  1  0.42964503  0.23606387  0.19430823  1
  Se  Se248  1  0.42040064  0.24497666  0.68700558  1
  Se  Se249  1  0.39631009  0.58856924  0.20610193  1
  Se  Se250  1  0.42623942  0.58201092  0.68892622  1
  Se  Se251  1  0.42845602  0.91462370  0.19643639  1
  Se  Se252  1  0.41378105  0.92328051  0.69157653  1
  Se  Se253  1  0.75783296  0.23878591  0.18852504  1
  Se  Se254  1  0.74352067  0.25157084  0.69883963  1
  Se  Se255  1  0.74758816  0.58103871  0.19820486  1
  Se  Se256  1  0.75889514  0.58087677  0.68743435  1
  Se  Se257  1  0.75167172  0.91902143  0.19803706  1
  Se  Se258  1  0.74119547  0.90286128  0.67653085  1
