# generated using pymatgen
data_In86Cu29Se144
_symmetry_space_group_name_H-M   'P 1'
_cell_length_a   17.59240352
_cell_length_b   17.59512766
_cell_length_c   23.44524127
_cell_angle_alpha   90.00255048
_cell_angle_beta   90.01760785
_cell_angle_gamma   90.03017422
_symmetry_Int_Tables_number   1
_chemical_formula_structural   In86Cu29Se144
_chemical_formula_sum   'In86 Cu29 Se144'
_cell_volume   7257.25236375
_cell_formula_units_Z   1
loop_
 _symmetry_equiv_pos_site_id
 _symmetry_equiv_pos_as_xyz
  1  'x, y, z'
loop_
 _atom_site_type_symbol
 _atom_site_label
 _atom_site_symmetry_multiplicity
 _atom_site_fract_x
 _atom_site_fract_y
 _atom_site_fract_z
 _atom_site_occupancy
  In  In0  1  0.01004621  0.16630327  0.12216955  1
  In  In1  1  -0.00803736  0.17905200  0.63250643  1
  In  In2  1  -0.00615571  0.50920389  0.12719069  1
  In  In3  1  0.00177216  0.48370108  0.62379391  1
  In  In4  1  -0.00081044  0.82946113  0.12085300  1
  In  In5  1  0.00975801  0.83391835  0.63394696  1
  In  In6  1  0.34326832  0.16937222  0.11186345  1
  In  In7  1  0.32401356  0.16385148  0.63250564  1
  In  In8  1  0.33894836  0.49575250  0.12758195  1
  In  In9  1  0.33526824  0.51476749  0.62615985  1
  In  In10  1  0.33328541  0.83417889  0.11690259  1
  In  In11  1  0.34333788  0.82760870  0.63372000  1
  In  In12  1  0.65943604  0.17764480  0.12642255  1
  In  In13  1  0.67328586  0.15864562  0.63651031  1
  In  In14  1  0.65760983  0.49039366  0.11665024  1
  In  In15  1  0.66135424  0.49171824  0.63802260  1
  In  In16  1  0.66766578  0.83685336  0.12159865  1
  In  In17  1  0.66178269  0.85306395  0.63255796  1
  In  In18  1  0.17094416  -0.00381018  0.37329127  1
  In  In19  1  0.17022805  0.00089431  0.88058689  1
  In  In20  1  0.17747898  0.34476277  0.36496567  1
  In  In21  1  0.15271864  0.32728787  0.87366760  1
  In  In22  1  0.15635117  0.66075179  0.35955241  1
  In  In23  1  0.18433886  0.66674052  0.87379162  1
  In  In24  1  0.50132254  -0.01666564  0.37365988  1
  In  In25  1  0.49728905  -0.00262981  0.87857912  1
  In  In26  1  0.50210290  0.33240616  0.36409354  1
  In  In27  1  0.50502151  0.32740178  0.87955772  1
  In  In28  1  0.49540660  0.68459041  0.36976434  1
  In  In29  1  0.49367369  0.67457240  0.88737670  1
  In  In30  1  0.83189918  0.01421742  0.37729525  1
  In  In31  1  0.82144101  -0.01386255  0.86309736  1
  In  In32  1  0.82512150  0.32412112  0.36615005  1
  In  In33  1  0.83101738  0.33862608  0.86952377  1
  In  In34  1  0.83809552  0.65589617  0.36882282  1
  In  In35  1  0.83090925  0.66667862  0.88564124  1
  In  In36  1  -0.01689651  0.16056438  0.37514561  1
  In  In37  1  0.00809995  0.16786005  0.87448579  1
  In  In38  1  0.00940231  0.50681157  0.36430946  1
  In  In39  1  -0.00605106  0.48497689  0.87042937  1
  In  In40  1  0.01005353  0.82592517  0.36744217  1
  In  In41  1  -0.01152083  0.84639127  0.88223674  1
  In  In42  1  0.32541090  0.16996086  0.37076046  1
  In  In43  1  0.35577938  0.13518490  0.90199233  1
  In  In44  1  0.32889940  0.49458237  0.36680381  1
  In  In45  1  0.33261606  0.51451599  0.87501413  1
  In  In46  1  0.34553716  0.83675052  0.36552236  1
  In  In47  1  0.33537085  0.83654170  0.88459573  1
  In  In48  1  0.67076680  0.17176661  0.36915748  1
  In  In49  1  0.64428175  0.15592231  0.85730546  1
  In  In50  1  0.67687619  0.49335671  0.37115955  1
  In  In51  1  0.67060169  0.49092631  0.88132481  1
  In  In52  1  0.64874608  0.83513623  0.37269454  1
  In  In53  1  0.66159389  0.83462602  0.88280852  1
  In  In54  1  0.17402759  -0.00016242  0.10713375  1
  In  In55  1  0.16845575  -0.00083777  0.63909131  1
  In  In56  1  0.17181123  0.32637751  0.12802308  1
  In  In57  1  0.15391366  0.32995178  0.62400164  1
  In  In58  1  0.16469803  0.68304426  0.13553491  1
  In  In59  1  0.18140599  0.67454813  0.62251400  1
  In  In60  1  0.50260411  0.01063975  0.11141370  1
  In  In61  1  0.51431988  -0.00672180  0.64169758  1
  In  In62  1  0.49875484  0.33320195  0.12113998  1
  In  In63  1  0.50716007  0.34258189  0.63843838  1
  In  In64  1  0.49534280  0.66408900  0.12210630  1
  In  In65  1  0.48198435  0.66742519  0.63137918  1
  In  In66  1  0.82856326  -0.01545768  0.11861456  1
  In  In67  1  0.81824478  0.01360588  0.64106635  1
  In  In68  1  0.82599313  0.34131240  0.12766888  1
  In  In69  1  0.84768474  0.33139065  0.63335128  1
  In  In70  1  0.84249583  0.67259455  0.11687656  1
  In  In71  1  0.83663589  0.66773477  0.62800098  1
  In  In72  1  0.83501127  0.49830847  0.49890402  1
  In  In73  1  0.66480257  0.66504140  0.75883323  1
  In  In74  1  0.15893276  0.16839996  0.49580089  1
  In  In75  1  0.33565070  0.00024142  0.24220630  1
  In  In76  1  0.17108884  0.83258196  0.48930218  1
  In  In77  1  0.66719149  0.65949988  0.24713315  1
  In  In78  1  0.83084486  0.16675064  -0.01330910  1
  In  In79  1  0.50152457  0.16407732  0.50832078  1
  In  In80  1  0.00228353  0.66736941  0.75142762  1
  In  In81  1  0.50053393  0.50087160  0.50481333  1
  In  In82  1  0.33179032  0.32659092  0.75648089  1
  In  In83  1  0.00003215  -0.00154800  0.24547288  1
  In  In84  1  0.83145909  0.84020624  0.50641883  1
  In  In85  1  0.16398314  0.50145799  -0.00061106  1
  Cu  Cu86  1  0.49619085  0.83315855  0.76228519  1
  Cu  Cu87  1  0.66607846  0.66611640  0.00390036  1
  Cu  Cu88  1  -0.00837468  0.00621824  0.50674868  1
  Cu  Cu89  1  -0.00702479  0.33490861  -0.00351631  1
  Cu  Cu90  1  0.83150217  0.83240197  0.24258777  1
  Cu  Cu91  1  0.16906240  0.50002237  0.75125813  1
  Cu  Cu92  1  0.33904913  -0.00983836  0.50571872  1
  Cu  Cu93  1  0.66842429  0.00201461  -0.00693390  1
  Cu  Cu94  1  0.84049674  0.17103552  0.75563408  1
  Cu  Cu95  1  0.16686922  0.17446624  0.24619293  1
  Cu  Cu96  1  0.66325003  0.00442777  0.50925212  1
  Cu  Cu97  1  0.00148100  -0.00646729  -0.00161577  1
  Cu  Cu98  1  0.33148157  0.33828797  0.49323166  1
  Cu  Cu99  1  -0.00289735  0.33393076  0.49921223  1
  Cu  Cu100  1  0.33303928  0.66586934  0.49947930  1
  Cu  Cu101  1  0.16936540  0.15900658  0.75698092  1
  Cu  Cu102  1  0.00584777  0.66413780  0.48959049  1
  Cu  Cu103  1  0.49911085  0.16652454  0.24113634  1
  Cu  Cu104  1  0.00392033  0.66631060  0.00095747  1
  Cu  Cu105  1  0.33259744  0.66925258  0.00337534  1
  Cu  Cu106  1  0.83812916  0.49528677  0.24666360  1
  Cu  Cu107  1  0.67331489  0.32719067  0.49898490  1
  Cu  Cu108  1  0.17257918  0.83580679  0.75686935  1
  Cu  Cu109  1  0.16775123  0.49762266  0.24243104  1
  Cu  Cu110  1  0.82998950  0.16674684  0.24804916  1
  Cu  Cu111  1  0.33296572  0.33612613  0.00221447  1
  Cu  Cu112  1  0.65698015  0.67443625  0.50138652  1
  Cu  Cu113  1  0.66071964  0.33007416  -0.00086526  1
  Cu  Cu114  1  0.50140875  0.49517979  0.24331442  1
  Se  Se115  1  0.08034925  0.08389497  0.04821193  1
  Se  Se116  1  0.08081290  0.07909974  0.56459684  1
  Se  Se117  1  0.07575530  0.41057372  0.05988028  1
  Se  Se118  1  0.08567598  0.41505418  0.54866500  1
  Se  Se119  1  0.08741149  0.74851602  0.05433394  1
  Se  Se120  1  0.07813519  0.74744290  0.55356783  1
  Se  Se121  1  0.40529998  0.07344823  0.04306747  1
  Se  Se122  1  0.41112403  0.07416765  0.56672935  1
  Se  Se123  1  0.41765125  0.42010339  0.05265589  1
  Se  Se124  1  0.41067376  0.40672447  0.56182383  1
  Se  Se125  1  0.42221555  0.75181969  0.05105290  1
  Se  Se126  1  0.41357519  0.74926658  0.55475501  1
  Se  Se127  1  0.74590269  0.08283899  0.05616227  1
  Se  Se128  1  0.75059827  0.08616574  0.55847923  1
  Se  Se129  1  0.74848904  0.41242434  0.04995957  1
  Se  Se130  1  0.74512536  0.41246849  0.56137228  1
  Se  Se131  1  0.75052926  0.75225321  0.05417782  1
  Se  Se132  1  0.73948813  0.74733609  0.56388383  1
  Se  Se133  1  0.24758934  0.25169713  0.05180808  1
  Se  Se134  1  0.25561455  0.25463481  0.55509431  1
  Se  Se135  1  0.25025651  0.58871837  0.06294743  1
  Se  Se136  1  0.24902834  0.58305061  0.55147001  1
  Se  Se137  1  0.26242256  0.92047441  0.04426578  1
  Se  Se138  1  0.24961694  0.91673989  0.56233918  1
  Se  Se139  1  0.57693956  0.24579527  0.05068476  1
  Se  Se140  1  0.59038194  0.25856123  0.56449175  1
  Se  Se141  1  0.57941082  0.58209079  0.05348143  1
  Se  Se142  1  0.59006462  0.58989339  0.56620770  1
  Se  Se143  1  0.58818703  0.91939737  0.05060629  1
  Se  Se144  1  0.57687205  0.91949814  0.55694349  1
  Se  Se145  1  0.91487254  0.25128954  0.05721127  1
  Se  Se146  1  0.91599822  0.25199773  0.55445540  1
  Se  Se147  1  0.91742559  0.58057168  0.04891160  1
  Se  Se148  1  0.92752920  0.59126822  0.55630768  1
  Se  Se149  1  0.91675296  0.91096678  0.05072182  1
  Se  Se150  1  0.92040700  0.92440752  0.57024597  1
  Se  Se151  1  0.07538293  0.25852263  0.43266565  1
  Se  Se152  1  0.08013613  0.24969424  0.95085739  1
  Se  Se153  1  0.08955573  0.58125950  0.43949263  1
  Se  Se154  1  0.07656373  0.58735683  0.93387755  1
  Se  Se155  1  0.06849517  0.92837434  0.44254894  1
  Se  Se156  1  0.08877785  0.91089337  0.94783306  1
  Se  Se157  1  0.41458475  0.25381321  0.44096802  1
  Se  Se158  1  0.41844601  0.25263744  0.95061268  1
  Se  Se159  1  0.41541860  0.58665104  0.43861519  1
  Se  Se160  1  0.41354016  0.58163098  0.95238484  1
  Se  Se161  1  0.41606120  0.91055928  0.44604494  1
  Se  Se162  1  0.42034692  0.91707226  0.95220117  1
  Se  Se163  1  0.75372147  0.24512451  0.44390772  1
  Se  Se164  1  0.73441215  0.25267627  0.93197328  1
  Se  Se165  1  0.73936514  0.59439953  0.44389963  1
  Se  Se166  1  0.74739485  0.58112755  0.95044632  1
  Se  Se167  1  0.74047423  0.92463327  0.44326798  1
  Se  Se168  1  0.75494616  0.91587978  0.94670823  1
  Se  Se169  1  0.26062647  0.07334382  0.44626669  1
  Se  Se170  1  0.23013493  0.09938564  0.95040471  1
  Se  Se171  1  0.24828727  0.42205469  0.44348256  1
  Se  Se172  1  0.25251149  0.41145935  0.93804095  1
  Se  Se173  1  0.25791456  0.74046807  0.43139638  1
  Se  Se174  1  0.24752638  0.75030873  0.95055301  1
  Se  Se175  1  0.58592578  0.07863741  0.44117124  1
  Se  Se176  1  0.58374806  0.08704636  0.94361927  1
  Se  Se177  1  0.59043175  0.40866400  0.44239658  1
  Se  Se178  1  0.57817944  0.41846316  0.94955980  1
  Se  Se179  1  0.57485333  0.75493848  0.44731435  1
  Se  Se180  1  0.58259061  0.75298276  0.95370955  1
  Se  Se181  1  0.90892328  0.08860077  0.45401083  1
  Se  Se182  1  0.92054796  0.06972087  0.93509823  1
  Se  Se183  1  0.92092922  0.41282179  0.43354954  1
  Se  Se184  1  0.90926175  0.41736313  0.94568095  1
  Se  Se185  1  0.91813030  0.74787161  0.44031635  1
  Se  Se186  1  0.91855643  0.75047014  0.94931766  1
  Se  Se187  1  0.25515039  0.25378350  0.29829299  1
  Se  Se188  1  0.24809844  0.23737737  0.81930111  1
  Se  Se189  1  0.25024600  0.58054198  0.29833012  1
  Se  Se190  1  0.25449006  0.58609151  0.79735862  1
  Se  Se191  1  0.24120991  0.90965942  0.30070232  1
  Se  Se192  1  0.25446831  0.91777481  0.81206177  1
  Se  Se193  1  0.58365318  0.24689224  0.29896587  1
  Se  Se194  1  0.58839427  0.26814972  0.79956830  1
  Se  Se195  1  0.57475982  0.57339174  0.31195551  1
  Se  Se196  1  0.57514400  0.58109158  0.82013036  1
  Se  Se197  1  0.58708717  0.92173786  0.29863816  1
  Se  Se198  1  0.58487125  0.91569515  0.80975633  1
  Se  Se199  1  0.91760681  0.24659545  0.30044981  1
  Se  Se200  1  0.92294708  0.25355806  0.80921004  1
  Se  Se201  1  0.91988188  0.58424328  0.29602629  1
  Se  Se202  1  0.90915930  0.58131534  0.81016148  1
  Se  Se203  1  0.90792357  0.91144049  0.30970144  1
  Se  Se204  1  0.92272363  0.91816228  0.80090560  1
  Se  Se205  1  0.09131612  0.09116324  0.30825230  1
  Se  Se206  1  0.08261243  0.07621963  0.80748999  1
  Se  Se207  1  0.08358783  0.41487555  0.29751923  1
  Se  Se208  1  0.08446725  0.41505778  0.80003224  1
  Se  Se209  1  0.08573084  0.75484288  0.29275994  1
  Se  Se210  1  0.08931192  0.75495061  0.81455248  1
  Se  Se211  1  0.42401732  0.08951423  0.30932834  1
  Se  Se212  1  0.41532664  0.08277516  0.81084599  1
  Se  Se213  1  0.41624401  0.41443825  0.29977525  1
  Se  Se214  1  0.41768345  0.42105516  0.81384984  1
  Se  Se215  1  0.41086333  0.74675578  0.29435051  1
  Se  Se216  1  0.41253862  0.74868499  0.81269079  1
  Se  Se217  1  0.74894394  0.08162233  0.30169028  1
  Se  Se218  1  0.75112261  0.08638206  0.80113294  1
  Se  Se219  1  0.74941635  0.41386982  0.29717000  1
  Se  Se220  1  0.74897973  0.42375790  0.80315261  1
  Se  Se221  1  0.75435758  0.75504393  0.30973865  1
  Se  Se222  1  0.75687328  0.75696255  0.81308962  1
  Se  Se223  1  0.24317315  0.09173188  0.18514461  1
  Se  Se224  1  0.25643161  0.07778288  0.70582024  1
  Se  Se225  1  0.25343887  0.41283657  0.19399846  1
  Se  Se226  1  0.24648762  0.41732151  0.68881655  1
  Se  Se227  1  0.26950510  0.74920340  0.19406206  1
  Se  Se228  1  0.25176911  0.75045840  0.70031888  1
  Se  Se229  1  0.58216864  0.08275668  0.18936113  1
  Se  Se230  1  0.58029903  0.09195276  0.70463003  1
  Se  Se231  1  0.58512301  0.41106349  0.19296492  1
  Se  Se232  1  0.58875823  0.41279553  0.71217622  1
  Se  Se233  1  0.58008956  0.75285427  0.19145364  1
  Se  Se234  1  0.57508915  0.75573161  0.69568672  1
  Se  Se235  1  0.90719082  0.08677837  0.18475964  1
  Se  Se236  1  0.92128789  0.08568021  0.70016894  1
  Se  Se237  1  0.92204956  0.41291172  0.19326365  1
  Se  Se238  1  0.91877259  0.42441772  0.70017467  1
  Se  Se239  1  0.91778181  0.74986773  0.19356001  1
  Se  Se240  1  0.90720025  0.76117716  0.69702811  1
  Se  Se241  1  0.07733251  0.25317370  0.19579138  1
  Se  Se242  1  0.09015627  0.24530916  0.70033430  1
  Se  Se243  1  0.08449388  0.58532468  0.19380585  1
  Se  Se244  1  0.09202763  0.58041153  0.68668060  1
  Se  Se245  1  0.09313753  0.91788718  0.18381450  1
  Se  Se246  1  0.08458911  0.91627271  0.70570386  1
  Se  Se247  1  0.41393933  0.24853034  0.18938871  1
  Se  Se248  1  0.42387204  0.24059063  0.69367872  1
  Se  Se249  1  0.41890722  0.58267710  0.19551125  1
  Se  Se250  1  0.42435609  0.57171214  0.70084394  1
  Se  Se251  1  0.42853360  0.91646150  0.18400750  1
  Se  Se252  1  0.41705392  0.91603379  0.70274865  1
  Se  Se253  1  0.74831157  0.25242740  0.19513078  1
  Se  Se254  1  0.75767260  0.25045249  0.69706909  1
  Se  Se255  1  0.75741790  0.57504675  0.18424185  1
  Se  Se256  1  0.75888673  0.57867419  0.69547599  1
  Se  Se257  1  0.74670809  0.91788345  0.19565801  1
  Se  Se258  1  0.74993830  0.91541911  0.70469406  1
