# generated using pymatgen
data_In86Cu29Se144
_symmetry_space_group_name_H-M   'P 1'
_cell_length_a   17.58381705
_cell_length_b   17.57763662
_cell_length_c   23.44205097
_cell_angle_alpha   89.98939384
_cell_angle_beta   89.99106661
_cell_angle_gamma   89.99644464
_symmetry_Int_Tables_number   1
_chemical_formula_structural   In86Cu29Se144
_chemical_formula_sum   'In86 Cu29 Se144'
_cell_volume   7245.51451467
_cell_formula_units_Z   1
loop_
 _symmetry_equiv_pos_site_id
 _symmetry_equiv_pos_as_xyz
  1  'x, y, z'
loop_
 _atom_site_type_symbol
 _atom_site_label
 _atom_site_symmetry_multiplicity
 _atom_site_fract_x
 _atom_site_fract_y
 _atom_site_fract_z
 _atom_site_occupancy
  In  In0  1  -0.01003751  0.15475483  0.11756188  1
  In  In1  1  -0.01249823  0.14922679  0.60322125  1
  In  In2  1  -0.00306195  0.51191099  0.12114639  1
  In  In3  1  0.00438207  0.50283927  0.63089158  1
  In  In4  1  0.00538081  0.84367390  0.11304014  1
  In  In5  1  -0.00285933  0.83774110  0.63488470  1
  In  In6  1  0.33536669  0.17536580  0.12933440  1
  In  In7  1  0.33409491  0.16116753  0.62183253  1
  In  In8  1  0.33871771  0.48575406  0.12862818  1
  In  In9  1  0.34440713  0.48905066  0.63742353  1
  In  In10  1  0.33413914  0.85124148  0.12129515  1
  In  In11  1  0.34214469  0.82751230  0.63174366  1
  In  In12  1  0.68624083  0.15359936  0.14550926  1
  In  In13  1  0.65813158  0.16052289  0.61577611  1
  In  In14  1  0.66666062  0.48338007  0.12836752  1
  In  In15  1  0.66456935  0.51030081  0.62835646  1
  In  In16  1  0.67861540  0.84168656  0.11907727  1
  In  In17  1  0.65905080  0.84090187  0.63058601  1
  In  In18  1  0.17446927  0.00845507  0.36919409  1
  In  In19  1  0.16415840  0.00237057  0.87531640  1
  In  In20  1  0.16422930  0.30264792  0.37903109  1
  In  In21  1  0.17515925  0.32044965  0.87624635  1
  In  In22  1  0.15943031  0.66446738  0.38125019  1
  In  In23  1  0.17580775  0.67877217  0.86845541  1
  In  In24  1  0.49918073  0.00275615  0.37420658  1
  In  In25  1  0.50317125  0.00354293  0.86546420  1
  In  In26  1  0.49631284  0.33074888  0.37308289  1
  In  In27  1  0.49426213  0.34282346  0.86754655  1
  In  In28  1  0.50219704  0.66793481  0.38937916  1
  In  In29  1  0.50353092  0.66302601  0.85997749  1
  In  In30  1  0.84515868  0.01697322  0.36164103  1
  In  In31  1  0.83112911  -0.00615376  0.87620749  1
  In  In32  1  0.82337999  0.33094515  0.37217536  1
  In  In33  1  0.83854120  0.32675267  0.88948746  1
  In  In34  1  0.83424808  0.66368417  0.37627485  1
  In  In35  1  0.83334982  0.66973974  0.87257174  1
  In  In36  1  0.01501960  0.14725611  0.39592225  1
  In  In37  1  0.00760495  0.15842287  0.88139978  1
  In  In38  1  -0.00746516  0.50301220  0.37425354  1
  In  In39  1  -0.01461677  0.49791511  0.87696998  1
  In  In40  1  -0.01318193  0.84358660  0.37652908  1
  In  In41  1  0.00012647  0.83862154  0.87442853  1
  In  In42  1  0.33840484  0.16034333  0.37295313  1
  In  In43  1  0.32836388  0.15710486  0.86403386  1
  In  In44  1  0.35111790  0.49381314  0.37949583  1
  In  In45  1  0.34410371  0.50160229  0.85775967  1
  In  In46  1  0.33418818  0.85334450  0.37342245  1
  In  In47  1  0.32941537  0.82895471  0.86943547  1
  In  In48  1  0.66265833  0.16969225  0.37250867  1
  In  In49  1  0.68036271  0.15771134  0.87797929  1
  In  In50  1  0.64703366  0.46633601  0.35544442  1
  In  In51  1  0.66263550  0.51115462  0.87327114  1
  In  In52  1  0.65338695  0.83709925  0.37758952  1
  In  In53  1  0.68002091  0.84544516  0.86807644  1
  In  In54  1  0.16283577  0.00329279  0.11836757  1
  In  In55  1  0.15903056  0.01133135  0.62762154  1
  In  In56  1  0.18522965  0.32393883  0.12854690  1
  In  In57  1  0.17339270  0.32586967  0.62162909  1
  In  In58  1  0.15500154  0.66921617  0.11775787  1
  In  In59  1  0.16562106  0.67111172  0.63814165  1
  In  In60  1  0.49865424  0.01109127  0.14232768  1
  In  In61  1  0.50410396  0.00011133  0.62318717  1
  In  In62  1  0.53520201  0.29351242  0.17725875  1
  In  In63  1  0.49244368  0.32395728  0.61383906  1
  In  In64  1  0.50143428  0.66292505  0.12419903  1
  In  In65  1  0.49801343  0.66509877  0.62608251  1
  In  In66  1  0.82977219  0.00532431  0.12320525  1
  In  In67  1  0.83410341  0.00218209  0.62944367  1
  In  In68  1  0.83324209  0.32573422  0.12185217  1
  In  In69  1  0.83991259  0.31974780  0.61947790  1
  In  In70  1  0.83203663  0.67590937  0.11058692  1
  In  In71  1  0.83010338  0.66847378  0.63977274  1
  In  In72  1  0.82588231  0.84275702  0.51060324  1
  In  In73  1  0.00578683  0.33000512  0.74953433  1
  In  In74  1  0.82062170  0.49535518  0.49191256  1
  In  In75  1  0.50508477  0.16952607  0.00609350  1
  In  In76  1  0.50472568  0.83853063  -0.00149113  1
  In  In77  1  0.49905061  0.49525217  0.00322199  1
  In  In78  1  0.67045321  0.66965017  0.24951431  1
  In  In79  1  -0.00129038  0.32965699  0.25218253  1
  In  In80  1  0.33281002  0.66804273  0.24551786  1
  In  In81  1  0.00102886  0.67251600  0.25210560  1
  In  In82  1  0.17337029  0.83808289  0.49801246  1
  In  In83  1  0.66225348  0.32949652  0.74985254  1
  In  In84  1  0.16635546  0.49813982  -0.00042145  1
  In  In85  1  0.17257639  0.48943540  0.51618685  1
  Cu  Cu86  1  0.65836325  0.66281859  0.50195657  1
  Cu  Cu87  1  0.67329542  0.67098163  -0.00815979  1
  Cu  Cu88  1  0.16165896  0.84616885  0.24391852  1
  Cu  Cu89  1  0.83400320  0.16870993  0.25126713  1
  Cu  Cu90  1  0.16992918  0.16559613  0.74811643  1
  Cu  Cu91  1  0.17456818  0.49128774  0.25499223  1
  Cu  Cu92  1  0.33578432  0.32938048  0.00085550  1
  Cu  Cu93  1  0.16437684  0.50551253  0.75010936  1
  Cu  Cu94  1  0.83693552  0.83204094  0.75500722  1
  Cu  Cu95  1  -0.00372275  0.66416490  0.51005361  1
  Cu  Cu96  1  -0.00303750  0.67301238  -0.00636093  1
  Cu  Cu97  1  0.83720063  0.15721030  0.74974040  1
  Cu  Cu98  1  0.49959387  0.83717962  0.25268777  1
  Cu  Cu99  1  0.83424247  0.84463262  0.24465479  1
  Cu  Cu100  1  -0.00577841  0.00198517  -0.00312459  1
  Cu  Cu101  1  0.50023987  0.16446990  0.74103693  1
  Cu  Cu102  1  0.50248980  0.83299598  0.74687882  1
  Cu  Cu103  1  0.66059604  0.33135067  0.49311450  1
  Cu  Cu104  1  0.00121525  0.33118933  0.00236449  1
  Cu  Cu105  1  0.82788532  0.50083011  0.75588397  1
  Cu  Cu106  1  0.32907698  0.66893317  -0.00688242  1
  Cu  Cu107  1  0.66866556  0.00472284  0.49759044  1
  Cu  Cu108  1  0.66991316  0.32813156  0.00683110  1
  Cu  Cu109  1  0.33299706  0.32808160  0.49809106  1
  Cu  Cu110  1  0.16573447  0.84454889  0.75299175  1
  Cu  Cu111  1  0.16577204  0.15761661  0.24941035  1
  Cu  Cu112  1  0.32349846  0.00435077  -0.00336392  1
  Cu  Cu113  1  0.34052001  0.00267472  0.49946631  1
  Cu  Cu114  1  0.34090140  0.66881751  0.50806314  1
  Se  Se115  1  0.08172934  0.08563885  0.04757171  1
  Se  Se116  1  0.09577590  0.08572523  0.54609529  1
  Se  Se117  1  0.08243336  0.40793515  0.06501372  1
  Se  Se118  1  0.06645293  0.40333863  0.56162057  1
  Se  Se119  1  0.08382692  0.75350543  0.04599294  1
  Se  Se120  1  0.08067630  0.74881169  0.56103350  1
  Se  Se121  1  0.40999132  0.07521486  0.05907167  1
  Se  Se122  1  0.42427375  0.08522387  0.55325698  1
  Se  Se123  1  0.42107937  0.39784721  0.06330449  1
  Se  Se124  1  0.40856344  0.41748153  0.55286039  1
  Se  Se125  1  0.41032757  0.74427492  0.05697209  1
  Se  Se126  1  0.42352769  0.75695671  0.55584042  1
  Se  Se127  1  0.74286935  0.08976016  0.05850366  1
  Se  Se128  1  0.75398977  0.08028550  0.55569559  1
  Se  Se129  1  0.75351204  0.41660931  0.05472070  1
  Se  Se130  1  0.73841445  0.40656367  0.56080821  1
  Se  Se131  1  0.75032019  0.76097237  0.04376721  1
  Se  Se132  1  0.74247463  0.73862246  0.56203556  1
  Se  Se133  1  0.25197144  0.24381260  0.05082922  1
  Se  Se134  1  0.25067566  0.24358901  0.55073708  1
  Se  Se135  1  0.26055516  0.58653892  0.06071463  1
  Se  Se136  1  0.25541140  0.59308396  0.56672762  1
  Se  Se137  1  0.24459242  0.91581831  0.04910355  1
  Se  Se138  1  0.26030100  0.92347287  0.56222399  1
  Se  Se139  1  0.58708767  0.25912270  0.07100799  1
  Se  Se140  1  0.57949043  0.24493544  0.54663237  1
  Se  Se141  1  0.59616712  0.59078770  0.05537060  1
  Se  Se142  1  0.57757035  0.57802914  0.55526204  1
  Se  Se143  1  0.58031930  0.93193579  0.06479357  1
  Se  Se144  1  0.58900547  0.91865654  0.55265821  1
  Se  Se145  1  0.91435375  0.24643799  0.05090272  1
  Se  Se146  1  0.91049607  0.24546859  0.54326722  1
  Se  Se147  1  0.91724369  0.58726103  0.04802098  1
  Se  Se148  1  0.90932272  0.58276465  0.56204185  1
  Se  Se149  1  0.90983087  0.92080317  0.05218839  1
  Se  Se150  1  0.93106278  0.92581012  0.55777240  1
  Se  Se151  1  0.07736908  0.25236979  0.45709610  1
  Se  Se152  1  0.08502620  0.25216530  0.94634798  1
  Se  Se153  1  0.07652897  0.58102833  0.45277867  1
  Se  Se154  1  0.08078717  0.58902573  0.93722037  1
  Se  Se155  1  0.08022622  0.92415211  0.43948312  1
  Se  Se156  1  0.08194746  0.92003069  0.94524302  1
  Se  Se157  1  0.41660109  0.24672003  0.44315885  1
  Se  Se158  1  0.41522051  0.25135262  0.93725638  1
  Se  Se159  1  0.41762805  0.58121300  0.45309472  1
  Se  Se160  1  0.41317599  0.58708178  0.93929325  1
  Se  Se161  1  0.42190253  0.91588169  0.44758600  1
  Se  Se162  1  0.41082562  0.92663858  0.93905229  1
  Se  Se163  1  0.74797281  0.24873323  0.44441041  1
  Se  Se164  1  0.74946530  0.24346826  0.95190268  1
  Se  Se165  1  0.73130110  0.58731643  0.43402404  1
  Se  Se166  1  0.75324080  0.58146767  0.94210656  1
  Se  Se167  1  0.74913160  0.92461686  0.43663090  1
  Se  Se168  1  0.74463408  0.91937786  0.94786149  1
  Se  Se169  1  0.25304491  0.08165490  0.44529394  1
  Se  Se170  1  0.24672191  0.09180006  0.94238811  1
  Se  Se171  1  0.24972855  0.40964842  0.43968489  1
  Se  Se172  1  0.26437865  0.41651390  0.93938280  1
  Se  Se173  1  0.26275700  0.74144915  0.44015942  1
  Se  Se174  1  0.24760166  0.75702437  0.94606608  1
  Se  Se175  1  0.58335051  0.08474606  0.44299321  1
  Se  Se176  1  0.58725393  0.07481847  0.94399174  1
  Se  Se177  1  0.57664146  0.41843322  0.44471349  1
  Se  Se178  1  0.59194042  0.40543274  0.94193093  1
  Se  Se179  1  0.58196927  0.75786389  0.45386081  1
  Se  Se180  1  0.58514641  0.74475269  0.93432466  1
  Se  Se181  1  0.90839602  0.07549651  0.44940898  1
  Se  Se182  1  0.91042065  0.08527021  0.94385471  1
  Se  Se183  1  0.92231554  0.40867028  0.44198956  1
  Se  Se184  1  0.91695145  0.41846899  0.95435314  1
  Se  Se185  1  0.91848669  0.74521359  0.44930761  1
  Se  Se186  1  0.91269982  0.75587918  0.94136448  1
  Se  Se187  1  0.24865085  0.24078634  0.30305527  1
  Se  Se188  1  0.25328858  0.25232129  0.79815028  1
  Se  Se189  1  0.24602188  0.58106019  0.31349284  1
  Se  Se190  1  0.25076392  0.58746768  0.80125054  1
  Se  Se191  1  0.25032958  0.92117636  0.29849171  1
  Se  Se192  1  0.25248845  0.92381237  0.80649970  1
  Se  Se193  1  0.59630981  0.26781414  0.30470646  1
  Se  Se194  1  0.57675684  0.23587899  0.81189510  1
  Se  Se195  1  0.57477419  0.58710981  0.30969472  1
  Se  Se196  1  0.56851913  0.55984350  0.79894158  1
  Se  Se197  1  0.58536774  0.92068217  0.30296908  1
  Se  Se198  1  0.58572631  0.91670286  0.80073959  1
  Se  Se199  1  0.91866713  0.23771068  0.31631376  1
  Se  Se200  1  0.91166138  0.24386859  0.80994456  1
  Se  Se201  1  0.90490956  0.57640505  0.29965579  1
  Se  Se202  1  0.91691759  0.58367920  0.80375110  1
  Se  Se203  1  0.92295357  0.92254648  0.29746374  1
  Se  Se204  1  0.91865144  0.92117667  0.80395005  1
  Se  Se205  1  0.07728483  0.08458005  0.30649164  1
  Se  Se206  1  0.08389272  0.08662159  0.80368360  1
  Se  Se207  1  0.09117761  0.41779201  0.31582807  1
  Se  Se208  1  0.09070425  0.42223214  0.81376957  1
  Se  Se209  1  0.09273535  0.76466051  0.31119041  1
  Se  Se210  1  0.08383770  0.75630086  0.80437752  1
  Se  Se211  1  0.40462405  0.06606861  0.30381284  1
  Se  Se212  1  0.41735600  0.08094802  0.79659912  1
  Se  Se213  1  0.41334021  0.41292996  0.30282309  1
  Se  Se214  1  0.41043925  0.40557800  0.79218230  1
  Se  Se215  1  0.42174745  0.75327759  0.31161178  1
  Se  Se216  1  0.41660317  0.75188280  0.80072545  1
  Se  Se217  1  0.74361772  0.08600293  0.30073780  1
  Se  Se218  1  0.75062154  0.07707099  0.80245633  1
  Se  Se219  1  0.76860987  0.43074745  0.30281610  1
  Se  Se220  1  0.75663318  0.41164248  0.81447625  1
  Se  Se221  1  0.76103248  0.76322601  0.30960715  1
  Se  Se222  1  0.74749819  0.74740933  0.80194182  1
  Se  Se223  1  0.24788056  0.08226432  0.18824224  1
  Se  Se224  1  0.25391268  0.08092864  0.69534776  1
  Se  Se225  1  0.25615728  0.41001298  0.20107323  1
  Se  Se226  1  0.23827746  0.41739070  0.69362351  1
  Se  Se227  1  0.23875503  0.75811471  0.18710010  1
  Se  Se228  1  0.24886412  0.75824244  0.70111676  1
  Se  Se229  1  0.56283991  0.11818881  0.19982946  1
  Se  Se230  1  0.58965014  0.08142149  0.69401934  1
  Se  Se231  1  0.57800914  0.42982818  0.20434186  1
  Se  Se232  1  0.57622152  0.41380601  0.68511881  1
  Se  Se233  1  0.57752648  0.76079938  0.18843176  1
  Se  Se234  1  0.58520002  0.74635213  0.69527871  1
  Se  Se235  1  0.91427037  0.08400265  0.19569568  1
  Se  Se236  1  0.92596271  0.08525776  0.69238730  1
  Se  Se237  1  0.91705969  0.42273765  0.18841681  1
  Se  Se238  1  0.90480073  0.41888882  0.69350973  1
  Se  Se239  1  0.91270939  0.75852381  0.18745108  1
  Se  Se240  1  0.92172879  0.74795361  0.70226395  1
  Se  Se241  1  0.08591146  0.24049232  0.18854563  1
  Se  Se242  1  0.08388802  0.23690434  0.68564002  1
  Se  Se243  1  0.09539006  0.57484659  0.19651626  1
  Se  Se244  1  0.07588347  0.58823660  0.70200914  1
  Se  Se245  1  0.07647498  0.92370420  0.18937902  1
  Se  Se246  1  0.08213225  0.92429775  0.69748370  1
  Se  Se247  1  0.40105008  0.25496596  0.20815019  1
  Se  Se248  1  0.41611260  0.24824948  0.69033998  1
  Se  Se249  1  0.42768573  0.57378932  0.19505417  1
  Se  Se250  1  0.40409227  0.59712475  0.69511731  1
  Se  Se251  1  0.41257823  0.91739540  0.19990387  1
  Se  Se252  1  0.42125327  0.92035071  0.69499259  1
  Se  Se253  1  0.75501170  0.26087882  0.20281063  1
  Se  Se254  1  0.75584857  0.23984037  0.69187668  1
  Se  Se255  1  0.75680566  0.58599086  0.18326404  1
  Se  Se256  1  0.74366711  0.58358908  0.70380864  1
  Se  Se257  1  0.74470891  0.92440508  0.19540097  1
  Se  Se258  1  0.75591353  0.91235177  0.69535698  1
