# generated using pymatgen
data_In86Cu29Se144
_symmetry_space_group_name_H-M   'P 1'
_cell_length_a   17.62213192
_cell_length_b   17.61944363
_cell_length_c   23.48373647
_cell_angle_alpha   90.00128418
_cell_angle_beta   89.97749033
_cell_angle_gamma   89.97275124
_symmetry_Int_Tables_number   1
_chemical_formula_structural   In86Cu29Se144
_chemical_formula_sum   'In86 Cu29 Se144'
_cell_volume   7291.51467315
_cell_formula_units_Z   1
loop_
 _symmetry_equiv_pos_site_id
 _symmetry_equiv_pos_as_xyz
  1  'x, y, z'
loop_
 _atom_site_type_symbol
 _atom_site_label
 _atom_site_symmetry_multiplicity
 _atom_site_fract_x
 _atom_site_fract_y
 _atom_site_fract_z
 _atom_site_occupancy
  In  In0  1  0.00698711  0.16921432  0.13261669  1
  In  In1  1  -0.00679125  0.16584729  0.62757536  1
  In  In2  1  0.00263420  0.50147147  0.13843271  1
  In  In3  1  0.03082096  0.55679786  0.56793792  1
  In  In4  1  -0.01268589  0.83616956  0.12662231  1
  In  In5  1  0.01083251  0.82175310  0.62765513  1
  In  In6  1  0.34820007  0.17272013  0.13237201  1
  In  In7  1  0.34004540  0.16155246  0.62559697  1
  In  In8  1  0.34146948  0.49336520  0.13059833  1
  In  In9  1  0.33663918  0.49741176  0.62920189  1
  In  In10  1  0.33976923  0.81183310  0.12599440  1
  In  In11  1  0.32409969  0.84070656  0.62998996  1
  In  In12  1  0.65902947  0.16917239  0.13818525  1
  In  In13  1  0.67344540  0.18241251  0.62206310  1
  In  In14  1  0.65673958  0.51059970  0.13277867  1
  In  In15  1  0.66671953  0.50219275  0.61930730  1
  In  In16  1  0.66477558  0.82917439  0.12228395  1
  In  In17  1  0.64953335  0.82862793  0.62514159  1
  In  In18  1  0.16450669  -0.01984424  0.38282701  1
  In  In19  1  0.17097333  0.00176944  0.86280387  1
  In  In20  1  0.17949194  0.34961538  0.37544202  1
  In  In21  1  0.17600907  0.32443079  0.87133573  1
  In  In22  1  0.16303703  0.66488524  0.38382746  1
  In  In23  1  0.17280192  0.66615583  0.86196295  1
  In  In24  1  0.51382721  0.00321672  0.37627121  1
  In  In25  1  0.49241101  0.00100485  0.87595326  1
  In  In26  1  0.49934633  0.33668170  0.37641531  1
  In  In27  1  0.50607344  0.33750292  0.86855763  1
  In  In28  1  0.49150357  0.65651000  0.36979730  1
  In  In29  1  0.50372209  0.66316508  0.87385489  1
  In  In30  1  0.82674776  0.00479607  0.37379349  1
  In  In31  1  0.82691690  -0.02151228  0.87304798  1
  In  In32  1  0.83751007  0.33705197  0.36802640  1
  In  In33  1  0.83108514  0.34969914  0.87226336  1
  In  In34  1  0.82743530  0.66380816  0.37304104  1
  In  In35  1  0.83800200  0.67543487  0.86906633  1
  In  In36  1  -0.01218225  0.16217635  0.37601473  1
  In  In37  1  0.01659123  0.16671969  0.87204510  1
  In  In38  1  -0.00020171  0.50478537  0.38159026  1
  In  In39  1  -0.00614400  0.50715537  0.86947616  1
  In  In40  1  0.01947667  0.81694171  0.39453893  1
  In  In41  1  -0.00672211  0.82184428  0.86738784  1
  In  In42  1  0.33539169  0.18440257  0.37601396  1
  In  In43  1  0.34029623  0.16508522  0.86294688  1
  In  In44  1  0.33509541  0.50390233  0.38338166  1
  In  In45  1  0.34843178  0.51722510  0.85349298  1
  In  In46  1  0.32887422  0.81479085  0.37129216  1
  In  In47  1  0.33733614  0.83433301  0.86938056  1
  In  In48  1  0.64872230  0.15907357  0.36143565  1
  In  In49  1  0.65292563  0.16846860  0.87462891  1
  In  In50  1  0.66299546  0.49708794  0.37353978  1
  In  In51  1  0.66045724  0.49112479  0.86720127  1
  In  In52  1  0.67020199  0.83475570  0.36469815  1
  In  In53  1  0.67859182  0.82802932  0.88691658  1
  In  In54  1  0.15999726  -0.00218603  0.12649624  1
  In  In55  1  0.16912916  -0.00712906  0.62370066  1
  In  In56  1  0.16897107  0.33583812  0.14086918  1
  In  In57  1  0.16597530  0.36771060  0.62533414  1
  In  In58  1  0.17466610  0.66101011  0.13848142  1
  In  In59  1  0.17252553  0.66567222  0.62921306  1
  In  In60  1  0.52760698  -0.00862395  0.12746733  1
  In  In61  1  0.48853349  -0.00216302  0.62026791  1
  In  In62  1  0.48954360  0.34138256  0.13798964  1
  In  In63  1  0.50190458  0.33452462  0.62216232  1
  In  In64  1  0.50161727  0.66352451  0.12298182  1
  In  In65  1  0.50907290  0.65705089  0.62989017  1
  In  In66  1  0.82573465  -0.01802597  0.11987340  1
  In  In67  1  0.83735117  0.00915131  0.62832831  1
  In  In68  1  0.82647922  0.34305160  0.13825369  1
  In  In69  1  0.81984733  0.34293195  0.62623350  1
  In  In70  1  0.82586805  0.67555460  0.13300799  1
  In  In71  1  0.84120406  0.65679368  0.62691698  1
  In  In72  1  0.17426595  0.16635143  0.00531955  1
  In  In73  1  0.50211149  0.15862561  0.00432143  1
  In  In74  1  0.83335323  0.83343712  0.49819267  1
  In  In75  1  0.16623860  0.83093406  0.00000082  1
  In  In76  1  0.17344711  0.50031847  -0.01121299  1
  In  In77  1  0.82461190  0.16764431  0.49428275  1
  In  In78  1  0.49388760  0.83233781  0.49614477  1
  In  In79  1  -0.00378403  0.34050002  0.73978782  1
  In  In80  1  0.33536883  0.00076214  0.25506946  1
  In  In81  1  0.66498208  -0.00188750  0.75376010  1
  In  In82  1  0.16953654  0.17245525  0.50433645  1
  In  In83  1  0.83254308  0.16329620  0.00386637  1
  In  In84  1  0.82673600  0.50846322  0.00642941  1
  In  In85  1  -0.00730818  -0.00579588  0.25432872  1
  Cu  Cu86  1  0.34519943  0.33878860  0.00279132  1
  Cu  Cu87  1  0.16713888  0.83373545  0.74766297  1
  Cu  Cu88  1  0.50373153  0.49628441  0.74432598  1
  Cu  Cu89  1  -0.00564711  0.67519566  -0.00048928  1
  Cu  Cu90  1  0.16439068  0.16988156  0.25681944  1
  Cu  Cu91  1  0.83471225  0.82895191  0.74870377  1
  Cu  Cu92  1  0.66571852  0.66347573  0.49705768  1
  Cu  Cu93  1  0.66458184  0.66601088  0.00216290  1
  Cu  Cu94  1  0.83693673  0.16865936  0.74857317  1
  Cu  Cu95  1  0.16709876  0.50578097  0.26081776  1
  Cu  Cu96  1  0.00165750  0.34061871  0.01089607  1
  Cu  Cu97  1  0.83916586  0.50087436  0.25717852  1
  Cu  Cu98  1  -0.00666387  -0.00669911  -0.00777930  1
  Cu  Cu99  1  0.49788196  0.50195485  0.25403407  1
  Cu  Cu100  1  0.33232833  0.66725643  0.50205178  1
  Cu  Cu101  1  0.82886146  0.16527066  0.25287196  1
  Cu  Cu102  1  0.83137405  0.82945657  0.25005928  1
  Cu  Cu103  1  0.33717171  -0.00741801  -0.00272690  1
  Cu  Cu104  1  0.33927855  0.34058525  0.50192883  1
  Cu  Cu105  1  0.65920822  0.33571631  0.49684953  1
  Cu  Cu106  1  0.34285288  0.65830895  -0.00263699  1
  Cu  Cu107  1  0.50303361  0.16827021  0.74624702  1
  Cu  Cu108  1  0.50315134  0.82957053  0.24761721  1
  Cu  Cu109  1  0.49482362  0.82566620  0.75059169  1
  Cu  Cu110  1  0.65846918  0.33335242  -0.00342153  1
  Cu  Cu111  1  0.33304422  0.00090552  0.50188269  1
  Cu  Cu112  1  -0.00451805  0.33347467  0.49377626  1
  Cu  Cu113  1  0.17184375  0.16425071  0.74353710  1
  Cu  Cu114  1  0.82875936  0.50585004  0.74431608  1
  Se  Se115  1  0.06979303  0.07485607  0.05386277  1
  Se  Se116  1  0.07626280  0.08119544  0.55871961  1
  Se  Se117  1  0.08876714  0.41889220  0.06337257  1
  Se  Se118  1  0.08033443  0.41629416  0.54481068  1
  Se  Se119  1  0.08057327  0.74269170  0.06386089  1
  Se  Se120  1  0.08935594  0.74420730  0.55610711  1
  Se  Se121  1  0.41036048  0.07016144  0.06401082  1
  Se  Se122  1  0.41797234  0.08620482  0.54889285  1
  Se  Se123  1  0.42572602  0.42074396  0.05693856  1
  Se  Se124  1  0.42206363  0.42334704  0.55599190  1
  Se  Se125  1  0.42141264  0.74575019  0.04975993  1
  Se  Se126  1  0.41272024  0.74661060  0.56425885  1
  Se  Se127  1  0.73843840  0.08186459  0.06400468  1
  Se  Se128  1  0.74088007  0.07547491  0.55855593  1
  Se  Se129  1  0.73929732  0.41023912  0.05994809  1
  Se  Se130  1  0.74643109  0.41663975  0.54840498  1
  Se  Se131  1  0.75200005  0.74626723  0.05410577  1
  Se  Se132  1  0.73937394  0.74663265  0.55867499  1
  Se  Se133  1  0.26050898  0.26253789  0.06208767  1
  Se  Se134  1  0.25627230  0.26343596  0.56426021  1
  Se  Se135  1  0.25586467  0.58594767  0.05781937  1
  Se  Se136  1  0.25640789  0.58254031  0.55966628  1
  Se  Se137  1  0.25590265  0.92024240  0.06119864  1
  Se  Se138  1  0.25051831  0.91457242  0.55112600  1
  Se  Se139  1  0.58401681  0.25715327  0.06216937  1
  Se  Se140  1  0.58269521  0.24898542  0.55188123  1
  Se  Se141  1  0.58303806  0.57899381  0.05236127  1
  Se  Se142  1  0.57979686  0.58318380  0.55044942  1
  Se  Se143  1  0.58063895  0.90554627  0.05055403  1
  Se  Se144  1  0.58660276  0.92389633  0.55260736  1
  Se  Se145  1  0.91997639  0.25805278  0.06509299  1
  Se  Se146  1  0.91663152  0.25604678  0.55661550  1
  Se  Se147  1  0.92605589  0.58994606  0.06345249  1
  Se  Se148  1  0.88792638  0.57114326  0.54529616  1
  Se  Se149  1  0.91473071  0.91163093  0.04883462  1
  Se  Se150  1  0.91979467  0.91731117  0.56498326  1
  Se  Se151  1  0.07861749  0.25304288  0.43680803  1
  Se  Se152  1  0.07980902  0.26086295  0.94939620  1
  Se  Se153  1  0.08586908  0.57860719  0.45331108  1
  Se  Se154  1  0.07511697  0.59599703  0.94012921  1
  Se  Se155  1  0.07260197  0.92541083  0.45594406  1
  Se  Se156  1  0.08250769  0.92113579  0.93490142  1
  Se  Se157  1  0.41901843  0.25373880  0.44967839  1
  Se  Se158  1  0.41496206  0.24866112  0.94128093  1
  Se  Se159  1  0.42085312  0.58701123  0.45124880  1
  Se  Se160  1  0.41923313  0.57462794  0.93982621  1
  Se  Se161  1  0.40592602  0.92208331  0.43343864  1
  Se  Se162  1  0.41797162  0.91013300  0.94352819  1
  Se  Se163  1  0.73907594  0.25711391  0.43360389  1
  Se  Se164  1  0.74618499  0.25784952  0.94033074  1
  Se  Se165  1  0.74703808  0.58084077  0.44240668  1
  Se  Se166  1  0.74381544  0.58895341  0.93640429  1
  Se  Se167  1  0.73814049  0.92261023  0.44259225  1
  Se  Se168  1  0.74785563  0.92305902  0.95329138  1
  Se  Se169  1  0.25438127  0.08080179  0.43884119  1
  Se  Se170  1  0.26002245  0.07776332  0.93970695  1
  Se  Se171  1  0.25050460  0.42329247  0.45417462  1
  Se  Se172  1  0.26668329  0.40847395  0.93569170  1
  Se  Se173  1  0.24946434  0.75110382  0.45021818  1
  Se  Se174  1  0.25578004  0.73825792  0.94135029  1
  Se  Se175  1  0.58777668  0.08787515  0.44576074  1
  Se  Se176  1  0.59376128  0.06936282  0.94507539  1
  Se  Se177  1  0.57761794  0.42318970  0.44622127  1
  Se  Se178  1  0.57963655  0.41871403  0.94308201  1
  Se  Se179  1  0.58792312  0.74643575  0.43639755  1
  Se  Se180  1  0.58258549  0.74657159  0.94512825  1
  Se  Se181  1  0.92196312  0.06913774  0.44846004  1
  Se  Se182  1  0.92115784  0.08207213  0.93469927  1
  Se  Se183  1  0.91041389  0.41686658  0.44311551  1
  Se  Se184  1  0.92386113  0.41704608  0.94794023  1
  Se  Se185  1  0.92033749  0.73158133  0.44977703  1
  Se  Se186  1  0.91144523  0.75572255  0.94550768  1
  Se  Se187  1  0.24836606  0.25611204  0.30535607  1
  Se  Se188  1  0.25388718  0.24724807  0.79797541  1
  Se  Se189  1  0.25124112  0.58653908  0.31500154  1
  Se  Se190  1  0.23124077  0.56333394  0.79911661  1
  Se  Se191  1  0.24158947  0.90570796  0.30484855  1
  Se  Se192  1  0.25448178  0.91564026  0.80017740  1
  Se  Se193  1  0.58667996  0.26562928  0.30425459  1
  Se  Se194  1  0.58668219  0.25109859  0.79953749  1
  Se  Se195  1  0.58556774  0.58506281  0.30322461  1
  Se  Se196  1  0.58346142  0.58071394  0.80146428  1
  Se  Se197  1  0.58071851  0.91702919  0.30128355  1
  Se  Se198  1  0.57704334  0.90595887  0.81182437  1
  Se  Se199  1  0.91757054  0.24501981  0.30265185  1
  Se  Se200  1  0.91519676  0.24942486  0.81173907  1
  Se  Se201  1  0.92064408  0.58616952  0.30869648  1
  Se  Se202  1  0.91365891  0.58635211  0.80005065  1
  Se  Se203  1  0.90931235  0.90302234  0.31694000  1
  Se  Se204  1  0.91730701  0.91448133  0.80087150  1
  Se  Se205  1  0.09005558  0.08220776  0.31373214  1
  Se  Se206  1  0.08518037  0.08459121  0.79704153  1
  Se  Se207  1  0.08258811  0.42106622  0.31157598  1
  Se  Se208  1  0.08506969  0.41631263  0.81150803  1
  Se  Se209  1  0.08405236  0.74813125  0.31298326  1
  Se  Se210  1  0.08339676  0.74831879  0.79978152  1
  Se  Se211  1  0.42217637  0.09245691  0.31233333  1
  Se  Se212  1  0.42263419  0.07914421  0.79776812  1
  Se  Se213  1  0.41356095  0.42265715  0.31040082  1
  Se  Se214  1  0.41998951  0.41127988  0.79784708  1
  Se  Se215  1  0.41867313  0.74736072  0.30019532  1
  Se  Se216  1  0.41394328  0.74149509  0.80517660  1
  Se  Se217  1  0.74542667  0.07800974  0.30080961  1
  Se  Se218  1  0.75719461  0.09113430  0.81265219  1
  Se  Se219  1  0.74901411  0.41800763  0.30317245  1
  Se  Se220  1  0.74995003  0.41678406  0.79689260  1
  Se  Se221  1  0.74685742  0.74340311  0.30027277  1
  Se  Se222  1  0.74612256  0.75439668  0.80478591  1
  Se  Se223  1  0.24045747  0.09127521  0.19221329  1
  Se  Se224  1  0.25274312  0.07839869  0.69024441  1
  Se  Se225  1  0.24997613  0.42543888  0.20218986  1
  Se  Se226  1  0.25581848  0.41744789  0.70162392  1
  Se  Se227  1  0.25151204  0.75355769  0.19966367  1
  Se  Se228  1  0.25406004  0.74891435  0.69924426  1
  Se  Se229  1  0.56128889  0.09538587  0.19846927  1
  Se  Se230  1  0.58237740  0.08576213  0.68659546  1
  Se  Se231  1  0.58367050  0.41948516  0.20044524  1
  Se  Se232  1  0.58855413  0.41570103  0.69002758  1
  Se  Se233  1  0.58469490  0.74589562  0.19230828  1
  Se  Se234  1  0.58388707  0.74578083  0.70076351  1
  Se  Se235  1  0.90617460  0.08398896  0.18862306  1
  Se  Se236  1  0.92054779  0.08267153  0.70141770  1
  Se  Se237  1  0.92111006  0.41437139  0.20325248  1
  Se  Se238  1  0.91269914  0.43281055  0.68159327  1
  Se  Se239  1  0.91994925  0.74873250  0.19940165  1
  Se  Se240  1  0.91722004  0.74708338  0.69362536  1
  Se  Se241  1  0.07986907  0.25287622  0.20408521  1
  Se  Se242  1  0.09409672  0.24923858  0.68451599  1
  Se  Se243  1  0.08370735  0.58631774  0.20461793  1
  Se  Se244  1  0.07212415  0.57220561  0.67242805  1
  Se  Se245  1  0.08791529  0.90663250  0.19526668  1
  Se  Se246  1  0.08362555  0.91648920  0.69443970  1
  Se  Se247  1  0.40775760  0.25963865  0.20595017  1
  Se  Se248  1  0.41980031  0.24972384  0.69178060  1
  Se  Se249  1  0.41829269  0.58496298  0.19537991  1
  Se  Se250  1  0.41821399  0.58414244  0.69796468  1
  Se  Se251  1  0.42116578  0.91234706  0.18886563  1
  Se  Se252  1  0.42023970  0.91483133  0.69533884  1
  Se  Se253  1  0.74736225  0.25179809  0.20126772  1
  Se  Se254  1  0.75251202  0.25234646  0.69865466  1
  Se  Se255  1  0.75644982  0.57818063  0.19687385  1
  Se  Se256  1  0.74277461  0.58793985  0.69206912  1
  Se  Se257  1  0.74711662  0.91124327  0.19541161  1
  Se  Se258  1  0.75257386  0.90899854  0.68902256  1
