# generated using pymatgen
data_In86Cu29Se144
_symmetry_space_group_name_H-M   'P 1'
_cell_length_a   17.57617666
_cell_length_b   17.57554266
_cell_length_c   23.43474390
_cell_angle_alpha   90.00171714
_cell_angle_beta   89.97045995
_cell_angle_gamma   90.00941818
_symmetry_Int_Tables_number   1
_chemical_formula_structural   In86Cu29Se144
_chemical_formula_sum   'In86 Cu29 Se144'
_cell_volume   7239.24542415
_cell_formula_units_Z   1
loop_
 _symmetry_equiv_pos_site_id
 _symmetry_equiv_pos_as_xyz
  1  'x, y, z'
loop_
 _atom_site_type_symbol
 _atom_site_label
 _atom_site_symmetry_multiplicity
 _atom_site_fract_x
 _atom_site_fract_y
 _atom_site_fract_z
 _atom_site_occupancy
  In  In0  1  0.00235499  0.16408464  0.11647604  1
  In  In1  1  0.01534901  0.16429652  0.62787822  1
  In  In2  1  -0.00075474  0.51118153  0.12671711  1
  In  In3  1  0.00989553  0.49065500  0.63356946  1
  In  In4  1  -0.00895315  0.83596928  0.12310213  1
  In  In5  1  -0.00764345  0.82720358  0.61915891  1
  In  In6  1  0.33730692  0.16148491  0.12309153  1
  In  In7  1  0.32823948  0.15541188  0.61996571  1
  In  In8  1  0.34001109  0.49482766  0.13581419  1
  In  In9  1  0.33735764  0.50662040  0.61684476  1
  In  In10  1  0.32835372  0.83832317  0.13903280  1
  In  In11  1  0.34046726  0.83939596  0.61563549  1
  In  In12  1  0.66546466  0.17160897  0.11346530  1
  In  In13  1  0.64998791  0.16646314  0.62480779  1
  In  In14  1  0.67359653  0.50789759  0.11489626  1
  In  In15  1  0.66214659  0.50469710  0.62435964  1
  In  In16  1  0.67141457  0.82145394  0.12779504  1
  In  In17  1  0.67468975  0.83847176  0.62063308  1
  In  In18  1  0.17291843  -0.00605987  0.38039154  1
  In  In19  1  0.18128311  -0.00097172  0.87521886  1
  In  In20  1  0.18493685  0.31797098  0.38520595  1
  In  In21  1  0.15208038  0.32772506  0.87284566  1
  In  In22  1  0.16548696  0.66741813  0.37699258  1
  In  In23  1  0.15838449  0.68624045  0.86857517  1
  In  In24  1  0.48650920  0.01334143  0.38298361  1
  In  In25  1  0.50465767  0.00369047  0.86650708  1
  In  In26  1  0.48384930  0.34379888  0.37929979  1
  In  In27  1  0.50479613  0.33242073  0.88717260  1
  In  In28  1  0.49806006  0.66676987  0.37327698  1
  In  In29  1  0.49802633  0.65402900  0.87695547  1
  In  In30  1  0.82309829  -0.00729902  0.37368856  1
  In  In31  1  0.82670008  0.00987564  0.88551862  1
  In  In32  1  0.84622623  0.33807868  0.36947195  1
  In  In33  1  0.84012956  0.32330766  0.88873514  1
  In  In34  1  0.84152300  0.67620647  0.36525306  1
  In  In35  1  0.84144794  0.65782780  0.88047964  1
  In  In36  1  0.00864167  0.17641001  0.37088902  1
  In  In37  1  -0.00999273  0.17002618  0.88583964  1
  In  In38  1  -0.00162218  0.51319714  0.37288459  1
  In  In39  1  -0.00290136  0.49212162  0.86830835  1
  In  In40  1  0.00779822  0.82700399  0.38377965  1
  In  In41  1  0.00861957  0.81880637  0.87117374  1
  In  In42  1  0.32823806  0.16987431  0.36794910  1
  In  In43  1  0.34692202  0.14650653  0.89201643  1
  In  In44  1  0.33145379  0.49982112  0.37512767  1
  In  In45  1  0.34607379  0.49997074  0.88045343  1
  In  In46  1  0.33386204  0.83438435  0.37693294  1
  In  In47  1  0.32568444  0.84609198  0.87007892  1
  In  In48  1  0.66009143  0.15332131  0.36973220  1
  In  In49  1  0.67420040  0.16197378  0.88350932  1
  In  In50  1  0.64864744  0.49839516  0.37319651  1
  In  In51  1  0.66787923  0.49337052  0.88936893  1
  In  In52  1  0.67263363  0.82678489  0.38032291  1
  In  In53  1  0.66185071  0.85099155  0.87201902  1
  In  In54  1  0.17877136  0.01128770  0.12063307  1
  In  In55  1  0.17430103  0.00726017  0.61742515  1
  In  In56  1  0.18247656  0.32176496  0.13285330  1
  In  In57  1  0.16812125  0.32779729  0.62264909  1
  In  In58  1  0.16630481  0.66587720  0.14132131  1
  In  In59  1  0.16187515  0.66391192  0.61670885  1
  In  In60  1  0.48505494  0.00834887  0.12712452  1
  In  In61  1  0.49873592  -0.00148825  0.62518758  1
  In  In62  1  0.49371978  0.32545065  0.11414950  1
  In  In63  1  0.50154491  0.33066007  0.61796034  1
  In  In64  1  0.50797808  0.66365413  0.13738102  1
  In  In65  1  0.49332028  0.66124658  0.61544106  1
  In  In66  1  0.85156941  0.00376097  0.10403545  1
  In  In67  1  0.83707054  -0.01170516  0.62756440  1
  In  In68  1  0.82137966  0.32972517  0.11056972  1
  In  In69  1  0.83767474  0.34252782  0.63073077  1
  In  In70  1  0.83587627  0.66725426  0.12323959  1
  In  In71  1  0.82950503  0.67965258  0.62517494  1
  In  In72  1  0.65888005  0.33525731  0.23647419  1
  In  In73  1  0.83335175  0.16453731  0.49406271  1
  In  In74  1  0.33328167  0.66836747  0.74193360  1
  In  In75  1  0.00312765  -0.00317554  0.75114573  1
  In  In76  1  0.16700948  0.49682806  0.00297488  1
  In  In77  1  0.82773666  0.50711267  0.50464930  1
  In  In78  1  0.33128200  0.33167701  0.75706593  1
  In  In79  1  0.66677781  -0.00700305  0.24580115  1
  In  In80  1  0.00647073  -0.00121389  0.24168985  1
  In  In81  1  0.16507111  0.84114765  0.00262285  1
  In  In82  1  0.66992695  0.32925719  0.75730260  1
  In  In83  1  0.66769629  0.66810074  0.75024013  1
  In  In84  1  0.50180163  0.83259516  0.00076495  1
  In  In85  1  0.00198579  0.33492275  0.24265548  1
  Cu  Cu86  1  0.65868597  0.32602663  0.49344123  1
  Cu  Cu87  1  0.00883898  0.33423918  0.50469596  1
  Cu  Cu88  1  0.17041911  0.50885967  0.74980087  1
  Cu  Cu89  1  0.33106632  0.32732043  0.00558094  1
  Cu  Cu90  1  0.16695556  0.82969659  0.26025620  1
  Cu  Cu91  1  0.49264055  0.15794001  0.75050630  1
  Cu  Cu92  1  0.66012807  0.66530969  0.49754075  1
  Cu  Cu93  1  0.66334497  -0.00148485  -0.00063937  1
  Cu  Cu94  1  0.66221161  -0.00350948  0.49989882  1
  Cu  Cu95  1  0.84633206  0.49963924  0.75631839  1
  Cu  Cu96  1  0.83729776  0.82885099  0.24663469  1
  Cu  Cu97  1  0.49857217  0.83639832  0.25575648  1
  Cu  Cu98  1  0.49440603  0.50610202  0.25182638  1
  Cu  Cu99  1  0.00058395  0.33596786  0.00093359  1
  Cu  Cu100  1  0.83371292  0.16801634  0.76171520  1
  Cu  Cu101  1  0.33556550  0.66815267  0.00499995  1
  Cu  Cu102  1  0.49466962  0.83649763  0.74466371  1
  Cu  Cu103  1  0.00134499  -0.00108256  0.50418396  1
  Cu  Cu104  1  0.16566186  0.16929493  0.74850528  1
  Cu  Cu105  1  0.33738575  0.00184672  0.49763158  1
  Cu  Cu106  1  -0.00185485  0.66356277  -0.00080840  1
  Cu  Cu107  1  0.82293460  0.50554113  0.24486640  1
  Cu  Cu108  1  0.67213436  0.66750686  0.00350785  1
  Cu  Cu109  1  0.33357766  0.33127855  0.49900029  1
  Cu  Cu110  1  -0.00039035  0.66852043  0.49716682  1
  Cu  Cu111  1  0.16443476  0.49846049  0.25830412  1
  Cu  Cu112  1  0.83260174  0.83746743  0.74886031  1
  Cu  Cu113  1  0.49175067  0.17467758  0.24865312  1
  Cu  Cu114  1  0.33098481  0.66767480  0.49335465  1
  Se  Se115  1  0.06875859  0.05922380  0.05846338  1
  Se  Se116  1  0.08525333  0.08806940  0.55028486  1
  Se  Se117  1  0.08107736  0.40732591  0.06722501  1
  Se  Se118  1  0.08975557  0.42012094  0.55677983  1
  Se  Se119  1  0.08357568  0.73769546  0.06023031  1
  Se  Se120  1  0.08243423  0.75317122  0.54996192  1
  Se  Se121  1  0.42751621  0.09333436  0.05041126  1
  Se  Se122  1  0.42151757  0.08337375  0.55316015  1
  Se  Se123  1  0.40813791  0.42009492  0.05521413  1
  Se  Se124  1  0.41703023  0.41532503  0.55282492  1
  Se  Se125  1  0.41214690  0.74910146  0.06641835  1
  Se  Se126  1  0.41663355  0.74869330  0.54831429  1
  Se  Se127  1  0.74895928  0.08273059  0.04993734  1
  Se  Se128  1  0.74581640  0.07832466  0.55968375  1
  Se  Se129  1  0.74679644  0.42031040  0.04640103  1
  Se  Se130  1  0.73888082  0.40326044  0.55643165  1
  Se  Se131  1  0.75549900  0.75340353  0.05297172  1
  Se  Se132  1  0.74646099  0.74724956  0.55021364  1
  Se  Se133  1  0.24646465  0.24210188  0.05415236  1
  Se  Se134  1  0.25134835  0.24725915  0.55419150  1
  Se  Se135  1  0.25242165  0.58968845  0.06420361  1
  Se  Se136  1  0.24965565  0.58387121  0.54985443  1
  Se  Se137  1  0.26884413  0.92216843  0.05556010  1
  Se  Se138  1  0.25091617  0.91860665  0.54902236  1
  Se  Se139  1  0.59225267  0.26209369  0.04781453  1
  Se  Se140  1  0.57743831  0.24311881  0.54801078  1
  Se  Se141  1  0.57928394  0.59363321  0.05583499  1
  Se  Se142  1  0.58165122  0.57748342  0.55064483  1
  Se  Se143  1  0.58798836  0.92182421  0.06552967  1
  Se  Se144  1  0.58103325  0.91355097  0.55581398  1
  Se  Se145  1  0.91689006  0.24890267  0.05134176  1
  Se  Se146  1  0.92037054  0.25459155  0.55959245  1
  Se  Se147  1  0.91525040  0.58026884  0.05256416  1
  Se  Se148  1  0.92420288  0.58946491  0.56375498  1
  Se  Se149  1  0.91932586  0.90291075  0.04301686  1
  Se  Se150  1  0.91230863  0.91524544  0.55074777  1
  Se  Se151  1  0.08469232  0.24669570  0.44890005  1
  Se  Se152  1  0.08359958  0.24962266  0.95055629  1
  Se  Se153  1  0.08235675  0.58219325  0.44687117  1
  Se  Se154  1  0.08414080  0.58941519  0.93860038  1
  Se  Se155  1  0.08536820  0.91652088  0.44933310  1
  Se  Se156  1  0.07622189  0.92223477  0.93674391  1
  Se  Se157  1  0.41278283  0.24607459  0.44251194  1
  Se  Se158  1  0.41831130  0.24828006  0.95136150  1
  Se  Se159  1  0.41679722  0.58253889  0.44315737  1
  Se  Se160  1  0.41881984  0.58311546  0.95396010  1
  Se  Se161  1  0.41990261  0.91360690  0.44755593  1
  Se  Se162  1  0.41427651  0.92243411  0.94024911  1
  Se  Se163  1  0.74493212  0.25701249  0.43193228  1
  Se  Se164  1  0.73223386  0.26512760  0.94824457  1
  Se  Se165  1  0.74350985  0.58853699  0.43512626  1
  Se  Se166  1  0.75387291  0.58309848  0.94952075  1
  Se  Se167  1  0.75096797  0.91512355  0.44957630  1
  Se  Se168  1  0.74700663  0.91375445  0.94801879  1
  Se  Se169  1  0.25417908  0.08545563  0.44329511  1
  Se  Se170  1  0.23849194  0.08728500  0.95115495  1
  Se  Se171  1  0.25034023  0.41928469  0.44873879  1
  Se  Se172  1  0.25475676  0.40626886  0.94007346  1
  Se  Se173  1  0.24592531  0.75387052  0.44496984  1
  Se  Se174  1  0.25803113  0.74582257  0.94308943  1
  Se  Se175  1  0.58381387  0.08598837  0.44854214  1
  Se  Se176  1  0.58004855  0.07899874  0.94357525  1
  Se  Se177  1  0.57673176  0.41746509  0.44741318  1
  Se  Se178  1  0.56709919  0.43117576  0.95277586  1
  Se  Se179  1  0.57898061  0.75062877  0.44448323  1
  Se  Se180  1  0.59224135  0.74293406  0.93808319  1
  Se  Se181  1  0.92605379  0.07473421  0.43549187  1
  Se  Se182  1  0.91399212  0.08380284  0.95360596  1
  Se  Se183  1  0.92325374  0.41431348  0.44789220  1
  Se  Se184  1  0.92120955  0.42205082  0.94696890  1
  Se  Se185  1  0.91069150  0.74929361  0.44624199  1
  Se  Se186  1  0.92053932  0.75061389  0.94446511  1
  Se  Se187  1  0.24936011  0.25688934  0.29972155  1
  Se  Se188  1  0.24770214  0.23709588  0.81597703  1
  Se  Se189  1  0.24836987  0.58496223  0.30766101  1
  Se  Se190  1  0.25011588  0.58167178  0.81423714  1
  Se  Se191  1  0.25198155  0.91765859  0.30600667  1
  Se  Se192  1  0.23134158  0.90408980  0.79989990  1
  Se  Se193  1  0.57614311  0.25094688  0.30853223  1
  Se  Se194  1  0.57299720  0.23899617  0.81094636  1
  Se  Se195  1  0.58339077  0.58740838  0.30082143  1
  Se  Se196  1  0.58507830  0.57167339  0.80879564  1
  Se  Se197  1  0.57855269  0.91773707  0.31628629  1
  Se  Se198  1  0.58217006  0.91902880  0.79511618  1
  Se  Se199  1  0.90832536  0.23959726  0.30003824  1
  Se  Se200  1  0.91835214  0.25297891  0.81003075  1
  Se  Se201  1  0.91294379  0.58130914  0.29882384  1
  Se  Se202  1  0.92588178  0.59137232  0.80398376  1
  Se  Se203  1  0.91619457  0.91079766  0.30747190  1
  Se  Se204  1  0.90915332  0.91500293  0.81409484  1
  Se  Se205  1  0.09227827  0.08474709  0.30799165  1
  Se  Se206  1  0.08483708  0.09233573  0.81227205  1
  Se  Se207  1  0.08403450  0.41421633  0.31555379  1
  Se  Se208  1  0.08929698  0.41927502  0.80021815  1
  Se  Se209  1  0.07735116  0.74669337  0.30683922  1
  Se  Se210  1  0.08542702  0.75611314  0.79019033  1
  Se  Se211  1  0.41613669  0.08451234  0.30215624  1
  Se  Se212  1  0.40571587  0.07841898  0.80377993  1
  Se  Se213  1  0.41183308  0.41817440  0.30133446  1
  Se  Se214  1  0.42994732  0.42042625  0.80844330  1
  Se  Se215  1  0.41422532  0.75089528  0.30608272  1
  Se  Se216  1  0.42356412  0.75463652  0.80991799  1
  Se  Se217  1  0.75992229  0.08919530  0.30084790  1
  Se  Se218  1  0.74776321  0.08180862  0.80769281  1
  Se  Se219  1  0.75055934  0.42057498  0.30617947  1
  Se  Se220  1  0.76063467  0.42219430  0.81408065  1
  Se  Se221  1  0.74754622  0.75347021  0.30109002  1
  Se  Se222  1  0.75530095  0.75668344  0.81248399  1
  Se  Se223  1  0.25786369  0.08085812  0.19557974  1
  Se  Se224  1  0.24735794  0.08395345  0.69602999  1
  Se  Se225  1  0.24641083  0.41858640  0.20053254  1
  Se  Se226  1  0.25040787  0.42585988  0.69145157  1
  Se  Se227  1  0.25320508  0.74768215  0.20611887  1
  Se  Se228  1  0.24588354  0.75691961  0.68280474  1
  Se  Se229  1  0.57990628  0.09535759  0.19234195  1
  Se  Se230  1  0.58192286  0.08014867  0.69743495  1
  Se  Se231  1  0.57010252  0.43048067  0.18303843  1
  Se  Se232  1  0.58092503  0.41606895  0.69295572  1
  Se  Se233  1  0.58522280  0.75603097  0.20284533  1
  Se  Se234  1  0.57475637  0.75204932  0.68725181  1
  Se  Se235  1  0.90900326  0.08691974  0.18842958  1
  Se  Se236  1  0.91044774  0.09201780  0.69322857  1
  Se  Se237  1  0.90202221  0.42115624  0.18662164  1
  Se  Se238  1  0.92385191  0.41109993  0.70284896  1
  Se  Se239  1  0.92238543  0.74588854  0.19442877  1
  Se  Se240  1  0.91469382  0.75240853  0.69699413  1
  Se  Se241  1  0.09033561  0.23337169  0.19436398  1
  Se  Se242  1  0.08398641  0.25569223  0.69803820  1
  Se  Se243  1  0.07930545  0.57952536  0.20403940  1
  Se  Se244  1  0.08593757  0.58812370  0.69480319  1
  Se  Se245  1  0.09772327  0.90390777  0.18719435  1
  Se  Se246  1  0.08545372  0.91548861  0.68176605  1
  Se  Se247  1  0.41302333  0.25641653  0.19101944  1
  Se  Se248  1  0.41922270  0.24482753  0.69112317  1
  Se  Se249  1  0.40960865  0.59234468  0.20135129  1
  Se  Se250  1  0.42904079  0.57212429  0.69444236  1
  Se  Se251  1  0.41839039  0.92155829  0.20164869  1
  Se  Se252  1  0.40961492  0.91965995  0.69381500  1
  Se  Se253  1  0.75647377  0.24150059  0.18980143  1
  Se  Se254  1  0.75655692  0.23993611  0.69103297  1
  Se  Se255  1  0.74325183  0.59048089  0.19119517  1
  Se  Se256  1  0.76219798  0.57275350  0.69361513  1
  Se  Se257  1  0.76655372  0.91562627  0.18457579  1
  Se  Se258  1  0.74596738  0.91898275  0.69789161  1
