# generated using pymatgen
data_In86Cu29Se144
_symmetry_space_group_name_H-M   'P 1'
_cell_length_a   17.57196262
_cell_length_b   17.56237480
_cell_length_c   23.42920206
_cell_angle_alpha   90.01505322
_cell_angle_beta   89.98540855
_cell_angle_gamma   89.98917104
_symmetry_Int_Tables_number   1
_chemical_formula_structural   In86Cu29Se144
_chemical_formula_sum   'In86 Cu29 Se144'
_cell_volume   7230.37750880
_cell_formula_units_Z   1
loop_
 _symmetry_equiv_pos_site_id
 _symmetry_equiv_pos_as_xyz
  1  'x, y, z'
loop_
 _atom_site_type_symbol
 _atom_site_label
 _atom_site_symmetry_multiplicity
 _atom_site_fract_x
 _atom_site_fract_y
 _atom_site_fract_z
 _atom_site_occupancy
  In  In0  1  0.00837446  0.13286256  0.13921720  1
  In  In1  1  -0.00035500  0.16427637  0.62299142  1
  In  In2  1  0.02083481  0.50666708  0.12592757  1
  In  In3  1  -0.00924086  0.50610801  0.63068418  1
  In  In4  1  0.00166411  0.83760715  0.12608182  1
  In  In5  1  -0.01417414  0.84712808  0.63350623  1
  In  In6  1  0.33728743  0.15406187  0.14048777  1
  In  In7  1  0.32050177  0.15465978  0.62235916  1
  In  In8  1  0.33438064  0.50002702  0.13350607  1
  In  In9  1  0.33661927  0.50151083  0.62161418  1
  In  In10  1  0.33903047  0.83301681  0.12607814  1
  In  In11  1  0.34995163  0.84175036  0.61875275  1
  In  In12  1  0.66393798  0.17339957  0.12325554  1
  In  In13  1  0.68822760  0.14298771  0.63855847  1
  In  In14  1  0.66754261  0.51670298  0.12334947  1
  In  In15  1  0.66835132  0.50255861  0.63773983  1
  In  In16  1  0.65638488  0.83198371  0.10898942  1
  In  In17  1  0.66482155  0.83744525  0.62435829  1
  In  In18  1  0.17003148  -0.00057914  0.35870732  1
  In  In19  1  0.15692540  -0.00947947  0.86297157  1
  In  In20  1  0.16258344  0.30982888  0.36945657  1
  In  In21  1  0.15890991  0.32732539  0.86903062  1
  In  In22  1  0.16798243  0.67302609  0.34770429  1
  In  In23  1  0.17197898  0.67814797  0.87828000  1
  In  In24  1  0.48673952  -0.00136917  0.37655715  1
  In  In25  1  0.50281270  0.00221429  0.88256416  1
  In  In26  1  0.49875155  0.33853133  0.37358849  1
  In  In27  1  0.50679030  0.32448033  0.88206454  1
  In  In28  1  0.50965312  0.67738669  0.36308574  1
  In  In29  1  0.50445485  0.66135658  0.88503557  1
  In  In30  1  0.83340021  -0.00929922  0.38459437  1
  In  In31  1  0.82575132  -0.01386507  0.87075258  1
  In  In32  1  0.83029250  0.32819904  0.38235691  1
  In  In33  1  0.82908938  0.32794754  0.86397144  1
  In  In34  1  0.84138123  0.68191544  0.36575473  1
  In  In35  1  0.84433864  0.68113900  0.87044539  1
  In  In36  1  0.00392482  0.15814313  0.37748162  1
  In  In37  1  -0.00861243  0.15200715  0.85730590  1
  In  In38  1  -0.00417141  0.51137366  0.37333452  1
  In  In39  1  -0.00543865  0.49699660  0.87135686  1
  In  In40  1  -0.00523498  0.83113854  0.36676708  1
  In  In41  1  0.00195004  0.83124279  0.87458598  1
  In  In42  1  0.31092735  0.14857656  0.35048940  1
  In  In43  1  0.34342546  0.16735170  0.87723960  1
  In  In44  1  0.32356950  0.49577703  0.35357660  1
  In  In45  1  0.33388912  0.51368325  0.88195839  1
  In  In46  1  0.33655376  0.84107972  0.35894572  1
  In  In47  1  0.32718029  0.83971384  0.88637551  1
  In  In48  1  0.67065181  0.15880595  0.38809015  1
  In  In49  1  0.65143734  0.15443819  0.86577110  1
  In  In50  1  0.65494450  0.49967336  0.37302347  1
  In  In51  1  0.65998379  0.49441382  0.87136895  1
  In  In52  1  0.67799189  0.83038225  0.38560440  1
  In  In53  1  0.67201369  0.83815216  0.87975907  1
  In  In54  1  0.18811847  -0.02617852  0.15817060  1
  In  In55  1  0.15064719  0.01828877  0.64620192  1
  In  In56  1  0.17767744  0.34413892  0.12831333  1
  In  In57  1  0.16900075  0.30454748  0.62248501  1
  In  In58  1  0.14976030  0.68992133  0.15182887  1
  In  In59  1  0.16131115  0.65792639  0.62253111  1
  In  In60  1  0.49514738  -0.00813043  0.10809703  1
  In  In61  1  0.51029446  -0.01286450  0.63692837  1
  In  In62  1  0.48636386  0.32878927  0.11516672  1
  In  In63  1  0.50489561  0.34212216  0.62959124  1
  In  In64  1  0.50359455  0.66914115  0.11997100  1
  In  In65  1  0.50330640  0.69045683  0.62379993  1
  In  In66  1  0.85193965  -0.00398882  0.12666077  1
  In  In67  1  0.83025229  0.00059692  0.61788270  1
  In  In68  1  0.83436245  0.31734216  0.12444981  1
  In  In69  1  0.84853634  0.31894241  0.63357042  1
  In  In70  1  0.82268435  0.67786926  0.13165395  1
  In  In71  1  0.82258963  0.67914064  0.63350345  1
  In  In72  1  0.17900113  0.51100497  0.00761788  1
  In  In73  1  0.33288926  0.67320301  0.75037331  1
  In  In74  1  0.33177866  0.33060643  0.75115057  1
  In  In75  1  0.49777507  0.50223363  0.49896650  1
  In  In76  1  0.50165474  0.16409192  0.50338787  1
  In  In77  1  0.83285919  0.50238400  0.49842984  1
  In  In78  1  0.82809782  0.15654338  -0.00650253  1
  In  In79  1  0.83064505  0.50481848  0.00467806  1
  In  In80  1  0.16895652  0.16103957  0.00436428  1
  In  In81  1  0.66375555  0.33400461  0.25313485  1
  In  In82  1  0.00143862  0.33787031  0.25069998  1
  In  In83  1  0.17097057  0.84041993  0.49598643  1
  In  In84  1  0.66738406  -0.00208525  0.25253004  1
  In  In85  1  0.16104484  0.49876090  0.49118474  1
  Cu  Cu86  1  0.15439100  0.49488441  0.74731420  1
  Cu  Cu87  1  0.00578056  0.67464549  0.00403496  1
  Cu  Cu88  1  0.32740478  0.00003045  0.00770446  1
  Cu  Cu89  1  0.65645008  0.33387472  -0.00319392  1
  Cu  Cu90  1  0.00892675  0.32419917  0.50531590  1
  Cu  Cu91  1  0.00776544  -0.01368524  -0.00054259  1
  Cu  Cu92  1  0.16574748  0.82633646  0.75385009  1
  Cu  Cu93  1  0.67829699  0.32253654  0.51127210  1
  Cu  Cu94  1  0.00171791  0.00419249  0.50372330  1
  Cu  Cu95  1  0.32846086  0.31468337  0.49089995  1
  Cu  Cu96  1  -0.00476948  0.68425224  0.49618430  1
  Cu  Cu97  1  0.83023270  0.83295457  0.24996125  1
  Cu  Cu98  1  0.50746728  0.83592909  0.75530481  1
  Cu  Cu99  1  0.33699051  0.33772558  0.00100769  1
  Cu  Cu100  1  0.33927173  0.67105102  0.48608348  1
  Cu  Cu101  1  0.83393034  0.83685382  0.75050788  1
  Cu  Cu102  1  0.83082754  0.50612563  0.75362622  1
  Cu  Cu103  1  0.83537554  0.16690312  0.74579612  1
  Cu  Cu104  1  0.50530973  0.50512032  0.24562933  1
  Cu  Cu105  1  0.50115042  0.16433963  0.75403461  1
  Cu  Cu106  1  -0.00476951  0.32098357  -0.00205841  1
  Cu  Cu107  1  0.83956849  0.50693077  0.24763735  1
  Cu  Cu108  1  0.66895293  0.67420139  0.49839693  1
  Cu  Cu109  1  0.66685965  0.67064672  -0.00213944  1
  Cu  Cu110  1  0.33464380  0.67441651  0.00768371  1
  Cu  Cu111  1  0.32572864  -0.00148769  0.49405960  1
  Cu  Cu112  1  0.49663187  0.16198026  0.24834219  1
  Cu  Cu113  1  0.50486032  0.83377738  0.24105079  1
  Cu  Cu114  1  0.50357674  0.50318294  0.75690051  1
  Se  Se115  1  0.08839637  0.06170134  0.06142701  1
  Se  Se116  1  0.08939365  0.08101420  0.55738854  1
  Se  Se117  1  0.08019669  0.40657912  0.05164071  1
  Se  Se118  1  0.08128189  0.41461210  0.56367341  1
  Se  Se119  1  0.08999918  0.75197281  0.06142720  1
  Se  Se120  1  0.07933194  0.75391786  0.56024333  1
  Se  Se121  1  0.40863728  0.09121291  0.05589361  1
  Se  Se122  1  0.41153831  0.06887119  0.55880688  1
  Se  Se123  1  0.41239322  0.42857608  0.05428478  1
  Se  Se124  1  0.40509445  0.39964354  0.55217240  1
  Se  Se125  1  0.42404613  0.75924320  0.05322714  1
  Se  Se126  1  0.41669917  0.75026591  0.54643562  1
  Se  Se127  1  0.74722692  0.07540341  0.06458266  1
  Se  Se128  1  0.74598552  0.08340761  0.54980980  1
  Se  Se129  1  0.74190504  0.40477429  0.06051337  1
  Se  Se130  1  0.75124233  0.41432332  0.56690365  1
  Se  Se131  1  0.75462842  0.74997534  0.05038031  1
  Se  Se132  1  0.75130004  0.75359944  0.55506748  1
  Se  Se133  1  0.25937852  0.25507238  0.06130023  1
  Se  Se134  1  0.24664040  0.23309966  0.54558836  1
  Se  Se135  1  0.25235879  0.60476032  0.07359311  1
  Se  Se136  1  0.26060947  0.59176627  0.54881668  1
  Se  Se137  1  0.24648782  0.91975614  0.06527031  1
  Se  Se138  1  0.24907986  0.92884438  0.56467162  1
  Se  Se139  1  0.57884466  0.24786534  0.05276037  1
  Se  Se140  1  0.59048490  0.24927715  0.56887068  1
  Se  Se141  1  0.58410021  0.58370347  0.04842606  1
  Se  Se142  1  0.59168380  0.58889208  0.55947801  1
  Se  Se143  1  0.59206570  0.92868219  0.04195057  1
  Se  Se144  1  0.56243314  0.89991420  0.55849029  1
  Se  Se145  1  0.92614076  0.23553772  0.06033332  1
  Se  Se146  1  0.91517234  0.24532595  0.55189568  1
  Se  Se147  1  0.92596595  0.59143956  0.06305924  1
  Se  Se148  1  0.91985900  0.59799664  0.55640962  1
  Se  Se149  1  0.91579636  0.90967028  0.05045457  1
  Se  Se150  1  0.91797361  0.91605585  0.55119351  1
  Se  Se151  1  0.08770927  0.24038779  0.44893810  1
  Se  Se152  1  0.07392834  0.24091177  0.93771781  1
  Se  Se153  1  0.08008932  0.60526870  0.43743754  1
  Se  Se154  1  0.07828223  0.58668769  0.94315465  1
  Se  Se155  1  0.07747344  0.92632226  0.43622398  1
  Se  Se156  1  0.09317250  0.90908895  0.94243171  1
  Se  Se157  1  0.41462139  0.24175670  0.43155744  1
  Se  Se158  1  0.41746937  0.24917480  0.95059600  1
  Se  Se159  1  0.41316215  0.58185906  0.42820505  1
  Se  Se160  1  0.41453239  0.58667816  0.95518467  1
  Se  Se161  1  0.40619996  0.91068648  0.44240529  1
  Se  Se162  1  0.41403319  0.92175982  0.95103107  1
  Se  Se163  1  0.75760535  0.24229875  0.45338461  1
  Se  Se164  1  0.74135685  0.25583850  0.93804882  1
  Se  Se165  1  0.74367581  0.59070101  0.43594818  1
  Se  Se166  1  0.74845704  0.58959467  0.93642917  1
  Se  Se167  1  0.74508529  0.92036713  0.45537057  1
  Se  Se168  1  0.75571535  0.91664492  0.95056090  1
  Se  Se169  1  0.24701014  0.07818690  0.43487635  1
  Se  Se170  1  0.25291815  0.07365724  0.93801394  1
  Se  Se171  1  0.25624703  0.40950547  0.43531206  1
  Se  Se172  1  0.25050525  0.40933355  0.93959481  1
  Se  Se173  1  0.24989818  0.74503917  0.42985290  1
  Se  Se174  1  0.24673810  0.75262303  0.95433567  1
  Se  Se175  1  0.58641651  0.06398545  0.44748559  1
  Se  Se176  1  0.58358659  0.09089753  0.94906877  1
  Se  Se177  1  0.59611380  0.40171242  0.45021561  1
  Se  Se178  1  0.57669684  0.42383230  0.94681020  1
  Se  Se179  1  0.57875264  0.74977584  0.44436655  1
  Se  Se180  1  0.58290654  0.75565215  0.94693067  1
  Se  Se181  1  0.91697816  0.08298004  0.44704844  1
  Se  Se182  1  0.92902547  0.06995504  0.93983279  1
  Se  Se183  1  0.93185857  0.40933091  0.44494675  1
  Se  Se184  1  0.91501603  0.40638454  0.94359569  1
  Se  Se185  1  0.90935395  0.76336175  0.44348462  1
  Se  Se186  1  0.92000486  0.75267458  0.94879762  1
  Se  Se187  1  0.26811159  0.27077612  0.29970793  1
  Se  Se188  1  0.24325091  0.23569317  0.80652278  1
  Se  Se189  1  0.25735682  0.59043580  0.28703116  1
  Se  Se190  1  0.23983650  0.57469688  0.80554983  1
  Se  Se191  1  0.23443561  0.89982664  0.29215602  1
  Se  Se192  1  0.25380393  0.90728293  0.80487428  1
  Se  Se193  1  0.57925531  0.23498669  0.31279841  1
  Se  Se194  1  0.58203984  0.25558653  0.80196471  1
  Se  Se195  1  0.59053279  0.58584531  0.29865544  1
  Se  Se196  1  0.58426060  0.59112724  0.80760644  1
  Se  Se197  1  0.57738941  0.90803815  0.31226972  1
  Se  Se198  1  0.58621988  0.92065460  0.81161089  1
  Se  Se199  1  0.91184019  0.24814854  0.31077973  1
  Se  Se200  1  0.91916620  0.25308998  0.79710856  1
  Se  Se201  1  0.92137503  0.59183936  0.30026329  1
  Se  Se202  1  0.91909769  0.58676796  0.80477644  1
  Se  Se203  1  0.90814031  0.92027247  0.30470382  1
  Se  Se204  1  0.92151622  0.91594956  0.80437169  1
  Se  Se205  1  0.09112879  0.09818968  0.30116002  1
  Se  Se206  1  0.09001443  0.08439406  0.79528861  1
  Se  Se207  1  0.09061397  0.42422999  0.31462614  1
  Se  Se208  1  0.07558759  0.41138165  0.80339640  1
  Se  Se209  1  0.07525685  0.75780083  0.29270606  1
  Se  Se210  1  0.08257914  0.74264559  0.80560836  1
  Se  Se211  1  0.41526013  0.07183110  0.29702423  1
  Se  Se212  1  0.41983880  0.08117892  0.80835047  1
  Se  Se213  1  0.42580260  0.41635798  0.29819494  1
  Se  Se214  1  0.41756407  0.42464268  0.81355161  1
  Se  Se215  1  0.41952642  0.75127618  0.29542064  1
  Se  Se216  1  0.42228669  0.75581968  0.81425159  1
  Se  Se217  1  0.75532066  0.08755730  0.31335377  1
  Se  Se218  1  0.75700560  0.08713880  0.80673272  1
  Se  Se219  1  0.76136918  0.42567281  0.30962435  1
  Se  Se220  1  0.74684971  0.41817855  0.80186999  1
  Se  Se221  1  0.74204954  0.75380334  0.30301927  1
  Se  Se222  1  0.75021781  0.75547483  0.80572520  1
  Se  Se223  1  0.23525945  0.09702696  0.20603708  1
  Se  Se224  1  0.26234190  0.07608866  0.70303711  1
  Se  Se225  1  0.24303841  0.42878402  0.20172999  1
  Se  Se226  1  0.24243330  0.42148064  0.68650435  1
  Se  Se227  1  0.24738678  0.77445991  0.20337569  1
  Se  Se228  1  0.24538307  0.75690629  0.68322146  1
  Se  Se229  1  0.57777450  0.08456151  0.18842194  1
  Se  Se230  1  0.58625420  0.07880351  0.70287228  1
  Se  Se231  1  0.58071452  0.41920857  0.18472172  1
  Se  Se232  1  0.58458739  0.41655282  0.70360646  1
  Se  Se233  1  0.58988475  0.75227968  0.18812018  1
  Se  Se234  1  0.58831960  0.75235746  0.69984990  1
  Se  Se235  1  0.89810620  0.09053793  0.20294254  1
  Se  Se236  1  0.91305780  0.08116539  0.68946707  1
  Se  Se237  1  0.91041232  0.42451573  0.18386121  1
  Se  Se238  1  0.91317924  0.42063665  0.69884221  1
  Se  Se239  1  0.91705260  0.75309285  0.19523107  1
  Se  Se240  1  0.91850853  0.74904836  0.69983785  1
  Se  Se241  1  0.08601499  0.24956915  0.18545239  1
  Se  Se242  1  0.07586121  0.25089835  0.69458537  1
  Se  Se243  1  0.08568158  0.57905975  0.20613899  1
  Se  Se244  1  0.07842018  0.58802638  0.69691451  1
  Se  Se245  1  0.05090821  0.94784755  0.19126154  1
  Se  Se246  1  0.08215190  0.91159818  0.70228217  1
  Se  Se247  1  0.42047228  0.25289153  0.19619303  1
  Se  Se248  1  0.42170532  0.24140184  0.68843903  1
  Se  Se249  1  0.42325864  0.58929550  0.19283657  1
  Se  Se250  1  0.42554817  0.58113056  0.69119965  1
  Se  Se251  1  0.42456216  0.92293915  0.19026792  1
  Se  Se252  1  0.41559364  0.91211835  0.70268000  1
  Se  Se253  1  0.75616141  0.23901025  0.20024899  1
  Se  Se254  1  0.74698174  0.25338250  0.69809515  1
  Se  Se255  1  0.74789492  0.58635877  0.19963678  1
  Se  Se256  1  0.74637695  0.59166079  0.70296842  1
  Se  Se257  1  0.74995319  0.90929813  0.18642177  1
  Se  Se258  1  0.75271587  0.91726079  0.69179873  1
