# generated using pymatgen
data_In86Cu29Se144
_symmetry_space_group_name_H-M   'P 1'
_cell_length_a   17.58645172
_cell_length_b   17.58747701
_cell_length_c   23.44920582
_cell_angle_alpha   89.99267677
_cell_angle_beta   90.00099734
_cell_angle_gamma   90.00298512
_symmetry_Int_Tables_number   1
_chemical_formula_structural   In86Cu29Se144
_chemical_formula_sum   'In86 Cu29 Se144'
_cell_volume   7252.87013256
_cell_formula_units_Z   1
loop_
 _symmetry_equiv_pos_site_id
 _symmetry_equiv_pos_as_xyz
  1  'x, y, z'
loop_
 _atom_site_type_symbol
 _atom_site_label
 _atom_site_symmetry_multiplicity
 _atom_site_fract_x
 _atom_site_fract_y
 _atom_site_fract_z
 _atom_site_occupancy
  In  In0  1  0.00128137  0.16425777  0.12599392  1
  In  In1  1  -0.00725245  0.18167891  0.62580495  1
  In  In2  1  -0.00655959  0.51593784  0.13666527  1
  In  In3  1  0.00067287  0.48304687  0.62154305  1
  In  In4  1  -0.01090991  0.82920420  0.11790889  1
  In  In5  1  -0.00443060  0.82988600  0.61764890  1
  In  In6  1  0.33565716  0.17694572  0.10680760  1
  In  In7  1  0.33658965  0.16378145  0.63695550  1
  In  In8  1  0.33078964  0.48735155  0.12081539  1
  In  In9  1  0.32570633  0.49359993  0.62025800  1
  In  In10  1  0.33862266  0.84151430  0.11315895  1
  In  In11  1  0.33694268  0.84282726  0.62846569  1
  In  In12  1  0.65342953  0.18250293  0.14148739  1
  In  In13  1  0.66918442  0.16493942  0.62958306  1
  In  In14  1  0.67572123  0.48814939  0.13183747  1
  In  In15  1  0.65815823  0.50553242  0.63448346  1
  In  In16  1  0.66571436  0.83055477  0.12832467  1
  In  In17  1  0.66311116  0.83054809  0.62916364  1
  In  In18  1  0.15484979  -0.00644610  0.37588669  1
  In  In19  1  0.17251372  -0.00384320  0.87933292  1
  In  In20  1  0.16788233  0.34617472  0.37264679  1
  In  In21  1  0.16563758  0.32481873  0.87587690  1
  In  In22  1  0.16468898  0.66807941  0.37573761  1
  In  In23  1  0.17091667  0.67091828  0.87825932  1
  In  In24  1  0.52197445  0.00299102  0.36717835  1
  In  In25  1  0.49966185  0.00160036  0.87925697  1
  In  In26  1  0.51730850  0.33577677  0.37424746  1
  In  In27  1  0.49258675  0.32082946  0.86303566  1
  In  In28  1  0.49666235  0.65952725  0.37392274  1
  In  In29  1  0.51862840  0.66019788  0.87608091  1
  In  In30  1  0.82449147  0.00760365  0.38020557  1
  In  In31  1  0.81728024  0.00028968  0.87803012  1
  In  In32  1  0.83616576  0.33653588  0.36859227  1
  In  In33  1  0.84111275  0.34464821  0.87317158  1
  In  In34  1  0.84505038  0.67396642  0.37047442  1
  In  In35  1  0.82387937  0.67223480  0.88168378  1
  In  In36  1  -0.01887780  0.16459453  0.37044222  1
  In  In37  1  0.00065210  0.19241862  0.88279338  1
  In  In38  1  0.01383155  0.50603369  0.35960638  1
  In  In39  1  -0.00457585  0.47670603  0.87756670  1
  In  In40  1  0.00433194  0.82368314  0.37966662  1
  In  In41  1  -0.00239783  0.83087322  0.88516851  1
  In  In42  1  0.33702256  0.15382570  0.37577564  1
  In  In43  1  0.33857029  0.16960949  0.87863128  1
  In  In44  1  0.33403296  0.50516777  0.38514295  1
  In  In45  1  0.34749253  0.48420404  0.86845410  1
  In  In46  1  0.33345593  0.82286424  0.37660046  1
  In  In47  1  0.32559330  0.84515696  0.88243849  1
  In  In48  1  0.69557392  0.19357700  0.34541401  1
  In  In49  1  0.65807425  0.15346847  0.87155030  1
  In  In50  1  0.65884192  0.49512227  0.37223889  1
  In  In51  1  0.66815674  0.50840219  0.86627259  1
  In  In52  1  0.68048921  0.84799898  0.36184060  1
  In  In53  1  0.66279645  0.83410639  0.88040762  1
  In  In54  1  0.17014547  0.00634539  0.11493634  1
  In  In55  1  0.17696790  -0.00300909  0.62648079  1
  In  In56  1  0.16480925  0.32545485  0.12099823  1
  In  In57  1  0.16294260  0.33605714  0.63046903  1
  In  In58  1  0.14809752  0.66546502  0.12666147  1
  In  In59  1  0.16660982  0.66468187  0.61773989  1
  In  In60  1  0.50956604  0.00639678  0.12202108  1
  In  In61  1  0.49880946  -0.00143609  0.63641348  1
  In  In62  1  0.50579401  0.33378954  0.12020168  1
  In  In63  1  0.49137764  0.34467289  0.63725767  1
  In  In64  1  0.50499056  0.68089870  0.12533820  1
  In  In65  1  0.51382629  0.66787651  0.62629343  1
  In  In66  1  0.83152422  -0.00636408  0.12394001  1
  In  In67  1  0.82183621  -0.00820698  0.61971581  1
  In  In68  1  0.82324250  0.33687937  0.12859126  1
  In  In69  1  0.83849472  0.33003664  0.62784825  1
  In  In70  1  0.82947011  0.66728581  0.12959586  1
  In  In71  1  0.81719592  0.66919290  0.62256751  1
  In  In72  1  0.15712247  0.16766742  0.51103417  1
  In  In73  1  0.49950950  0.83231273  0.49674255  1
  In  In74  1  0.50546750  0.49716562  -0.00532653  1
  In  In75  1  0.34520631  0.00181720  0.24648683  1
  In  In76  1  0.34061249  0.66424638  0.75409236  1
  In  In77  1  0.33264852  0.33431713  0.24193455  1
  In  In78  1  0.83047936  0.16450768  0.00152751  1
  In  In79  1  0.50403064  0.16825112  0.50041265  1
  In  In80  1  0.33471787  0.66540758  0.25117354  1
  In  In81  1  0.16045876  0.50307927  -0.00163686  1
  In  In82  1  -0.00546999  0.65986568  0.74237081  1
  In  In83  1  0.83496331  0.50364457  0.49944051  1
  In  In84  1  -0.00548699  -0.00120268  0.24234859  1
  In  In85  1  -0.00185821  0.00664873  0.75620549  1
  Cu  Cu86  1  0.83820897  0.82977256  0.24781795  1
  Cu  Cu87  1  0.82857940  0.50319123  0.25124100  1
  Cu  Cu88  1  0.83089344  0.16892812  0.75618886  1
  Cu  Cu89  1  0.33686857  0.33854049  0.50175026  1
  Cu  Cu90  1  0.66391948  -0.00464135  0.00249163  1
  Cu  Cu91  1  0.83343556  0.49949849  0.74861027  1
  Cu  Cu92  1  0.50333076  0.49892029  0.24937866  1
  Cu  Cu93  1  0.32960734  -0.00855520  0.50386598  1
  Cu  Cu94  1  0.67148732  0.00618326  0.49851090  1
  Cu  Cu95  1  0.66747420  0.67136287  0.50102548  1
  Cu  Cu96  1  0.16674421  0.83006876  0.24854074  1
  Cu  Cu97  1  0.17174808  0.48487973  0.75095276  1
  Cu  Cu98  1  0.66800472  0.32927604  0.00067780  1
  Cu  Cu99  1  0.00069415  0.33237784  0.49874440  1
  Cu  Cu100  1  0.49988969  0.83892179  0.75641239  1
  Cu  Cu101  1  0.17147861  0.17063406  0.75270179  1
  Cu  Cu102  1  0.50298294  0.16453107  0.75480344  1
  Cu  Cu103  1  0.00455555  0.00270318  0.00058503  1
  Cu  Cu104  1  0.33228187  0.67304884  -0.00101326  1
  Cu  Cu105  1  0.16803318  0.17086274  0.24360411  1
  Cu  Cu106  1  0.67137637  0.33245430  0.49551099  1
  Cu  Cu107  1  -0.00566746  -0.00636311  0.49650954  1
  Cu  Cu108  1  0.81705198  0.83695497  0.75373963  1
  Cu  Cu109  1  -0.00877818  0.66724885  0.00604502  1
  Cu  Cu110  1  0.00282648  0.66657469  0.49457540  1
  Cu  Cu111  1  0.67233496  0.66612466  0.00306528  1
  Cu  Cu112  1  0.33027020  0.66142464  0.49779271  1
  Cu  Cu113  1  0.16639675  0.83562029  0.75382941  1
  Cu  Cu114  1  0.33573654  0.00155090  -0.00311925  1
  Se  Se115  1  0.08338475  0.09094967  0.05176034  1
  Se  Se116  1  0.06795493  0.07037590  0.56579077  1
  Se  Se117  1  0.07429917  0.42273917  0.06551161  1
  Se  Se118  1  0.08887389  0.41118434  0.55132454  1
  Se  Se119  1  0.08144751  0.75097264  0.05198665  1
  Se  Se120  1  0.08355702  0.74976099  0.55238629  1
  Se  Se121  1  0.42017160  0.08116512  0.05220365  1
  Se  Se122  1  0.41053622  0.07505016  0.55968404  1
  Se  Se123  1  0.40933455  0.40500222  0.04912742  1
  Se  Se124  1  0.42224104  0.41801208  0.55588170  1
  Se  Se125  1  0.42127300  0.75062513  0.05062903  1
  Se  Se126  1  0.40962671  0.74247454  0.55989098  1
  Se  Se127  1  0.73800772  0.08139647  0.06310728  1
  Se  Se128  1  0.75094400  0.08980642  0.55490601  1
  Se  Se129  1  0.74866693  0.41601203  0.05205667  1
  Se  Se130  1  0.74667532  0.41469624  0.55986263  1
  Se  Se131  1  0.75210061  0.75144593  0.05765478  1
  Se  Se132  1  0.74612131  0.75919317  0.55319905  1
  Se  Se133  1  0.24321160  0.25429117  0.04594172  1
  Se  Se134  1  0.26123068  0.25238928  0.56104707  1
  Se  Se135  1  0.25503980  0.59211776  0.06023249  1
  Se  Se136  1  0.24598388  0.57827059  0.55100024  1
  Se  Se137  1  0.24791156  0.91844829  0.04787579  1
  Se  Se138  1  0.24632940  0.90734461  0.55467232  1
  Se  Se139  1  0.58646214  0.24563209  0.05427556  1
  Se  Se140  1  0.58881284  0.26002524  0.56098107  1
  Se  Se141  1  0.58977730  0.58355567  0.06170865  1
  Se  Se142  1  0.58914387  0.58441354  0.55447156  1
  Se  Se143  1  0.58226429  0.91072433  0.05639619  1
  Se  Se144  1  0.58449815  0.92838168  0.55681040  1
  Se  Se145  1  0.91755772  0.25592706  0.06037292  1
  Se  Se146  1  0.91263200  0.25203745  0.54952644  1
  Se  Se147  1  0.91089635  0.58281173  0.05910709  1
  Se  Se148  1  0.92559434  0.59251555  0.56292767  1
  Se  Se149  1  0.91582242  0.92154132  0.05064251  1
  Se  Se150  1  0.91018997  0.91313353  0.55270643  1
  Se  Se151  1  0.07838811  0.24905127  0.43785489  1
  Se  Se152  1  0.08447707  0.26132922  0.95517783  1
  Se  Se153  1  0.08212549  0.58011894  0.44164241  1
  Se  Se154  1  0.06730005  0.59242243  0.93716928  1
  Se  Se155  1  0.08372337  0.91167353  0.44907435  1
  Se  Se156  1  0.08477387  0.91646476  0.94674262  1
  Se  Se157  1  0.40992428  0.25661292  0.43906412  1
  Se  Se158  1  0.42414858  0.25316575  0.94448269  1
  Se  Se159  1  0.42406874  0.58255651  0.45148139  1
  Se  Se160  1  0.40868354  0.58943783  0.93897499  1
  Se  Se161  1  0.41321561  0.92769739  0.43594823  1
  Se  Se162  1  0.42094016  0.91450209  0.94895492  1
  Se  Se163  1  0.75221025  0.25292532  0.43778589  1
  Se  Se164  1  0.74484313  0.25069433  0.93571108  1
  Se  Se165  1  0.74541541  0.59141434  0.43791200  1
  Se  Se166  1  0.74643075  0.57846246  0.94552419  1
  Se  Se167  1  0.74834875  0.91461276  0.44674454  1
  Se  Se168  1  0.74997066  0.91335601  0.95088599  1
  Se  Se169  1  0.24812962  0.07616623  0.44724969  1
  Se  Se170  1  0.25120312  0.08532213  0.94498367  1
  Se  Se171  1  0.24916947  0.41697085  0.44820983  1
  Se  Se172  1  0.25579107  0.41692892  0.94086352  1
  Se  Se173  1  0.24866146  0.74864942  0.44653966  1
  Se  Se174  1  0.24463433  0.75506485  0.94864001  1
  Se  Se175  1  0.59812062  0.08977947  0.43743590  1
  Se  Se176  1  0.58297776  0.08304071  0.95032705  1
  Se  Se177  1  0.58403035  0.41940322  0.45026337  1
  Se  Se178  1  0.59249674  0.40728143  0.93463724  1
  Se  Se179  1  0.59123862  0.74889234  0.43542199  1
  Se  Se180  1  0.58454702  0.74628684  0.95066118  1
  Se  Se181  1  0.91478083  0.08380830  0.44802654  1
  Se  Se182  1  0.92351941  0.07872855  0.93690654  1
  Se  Se183  1  0.92643857  0.41862316  0.43851888  1
  Se  Se184  1  0.91114347  0.41595401  0.95369057  1
  Se  Se185  1  0.91341913  0.75120763  0.44975886  1
  Se  Se186  1  0.90960870  0.75142528  0.95036863  1
  Se  Se187  1  0.24937368  0.24076810  0.31006687  1
  Se  Se188  1  0.25583286  0.25182323  0.80680424  1
  Se  Se189  1  0.24609618  0.57294638  0.30832170  1
  Se  Se190  1  0.24331056  0.57263916  0.81059295  1
  Se  Se191  1  0.24680040  0.91291967  0.30630428  1
  Se  Se192  1  0.25059280  0.91912286  0.80389490  1
  Se  Se193  1  0.57656591  0.25100244  0.29858276  1
  Se  Se194  1  0.59234078  0.24794359  0.80154401  1
  Se  Se195  1  0.58252170  0.58438926  0.30331365  1
  Se  Se196  1  0.57562736  0.57838813  0.79732383  1
  Se  Se197  1  0.57366491  0.90325203  0.29885364  1
  Se  Se198  1  0.58510483  0.92017168  0.80995099  1
  Se  Se199  1  0.91477451  0.25103033  0.29945837  1
  Se  Se200  1  0.91707063  0.25339058  0.80435864  1
  Se  Se201  1  0.91774789  0.58560231  0.30061834  1
  Se  Se202  1  0.91232300  0.57786478  0.81230208  1
  Se  Se203  1  0.91498276  0.91192741  0.31179923  1
  Se  Se204  1  0.90880943  0.90857192  0.81081957  1
  Se  Se205  1  0.08942608  0.08837343  0.30407705  1
  Se  Se206  1  0.08788601  0.09621411  0.81555858  1
  Se  Se207  1  0.07339949  0.39794383  0.29981415  1
  Se  Se208  1  0.08382633  0.40880959  0.80531006  1
  Se  Se209  1  0.08461574  0.75000538  0.30418765  1
  Se  Se210  1  0.08239609  0.75221065  0.80633393  1
  Se  Se211  1  0.43407844  0.09663534  0.30356547  1
  Se  Se212  1  0.41738091  0.08289976  0.80840495  1
  Se  Se213  1  0.41827697  0.42270281  0.30967578  1
  Se  Se214  1  0.43683179  0.42519122  0.79584419  1
  Se  Se215  1  0.42766354  0.75971975  0.30418313  1
  Se  Se216  1  0.42160700  0.75720092  0.81745746  1
  Se  Se217  1  0.73721235  0.06503515  0.30338818  1
  Se  Se218  1  0.74803848  0.07873394  0.80130308  1
  Se  Se219  1  0.74650047  0.41846865  0.30423783  1
  Se  Se220  1  0.75147089  0.41695762  0.80357558  1
  Se  Se221  1  0.75402586  0.74729532  0.30181559  1
  Se  Se222  1  0.74227560  0.74841722  0.80878728  1
  Se  Se223  1  0.25203957  0.09164402  0.18737604  1
  Se  Se224  1  0.24796140  0.08016100  0.70010747  1
  Se  Se225  1  0.23483836  0.42621834  0.19292588  1
  Se  Se226  1  0.25857885  0.40804633  0.69628157  1
  Se  Se227  1  0.25058732  0.75693863  0.18629530  1
  Se  Se228  1  0.24394837  0.75164580  0.69396704  1
  Se  Se229  1  0.59571441  0.06998670  0.19745585  1
  Se  Se230  1  0.58537594  0.08289153  0.69842270  1
  Se  Se231  1  0.58131745  0.41065188  0.19599419  1
  Se  Se232  1  0.60247576  0.39893513  0.69583035  1
  Se  Se233  1  0.59342347  0.74025251  0.19892965  1
  Se  Se234  1  0.57944822  0.75398749  0.70096237  1
  Se  Se235  1  0.90097645  0.09362919  0.19307799  1
  Se  Se236  1  0.90795474  0.08852883  0.69102923  1
  Se  Se237  1  0.90969444  0.42098998  0.19522162  1
  Se  Se238  1  0.91915422  0.41574732  0.69744789  1
  Se  Se239  1  0.92298367  0.74773728  0.19533047  1
  Se  Se240  1  0.90210671  0.76055187  0.69341770  1
  Se  Se241  1  0.08105781  0.25106454  0.19398340  1
  Se  Se242  1  0.08385631  0.24750436  0.69712988  1
  Se  Se243  1  0.08677619  0.58650244  0.20483176  1
  Se  Se244  1  0.09436575  0.56936758  0.69103458  1
  Se  Se245  1  0.09207290  0.91253822  0.18577336  1
  Se  Se246  1  0.08176475  0.91094462  0.69313062  1
  Se  Se247  1  0.42191472  0.24027450  0.18749394  1
  Se  Se248  1  0.41843045  0.24849468  0.70202020  1
  Se  Se249  1  0.42091495  0.57319078  0.18650268  1
  Se  Se250  1  0.42036252  0.57895544  0.68606433  1
  Se  Se251  1  0.42769622  0.90643381  0.18865801  1
  Se  Se252  1  0.41193547  0.91868765  0.70390418  1
  Se  Se253  1  0.75321818  0.25160790  0.20228476  1
  Se  Se254  1  0.75261513  0.25037839  0.69608874  1
  Se  Se255  1  0.74410990  0.58528961  0.19790228  1
  Se  Se256  1  0.75072390  0.58643418  0.69804078  1
  Se  Se257  1  0.75408701  0.91298393  0.19585451  1
  Se  Se258  1  0.74094177  0.92129869  0.69625292  1
