# generated using pymatgen
data_In86Cu29Se144
_symmetry_space_group_name_H-M   'P 1'
_cell_length_a   17.57780585
_cell_length_b   17.57978870
_cell_length_c   23.43840777
_cell_angle_alpha   90.01398353
_cell_angle_beta   89.96570171
_cell_angle_gamma   89.99221486
_symmetry_Int_Tables_number   1
_chemical_formula_structural   In86Cu29Se144
_chemical_formula_sum   'In86 Cu29 Se144'
_cell_volume   7242.79720068
_cell_formula_units_Z   1
loop_
 _symmetry_equiv_pos_site_id
 _symmetry_equiv_pos_as_xyz
  1  'x, y, z'
loop_
 _atom_site_type_symbol
 _atom_site_label
 _atom_site_symmetry_multiplicity
 _atom_site_fract_x
 _atom_site_fract_y
 _atom_site_fract_z
 _atom_site_occupancy
  In  In0  1  -0.00978556  0.16665979  0.14561297  1
  In  In1  1  -0.00294223  0.18304876  0.60395999  1
  In  In2  1  -0.00278399  0.49030568  0.12581440  1
  In  In3  1  -0.00321629  0.49775141  0.62022684  1
  In  In4  1  0.02235764  0.82665763  0.12749029  1
  In  In5  1  -0.01132322  0.82036572  0.61737959  1
  In  In6  1  0.33823037  0.16065049  0.13285429  1
  In  In7  1  0.32858521  0.17974035  0.61928966  1
  In  In8  1  0.32030255  0.51818108  0.14226886  1
  In  In9  1  0.32122564  0.49971726  0.61707150  1
  In  In10  1  0.33081085  0.83202158  0.12609356  1
  In  In11  1  0.32860492  0.83793938  0.62095561  1
  In  In12  1  0.66738323  0.18441701  0.12618360  1
  In  In13  1  0.67269590  0.16102167  0.62554800  1
  In  In14  1  0.67069994  0.49760913  0.13455926  1
  In  In15  1  0.70916584  0.47838481  0.65278377  1
  In  In16  1  0.65442085  0.83218032  0.11857546  1
  In  In17  1  0.68358877  0.82151705  0.64022670  1
  In  In18  1  0.16273944  0.00340924  0.37321730  1
  In  In19  1  0.15393258  -0.01100956  0.87493150  1
  In  In20  1  0.15701640  0.33041772  0.37543306  1
  In  In21  1  0.16746699  0.34461693  0.87613014  1
  In  In22  1  0.17156482  0.65714446  0.37438154  1
  In  In23  1  0.16173384  0.66278240  0.88224836  1
  In  In24  1  0.49259649  0.00860740  0.37334012  1
  In  In25  1  0.50662231  -0.00476982  0.88512689  1
  In  In26  1  0.50601967  0.33937274  0.36820983  1
  In  In27  1  0.50431316  0.32543426  0.87944788  1
  In  In28  1  0.49749924  0.66442954  0.36570606  1
  In  In29  1  0.51412559  0.67436608  0.88411735  1
  In  In30  1  0.84118920  -0.00852512  0.37963528  1
  In  In31  1  0.83149077  0.01399104  0.87235427  1
  In  In32  1  0.83871406  0.33782465  0.38532759  1
  In  In33  1  0.84310344  0.34591481  0.85789830  1
  In  In34  1  0.83239159  0.66818765  0.37809565  1
  In  In35  1  0.83615905  0.66352215  0.86602506  1
  In  In36  1  0.00043762  0.17634155  0.37940882  1
  In  In37  1  -0.01014155  0.16721691  0.87238330  1
  In  In38  1  0.01032423  0.47291474  0.39937595  1
  In  In39  1  0.00987701  0.51082234  0.85317966  1
  In  In40  1  -0.00617406  0.84230602  0.38011658  1
  In  In41  1  0.01851473  0.82501055  0.88150816  1
  In  In42  1  0.32401926  0.15631247  0.36379901  1
  In  In43  1  0.33834796  0.18545000  0.88130864  1
  In  In44  1  0.30503968  0.47902831  0.34355701  1
  In  In45  1  0.31970301  0.49223020  0.88007043  1
  In  In46  1  0.32048843  0.82122648  0.36310565  1
  In  In47  1  0.32955992  0.83375844  0.88717118  1
  In  In48  1  0.68139133  0.18359648  0.37795196  1
  In  In49  1  0.66889495  0.16711075  0.87009897  1
  In  In50  1  0.67046322  0.49981355  0.37840088  1
  In  In51  1  0.67777273  0.50944718  0.86098792  1
  In  In52  1  0.67982391  0.82497012  0.37719291  1
  In  In53  1  0.65895758  0.82651692  0.87314033  1
  In  In54  1  0.17591759  -0.00561221  0.13724017  1
  In  In55  1  0.15203558  -0.00612305  0.61347493  1
  In  In56  1  0.15805440  0.34616586  0.14003753  1
  In  In57  1  0.14389667  0.32002405  0.59551870  1
  In  In58  1  0.16476473  0.67315568  0.11830884  1
  In  In59  1  0.14301550  0.64415791  0.60723903  1
  In  In60  1  0.48612903  -0.00706528  0.11724375  1
  In  In61  1  0.50878936  0.01186467  0.62510886  1
  In  In62  1  0.50740390  0.32997979  0.12869629  1
  In  In63  1  0.51012433  0.34793725  0.62177016  1
  In  In64  1  0.50152191  0.67101730  0.12553578  1
  In  In65  1  0.50759917  0.67599261  0.62589538  1
  In  In66  1  0.83840955  0.01038429  0.13506546  1
  In  In67  1  0.83091331  -0.00846632  0.62027698  1
  In  In68  1  0.82913842  0.33046067  0.14418002  1
  In  In69  1  0.83606442  0.33650445  0.61372621  1
  In  In70  1  0.83405219  0.65089658  0.12807941  1
  In  In71  1  0.83302287  0.66943906  0.62732896  1
  In  In72  1  0.83271126  0.83163148  -0.00238190  1
  In  In73  1  0.83036770  0.17113191  -0.00032542  1
  In  In74  1  -0.00742793  -0.00051038  0.74609755  1
  In  In75  1  0.33602521  0.66721651  0.74791026  1
  In  In76  1  -0.00115539  0.65918256  0.25307689  1
  In  In77  1  0.50196293  0.50874696  0.49280204  1
  In  In78  1  0.17448725  0.15679751  0.00763475  1
  In  In79  1  0.33781402  0.00264965  0.75151963  1
  In  In80  1  0.49895071  0.83304544  0.50059906  1
  In  In81  1  0.49799083  0.16670045  0.50178617  1
  In  In82  1  0.84220409  0.49980682  -0.00927391  1
  In  In83  1  0.33616931  0.33606758  0.75048098  1
  In  In84  1  0.65966008  -0.00259994  0.25143375  1
  In  In85  1  0.49970434  0.50109277  0.00415228  1
  Cu  Cu86  1  0.51024688  0.84000453  0.75850689  1
  Cu  Cu87  1  0.33194575  0.66758266  0.00802610  1
  Cu  Cu88  1  0.83686409  0.83622640  0.74936465  1
  Cu  Cu89  1  0.33160378  0.00030143  0.00634398  1
  Cu  Cu90  1  0.15832128  0.49200980  0.74236496  1
  Cu  Cu91  1  -0.00490404  0.67441445  0.49686008  1
  Cu  Cu92  1  0.49952044  0.83319748  0.24350642  1
  Cu  Cu93  1  0.00503716  0.00501548  0.49727400  1
  Cu  Cu94  1  0.33340008  0.33757025  0.01011060  1
  Cu  Cu95  1  0.67239645  0.66554298  0.50979404  1
  Cu  Cu96  1  0.50661777  0.50502144  0.74952294  1
  Cu  Cu97  1  0.51161805  0.49707048  0.24864530  1
  Cu  Cu98  1  0.83274462  0.49626104  0.26124372  1
  Cu  Cu99  1  0.16405311  0.83911015  0.24956564  1
  Cu  Cu100  1  0.31903571  -0.00520438  0.49335619  1
  Cu  Cu101  1  0.16284130  0.81666330  0.74915129  1
  Cu  Cu102  1  0.00806468  0.32533237  0.00629044  1
  Cu  Cu103  1  0.32833691  0.33539606  0.48441831  1
  Cu  Cu104  1  0.00753511  -0.00848449  0.01130193  1
  Cu  Cu105  1  0.83636273  0.17739190  0.74211994  1
  Cu  Cu106  1  0.67216266  0.34048448  0.00144822  1
  Cu  Cu107  1  0.15885836  0.17123945  0.73383158  1
  Cu  Cu108  1  0.83088816  0.82834182  0.25386538  1
  Cu  Cu109  1  0.51175574  0.16721767  0.75173208  1
  Cu  Cu110  1  0.66895047  -0.00617563  0.49948549  1
  Cu  Cu111  1  0.65868509  0.00657542  -0.00104396  1
  Cu  Cu112  1  0.16016796  0.17320476  0.25397374  1
  Cu  Cu113  1  0.32615443  0.66156699  0.48628951  1
  Cu  Cu114  1  0.50120259  0.16561001  0.25115998  1
  Se  Se115  1  0.07591815  0.08188262  0.07098395  1
  Se  Se116  1  0.08805955  0.09240828  0.54741532  1
  Se  Se117  1  0.08647399  0.41429041  0.05700169  1
  Se  Se118  1  0.09146215  0.43746790  0.54617424  1
  Se  Se119  1  0.07489088  0.74294018  0.04796966  1
  Se  Se120  1  0.08554417  0.75546792  0.54863896  1
  Se  Se121  1  0.41406764  0.09069657  0.05235833  1
  Se  Se122  1  0.40245779  0.07086004  0.55651002  1
  Se  Se123  1  0.41148312  0.41932766  0.06967526  1
  Se  Se124  1  0.40815507  0.40911171  0.55074712  1
  Se  Se125  1  0.41702978  0.75168818  0.05716958  1
  Se  Se126  1  0.40411023  0.73558770  0.55351635  1
  Se  Se127  1  0.74287681  0.07791476  0.06070133  1
  Se  Se128  1  0.74966039  0.07878996  0.55341591  1
  Se  Se129  1  0.75635590  0.41278422  0.06180638  1
  Se  Se130  1  0.75099496  0.43170986  0.55471775  1
  Se  Se131  1  0.74871651  0.74067547  0.06048269  1
  Se  Se132  1  0.75333278  0.75823910  0.55617997  1
  Se  Se133  1  0.25100354  0.25610282  0.06798189  1
  Se  Se134  1  0.25199920  0.24812900  0.54156074  1
  Se  Se135  1  0.24994736  0.57994445  0.05711132  1
  Se  Se136  1  0.24646710  0.57838801  0.54403302  1
  Se  Se137  1  0.24666617  0.91876415  0.05820220  1
  Se  Se138  1  0.24212109  0.91053299  0.55050782  1
  Se  Se139  1  0.58658996  0.25597640  0.05065837  1
  Se  Se140  1  0.59094742  0.25666833  0.55686432  1
  Se  Se141  1  0.59625241  0.58593479  0.06050221  1
  Se  Se142  1  0.58949299  0.58311280  0.56435854  1
  Se  Se143  1  0.57874531  0.91872926  0.04999875  1
  Se  Se144  1  0.59049812  0.91674634  0.56299464  1
  Se  Se145  1  0.92058906  0.25396246  0.06532212  1
  Se  Se146  1  0.89480392  0.24340354  0.53754064  1
  Se  Se147  1  0.92914225  0.58861037  0.05453783  1
  Se  Se148  1  0.91762163  0.59262156  0.55637280  1
  Se  Se149  1  0.91770685  0.91798540  0.06618531  1
  Se  Se150  1  0.92284153  0.92015466  0.55222584  1
  Se  Se151  1  0.07869570  0.25830802  0.45183447  1
  Se  Se152  1  0.08262069  0.24345219  0.94262601  1
  Se  Se153  1  0.07876886  0.59025470  0.44519358  1
  Se  Se154  1  0.08924345  0.55849481  0.93768221  1
  Se  Se155  1  0.08639787  0.91819577  0.44560093  1
  Se  Se156  1  0.09018300  0.91102632  0.95517364  1
  Se  Se157  1  0.41372839  0.25086762  0.43267294  1
  Se  Se158  1  0.41881864  0.25808957  0.95554399  1
  Se  Se159  1  0.40467702  0.57965578  0.42778954  1
  Se  Se160  1  0.40745751  0.59021408  0.94041972  1
  Se  Se161  1  0.40706246  0.91771204  0.43791688  1
  Se  Se162  1  0.41554780  0.91787360  0.95080635  1
  Se  Se163  1  0.76580834  0.24307068  0.45559850  1
  Se  Se164  1  0.75224015  0.26543981  0.93633596  1
  Se  Se165  1  0.74839804  0.58636789  0.44758710  1
  Se  Se166  1  0.74354164  0.59202733  0.94175003  1
  Se  Se167  1  0.75357515  0.90993161  0.44765699  1
  Se  Se168  1  0.74613736  0.93048181  0.94104149  1
  Se  Se169  1  0.24577711  0.08863685  0.44293452  1
  Se  Se170  1  0.25757409  0.07335922  0.93402769  1
  Se  Se171  1  0.24756817  0.42350432  0.43592675  1
  Se  Se172  1  0.24578458  0.41332371  0.95490152  1
  Se  Se173  1  0.24303817  0.75378991  0.44256623  1
  Se  Se174  1  0.24617373  0.74553005  0.94951152  1
  Se  Se175  1  0.59185523  0.07734158  0.44066804  1
  Se  Se176  1  0.58366924  0.09583220  0.94404423  1
  Se  Se177  1  0.59095857  0.40462129  0.44704899  1
  Se  Se178  1  0.59416722  0.42035760  0.93914931  1
  Se  Se179  1  0.58782064  0.73787658  0.44463839  1
  Se  Se180  1  0.58459208  0.76136337  0.95425335  1
  Se  Se181  1  0.91855583  0.08325409  0.44399792  1
  Se  Se182  1  0.92869754  0.07263421  0.95012197  1
  Se  Se183  1  0.88947216  0.44104377  0.45666429  1
  Se  Se184  1  0.93054999  0.40100743  0.94010898  1
  Se  Se185  1  0.90964401  0.75721427  0.44588240  1
  Se  Se186  1  0.92302817  0.73894326  0.94099839  1
  Se  Se187  1  0.24781244  0.25524629  0.30509649  1
  Se  Se188  1  0.24030437  0.24105869  0.80398492  1
  Se  Se189  1  0.25936789  0.60251484  0.29605216  1
  Se  Se190  1  0.24375947  0.57155573  0.80197891  1
  Se  Se191  1  0.24855956  0.92256836  0.30280230  1
  Se  Se192  1  0.24253641  0.90409000  0.80519562  1
  Se  Se193  1  0.58547659  0.24443094  0.30639903  1
  Se  Se194  1  0.58823020  0.25723298  0.80411333  1
  Se  Se195  1  0.58950771  0.58113964  0.30599676  1
  Se  Se196  1  0.57964329  0.59324259  0.80596489  1
  Se  Se197  1  0.57419078  0.90404059  0.31478737  1
  Se  Se198  1  0.59056924  0.92781692  0.80880083  1
  Se  Se199  1  0.92371884  0.26562185  0.31241232  1
  Se  Se200  1  0.92540498  0.25153677  0.79753153  1
  Se  Se201  1  0.91900880  0.57081489  0.32007109  1
  Se  Se202  1  0.89171192  0.55862817  0.80123355  1
  Se  Se203  1  0.91518074  0.91370954  0.30217093  1
  Se  Se204  1  0.91643416  0.90917363  0.81791704  1
  Se  Se205  1  0.07836753  0.08880802  0.30792730  1
  Se  Se206  1  0.09026018  0.09048994  0.80335079  1
  Se  Se207  1  0.08475152  0.42859213  0.31161390  1
  Se  Se208  1  0.08246548  0.40325465  0.79781335  1
  Se  Se209  1  0.08430282  0.75708369  0.31071002  1
  Se  Se210  1  0.08118210  0.73724380  0.80532102  1
  Se  Se211  1  0.41482487  0.07807924  0.29658139  1
  Se  Se212  1  0.42286344  0.09579281  0.81300218  1
  Se  Se213  1  0.42274952  0.41423572  0.29643684  1
  Se  Se214  1  0.42534336  0.42763238  0.81195018  1
  Se  Se215  1  0.41668661  0.74966707  0.29869143  1
  Se  Se216  1  0.41989123  0.76059134  0.81195022  1
  Se  Se217  1  0.75056433  0.07932119  0.31432452  1
  Se  Se218  1  0.75674860  0.09248685  0.79868318  1
  Se  Se219  1  0.74828761  0.41052140  0.31156009  1
  Se  Se220  1  0.73909251  0.40847641  0.79760272  1
  Se  Se221  1  0.74868438  0.74152058  0.30205205  1
  Se  Se222  1  0.75294210  0.75611314  0.80604854  1
  Se  Se223  1  0.24649714  0.08986731  0.20232655  1
  Se  Se224  1  0.24505388  0.08546150  0.68473190  1
  Se  Se225  1  0.26058835  0.41116023  0.20243168  1
  Se  Se226  1  0.24185687  0.41119321  0.68485583  1
  Se  Se227  1  0.24132820  0.75264781  0.19308386  1
  Se  Se228  1  0.24297548  0.74575301  0.68296369  1
  Se  Se229  1  0.57611646  0.08550669  0.18524946  1
  Se  Se230  1  0.59139069  0.08052269  0.69939142  1
  Se  Se231  1  0.59309888  0.40717556  0.19922171  1
  Se  Se232  1  0.58670589  0.41650025  0.69945223  1
  Se  Se233  1  0.58837647  0.75053875  0.19570303  1
  Se  Se234  1  0.58322179  0.75101169  0.70266897  1
  Se  Se235  1  0.91178678  0.08049527  0.21206763  1
  Se  Se236  1  0.91598535  0.09362780  0.68204761  1
  Se  Se237  1  0.91671348  0.42011129  0.20217968  1
  Se  Se238  1  0.91260577  0.41657994  0.68744395  1
  Se  Se239  1  0.91313212  0.75355633  0.18928440  1
  Se  Se240  1  0.91911907  0.75012953  0.69881104  1
  Se  Se241  1  0.07485102  0.25823613  0.20461510  1
  Se  Se242  1  0.07675132  0.25466794  0.68176327  1
  Se  Se243  1  0.08943367  0.57753465  0.18901686  1
  Se  Se244  1  0.07742320  0.58265249  0.69368223  1
  Se  Se245  1  0.07611393  0.92277920  0.20076384  1
  Se  Se246  1  0.08624023  0.90575776  0.69132930  1
  Se  Se247  1  0.42018454  0.25046896  0.19675733  1
  Se  Se248  1  0.42925129  0.24489432  0.68936590  1
  Se  Se249  1  0.42905658  0.58465767  0.19754250  1
  Se  Se250  1  0.42226732  0.57287204  0.68567657  1
  Se  Se251  1  0.41377835  0.91756168  0.19493968  1
  Se  Se252  1  0.42836241  0.90948320  0.69098377  1
  Se  Se253  1  0.75624448  0.23282672  0.20426566  1
  Se  Se254  1  0.75131363  0.25524319  0.68694656  1
  Se  Se255  1  0.75412223  0.57970607  0.20345433  1
  Se  Se256  1  0.72597163  0.61269452  0.69206933  1
  Se  Se257  1  0.75184443  0.90717429  0.19015213  1
  Se  Se258  1  0.75384004  0.92445735  0.70150862  1
