# generated using pymatgen
data_In86Cu29Se144
_symmetry_space_group_name_H-M   'P 1'
_cell_length_a   17.58546236
_cell_length_b   17.58713915
_cell_length_c   23.45099217
_cell_angle_alpha   89.99460286
_cell_angle_beta   89.99387974
_cell_angle_gamma   89.99932641
_symmetry_Int_Tables_number   1
_chemical_formula_structural   In86Cu29Se144
_chemical_formula_sum   'In86 Cu29 Se144'
_cell_volume   7252.87526023
_cell_formula_units_Z   1
loop_
 _symmetry_equiv_pos_site_id
 _symmetry_equiv_pos_as_xyz
  1  'x, y, z'
loop_
 _atom_site_type_symbol
 _atom_site_label
 _atom_site_symmetry_multiplicity
 _atom_site_fract_x
 _atom_site_fract_y
 _atom_site_fract_z
 _atom_site_occupancy
  In  In0  1  0.01254892  0.14878812  0.13750803  1
  In  In1  1  0.01690277  0.16563550  0.62346868  1
  In  In2  1  0.01225886  0.48950591  0.13691664  1
  In  In3  1  0.00262191  0.49614578  0.62188031  1
  In  In4  1  -0.00133282  0.83755469  0.12759107  1
  In  In5  1  -0.01437328  0.83366568  0.62326811  1
  In  In6  1  0.32146405  0.17467449  0.13102128  1
  In  In7  1  0.32007076  0.16980043  0.62651994  1
  In  In8  1  0.32457254  0.50731104  0.13224699  1
  In  In9  1  0.33678346  0.50817936  0.61571811  1
  In  In10  1  0.33639726  0.83119880  0.13024961  1
  In  In11  1  0.33856874  0.82152935  0.63309962  1
  In  In12  1  0.66461793  0.17353988  0.12384731  1
  In  In13  1  0.65557809  0.16061031  0.62726128  1
  In  In14  1  0.67828065  0.50718706  0.13159620  1
  In  In15  1  0.67063326  0.50795643  0.61499545  1
  In  In16  1  0.65983751  0.82331664  0.11718055  1
  In  In17  1  0.67083068  0.83396577  0.62096091  1
  In  In18  1  0.17410184  0.00771071  0.37082929  1
  In  In19  1  0.20375977  -0.00279389  0.88188595  1
  In  In20  1  0.16685730  0.33842373  0.37439971  1
  In  In21  1  0.16030094  0.34879116  0.89055163  1
  In  In22  1  0.15412172  0.65866428  0.36849745  1
  In  In23  1  0.15955872  0.66324771  0.86657430  1
  In  In24  1  0.48405568  -0.00234334  0.37513912  1
  In  In25  1  0.48767930  -0.01321242  0.87182540  1
  In  In26  1  0.49554224  0.35786104  0.36847047  1
  In  In27  1  0.49436473  0.32872155  0.87476615  1
  In  In28  1  0.50119384  0.66584821  0.37175752  1
  In  In29  1  0.50606304  0.68066619  0.87499889  1
  In  In30  1  0.83258804  -0.01101136  0.37427913  1
  In  In31  1  0.82088903  0.00438288  0.87178426  1
  In  In32  1  0.85485498  0.33973609  0.37023475  1
  In  In33  1  0.84919591  0.32733659  0.86811805  1
  In  In34  1  0.83386346  0.66819569  0.37844261  1
  In  In35  1  0.85350111  0.66698889  0.87322161  1
  In  In36  1  0.01417790  0.18312272  0.36395211  1
  In  In37  1  0.00416363  0.17928376  0.86999822  1
  In  In38  1  0.00247911  0.50231983  0.37913585  1
  In  In39  1  0.01052553  0.51240081  0.86408648  1
  In  In40  1  -0.00799740  0.82450429  0.37008909  1
  In  In41  1  0.00862035  0.81552466  0.87608412  1
  In  In42  1  0.32023483  0.16222759  0.36821433  1
  In  In43  1  0.32796253  0.15461580  0.88287623  1
  In  In44  1  0.33064318  0.50244763  0.36882641  1
  In  In45  1  0.31591178  0.49848685  0.87683743  1
  In  In46  1  0.33984529  0.84063375  0.36981138  1
  In  In47  1  0.34080535  0.84099685  0.86853040  1
  In  In48  1  0.66869579  0.16215281  0.37484194  1
  In  In49  1  0.68610813  0.15233152  0.86885216  1
  In  In50  1  0.65199571  0.52266116  0.38419387  1
  In  In51  1  0.66809701  0.49109895  0.87337828  1
  In  In52  1  0.67585171  0.81956099  0.38388147  1
  In  In53  1  0.65680978  0.84358463  0.88233916  1
  In  In54  1  0.16370024  0.00460980  0.12774931  1
  In  In55  1  0.16491780  0.01114702  0.62626214  1
  In  In56  1  0.16670428  0.32968963  0.12047616  1
  In  In57  1  0.15918099  0.32665197  0.61880780  1
  In  In58  1  0.17620180  0.65752427  0.13471718  1
  In  In59  1  0.18033599  0.66160661  0.63324459  1
  In  In60  1  0.50171789  -0.01473937  0.12558132  1
  In  In61  1  0.50480408  -0.01226991  0.63011445  1
  In  In62  1  0.48800240  0.33555209  0.13470993  1
  In  In63  1  0.48812747  0.33845411  0.61980411  1
  In  In64  1  0.48200133  0.67620134  0.14227694  1
  In  In65  1  0.48918124  0.66298793  0.61683225  1
  In  In66  1  0.85140868  -0.00388119  0.12348015  1
  In  In67  1  0.83446238  -0.01545518  0.62471505  1
  In  In68  1  0.83764769  0.34521990  0.12910871  1
  In  In69  1  0.83757388  0.34766033  0.62483647  1
  In  In70  1  0.82937221  0.67327523  0.13068785  1
  In  In71  1  0.83886660  0.66585305  0.62198450  1
  In  In72  1  0.67013555  -0.00352417  0.25315093  1
  In  In73  1  0.67535309  0.33052586  0.74811591  1
  In  In74  1  0.16907662  0.83144923  -0.00124254  1
  In  In75  1  0.83449544  0.50708336  0.00020763  1
  In  In76  1  0.32967791  0.33210676  0.75255991  1
  In  In77  1  0.83584125  0.16745771  -0.00095782  1
  In  In78  1  0.48727811  0.15814795  -0.00621714  1
  In  In79  1  0.67196431  0.33636479  0.25347427  1
  In  In80  1  0.16711517  0.82997946  0.50093069  1
  In  In81  1  0.67302199  0.66905370  0.74176047  1
  In  In82  1  0.49252967  0.17097141  0.49682369  1
  In  In83  1  0.00076946  -0.00240227  0.75049276  1
  In  In84  1  0.83725891  0.16650609  0.49339869  1
  In  In85  1  0.48879261  0.51338982  0.01800174  1
  Cu  Cu86  1  0.65490458  0.33261240  -0.00336221  1
  Cu  Cu87  1  0.50166881  0.82944945  0.25103209  1
  Cu  Cu88  1  0.66895149  0.34503032  0.49601988  1
  Cu  Cu89  1  0.49243792  0.16539968  0.25166180  1
  Cu  Cu90  1  0.32808872  0.34109989  0.49577185  1
  Cu  Cu91  1  0.16887236  0.16406620  0.75245667  1
  Cu  Cu92  1  0.66708558  -0.00622588  -0.00192278  1
  Cu  Cu93  1  0.16118404  0.49823186  0.25211113  1
  Cu  Cu94  1  -0.00057688  0.66459610  0.49761232  1
  Cu  Cu95  1  0.83741166  0.50735912  0.25689864  1
  Cu  Cu96  1  0.66407825  0.66882037  0.50071333  1
  Cu  Cu97  1  0.16324504  0.49700356  0.74869237  1
  Cu  Cu98  1  0.50095473  0.15444745  0.75386866  1
  Cu  Cu99  1  0.83637029  0.83213701  0.25102841  1
  Cu  Cu100  1  0.00072860  0.33669599  0.00300830  1
  Cu  Cu101  1  0.49457289  0.83621555  0.75202882  1
  Cu  Cu102  1  0.00715347  0.33643272  0.49570852  1
  Cu  Cu103  1  0.83017668  0.82961966  0.74863602  1
  Cu  Cu104  1  0.00598510  0.65975514  -0.00096334  1
  Cu  Cu105  1  0.66960107  0.67702008  0.00211737  1
  Cu  Cu106  1  0.33284260  -0.00180008  0.49722745  1
  Cu  Cu107  1  0.00339819  0.00062112  0.50088342  1
  Cu  Cu108  1  0.49872750  0.50690028  0.74096957  1
  Cu  Cu109  1  0.33343507  0.66508045  0.49468593  1
  Cu  Cu110  1  0.66573218  -0.01077286  0.50290739  1
  Cu  Cu111  1  0.16286755  0.17127787  0.24853622  1
  Cu  Cu112  1  0.33369146  0.66903901  0.00544934  1
  Cu  Cu113  1  0.16712606  0.83653691  0.24932302  1
  Cu  Cu114  1  0.00465800  -0.00285785  0.00185792  1
  Se  Se115  1  0.08294253  0.08380614  0.05430157  1
  Se  Se116  1  0.08989175  0.08510428  0.54819819  1
  Se  Se117  1  0.08353822  0.42145989  0.05530026  1
  Se  Se118  1  0.08997317  0.41961605  0.55021876  1
  Se  Se119  1  0.08362469  0.74083665  0.06190487  1
  Se  Se120  1  0.07741309  0.74240102  0.56197582  1
  Se  Se121  1  0.41100196  0.07811834  0.06736852  1
  Se  Se122  1  0.41150889  0.07898154  0.56128624  1
  Se  Se123  1  0.40199687  0.40826946  0.06136280  1
  Se  Se124  1  0.41662584  0.42115482  0.54723502  1
  Se  Se125  1  0.41845239  0.74944623  0.05895978  1
  Se  Se126  1  0.40986474  0.75252343  0.55082099  1
  Se  Se127  1  0.74278231  0.07645273  0.05921004  1
  Se  Se128  1  0.74450758  0.07868861  0.55658431  1
  Se  Se129  1  0.73952366  0.41014945  0.05463790  1
  Se  Se130  1  0.75524410  0.42094289  0.55132858  1
  Se  Se131  1  0.76059496  0.75445956  0.05302852  1
  Se  Se132  1  0.75163789  0.74726955  0.55530808  1
  Se  Se133  1  0.23874863  0.23654205  0.05282708  1
  Se  Se134  1  0.25266289  0.25215015  0.55083877  1
  Se  Se135  1  0.24903847  0.58416882  0.05518518  1
  Se  Se136  1  0.24663919  0.58781980  0.55069485  1
  Se  Se137  1  0.25486384  0.92026321  0.06112383  1
  Se  Se138  1  0.25478232  0.92085705  0.56183650  1
  Se  Se139  1  0.57574348  0.25517281  0.05687520  1
  Se  Se140  1  0.59037584  0.26035656  0.55470709  1
  Se  Se141  1  0.59503662  0.59683567  0.06547310  1
  Se  Se142  1  0.57806030  0.58331097  0.55090311  1
  Se  Se143  1  0.58125133  0.91312317  0.05058513  1
  Se  Se144  1  0.57796491  0.90959525  0.55397140  1
  Se  Se145  1  0.92085662  0.25654832  0.06256085  1
  Se  Se146  1  0.92674294  0.25300648  0.55609678  1
  Se  Se147  1  0.92618061  0.58597292  0.06527040  1
  Se  Se148  1  0.91824611  0.58037204  0.55345781  1
  Se  Se149  1  0.92034848  0.91109129  0.04951427  1
  Se  Se150  1  0.91542692  0.91660359  0.54760749  1
  Se  Se151  1  0.08901243  0.24934567  0.44482891  1
  Se  Se152  1  0.07944160  0.25028820  0.94816846  1
  Se  Se153  1  0.08773781  0.58286863  0.44911203  1
  Se  Se154  1  0.08855713  0.58001250  0.94325233  1
  Se  Se155  1  0.08105541  0.91974047  0.43769123  1
  Se  Se156  1  0.08270863  0.92295236  0.93593728  1
  Se  Se157  1  0.40860654  0.26066966  0.43371877  1
  Se  Se158  1  0.40098809  0.26236326  0.94515912  1
  Se  Se159  1  0.41546095  0.58264364  0.43953161  1
  Se  Se160  1  0.41309035  0.59137956  0.93978068  1
  Se  Se161  1  0.41696170  0.91201417  0.44960041  1
  Se  Se162  1  0.40762508  0.91822059  0.94702782  1
  Se  Se163  1  0.74527090  0.26160599  0.43720814  1
  Se  Se164  1  0.74265958  0.25955500  0.93876571  1
  Se  Se165  1  0.75239948  0.58602593  0.44984680  1
  Se  Se166  1  0.74092163  0.59328292  0.93823648  1
  Se  Se167  1  0.75367893  0.91334579  0.44813965  1
  Se  Se168  1  0.75603691  0.91559703  0.94587387  1
  Se  Se169  1  0.25063004  0.08450356  0.44735688  1
  Se  Se170  1  0.24274319  0.09237479  0.95972029  1
  Se  Se171  1  0.24676862  0.42530426  0.44227414  1
  Se  Se172  1  0.25495184  0.41949298  0.95520029  1
  Se  Se173  1  0.25278038  0.74491486  0.43430245  1
  Se  Se174  1  0.25600428  0.74109790  0.93725582  1
  Se  Se175  1  0.58762984  0.07328058  0.44362355  1
  Se  Se176  1  0.59085946  0.07731592  0.93734557  1
  Se  Se177  1  0.57844349  0.42246189  0.44580096  1
  Se  Se178  1  0.57412786  0.42071592  0.94562139  1
  Se  Se179  1  0.57764190  0.74886502  0.44691971  1
  Se  Se180  1  0.57962170  0.75568409  0.95156894  1
  Se  Se181  1  0.92847574  0.07910783  0.43426638  1
  Se  Se182  1  0.92457904  0.07666255  0.93856725  1
  Se  Se183  1  0.91810323  0.41972505  0.44943147  1
  Se  Se184  1  0.92348275  0.41621534  0.94030813  1
  Se  Se185  1  0.91652875  0.75256970  0.44844503  1
  Se  Se186  1  0.92185856  0.74684832  0.95068138  1
  Se  Se187  1  0.24645510  0.25463561  0.30232170  1
  Se  Se188  1  0.24223409  0.24686453  0.81623231  1
  Se  Se189  1  0.24577663  0.58626491  0.30038405  1
  Se  Se190  1  0.24904415  0.57983870  0.80090443  1
  Se  Se191  1  0.25168542  0.91951281  0.30279316  1
  Se  Se192  1  0.23610256  0.90150294  0.80470164  1
  Se  Se193  1  0.57515472  0.24383851  0.31080770  1
  Se  Se194  1  0.58077599  0.24083157  0.80980974  1
  Se  Se195  1  0.58731656  0.58942363  0.30126392  1
  Se  Se196  1  0.58170966  0.57810915  0.80559830  1
  Se  Se197  1  0.58009906  0.90916037  0.31446183  1
  Se  Se198  1  0.58285841  0.91696765  0.80393308  1
  Se  Se199  1  0.91341125  0.24686723  0.29941546  1
  Se  Se200  1  0.90654266  0.23157737  0.79877990  1
  Se  Se201  1  0.92200704  0.58926019  0.31051495  1
  Se  Se202  1  0.91253587  0.57891045  0.79946870  1
  Se  Se203  1  0.91877371  0.91789050  0.30191612  1
  Se  Se204  1  0.91145835  0.90650092  0.81211641  1
  Se  Se205  1  0.08385186  0.08163587  0.30205802  1
  Se  Se206  1  0.09335214  0.08054485  0.81432186  1
  Se  Se207  1  0.07753262  0.41632806  0.30667347  1
  Se  Se208  1  0.08723887  0.41052116  0.80607339  1
  Se  Se209  1  0.08252568  0.75247558  0.30107063  1
  Se  Se210  1  0.07613995  0.74268313  0.79738530  1
  Se  Se211  1  0.41039154  0.08012311  0.30350476  1
  Se  Se212  1  0.41066925  0.08246409  0.80854360  1
  Se  Se213  1  0.40739812  0.41915185  0.29583121  1
  Se  Se214  1  0.42415668  0.42735949  0.80665748  1
  Se  Se215  1  0.41479520  0.74851914  0.30336331  1
  Se  Se216  1  0.41662262  0.74591460  0.80301883  1
  Se  Se217  1  0.76217447  0.09187545  0.30618591  1
  Se  Se218  1  0.75631916  0.07955430  0.79103423  1
  Se  Se219  1  0.75365586  0.42865888  0.31689814  1
  Se  Se220  1  0.76528369  0.42481321  0.80520254  1
  Se  Se221  1  0.75265367  0.75013126  0.30554563  1
  Se  Se222  1  0.75065285  0.75441086  0.81414883  1
  Se  Se223  1  0.24698195  0.08340075  0.19904825  1
  Se  Se224  1  0.25253938  0.08159228  0.69959779  1
  Se  Se225  1  0.24059146  0.41652028  0.19357173  1
  Se  Se226  1  0.24686426  0.42009000  0.68660369  1
  Se  Se227  1  0.25261298  0.75091697  0.19916748  1
  Se  Se228  1  0.24443310  0.75707082  0.70161390  1
  Se  Se229  1  0.57780724  0.08977912  0.19285702  1
  Se  Se230  1  0.58458053  0.07502537  0.69858851  1
  Se  Se231  1  0.58123195  0.42419178  0.19338981  1
  Se  Se232  1  0.57984669  0.42026917  0.68785797  1
  Se  Se233  1  0.58827561  0.75051251  0.19684994  1
  Se  Se234  1  0.57264543  0.75492814  0.68928206  1
  Se  Se235  1  0.90839976  0.08477983  0.19777644  1
  Se  Se236  1  0.91599286  0.08456309  0.68379523  1
  Se  Se237  1  0.91586921  0.41890596  0.20381827  1
  Se  Se238  1  0.93524876  0.40354204  0.69327107  1
  Se  Se239  1  0.92067237  0.75032549  0.19657561  1
  Se  Se240  1  0.91445306  0.74786274  0.69636595  1
  Se  Se241  1  0.08021587  0.25526145  0.19446755  1
  Se  Se242  1  0.08900405  0.24860045  0.69771164  1
  Se  Se243  1  0.07941814  0.58891004  0.20161109  1
  Se  Se244  1  0.08442480  0.58062017  0.69226126  1
  Se  Se245  1  0.08236433  0.91924900  0.19564342  1
  Se  Se246  1  0.08678238  0.90956558  0.68674904  1
  Se  Se247  1  0.40887488  0.25092199  0.20169297  1
  Se  Se248  1  0.42586890  0.24085438  0.69405933  1
  Se  Se249  1  0.42412681  0.56801544  0.19997118  1
  Se  Se250  1  0.41025106  0.58737934  0.69247651  1
  Se  Se251  1  0.41870320  0.91582415  0.20029027  1
  Se  Se252  1  0.41080767  0.91943910  0.69840756  1
  Se  Se253  1  0.75870639  0.24410468  0.19202537  1
  Se  Se254  1  0.75786900  0.24141023  0.68333461  1
  Se  Se255  1  0.75325331  0.58900360  0.20325305  1
  Se  Se256  1  0.76131078  0.56966387  0.69205177  1
  Se  Se257  1  0.75473506  0.90924803  0.18764220  1
  Se  Se258  1  0.74677017  0.91328502  0.69637036  1
