# generated using pymatgen
data_In86Cu29Se144
_symmetry_space_group_name_H-M   'P 1'
_cell_length_a   17.58255031
_cell_length_b   17.58177840
_cell_length_c   23.43804986
_cell_angle_alpha   90.00593578
_cell_angle_beta   89.99724775
_cell_angle_gamma   90.01343072
_symmetry_Int_Tables_number   1
_chemical_formula_structural   In86Cu29Se144
_chemical_formula_sum   'In86 Cu29 Se144'
_cell_volume   7245.46278112
_cell_formula_units_Z   1
loop_
 _symmetry_equiv_pos_site_id
 _symmetry_equiv_pos_as_xyz
  1  'x, y, z'
loop_
 _atom_site_type_symbol
 _atom_site_label
 _atom_site_symmetry_multiplicity
 _atom_site_fract_x
 _atom_site_fract_y
 _atom_site_fract_z
 _atom_site_occupancy
  In  In0  1  0.01129889  0.16733556  0.11108399  1
  In  In1  1  0.00080595  0.14638722  0.62081788  1
  In  In2  1  0.01933328  0.50101164  0.12364717  1
  In  In3  1  0.00737976  0.50967737  0.61966163  1
  In  In4  1  -0.00239487  0.83123680  0.12564532  1
  In  In5  1  -0.00747275  0.84424244  0.63368109  1
  In  In6  1  0.33071659  0.17107797  0.13393360  1
  In  In7  1  0.33992381  0.17222128  0.62329579  1
  In  In8  1  0.32825342  0.48597393  0.11519885  1
  In  In9  1  0.32203391  0.50739276  0.63329934  1
  In  In10  1  0.34919873  0.85246766  0.10465620  1
  In  In11  1  0.32806004  0.82396740  0.62598869  1
  In  In12  1  0.66523710  0.15583266  0.13991397  1
  In  In13  1  0.65395734  0.16811988  0.62211835  1
  In  In14  1  0.64841990  0.49806105  0.12217995  1
  In  In15  1  0.67228624  0.48278377  0.61619617  1
  In  In16  1  0.67044360  0.83891791  0.12525070  1
  In  In17  1  0.67275526  0.84010804  0.62072430  1
  In  In18  1  0.18401150  0.00489867  0.37295380  1
  In  In19  1  0.15961560  0.00454761  0.89141388  1
  In  In20  1  0.18089900  0.32376849  0.38172449  1
  In  In21  1  0.17926465  0.32473421  0.88434851  1
  In  In22  1  0.15414720  0.67165565  0.37438923  1
  In  In23  1  0.16636675  0.66454962  0.87529022  1
  In  In24  1  0.49942337  0.00456190  0.37431770  1
  In  In25  1  0.49308027  -0.01562432  0.87899285  1
  In  In26  1  0.48607748  0.31885544  0.35712283  1
  In  In27  1  0.49177996  0.34540356  0.88129043  1
  In  In28  1  0.51191875  0.67076984  0.37918878  1
  In  In29  1  0.48890321  0.68314846  0.88584184  1
  In  In30  1  0.82259736  0.00648792  0.37961861  1
  In  In31  1  0.83888187  0.00560391  0.86765596  1
  In  In32  1  0.83229938  0.34307087  0.37527354  1
  In  In33  1  0.82206225  0.32306556  0.87562203  1
  In  In34  1  0.84215122  0.66237388  0.38102859  1
  In  In35  1  0.84097522  0.65854355  0.86777247  1
  In  In36  1  0.00326312  0.17675679  0.38196689  1
  In  In37  1  0.00642183  0.14880576  0.88702608  1
  In  In38  1  -0.00214694  0.50709389  0.38092813  1
  In  In39  1  0.00398729  0.51441517  0.86877752  1
  In  In40  1  0.00740579  0.82180649  0.37509558  1
  In  In41  1  0.01165706  0.84373225  0.86770565  1
  In  In42  1  0.33756376  0.16633876  0.37176764  1
  In  In43  1  0.31986838  0.16681342  0.88327209  1
  In  In44  1  0.33856541  0.48443886  0.37574825  1
  In  In45  1  0.32681114  0.49787754  0.87585099  1
  In  In46  1  0.33583708  0.85610044  0.37326606  1
  In  In47  1  0.34049692  0.82940485  0.88558520  1
  In  In48  1  0.65367720  0.15775276  0.36146997  1
  In  In49  1  0.67970931  0.16461869  0.87796116  1
  In  In50  1  0.67498100  0.49902861  0.37290721  1
  In  In51  1  0.66302145  0.49415030  0.87825315  1
  In  In52  1  0.65786593  0.84600747  0.38579604  1
  In  In53  1  0.64691096  0.83798516  0.87709667  1
  In  In54  1  0.18720918  0.02058588  0.09620653  1
  In  In55  1  0.15505741  0.00128378  0.62461894  1
  In  In56  1  0.18077818  0.33604608  0.11037740  1
  In  In57  1  0.17201482  0.33782001  0.62275722  1
  In  In58  1  0.16645879  0.66379207  0.12187429  1
  In  In59  1  0.17172234  0.66338427  0.63322342  1
  In  In60  1  0.50943506  -0.00178424  0.13779846  1
  In  In61  1  0.50542314  0.00915398  0.62148659  1
  In  In62  1  0.49044352  0.33300664  0.13813501  1
  In  In63  1  0.49838528  0.32341342  0.62370775  1
  In  In64  1  0.50350087  0.66168447  0.10986865  1
  In  In65  1  0.48241823  0.66488323  0.62408050  1
  In  In66  1  0.82339502  -0.00624999  0.12834981  1
  In  In67  1  0.84354208  -0.01296235  0.63138862  1
  In  In68  1  0.83738796  0.31997478  0.12719312  1
  In  In69  1  0.81237903  0.33761334  0.61156361  1
  In  In70  1  0.83984149  0.67940034  0.12791369  1
  In  In71  1  0.84366255  0.67664922  0.61976483  1
  In  In72  1  0.00180727  -0.00346574  0.24701043  1
  In  In73  1  0.83417247  0.49808568  -0.01016123  1
  In  In74  1  0.83338878  0.16823584  0.49744300  1
  In  In75  1  0.66258572  0.66920845  0.74995587  1
  In  In76  1  0.00357423  0.33539014  0.25275856  1
  In  In77  1  0.50363705  0.49918765  0.49698508  1
  In  In78  1  0.32998698  -0.00067214  0.75981731  1
  In  In79  1  0.67121362  0.66735649  0.24916711  1
  In  In80  1  0.16657942  0.83885249  0.50140074  1
  In  In81  1  0.32978049  0.66644098  0.24498784  1
  In  In82  1  -0.00111643  0.33067217  0.74555893  1
  In  In83  1  0.83138157  0.83608784  0.00169927  1
  In  In84  1  0.66214357  0.33014563  0.74541131  1
  In  In85  1  0.49484812  0.16944428  0.00708347  1
  Cu  Cu86  1  0.16942456  0.49599799  0.75041072  1
  Cu  Cu87  1  0.32834567  0.65846394  -0.00213997  1
  Cu  Cu88  1  0.16254492  0.16179753  0.75929504  1
  Cu  Cu89  1  0.00472525  0.32964109  -0.00268024  1
  Cu  Cu90  1  0.49975508  0.16869615  0.74831726  1
  Cu  Cu91  1  0.32891253  0.67140599  0.50499382  1
  Cu  Cu92  1  0.48866909  0.50481249  0.75488761  1
  Cu  Cu93  1  0.67174815  0.67203623  0.50054567  1
  Cu  Cu94  1  0.83685554  0.50357917  0.74140707  1
  Cu  Cu95  1  0.82696732  0.16014635  0.24782430  1
  Cu  Cu96  1  0.17104821  0.16646428  0.24567275  1
  Cu  Cu97  1  0.00617912  0.33846313  0.50113939  1
  Cu  Cu98  1  0.00106356  0.66581524  -0.00193954  1
  Cu  Cu99  1  0.16891305  0.49975130  0.24620440  1
  Cu  Cu100  1  0.83609681  0.15591199  0.75149910  1
  Cu  Cu101  1  0.16894243  0.83630613  0.24448005  1
  Cu  Cu102  1  0.83182708  0.83436515  0.74640866  1
  Cu  Cu103  1  0.49401162  0.49153478  0.24519858  1
  Cu  Cu104  1  0.66680324  0.00023617  0.49978940  1
  Cu  Cu105  1  0.49770650  0.83596247  0.25038285  1
  Cu  Cu106  1  0.83258471  0.83201692  0.25142254  1
  Cu  Cu107  1  0.83871436  0.50548432  0.25457021  1
  Cu  Cu108  1  0.66579392  0.33098557  0.00362177  1
  Cu  Cu109  1  0.66359272  0.00388432  0.00778071  1
  Cu  Cu110  1  0.00056590  0.66728215  0.50185311  1
  Cu  Cu111  1  0.33201373  0.33245575  0.49850501  1
  Cu  Cu112  1  0.16581939  0.82816132  0.75308480  1
  Cu  Cu113  1  0.34274575  0.01202857  0.49740370  1
  Cu  Cu114  1  0.49332156  0.83391817  0.75443843  1
  Se  Se115  1  0.07398800  0.07566292  0.04070062  1
  Se  Se116  1  0.09135974  0.08473440  0.54865910  1
  Se  Se117  1  0.08545600  0.41644046  0.04903357  1
  Se  Se118  1  0.08894605  0.42126049  0.55520657  1
  Se  Se119  1  0.07807583  0.74720387  0.05686486  1
  Se  Se120  1  0.08081363  0.74775733  0.56382948  1
  Se  Se121  1  0.41538080  0.07533499  0.06843094  1
  Se  Se122  1  0.42542746  0.09457942  0.55336197  1
  Se  Se123  1  0.43157482  0.41528831  0.05829968  1
  Se  Se124  1  0.40921208  0.41695004  0.56053810  1
  Se  Se125  1  0.41431176  0.74375586  0.04736619  1
  Se  Se126  1  0.41591358  0.75577103  0.55197887  1
  Se  Se127  1  0.74624155  0.08473468  0.06254486  1
  Se  Se128  1  0.74829204  0.07787616  0.56234025  1
  Se  Se129  1  0.75142982  0.41303231  0.05998260  1
  Se  Se130  1  0.74575659  0.41826193  0.53523723  1
  Se  Se131  1  0.74138789  0.73953922  0.05683558  1
  Se  Se132  1  0.75494138  0.75536363  0.55382659  1
  Se  Se133  1  0.24654632  0.23027696  0.05421954  1
  Se  Se134  1  0.25121320  0.24975298  0.55555530  1
  Se  Se135  1  0.24561731  0.57756023  0.05363847  1
  Se  Se136  1  0.24797591  0.58596007  0.55681408  1
  Se  Se137  1  0.22773875  0.89292198  0.05159851  1
  Se  Se138  1  0.26246150  0.92979455  0.55895025  1
  Se  Se139  1  0.59049556  0.25196073  0.06753898  1
  Se  Se140  1  0.60065347  0.27169197  0.55607471  1
  Se  Se141  1  0.58915532  0.58055918  0.04483437  1
  Se  Se142  1  0.59010052  0.59163468  0.56127449  1
  Se  Se143  1  0.58205678  0.91832714  0.05976726  1
  Se  Se144  1  0.58225273  0.91847526  0.55497166  1
  Se  Se145  1  0.91818811  0.25162199  0.05121221  1
  Se  Se146  1  0.92436657  0.25731778  0.56128720  1
  Se  Se147  1  0.91954178  0.58571292  0.05802764  1
  Se  Se148  1  0.91395432  0.58177839  0.55231636  1
  Se  Se149  1  0.92179706  0.92814382  0.05797977  1
  Se  Se150  1  0.92486727  0.91956956  0.55521465  1
  Se  Se151  1  0.08872984  0.25167790  0.45111381  1
  Se  Se152  1  0.08794582  0.24280192  0.94703943  1
  Se  Se153  1  0.08666705  0.58635853  0.44893885  1
  Se  Se154  1  0.08376638  0.58036270  0.94652332  1
  Se  Se155  1  0.08300753  0.92590938  0.43560809  1
  Se  Se156  1  0.07643543  0.91112152  0.95101332  1
  Se  Se157  1  0.41639040  0.25420519  0.44207335  1
  Se  Se158  1  0.40497987  0.25971972  0.94818247  1
  Se  Se159  1  0.40804494  0.59256080  0.44052196  1
  Se  Se160  1  0.41538088  0.58007926  0.94307322  1
  Se  Se161  1  0.42148406  0.92005038  0.44847809  1
  Se  Se162  1  0.41528742  0.91672050  0.95530190  1
  Se  Se163  1  0.74363819  0.24752060  0.43162475  1
  Se  Se164  1  0.75068978  0.24685369  0.95351736  1
  Se  Se165  1  0.74731735  0.58544122  0.44421332  1
  Se  Se166  1  0.74245970  0.59562816  0.93864924  1
  Se  Se167  1  0.75499192  0.91648242  0.45148496  1
  Se  Se168  1  0.74022176  0.92539782  0.94149178  1
  Se  Se169  1  0.25287227  0.09048739  0.44635762  1
  Se  Se170  1  0.27014540  0.06215432  0.94933815  1
  Se  Se171  1  0.24915758  0.42109283  0.44962714  1
  Se  Se172  1  0.24513793  0.42201276  0.94897967  1
  Se  Se173  1  0.25696196  0.75101067  0.43710560  1
  Se  Se174  1  0.24726438  0.74604928  0.94610271  1
  Se  Se175  1  0.58670513  0.08427417  0.44396089  1
  Se  Se176  1  0.58499977  0.08041446  0.94281043  1
  Se  Se177  1  0.57718873  0.41086320  0.42735151  1
  Se  Se178  1  0.58464818  0.41497219  0.95029803  1
  Se  Se179  1  0.58156573  0.75373701  0.45287244  1
  Se  Se180  1  0.58483322  0.75219218  0.95127965  1
  Se  Se181  1  0.92760796  0.07549370  0.44339090  1
  Se  Se182  1  0.89324468  0.09525880  0.94429158  1
  Se  Se183  1  0.91950070  0.41559980  0.44583531  1
  Se  Se184  1  0.92709194  0.40651322  0.93172546  1
  Se  Se185  1  0.92032887  0.75259547  0.44794171  1
  Se  Se186  1  0.91968913  0.74555031  0.93880989  1
  Se  Se187  1  0.25118813  0.24997564  0.30233493  1
  Se  Se188  1  0.24962634  0.24659125  0.80560503  1
  Se  Se189  1  0.24595539  0.57802027  0.31141553  1
  Se  Se190  1  0.24895969  0.58276108  0.80466981  1
  Se  Se191  1  0.25113464  0.92089313  0.29709293  1
  Se  Se192  1  0.24123332  0.90793287  0.81736083  1
  Se  Se193  1  0.58606376  0.25247303  0.29441034  1
  Se  Se194  1  0.57736939  0.24725057  0.81464731  1
  Se  Se195  1  0.57366873  0.57534163  0.30391836  1
  Se  Se196  1  0.57475044  0.58087205  0.81299854  1
  Se  Se197  1  0.58193577  0.91463720  0.30670539  1
  Se  Se198  1  0.57842739  0.92098493  0.80118234  1
  Se  Se199  1  0.90834629  0.24100490  0.30708027  1
  Se  Se200  1  0.91342646  0.24105213  0.81002816  1
  Se  Se201  1  0.92301423  0.58797783  0.30579105  1
  Se  Se202  1  0.92125696  0.58521748  0.79332208  1
  Se  Se203  1  0.91201219  0.91290245  0.31292008  1
  Se  Se204  1  0.91630637  0.91582094  0.80187331  1
  Se  Se205  1  0.08638036  0.09381272  0.30783626  1
  Se  Se206  1  0.08371131  0.07441564  0.81063489  1
  Se  Se207  1  0.09377475  0.42243896  0.31369733  1
  Se  Se208  1  0.08834489  0.41516523  0.80986397  1
  Se  Se209  1  0.08636236  0.75262903  0.29693076  1
  Se  Se210  1  0.08031138  0.74379230  0.80432328  1
  Se  Se211  1  0.40337544  0.06834548  0.30578136  1
  Se  Se212  1  0.42370140  0.09253282  0.81511299  1
  Se  Se213  1  0.40395481  0.41191640  0.29422331  1
  Se  Se214  1  0.41092366  0.41396971  0.80506583  1
  Se  Se215  1  0.42069139  0.75269956  0.31063892  1
  Se  Se216  1  0.41072699  0.75029160  0.80644138  1
  Se  Se217  1  0.74746762  0.07400357  0.30043392  1
  Se  Se218  1  0.74289025  0.07961480  0.80120497  1
  Se  Se219  1  0.75308457  0.41846352  0.30016676  1
  Se  Se220  1  0.75739991  0.42422618  0.80317178  1
  Se  Se221  1  0.75222022  0.75606913  0.31578636  1
  Se  Se222  1  0.75247537  0.75901677  0.81118771  1
  Se  Se223  1  0.24243404  0.07531125  0.19019651  1
  Se  Se224  1  0.24590525  0.08714540  0.69367595  1
  Se  Se225  1  0.24671908  0.41424212  0.19120406  1
  Se  Se226  1  0.25207798  0.41016199  0.69912135  1
  Se  Se227  1  0.25217104  0.76121315  0.18232998  1
  Se  Se228  1  0.25346007  0.74802264  0.70171660  1
  Se  Se229  1  0.57795733  0.08498904  0.20991486  1
  Se  Se230  1  0.58355455  0.08546119  0.69748590  1
  Se  Se231  1  0.58831809  0.41314581  0.19933796  1
  Se  Se232  1  0.57160158  0.42911308  0.69234361  1
  Se  Se233  1  0.57400884  0.75135025  0.19025676  1
  Se  Se234  1  0.57195209  0.75715014  0.68899014  1
  Se  Se235  1  0.91645993  0.09196622  0.18674405  1
  Se  Se236  1  0.92293003  0.07670340  0.69849273  1
  Se  Se237  1  0.91591752  0.42565832  0.18955881  1
  Se  Se238  1  0.90718206  0.41561122  0.68174955  1
  Se  Se239  1  0.92109550  0.75172770  0.20174502  1
  Se  Se240  1  0.91800875  0.74850044  0.69875381  1
  Se  Se241  1  0.08973452  0.24884633  0.18781983  1
  Se  Se242  1  0.08924099  0.23712809  0.68981889  1
  Se  Se243  1  0.08578700  0.58732072  0.19808597  1
  Se  Se244  1  0.08418149  0.57938263  0.69844178  1
  Se  Se245  1  0.09412755  0.91963624  0.18245080  1
  Se  Se246  1  0.08784620  0.91666628  0.69987737  1
  Se  Se247  1  0.41990501  0.24024049  0.20429437  1
  Se  Se248  1  0.41548273  0.25272485  0.69858577  1
  Se  Se249  1  0.42161515  0.57887402  0.18530924  1
  Se  Se250  1  0.40864529  0.58974666  0.70051076  1
  Se  Se251  1  0.41163127  0.91253188  0.19459978  1
  Se  Se252  1  0.41661144  0.91617471  0.69118325  1
  Se  Se253  1  0.74947794  0.25259760  0.19899835  1
  Se  Se254  1  0.76008310  0.24026809  0.69060681  1
  Se  Se255  1  0.75796617  0.57621931  0.18682081  1
  Se  Se256  1  0.74850775  0.57945235  0.68489876  1
  Se  Se257  1  0.74576127  0.91481489  0.20200970  1
  Se  Se258  1  0.74531169  0.91839136  0.69755523  1
