# generated using pymatgen
data_In86Cu29Se144
_symmetry_space_group_name_H-M   'P 1'
_cell_length_a   17.58232261
_cell_length_b   17.57723579
_cell_length_c   23.44153251
_cell_angle_alpha   90.00445585
_cell_angle_beta   90.03275812
_cell_angle_gamma   89.98716171
_symmetry_Int_Tables_number   1
_chemical_formula_structural   In86Cu29Se144
_chemical_formula_sum   'In86 Cu29 Se144'
_cell_volume   7244.57212287
_cell_formula_units_Z   1
loop_
 _symmetry_equiv_pos_site_id
 _symmetry_equiv_pos_as_xyz
  1  'x, y, z'
loop_
 _atom_site_type_symbol
 _atom_site_label
 _atom_site_symmetry_multiplicity
 _atom_site_fract_x
 _atom_site_fract_y
 _atom_site_fract_z
 _atom_site_occupancy
  In  In0  1  -0.00421417  0.16945837  0.12846191  1
  In  In1  1  -0.01613128  0.15189401  0.61771966  1
  In  In2  1  -0.01134009  0.50308931  0.13802574  1
  In  In3  1  0.00187751  0.50276975  0.61399952  1
  In  In4  1  0.00403502  0.83326082  0.13709432  1
  In  In5  1  0.00006542  0.84009833  0.61594998  1
  In  In6  1  0.32640949  0.16401482  0.11875422  1
  In  In7  1  0.34088927  0.17501295  0.62273514  1
  In  In8  1  0.33401619  0.48500409  0.12348817  1
  In  In9  1  0.32840091  0.48814532  0.62015271  1
  In  In10  1  0.34160200  0.84995046  0.13072393  1
  In  In11  1  0.33475973  0.83907797  0.60725458  1
  In  In12  1  0.68028730  0.17688171  0.11408696  1
  In  In13  1  0.69725622  0.12623407  0.66340087  1
  In  In14  1  0.66233141  0.50770671  0.12535894  1
  In  In15  1  0.67524849  0.48768504  0.63047768  1
  In  In16  1  0.65791099  0.82364936  0.12808074  1
  In  In17  1  0.67143727  0.83897680  0.62473879  1
  In  In18  1  0.15852627  0.00712996  0.37570659  1
  In  In19  1  0.17025638  0.01534520  0.87404513  1
  In  In20  1  0.16214949  0.33631323  0.38142347  1
  In  In21  1  0.15546269  0.31591864  0.87272869  1
  In  In22  1  0.15215492  0.67789239  0.38129172  1
  In  In23  1  0.16481244  0.65744693  0.87489569  1
  In  In24  1  0.48643987  -0.00236212  0.37944247  1
  In  In25  1  0.51144178  0.00265021  0.87372670  1
  In  In26  1  0.50845094  0.32008204  0.37141957  1
  In  In27  1  0.50568755  0.32858725  0.87345935  1
  In  In28  1  0.51460844  0.67573603  0.36992267  1
  In  In29  1  0.51287515  0.65536257  0.88019943  1
  In  In30  1  0.84503722  -0.00942629  0.38441785  1
  In  In31  1  0.84909096  0.01466524  0.85499780  1
  In  In32  1  0.83483171  0.33309120  0.37818274  1
  In  In33  1  0.81525903  0.32721710  0.86848464  1
  In  In34  1  0.83287509  0.66589918  0.37493856  1
  In  In35  1  0.82636723  0.67611901  0.87375633  1
  In  In36  1  0.00238671  0.16528568  0.37492644  1
  In  In37  1  0.00484062  0.16270870  0.88008782  1
  In  In38  1  -0.00536611  0.50053727  0.37774779  1
  In  In39  1  0.00723377  0.49769454  0.87933138  1
  In  In40  1  -0.00305016  0.83483091  0.37279204  1
  In  In41  1  -0.01772225  0.84298252  0.87327750  1
  In  In42  1  0.32437541  0.14724580  0.37044519  1
  In  In43  1  0.32484051  0.17595549  0.87778055  1
  In  In44  1  0.32685539  0.48818262  0.37607195  1
  In  In45  1  0.35346442  0.49923820  0.87847952  1
  In  In46  1  0.30752143  0.86467674  0.40308637  1
  In  In47  1  0.33553658  0.83719564  0.87145949  1
  In  In48  1  0.66719886  0.17989973  0.37354636  1
  In  In49  1  0.66840838  0.16462873  0.87568100  1
  In  In50  1  0.67659543  0.51033897  0.36869253  1
  In  In51  1  0.65978225  0.48996192  0.86811245  1
  In  In52  1  0.67951852  0.82725830  0.38649839  1
  In  In53  1  0.67789760  0.84024444  0.85801132  1
  In  In54  1  0.14261270  0.03561902  0.15440533  1
  In  In55  1  0.15685747  -0.01034721  0.61269380  1
  In  In56  1  0.16350269  0.31712534  0.12877407  1
  In  In57  1  0.17182197  0.33408487  0.61824020  1
  In  In58  1  0.15801010  0.66108222  0.13236372  1
  In  In59  1  0.16540152  0.66653161  0.61209457  1
  In  In60  1  0.48844327  0.00009494  0.12554841  1
  In  In61  1  0.51097047  0.00639556  0.62533611  1
  In  In62  1  0.50945511  0.34288649  0.11536028  1
  In  In63  1  0.51994944  0.29967990  0.64730611  1
  In  In64  1  0.51487952  0.66188699  0.12474235  1
  In  In65  1  0.50998139  0.67742436  0.62370647  1
  In  In66  1  0.83356538  0.01319134  0.12447753  1
  In  In67  1  0.83776621  0.00215296  0.62416386  1
  In  In68  1  0.84173594  0.32569980  0.13258201  1
  In  In69  1  0.81733905  0.31890299  0.61603034  1
  In  In70  1  0.83048913  0.66763067  0.13167688  1
  In  In71  1  0.82711113  0.66258350  0.61752545  1
  In  In72  1  0.16819815  0.49281518  0.00482083  1
  In  In73  1  0.49975991  0.16219797  0.50312936  1
  In  In74  1  -0.00280021  0.67202161  0.74050095  1
  In  In75  1  0.33168995  0.32663468  0.25297824  1
  In  In76  1  0.83106655  0.83325443  0.00125638  1
  In  In77  1  0.83116123  0.49740659  -0.00080073  1
  In  In78  1  0.16614586  0.84110755  0.01390380  1
  In  In79  1  0.66920097  0.00039121  0.24971718  1
  In  In80  1  -0.00968601  0.32572155  0.74516753  1
  In  In81  1  0.49413571  0.49510281  0.50177212  1
  In  In82  1  0.50288221  0.83694144  -0.00500448  1
  In  In83  1  0.33871593  0.66534708  0.73658289  1
  In  In84  1  0.33484819  0.00561380  0.74466892  1
  In  In85  1  0.33425822  0.67446983  0.25319491  1
  Cu  Cu86  1  0.83763850  0.50574285  0.74543494  1
  Cu  Cu87  1  0.50935798  0.49949110  0.24491635  1
  Cu  Cu88  1  0.83952369  0.16648866  0.25254919  1
  Cu  Cu89  1  0.83175605  0.82961183  0.25738114  1
  Cu  Cu90  1  0.66987383  0.66784980  0.49783613  1
  Cu  Cu91  1  0.66448649  0.33156953  -0.00518973  1
  Cu  Cu92  1  -0.00424907  0.32530824  0.00449881  1
  Cu  Cu93  1  0.67005849  0.33528175  0.50027832  1
  Cu  Cu94  1  0.00091163  0.33258207  0.49757173  1
  Cu  Cu95  1  0.50521994  0.82812455  0.74765385  1
  Cu  Cu96  1  0.15529118  0.50155694  0.25787653  1
  Cu  Cu97  1  0.83019752  0.49436586  0.25538651  1
  Cu  Cu98  1  0.66984880  0.00418631  0.50915719  1
  Cu  Cu99  1  0.50574539  0.17000125  0.24675199  1
  Cu  Cu100  1  0.00423578  0.00528572  0.00121135  1
  Cu  Cu101  1  0.67225543  0.00354338  -0.00582413  1
  Cu  Cu102  1  -0.00483701  0.67080857  0.49552462  1
  Cu  Cu103  1  0.49936245  0.83428227  0.25529130  1
  Cu  Cu104  1  0.33121977  0.32947150  0.50106368  1
  Cu  Cu105  1  0.50364966  0.49513388  0.75440500  1
  Cu  Cu106  1  0.15658262  0.83541989  0.74142597  1
  Cu  Cu107  1  0.17801342  0.49209332  0.74514384  1
  Cu  Cu108  1  0.33447113  0.65877467  0.49920733  1
  Cu  Cu109  1  0.33905009  0.33288766  -0.00275215  1
  Cu  Cu110  1  0.15863073  0.16154105  0.74793794  1
  Cu  Cu111  1  -0.00263422  0.00183417  0.49558424  1
  Cu  Cu112  1  0.33477936  0.67290596  -0.00144414  1
  Cu  Cu113  1  0.32908620  0.01613548  0.00425519  1
  Cu  Cu114  1  0.16788893  0.83975324  0.26203234  1
  Se  Se115  1  0.08394888  0.08613545  0.06025746  1
  Se  Se116  1  0.08030455  0.08527742  0.54971264  1
  Se  Se117  1  0.07037140  0.41133818  0.06464547  1
  Se  Se118  1  0.08633440  0.41590679  0.55086030  1
  Se  Se119  1  0.07311599  0.74199040  0.06023618  1
  Se  Se120  1  0.08109738  0.75262302  0.54903599  1
  Se  Se121  1  0.42355234  0.09080367  0.05345323  1
  Se  Se122  1  0.40595403  0.06974952  0.55662041  1
  Se  Se123  1  0.41861752  0.42125475  0.04801775  1
  Se  Se124  1  0.42157364  0.39457921  0.56351451  1
  Se  Se125  1  0.41298672  0.75123443  0.06146646  1
  Se  Se126  1  0.41815449  0.74149333  0.55201930  1
  Se  Se127  1  0.75708464  0.08507751  0.04768175  1
  Se  Se128  1  0.74819409  0.09299767  0.56197545  1
  Se  Se129  1  0.74551854  0.40663502  0.06071809  1
  Se  Se130  1  0.75358088  0.42182675  0.55047072  1
  Se  Se131  1  0.73898034  0.73942606  0.05628883  1
  Se  Se132  1  0.74944153  0.75476804  0.55242819  1
  Se  Se133  1  0.25078881  0.25657370  0.05226021  1
  Se  Se134  1  0.24915272  0.24244283  0.55173140  1
  Se  Se135  1  0.25788169  0.59278671  0.06117932  1
  Se  Se136  1  0.25147972  0.57582334  0.55210450  1
  Se  Se137  1  0.25317602  0.93667045  0.06785229  1
  Se  Se138  1  0.24336360  0.91328711  0.54370828  1
  Se  Se139  1  0.58222123  0.24746396  0.04981021  1
  Se  Se140  1  0.59405933  0.24977950  0.55820457  1
  Se  Se141  1  0.58255509  0.58095800  0.05029925  1
  Se  Se142  1  0.59112570  0.58352059  0.55748200  1
  Se  Se143  1  0.59370712  0.92602800  0.05819872  1
  Se  Se144  1  0.58269871  0.91781263  0.55508831  1
  Se  Se145  1  0.90944298  0.24352183  0.05526115  1
  Se  Se146  1  0.91669579  0.25122193  0.55195513  1
  Se  Se147  1  0.91977696  0.58807168  0.05964436  1
  Se  Se148  1  0.91496747  0.58488509  0.54931169  1
  Se  Se149  1  0.92696584  0.92143961  0.06064885  1
  Se  Se150  1  0.91193656  0.91999384  0.54933221  1
  Se  Se151  1  0.08466564  0.24624458  0.44743353  1
  Se  Se152  1  0.08364570  0.24542088  0.95234753  1
  Se  Se153  1  0.08055865  0.58286680  0.44677556  1
  Se  Se154  1  0.07589737  0.59126861  0.95138523  1
  Se  Se155  1  0.07950552  0.91609130  0.44276462  1
  Se  Se156  1  0.08056798  0.92123196  0.94101397  1
  Se  Se157  1  0.40903561  0.25059269  0.43757383  1
  Se  Se158  1  0.41978897  0.24833842  0.94342978  1
  Se  Se159  1  0.41450422  0.58689683  0.43398271  1
  Se  Se160  1  0.42075527  0.58805142  0.95067896  1
  Se  Se161  1  0.43155503  0.90478620  0.45292116  1
  Se  Se162  1  0.40392014  0.93090178  0.94335892  1
  Se  Se163  1  0.75139477  0.24831121  0.44790168  1
  Se  Se164  1  0.75206628  0.24710609  0.94761888  1
  Se  Se165  1  0.75229831  0.58198331  0.44652544  1
  Se  Se166  1  0.74287902  0.58496360  0.93754470  1
  Se  Se167  1  0.75143271  0.92070011  0.45287548  1
  Se  Se168  1  0.75243132  0.92407162  0.93515359  1
  Se  Se169  1  0.25268333  0.07394987  0.44693057  1
  Se  Se170  1  0.24304858  0.09352520  0.94906386  1
  Se  Se171  1  0.24837413  0.41697982  0.45131586  1
  Se  Se172  1  0.25269893  0.40962393  0.93598212  1
  Se  Se173  1  0.24894254  0.74389064  0.44931568  1
  Se  Se174  1  0.25111853  0.75003037  0.94165865  1
  Se  Se175  1  0.59345000  0.07650135  0.43891466  1
  Se  Se176  1  0.58185962  0.08572060  0.94753130  1
  Se  Se177  1  0.58816796  0.41174804  0.43850315  1
  Se  Se178  1  0.58114989  0.41829868  0.94496706  1
  Se  Se179  1  0.58241507  0.75164821  0.44986977  1
  Se  Se180  1  0.59873231  0.75483692  0.93641558  1
  Se  Se181  1  0.91399987  0.09075063  0.44704773  1
  Se  Se182  1  0.91553810  0.07740861  0.94272655  1
  Se  Se183  1  0.91422202  0.41780725  0.44843442  1
  Se  Se184  1  0.92143850  0.40337959  0.93890518  1
  Se  Se185  1  0.91170785  0.75467021  0.44250953  1
  Se  Se186  1  0.92622704  0.74118565  0.94482028  1
  Se  Se187  1  0.23759502  0.24083999  0.30922680  1
  Se  Se188  1  0.24192318  0.24579289  0.80064015  1
  Se  Se189  1  0.24367350  0.58108000  0.31155467  1
  Se  Se190  1  0.25288575  0.57708542  0.80516540  1
  Se  Se191  1  0.25316996  0.92351103  0.31125802  1
  Se  Se192  1  0.24028330  0.91141314  0.80353706  1
  Se  Se193  1  0.59163472  0.25395670  0.29525369  1
  Se  Se194  1  0.60798447  0.26704861  0.80905433  1
  Se  Se195  1  0.58578889  0.58583766  0.30068352  1
  Se  Se196  1  0.58649900  0.58591329  0.80078171  1
  Se  Se197  1  0.58460759  0.91244710  0.31458708  1
  Se  Se198  1  0.58032063  0.91953695  0.79922942  1
  Se  Se199  1  0.91802013  0.25207477  0.30799045  1
  Se  Se200  1  0.90728744  0.23726143  0.80914122  1
  Se  Se201  1  0.91388469  0.58184817  0.30550092  1
  Se  Se202  1  0.91874592  0.57785350  0.80942087  1
  Se  Se203  1  0.91472498  0.91945159  0.30294087  1
  Se  Se204  1  0.91204266  0.90978807  0.79353027  1
  Se  Se205  1  0.07568263  0.07985285  0.30238084  1
  Se  Se206  1  0.07759248  0.08029279  0.80362211  1
  Se  Se207  1  0.07828990  0.41358776  0.31050205  1
  Se  Se208  1  0.08745029  0.41993893  0.80274381  1
  Se  Se209  1  0.07970258  0.75035828  0.30256992  1
  Se  Se210  1  0.08803195  0.75493098  0.80934124  1
  Se  Se211  1  0.42645061  0.08774351  0.30331905  1
  Se  Se212  1  0.41780575  0.08947415  0.81229174  1
  Se  Se213  1  0.42806114  0.42240321  0.30652460  1
  Se  Se214  1  0.41782020  0.41274311  0.80496343  1
  Se  Se215  1  0.41381301  0.76400786  0.31825460  1
  Se  Se216  1  0.42341240  0.74958126  0.80787022  1
  Se  Se217  1  0.75800612  0.08613505  0.31296009  1
  Se  Se218  1  0.73306293  0.07148527  0.80337028  1
  Se  Se219  1  0.74652823  0.40983054  0.30684298  1
  Se  Se220  1  0.75394284  0.42238020  0.79836375  1
  Se  Se221  1  0.74442817  0.74772767  0.30654063  1
  Se  Se222  1  0.76089669  0.75204432  0.79564300  1
  Se  Se223  1  0.26807167  0.08147688  0.19800751  1
  Se  Se224  1  0.23880684  0.08583778  0.68365898  1
  Se  Se225  1  0.23793842  0.42367202  0.19697673  1
  Se  Se226  1  0.25666901  0.40487347  0.69442344  1
  Se  Se227  1  0.24151359  0.76420605  0.19182929  1
  Se  Se228  1  0.24316590  0.75920290  0.68476235  1
  Se  Se229  1  0.58450733  0.08931079  0.18520654  1
  Se  Se230  1  0.55420294  0.11622671  0.69002781  1
  Se  Se231  1  0.58905437  0.41315616  0.19245335  1
  Se  Se232  1  0.58601856  0.41302627  0.69861765  1
  Se  Se233  1  0.57877531  0.74789298  0.20175148  1
  Se  Se234  1  0.59364111  0.74984313  0.69567008  1
  Se  Se235  1  0.91815860  0.07949880  0.19882088  1
  Se  Se236  1  0.91365661  0.08425625  0.69814061  1
  Se  Se237  1  0.91658109  0.41083892  0.20418197  1
  Se  Se238  1  0.91147530  0.42287868  0.68332021  1
  Se  Se239  1  0.91479672  0.74915616  0.19934424  1
  Se  Se240  1  0.90598005  0.76037559  0.68426413  1
  Se  Se241  1  0.08002767  0.24705592  0.19949281  1
  Se  Se242  1  0.08373069  0.24260401  0.68413482  1
  Se  Se243  1  0.07536152  0.58697818  0.20355897  1
  Se  Se244  1  0.09524347  0.57594384  0.68987030  1
  Se  Se245  1  0.08265256  0.91870655  0.20528359  1
  Se  Se246  1  0.07588153  0.92139057  0.69071347  1
  Se  Se247  1  0.42488147  0.25045285  0.18604405  1
  Se  Se248  1  0.40663280  0.24594040  0.70428209  1
  Se  Se249  1  0.41807262  0.57643004  0.19117619  1
  Se  Se250  1  0.43041275  0.56974215  0.68417682  1
  Se  Se251  1  0.41991559  0.92399929  0.20564768  1
  Se  Se252  1  0.42106206  0.90571233  0.68851705  1
  Se  Se253  1  0.75149597  0.24381549  0.19721761  1
  Se  Se254  1  0.74883672  0.25614623  0.69991482  1
  Se  Se255  1  0.75087425  0.57881081  0.19700338  1
  Se  Se256  1  0.75017782  0.58548663  0.69321611  1
  Se  Se257  1  0.75762720  0.90686480  0.18863550  1
  Se  Se258  1  0.72686323  0.94729148  0.68873186  1
