# generated using pymatgen
data_In86Cu29Se144
_symmetry_space_group_name_H-M   'P 1'
_cell_length_a   17.59354070
_cell_length_b   17.58348073
_cell_length_c   23.44759644
_cell_angle_alpha   89.99840895
_cell_angle_beta   90.01399336
_cell_angle_gamma   89.99282528
_symmetry_Int_Tables_number   1
_chemical_formula_structural   In86Cu29Se144
_chemical_formula_sum   'In86 Cu29 Se144'
_cell_volume   7253.64695598
_cell_formula_units_Z   1
loop_
 _symmetry_equiv_pos_site_id
 _symmetry_equiv_pos_as_xyz
  1  'x, y, z'
loop_
 _atom_site_type_symbol
 _atom_site_label
 _atom_site_symmetry_multiplicity
 _atom_site_fract_x
 _atom_site_fract_y
 _atom_site_fract_z
 _atom_site_occupancy
  In  In0  1  -0.02529918  0.12539927  0.08841629  1
  In  In1  1  -0.01718683  0.18442798  0.64481349  1
  In  In2  1  -0.00446586  0.50950198  0.12249851  1
  In  In3  1  0.00421966  0.47317342  0.62894123  1
  In  In4  1  0.02830833  0.87698401  0.08619111  1
  In  In5  1  0.00943408  0.84277571  0.62293270  1
  In  In6  1  0.32157593  0.15372133  0.11017010  1
  In  In7  1  0.34218166  0.15577679  0.63371966  1
  In  In8  1  0.33477408  0.48328193  0.11988736  1
  In  In9  1  0.33219827  0.50913095  0.63524762  1
  In  In10  1  0.33016167  0.85004490  0.12658500  1
  In  In11  1  0.31518700  0.84243871  0.63469670  1
  In  In12  1  0.66550443  0.17000542  0.12044008  1
  In  In13  1  0.65885180  0.17208929  0.62433604  1
  In  In14  1  0.65521188  0.48115817  0.10441753  1
  In  In15  1  0.65791678  0.48348997  0.62778510  1
  In  In16  1  0.68238738  0.84049770  0.11931937  1
  In  In17  1  0.68409625  0.84365608  0.62627119  1
  In  In18  1  0.15839805  -0.00999116  0.37057957  1
  In  In19  1  0.16353827  -0.00130147  0.87895550  1
  In  In20  1  0.17433036  0.33338500  0.38613668  1
  In  In21  1  0.15239296  0.31586193  0.85969566  1
  In  In22  1  0.16301022  0.67420820  0.38544969  1
  In  In23  1  0.17696298  0.67569356  0.87298078  1
  In  In24  1  0.51603749  0.02553683  0.36420651  1
  In  In25  1  0.51598531  0.01486245  0.86595940  1
  In  In26  1  0.50477766  0.31597201  0.38269075  1
  In  In27  1  0.50475383  0.33169651  0.87778199  1
  In  In28  1  0.50701682  0.66373832  0.37175203  1
  In  In29  1  0.48508694  0.65727990  0.87332901  1
  In  In30  1  0.84308630  0.01456967  0.36150619  1
  In  In31  1  0.83610250  0.01349946  0.88205341  1
  In  In32  1  0.82080642  0.32225620  0.36716242  1
  In  In33  1  0.83574973  0.32313333  0.88038227  1
  In  In34  1  0.83189999  0.65715858  0.37069314  1
  In  In35  1  0.83772535  0.66915391  0.87713895  1
  In  In36  1  0.00170808  0.15680792  0.37525706  1
  In  In37  1  -0.00113591  0.16192479  0.88024277  1
  In  In38  1  0.00199312  0.50925158  0.37649626  1
  In  In39  1  -0.00288043  0.48493556  0.86952035  1
  In  In40  1  0.00367579  0.84468819  0.37529323  1
  In  In41  1  -0.01986731  0.86131901  0.89790525  1
  In  In42  1  0.33952354  0.16965156  0.37506651  1
  In  In43  1  0.33565710  0.16447543  0.87080495  1
  In  In44  1  0.33239361  0.48570018  0.37991530  1
  In  In45  1  0.33637401  0.50333906  0.87103387  1
  In  In46  1  0.32016363  0.84350071  0.38124028  1
  In  In47  1  0.32838278  0.82777802  0.87328826  1
  In  In48  1  0.66896594  0.16810181  0.37734646  1
  In  In49  1  0.67370583  0.17047207  0.87987125  1
  In  In50  1  0.67762015  0.48227235  0.37179793  1
  In  In51  1  0.68732740  0.46897012  0.89432063  1
  In  In52  1  0.65487208  0.84808755  0.37444989  1
  In  In53  1  0.66790907  0.85150997  0.87565235  1
  In  In54  1  0.16931834  0.00369147  0.12199170  1
  In  In55  1  0.16740968  -0.00173907  0.62866796  1
  In  In56  1  0.17649484  0.32639611  0.12410261  1
  In  In57  1  0.15961771  0.34558891  0.63009379  1
  In  In58  1  0.15246382  0.67996015  0.12886902  1
  In  In59  1  0.17333494  0.67564655  0.62281898  1
  In  In60  1  0.49413107  0.01399619  0.12501005  1
  In  In61  1  0.48826648  0.00661679  0.62879989  1
  In  In62  1  0.50804876  0.32932358  0.10753310  1
  In  In63  1  0.51636100  0.31197078  0.64183590  1
  In  In64  1  0.51247549  0.66056582  0.12300713  1
  In  In65  1  0.49711314  0.64982706  0.63109216  1
  In  In66  1  0.83617632  -0.00123500  0.12639217  1
  In  In67  1  0.80500853  0.04101112  0.65627389  1
  In  In68  1  0.79827004  0.30459134  0.09049710  1
  In  In69  1  0.83215572  0.31281445  0.63512513  1
  In  In70  1  0.83514913  0.66683141  0.11465176  1
  In  In71  1  0.83566599  0.66810089  0.63127373  1
  In  In72  1  0.16093761  0.16862241  0.50502017  1
  In  In73  1  0.33652345  0.67382024  0.24333161  1
  In  In74  1  0.67676511  0.67648648  0.24532159  1
  In  In75  1  0.49437068  0.83042822  -0.00337703  1
  In  In76  1  0.34059283  0.32401397  0.25180593  1
  In  In77  1  -0.00373359  0.32678166  0.24286880  1
  In  In78  1  0.65231463  0.66470158  0.75186170  1
  In  In79  1  0.17018230  0.50033914  -0.00522170  1
  In  In80  1  0.49280063  0.49265975  0.49797049  1
  In  In81  1  0.00890603  0.67480040  0.74960566  1
  In  In82  1  -0.00506853  0.67810960  0.25410528  1
  In  In83  1  0.85054860  0.84636565  0.49466261  1
  In  In84  1  0.49071594  0.83914028  0.50584468  1
  In  In85  1  0.84680222  0.47874825  0.51354844  1
  Cu  Cu86  1  0.82218870  0.48472518  0.23694401  1
  Cu  Cu87  1  0.33097014  0.00267109  0.50424743  1
  Cu  Cu88  1  0.32866483  0.66432964  0.00065771  1
  Cu  Cu89  1  0.15977430  0.83636848  0.75640203  1
  Cu  Cu90  1  0.16972840  0.50050478  0.75262247  1
  Cu  Cu91  1  0.49639060  0.84560284  0.24858401  1
  Cu  Cu92  1  0.01179249  0.66186418  0.50251988  1
  Cu  Cu93  1  0.00155210  0.33383397  -0.00637352  1
  Cu  Cu94  1  0.33055580  0.33845163  0.51033349  1
  Cu  Cu95  1  0.84143682  0.84108260  0.24138002  1
  Cu  Cu96  1  0.66100253  0.65915063  -0.00556927  1
  Cu  Cu97  1  0.66974696  0.01404911  0.50181899  1
  Cu  Cu98  1  0.50196444  0.16429112  0.75460124  1
  Cu  Cu99  1  0.00027506  0.66888190  -0.00324667  1
  Cu  Cu100  1  0.32431838  0.67118372  0.50630547  1
  Cu  Cu101  1  0.50292087  0.49319953  0.75744036  1
  Cu  Cu102  1  0.67635133  0.66374658  0.49863023  1
  Cu  Cu103  1  0.16123073  0.15730269  0.24288526  1
  Cu  Cu104  1  0.51334175  0.48836761  0.24051553  1
  Cu  Cu105  1  -0.00436270  0.00423923  0.50347689  1
  Cu  Cu106  1  0.66965820  0.00309059  -0.00104070  1
  Cu  Cu107  1  0.16753313  0.50321887  0.26223520  1
  Cu  Cu108  1  0.50162442  0.17292215  0.24533874  1
  Cu  Cu109  1  0.83163582  0.84846532  0.75902540  1
  Cu  Cu110  1  0.33486536  0.00164855  -0.00498531  1
  Cu  Cu111  1  0.17134990  0.16096430  0.75167448  1
  Cu  Cu112  1  0.49544484  0.83183778  0.75299012  1
  Cu  Cu113  1  0.33574682  0.33040155  -0.00897575  1
  Cu  Cu114  1  0.82660880  0.48968315  0.75443057  1
  Se  Se115  1  0.10991631  0.10333971  0.05253212  1
  Se  Se116  1  0.07175982  0.08366126  0.56726707  1
  Se  Se117  1  0.08020048  0.41244182  0.05836348  1
  Se  Se118  1  0.08315951  0.41255193  0.54992084  1
  Se  Se119  1  0.08791492  0.74986954  0.04651937  1
  Se  Se120  1  0.08527178  0.75442107  0.55477720  1
  Se  Se121  1  0.42160002  0.08601572  0.04493314  1
  Se  Se122  1  0.41684307  0.08670685  0.55247719  1
  Se  Se123  1  0.41612138  0.41462220  0.04582321  1
  Se  Se124  1  0.41604992  0.41203290  0.57142072  1
  Se  Se125  1  0.40876861  0.74229678  0.06443503  1
  Se  Se126  1  0.40940253  0.74329539  0.56835232  1
  Se  Se127  1  0.75163864  0.08081395  0.05702694  1
  Se  Se128  1  0.75377221  0.09051150  0.55990017  1
  Se  Se129  1  0.77323858  0.43830947  0.04994397  1
  Se  Se130  1  0.74111991  0.39784692  0.56108386  1
  Se  Se131  1  0.74095392  0.74275782  0.04975485  1
  Se  Se132  1  0.75577982  0.74740975  0.55422444  1
  Se  Se133  1  0.25028471  0.25310456  0.04676766  1
  Se  Se134  1  0.25519408  0.25071211  0.56769979  1
  Se  Se135  1  0.25007552  0.58883078  0.06694189  1
  Se  Se136  1  0.24936424  0.57971387  0.55914802  1
  Se  Se137  1  0.25281778  0.91898719  0.04959895  1
  Se  Se138  1  0.24690355  0.91790233  0.55418392  1
  Se  Se139  1  0.59567790  0.25166803  0.04200406  1
  Se  Se140  1  0.57300049  0.24946710  0.55406968  1
  Se  Se141  1  0.57404538  0.57866786  0.04524469  1
  Se  Se142  1  0.59211071  0.58494391  0.55607565  1
  Se  Se143  1  0.58427175  0.92135315  0.05622633  1
  Se  Se144  1  0.59334242  0.92494426  0.55952548  1
  Se  Se145  1  0.91697055  0.24663071  0.04079719  1
  Se  Se146  1  0.92254870  0.25408146  0.55997484  1
  Se  Se147  1  0.91867283  0.58267817  0.04669319  1
  Se  Se148  1  0.92824326  0.58876086  0.56576837  1
  Se  Se149  1  0.88979992  0.89394355  0.05714088  1
  Se  Se150  1  0.91320797  0.93386712  0.57011508  1
  Se  Se151  1  0.07072891  0.25740984  0.44347586  1
  Se  Se152  1  0.08818545  0.24998134  0.94498266  1
  Se  Se153  1  0.09099787  0.57613194  0.44884429  1
  Se  Se154  1  0.07771574  0.58792888  0.93320816  1
  Se  Se155  1  0.08030647  0.92095543  0.45080205  1
  Se  Se156  1  0.09278431  0.91429288  0.95496523  1
  Se  Se157  1  0.40610038  0.25481384  0.45086342  1
  Se  Se158  1  0.41887147  0.24379286  0.94219125  1
  Se  Se159  1  0.40650399  0.59563035  0.44205500  1
  Se  Se160  1  0.41062160  0.57981639  0.94957169  1
  Se  Se161  1  0.41758077  0.93279516  0.43867670  1
  Se  Se162  1  0.41776937  0.92550416  0.93297850  1
  Se  Se163  1  0.75154578  0.25028103  0.44606373  1
  Se  Se164  1  0.74146488  0.26039799  0.95338364  1
  Se  Se165  1  0.75309669  0.57454286  0.44435630  1
  Se  Se166  1  0.75306928  0.58496191  0.94244771  1
  Se  Se167  1  0.74462137  0.92695112  0.44238453  1
  Se  Se168  1  0.75394831  0.91948097  0.94781478  1
  Se  Se169  1  0.25037162  0.08092942  0.44077480  1
  Se  Se170  1  0.25210828  0.08537719  0.94217304  1
  Se  Se171  1  0.24839877  0.42136944  0.45621881  1
  Se  Se172  1  0.24852274  0.40655933  0.93159681  1
  Se  Se173  1  0.24614350  0.75824274  0.45250148  1
  Se  Se174  1  0.25019407  0.75259588  0.95009485  1
  Se  Se175  1  0.57919766  0.09191121  0.44967250  1
  Se  Se176  1  0.58498958  0.08569191  0.94704116  1
  Se  Se177  1  0.59392817  0.40664354  0.44656708  1
  Se  Se178  1  0.57007684  0.42476764  0.94955724  1
  Se  Se179  1  0.58960449  0.74552440  0.44580567  1
  Se  Se180  1  0.58615869  0.74462741  0.93337767  1
  Se  Se181  1  0.91358030  0.08158545  0.44505826  1
  Se  Se182  1  0.92829673  0.07745310  0.95563146  1
  Se  Se183  1  0.91949441  0.40852577  0.43195424  1
  Se  Se184  1  0.91594164  0.41917112  0.94568691  1
  Se  Se185  1  0.92627546  0.73540973  0.43924193  1
  Se  Se186  1  0.90974925  0.75207091  0.95055140  1
  Se  Se187  1  0.23574449  0.24167892  0.30680317  1
  Se  Se188  1  0.25658509  0.24958828  0.79942043  1
  Se  Se189  1  0.25401708  0.58447455  0.31445128  1
  Se  Se190  1  0.24981289  0.58700730  0.80434300  1
  Se  Se191  1  0.25507742  0.92186970  0.30422725  1
  Se  Se192  1  0.24769797  0.91651776  0.80826341  1
  Se  Se193  1  0.58331381  0.24975872  0.30504621  1
  Se  Se194  1  0.58448268  0.24685819  0.80860201  1
  Se  Se195  1  0.58672923  0.57602170  0.30201246  1
  Se  Se196  1  0.58589947  0.56906980  0.81979113  1
  Se  Se197  1  0.58470862  0.92639644  0.29861596  1
  Se  Se198  1  0.58325688  0.91541586  0.79959719  1
  Se  Se199  1  0.91095171  0.23493010  0.30379514  1
  Se  Se200  1  0.92787798  0.25406592  0.81134257  1
  Se  Se201  1  0.90446620  0.56584752  0.29748699  1
  Se  Se202  1  0.91135357  0.57957933  0.80229740  1
  Se  Se203  1  0.92345325  0.91850701  0.30160921  1
  Se  Se204  1  0.91803037  0.92688981  0.81132242  1
  Se  Se205  1  0.08101711  0.07894664  0.30294966  1
  Se  Se206  1  0.08596108  0.08383847  0.80852154  1
  Se  Se207  1  0.08779903  0.41419353  0.31222361  1
  Se  Se208  1  0.08021113  0.41498735  0.79617750  1
  Se  Se209  1  0.09609454  0.76110629  0.30819451  1
  Se  Se210  1  0.07586031  0.76636408  0.82138504  1
  Se  Se211  1  0.41447342  0.09244950  0.29959314  1
  Se  Se212  1  0.41409071  0.07717476  0.80056288  1
  Se  Se213  1  0.43115042  0.41991938  0.30877862  1
  Se  Se214  1  0.41637310  0.41151336  0.80804783  1
  Se  Se215  1  0.42441029  0.75978229  0.31054796  1
  Se  Se216  1  0.41399145  0.74708139  0.80407264  1
  Se  Se217  1  0.72822160  0.06764554  0.30850481  1
  Se  Se218  1  0.74707310  0.08137092  0.81003509  1
  Se  Se219  1  0.74211235  0.40267104  0.29335811  1
  Se  Se220  1  0.74955185  0.40337892  0.80810647  1
  Se  Se221  1  0.76316811  0.76693578  0.31075458  1
  Se  Se222  1  0.75126909  0.75448944  0.80745231  1
  Se  Se223  1  0.25560475  0.08291566  0.19356331  1
  Se  Se224  1  0.25286924  0.07505498  0.69872627  1
  Se  Se225  1  0.24455692  0.42252217  0.19969127  1
  Se  Se226  1  0.25249240  0.41691410  0.69888079  1
  Se  Se227  1  0.23904713  0.76552379  0.19482295  1
  Se  Se228  1  0.24222817  0.75058663  0.70327277  1
  Se  Se229  1  0.58407565  0.08813413  0.19250549  1
  Se  Se230  1  0.57979556  0.08262503  0.69394259  1
  Se  Se231  1  0.58759723  0.40422958  0.18445892  1
  Se  Se232  1  0.58839173  0.41006394  0.70659962  1
  Se  Se233  1  0.57672471  0.76445745  0.18894924  1
  Se  Se234  1  0.57647604  0.76019114  0.68443399  1
  Se  Se235  1  0.92682122  0.08354349  0.18670728  1
  Se  Se236  1  0.93385444  0.06867223  0.70212740  1
  Se  Se237  1  0.91065384  0.41434572  0.17950986  1
  Se  Se238  1  0.91040722  0.40985196  0.69847726  1
  Se  Se239  1  0.91570695  0.75699414  0.18243209  1
  Se  Se240  1  0.90881368  0.76660643  0.69643792  1
  Se  Se241  1  0.08628357  0.23950255  0.18316134  1
  Se  Se242  1  0.09265653  0.25043572  0.69927610  1
  Se  Se243  1  0.08851148  0.57807894  0.19923860  1
  Se  Se244  1  0.08825802  0.57742321  0.68858408  1
  Se  Se245  1  0.08365420  0.91421969  0.18313415  1
  Se  Se246  1  0.08147638  0.91948057  0.69971465  1
  Se  Se247  1  0.41971040  0.24354759  0.17944597  1
  Se  Se248  1  0.41309974  0.24728630  0.70376977  1
  Se  Se249  1  0.42437037  0.56948643  0.18953064  1
  Se  Se250  1  0.41957505  0.58252412  0.70859914  1
  Se  Se251  1  0.41496198  0.92768000  0.19468698  1
  Se  Se252  1  0.41429204  0.91466274  0.69605314  1
  Se  Se253  1  0.74975110  0.25583850  0.18637616  1
  Se  Se254  1  0.74536453  0.23629533  0.70139873  1
  Se  Se255  1  0.74804281  0.57731949  0.18166201  1
  Se  Se256  1  0.75084547  0.57429144  0.69335885  1
  Se  Se257  1  0.74661348  0.92040099  0.19739967  1
  Se  Se258  1  0.74093717  0.92457384  0.70659677  1
