# generated using pymatgen
data_In86Cu29Se144
_symmetry_space_group_name_H-M   'P 1'
_cell_length_a   17.77039322
_cell_length_b   17.74322188
_cell_length_c   23.61966068
_cell_angle_alpha   90.06123469
_cell_angle_beta   90.05417572
_cell_angle_gamma   89.95786141
_symmetry_Int_Tables_number   1
_chemical_formula_structural   In86Cu29Se144
_chemical_formula_sum   'In86 Cu29 Se144'
_cell_volume   7447.36460251
_cell_formula_units_Z   1
loop_
 _symmetry_equiv_pos_site_id
 _symmetry_equiv_pos_as_xyz
  1  'x, y, z'
loop_
 _atom_site_type_symbol
 _atom_site_label
 _atom_site_symmetry_multiplicity
 _atom_site_fract_x
 _atom_site_fract_y
 _atom_site_fract_z
 _atom_site_occupancy
  In  In0  1  0.01648999  0.17607942  0.12753242  1
  In  In1  1  0.00057273  0.15965977  0.62177363  1
  In  In2  1  -0.00506681  0.51180657  0.12555116  1
  In  In3  1  0.01374701  0.50224364  0.61397918  1
  In  In4  1  0.01592528  0.80282670  0.14310265  1
  In  In5  1  -0.00075885  0.82855252  0.61620765  1
  In  In6  1  0.33954711  0.17146799  0.13009317  1
  In  In7  1  0.33607147  0.18728104  0.62183662  1
  In  In8  1  0.33619163  0.50684212  0.13032947  1
  In  In9  1  0.32459801  0.50532139  0.62386557  1
  In  In10  1  0.33783807  0.83094525  0.12720260  1
  In  In11  1  0.32238039  0.82824443  0.62170098  1
  In  In12  1  0.66534927  0.18425560  0.11758709  1
  In  In13  1  0.67385153  0.19736326  0.62905464  1
  In  In14  1  0.67103395  0.49920906  0.11468933  1
  In  In15  1  0.66469064  0.48908533  0.62707119  1
  In  In16  1  0.65485697  0.83374612  0.12042719  1
  In  In17  1  0.66662836  0.82059329  0.62778722  1
  In  In18  1  0.18207644  -0.02407397  0.37909312  1
  In  In19  1  0.16648015  -0.00488122  0.87642020  1
  In  In20  1  0.16125570  0.32930236  0.38294828  1
  In  In21  1  0.17961331  0.33783441  0.87236945  1
  In  In22  1  0.15204669  0.65564137  0.37262371  1
  In  In23  1  0.17187930  0.66062710  0.87525310  1
  In  In24  1  0.48880138  -0.01155669  0.36416511  1
  In  In25  1  0.50012587  -0.00438304  0.88201973  1
  In  In26  1  0.49698509  0.33762224  0.36210408  1
  In  In27  1  0.49933156  0.34754825  0.89459792  1
  In  In28  1  0.47925932  0.64793349  0.35652747  1
  In  In29  1  0.49233182  0.66184138  0.88495133  1
  In  In30  1  0.81842239  -0.00724290  0.38038613  1
  In  In31  1  0.83450900  0.00397740  0.87398969  1
  In  In32  1  0.84407876  0.35316414  0.36178190  1
  In  In33  1  0.84010766  0.34272497  0.87495743  1
  In  In34  1  0.83625935  0.66048912  0.37767210  1
  In  In35  1  0.84441663  0.66151549  0.87090835  1
  In  In36  1  0.00486322  0.18439681  0.37615362  1
  In  In37  1  0.01013825  0.16874496  0.87346835  1
  In  In38  1  -0.00167893  0.49094484  0.37874367  1
  In  In39  1  -0.00398938  0.50963353  0.88062004  1
  In  In40  1  0.01313875  0.81080769  0.38336608  1
  In  In41  1  0.02270643  0.83040148  0.87537923  1
  In  In42  1  0.32406415  0.14938115  0.36552706  1
  In  In43  1  0.34314683  0.19730270  0.87320485  1
  In  In44  1  0.27604763  0.46234121  0.32334788  1
  In  In45  1  0.32482934  0.49507892  0.88224325  1
  In  In46  1  0.28816344  0.77776480  0.32010959  1
  In  In47  1  0.34254516  0.81940039  0.88246872  1
  In  In48  1  0.64990573  0.16826481  0.37297248  1
  In  In49  1  0.66053367  0.17155908  0.88022579  1
  In  In50  1  0.67003562  0.50970575  0.36831146  1
  In  In51  1  0.67152382  0.50472002  0.88912167  1
  In  In52  1  0.67687351  0.82179252  0.38222421  1
  In  In53  1  0.67028421  0.79477800  0.88978022  1
  In  In54  1  0.18681064  -0.00373597  0.13649071  1
  In  In55  1  0.16235328  -0.00454958  0.61409303  1
  In  In56  1  0.15446512  0.35614187  0.14561408  1
  In  In57  1  0.18034448  0.35005342  0.60386537  1
  In  In58  1  0.17114170  0.66563970  0.13322939  1
  In  In59  1  0.16724536  0.66318804  0.62158844  1
  In  In60  1  0.48523875  -0.00725078  0.11484092  1
  In  In61  1  0.50209349  0.00391252  0.63379365  1
  In  In62  1  0.50194599  0.33441107  0.12059811  1
  In  In63  1  0.49268684  0.35455473  0.63955148  1
  In  In64  1  0.50682108  0.66124305  0.11657885  1
  In  In65  1  0.48210395  0.65885659  0.62814867  1
  In  In66  1  0.83582075  -0.00463299  0.12356896  1
  In  In67  1  0.83907543  0.00230248  0.62106420  1
  In  In68  1  0.81933013  0.35584553  0.13714934  1
  In  In69  1  0.81708787  0.33713571  0.62730178  1
  In  In70  1  0.83796866  0.66004351  0.12653984  1
  In  In71  1  0.84427935  0.67258837  0.62211330  1
  In  In72  1  0.65712517  0.00510190  0.76136433  1
  In  In73  1  0.66312286  0.65715799  0.76190831  1
  In  In74  1  0.33659221  0.00061651  0.75266326  1
  In  In75  1  0.17805889  0.16663068  0.00585080  1
  In  In76  1  0.66801874  0.00690351  0.23904453  1
  In  In77  1  0.49513372  0.50746555  0.49994212  1
  In  In78  1  0.83893537  0.83429711  0.00430889  1
  In  In79  1  -0.00061646  0.00169578  0.25506055  1
  In  In80  1  -0.00194426  -0.00642683  0.73346695  1
  In  In81  1  0.82747841  0.16536389  0.50058506  1
  In  In82  1  0.84296069  0.17264734  -0.00625605  1
  In  In83  1  0.49835510  0.16570866  0.50144902  1
  In  In84  1  0.00265023  0.33237092  0.74127927  1
  In  In85  1  0.49872022  0.82743490  0.48646335  1
  Cu  Cu86  1  -0.00307080  -0.00230326  0.49716883  1
  Cu  Cu87  1  0.66639947  0.33776944  0.49738065  1
  Cu  Cu88  1  0.83657102  0.84202809  0.74244692  1
  Cu  Cu89  1  0.00146561  0.66568608  0.49863810  1
  Cu  Cu90  1  0.50283728  0.17483214  0.24432808  1
  Cu  Cu91  1  0.83064943  0.50397677  0.24898188  1
  Cu  Cu92  1  0.66825634  0.00394486  -0.00351332  1
  Cu  Cu93  1  0.32404772  0.66728283  0.00518107  1
  Cu  Cu94  1  0.49493944  0.82510553  0.76193876  1
  Cu  Cu95  1  0.01183366  0.66715567  0.00732281  1
  Cu  Cu96  1  0.17683501  0.81518279  0.74973982  1
  Cu  Cu97  1  0.83243848  0.82717784  0.25924349  1
  Cu  Cu98  1  0.31958813  0.66975421  0.48717718  1
  Cu  Cu99  1  0.83526982  0.17281876  0.24855404  1
  Cu  Cu100  1  0.33409442  0.33217896  0.48616509  1
  Cu  Cu101  1  0.66195910  -0.00537699  0.50497425  1
  Cu  Cu102  1  0.16586967  0.50039828  0.74536336  1
  Cu  Cu103  1  0.50456034  0.18441142  0.75830269  1
  Cu  Cu104  1  0.16912809  0.16178480  0.74402491  1
  Cu  Cu105  1  0.83499877  0.50431016  0.75319690  1
  Cu  Cu106  1  0.50473560  0.82782418  0.24528637  1
  Cu  Cu107  1  0.00637310  0.33894928  0.00577198  1
  Cu  Cu108  1  0.32475583  0.33965524  0.00706505  1
  Cu  Cu109  1  0.67587390  0.66308180  0.50166785  1
  Cu  Cu110  1  0.51132249  0.49995510  0.23842730  1
  Cu  Cu111  1  0.32504105  -0.00006116  0.00248638  1
  Cu  Cu112  1  0.32805234  -0.00155577  0.49748766  1
  Cu  Cu113  1  0.16575404  0.16951699  0.25507287  1
  Cu  Cu114  1  0.01152230  -0.01074241  0.00399420  1
  Se  Se115  1  0.08640353  0.07439682  0.06338197  1
  Se  Se116  1  0.07851884  0.08015448  0.55045028  1
  Se  Se117  1  0.08299293  0.42219226  0.06365942  1
  Se  Se118  1  0.07086406  0.40256538  0.54655781  1
  Se  Se119  1  0.09250192  0.74964147  0.05969315  1
  Se  Se120  1  0.08666207  0.74769536  0.55220131  1
  Se  Se121  1  0.40582635  0.08624976  0.05411844  1
  Se  Se122  1  0.40760387  0.07334214  0.56099064  1
  Se  Se123  1  0.41031650  0.41912371  0.06031462  1
  Se  Se124  1  0.40909395  0.40765553  0.55365170  1
  Se  Se125  1  0.41306687  0.74576850  0.05703433  1
  Se  Se126  1  0.40698863  0.73994689  0.55033430  1
  Se  Se127  1  0.75339877  0.07964872  0.05489422  1
  Se  Se128  1  0.73212725  0.08228273  0.56430022  1
  Se  Se129  1  0.76384308  0.42079792  0.05132230  1
  Se  Se130  1  0.74726787  0.41974377  0.55221714  1
  Se  Se131  1  0.74656183  0.74659497  0.05975396  1
  Se  Se132  1  0.75134269  0.75034172  0.55688889  1
  Se  Se133  1  0.24573208  0.26423156  0.07108499  1
  Se  Se134  1  0.25549436  0.25027173  0.54408582  1
  Se  Se135  1  0.24798301  0.58333175  0.06168405  1
  Se  Se136  1  0.24999552  0.58444227  0.55009130  1
  Se  Se137  1  0.25171942  0.91540597  0.05959057  1
  Se  Se138  1  0.24918269  0.91154442  0.55112670  1
  Se  Se139  1  0.57333033  0.24582940  0.04939073  1
  Se  Se140  1  0.58024911  0.26609669  0.55830620  1
  Se  Se141  1  0.57298829  0.56467931  0.04672952  1
  Se  Se142  1  0.58926550  0.59296096  0.56305437  1
  Se  Se143  1  0.58596817  0.92387126  0.05205350  1
  Se  Se144  1  0.57936679  0.91478289  0.56277329  1
  Se  Se145  1  0.92740591  0.25562597  0.06132312  1
  Se  Se146  1  0.91255519  0.25317252  0.56341142  1
  Se  Se147  1  0.91628114  0.58895029  0.05000810  1
  Se  Se148  1  0.91977013  0.58498115  0.55473967  1
  Se  Se149  1  0.93449648  0.91355986  0.06701978  1
  Se  Se150  1  0.91485280  0.91774494  0.55325419  1
  Se  Se151  1  0.08349698  0.24760801  0.45335986  1
  Se  Se152  1  0.08387967  0.25538679  0.94591211  1
  Se  Se153  1  0.07945717  0.57740162  0.44762559  1
  Se  Se154  1  0.08639536  0.58416805  0.94639134  1
  Se  Se155  1  0.07998178  0.91411665  0.44356860  1
  Se  Se156  1  0.09500112  0.91202548  0.94907162  1
  Se  Se157  1  0.41529892  0.24842906  0.43207074  1
  Se  Se158  1  0.41224179  0.25709751  0.95755761  1
  Se  Se159  1  0.40236562  0.58341557  0.43641415  1
  Se  Se160  1  0.40256204  0.58301536  0.94952548  1
  Se  Se161  1  0.40427069  0.91843979  0.43748182  1
  Se  Se162  1  0.40863847  0.92005525  0.94595540  1
  Se  Se163  1  0.73823888  0.25103267  0.43809688  1
  Se  Se164  1  0.74810881  0.26278554  0.94334620  1
  Se  Se165  1  0.75080677  0.57736699  0.44532053  1
  Se  Se166  1  0.73353441  0.62502258  0.93358290  1
  Se  Se167  1  0.74491844  0.91163419  0.45374356  1
  Se  Se168  1  0.74631098  0.91904428  0.93881278  1
  Se  Se169  1  0.24617148  0.07942788  0.44282457  1
  Se  Se170  1  0.26005652  0.08436714  0.93415469  1
  Se  Se171  1  0.26065509  0.42106835  0.43110135  1
  Se  Se172  1  0.23855785  0.41627416  0.95273508  1
  Se  Se173  1  0.24708296  0.75048379  0.42651598  1
  Se  Se174  1  0.24663525  0.74849232  0.94563099  1
  Se  Se175  1  0.58173473  0.06788013  0.44112889  1
  Se  Se176  1  0.58211711  0.08361050  0.94545383  1
  Se  Se177  1  0.58392795  0.41596997  0.43817723  1
  Se  Se178  1  0.57715168  0.44137975  0.95913563  1
  Se  Se179  1  0.58652607  0.72693397  0.43788646  1
  Se  Se180  1  0.55895616  0.75996330  0.95094347  1
  Se  Se181  1  0.91713369  0.07841613  0.43764910  1
  Se  Se182  1  0.93619901  0.07102579  0.94343133  1
  Se  Se183  1  0.90864579  0.41390777  0.44546747  1
  Se  Se184  1  0.92502927  0.41505084  0.94595657  1
  Se  Se185  1  0.91362590  0.74745235  0.44807841  1
  Se  Se186  1  0.93198621  0.74778272  0.94309781  1
  Se  Se187  1  0.24764160  0.25070359  0.31075110  1
  Se  Se188  1  0.24501735  0.24701340  0.80070715  1
  Se  Se189  1  0.26832268  0.60888985  0.31088913  1
  Se  Se190  1  0.24859464  0.57447785  0.80600963  1
  Se  Se191  1  0.25771639  0.91997537  0.29776115  1
  Se  Se192  1  0.24793091  0.90596191  0.80772397  1
  Se  Se193  1  0.58579690  0.25410166  0.29925634  1
  Se  Se194  1  0.57820874  0.26194180  0.82085441  1
  Se  Se195  1  0.58636609  0.58735983  0.29800220  1
  Se  Se196  1  0.57094140  0.56986900  0.81596001  1
  Se  Se197  1  0.59322409  0.91261666  0.30579909  1
  Se  Se198  1  0.58297741  0.90044663  0.81788870  1
  Se  Se199  1  0.91773386  0.25150173  0.30365867  1
  Se  Se200  1  0.91745758  0.24459446  0.80886752  1
  Se  Se201  1  0.91475938  0.57480522  0.31030876  1
  Se  Se202  1  0.92533264  0.58470336  0.80064885  1
  Se  Se203  1  0.90901143  0.91313589  0.31481269  1
  Se  Se204  1  0.91711001  0.91291270  0.80872385  1
  Se  Se205  1  0.08903710  0.08746417  0.31619141  1
  Se  Se206  1  0.08907168  0.08121023  0.80054504  1
  Se  Se207  1  0.10113227  0.42818911  0.31377881  1
  Se  Se208  1  0.08584162  0.42078877  0.80723941  1
  Se  Se209  1  0.07429329  0.73989941  0.30196947  1
  Se  Se210  1  0.08769790  0.74187003  0.80385407  1
  Se  Se211  1  0.42571517  0.08802002  0.29986591  1
  Se  Se212  1  0.42587551  0.09423334  0.81098899  1
  Se  Se213  1  0.42617646  0.44091208  0.30678799  1
  Se  Se214  1  0.39771959  0.39440106  0.82329301  1
  Se  Se215  1  0.43806308  0.78233241  0.32763496  1
  Se  Se216  1  0.41261289  0.73750365  0.80809964  1
  Se  Se217  1  0.75508191  0.09153154  0.30685921  1
  Se  Se218  1  0.75669725  0.09624504  0.80998749  1
  Se  Se219  1  0.74406837  0.41926671  0.29957480  1
  Se  Se220  1  0.75574215  0.43165453  0.81498808  1
  Se  Se221  1  0.74994171  0.74247834  0.30890086  1
  Se  Se222  1  0.75952535  0.76022933  0.80409377  1
  Se  Se223  1  0.25228774  0.09436573  0.19939837  1
  Se  Se224  1  0.24967596  0.08317895  0.68400734  1
  Se  Se225  1  0.26096341  0.42046196  0.20342678  1
  Se  Se226  1  0.24390848  0.41593226  0.68906319  1
  Se  Se227  1  0.25659245  0.75209627  0.19872941  1
  Se  Se228  1  0.25830679  0.73759955  0.69201740  1
  Se  Se229  1  0.57428318  0.09102515  0.18069202  1
  Se  Se230  1  0.57937660  0.10266783  0.69539132  1
  Se  Se231  1  0.59037592  0.41619858  0.18558003  1
  Se  Se232  1  0.59131616  0.41785688  0.70283738  1
  Se  Se233  1  0.58387227  0.74783412  0.19036344  1
  Se  Se234  1  0.57323942  0.74833533  0.69777150  1
  Se  Se235  1  0.91226067  0.09119982  0.18903729  1
  Se  Se236  1  0.90272732  0.09549306  0.69446716  1
  Se  Se237  1  0.91939212  0.42423186  0.19728811  1
  Se  Se238  1  0.91174020  0.42743527  0.68850314  1
  Se  Se239  1  0.90892344  0.74479747  0.20132480  1
  Se  Se240  1  0.92005335  0.75734065  0.69268735  1
  Se  Se241  1  0.08159605  0.25410320  0.20510629  1
  Se  Se242  1  0.09417466  0.24369495  0.68292431  1
  Se  Se243  1  0.06738199  0.60111356  0.19348650  1
  Se  Se244  1  0.08465116  0.58089206  0.69016688  1
  Se  Se245  1  0.09098930  0.91275764  0.19798166  1
  Se  Se246  1  0.09941505  0.90080653  0.68994648  1
  Se  Se247  1  0.41875240  0.25969427  0.19538597  1
  Se  Se248  1  0.41787306  0.25378515  0.69690442  1
  Se  Se249  1  0.42717151  0.58898110  0.19314217  1
  Se  Se250  1  0.43114134  0.55338165  0.69009251  1
  Se  Se251  1  0.42367607  0.91405566  0.19484722  1
  Se  Se252  1  0.42393970  0.90394353  0.69461116  1
  Se  Se253  1  0.75018777  0.24888331  0.19237195  1
  Se  Se254  1  0.75225641  0.25958414  0.70620517  1
  Se  Se255  1  0.74861308  0.57977089  0.18968269  1
  Se  Se256  1  0.75461904  0.58318727  0.69166511  1
  Se  Se257  1  0.75967643  0.90509268  0.19232896  1
  Se  Se258  1  0.74787060  0.91974086  0.69162559  1
