# generated using pymatgen
data_In86Cu29Se144
_symmetry_space_group_name_H-M   'P 1'
_cell_length_a   17.58786180
_cell_length_b   17.58492927
_cell_length_c   23.44416404
_cell_angle_alpha   90.01934755
_cell_angle_beta   89.97385339
_cell_angle_gamma   89.97974194
_symmetry_Int_Tables_number   1
_chemical_formula_structural   In86Cu29Se144
_chemical_formula_sum   'In86 Cu29 Se144'
_cell_volume   7250.84004460
_cell_formula_units_Z   1
loop_
 _symmetry_equiv_pos_site_id
 _symmetry_equiv_pos_as_xyz
  1  'x, y, z'
loop_
 _atom_site_type_symbol
 _atom_site_label
 _atom_site_symmetry_multiplicity
 _atom_site_fract_x
 _atom_site_fract_y
 _atom_site_fract_z
 _atom_site_occupancy
  In  In0  1  -0.00629947  0.18055106  0.12269698  1
  In  In1  1  -0.00142175  0.16668621  0.62510924  1
  In  In2  1  0.00502086  0.50508533  0.12257936  1
  In  In3  1  -0.00066057  0.49995950  0.62525771  1
  In  In4  1  -0.01922491  0.82657662  0.12950964  1
  In  In5  1  -0.00339255  0.83198625  0.62178019  1
  In  In6  1  0.34764110  0.16296472  0.13033933  1
  In  In7  1  0.32559275  0.16243843  0.62614308  1
  In  In8  1  0.33045694  0.50112005  0.13152007  1
  In  In9  1  0.32965166  0.50965287  0.62073505  1
  In  In10  1  0.32558230  0.82717210  0.13082167  1
  In  In11  1  0.34479421  0.85015874  0.61520375  1
  In  In12  1  0.68140419  0.15789114  0.13481976  1
  In  In13  1  0.66584336  0.14449297  0.61792614  1
  In  In14  1  0.67253865  0.49250230  0.13076378  1
  In  In15  1  0.68827249  0.50178988  0.62021053  1
  In  In16  1  0.67381187  0.83765046  0.13659046  1
  In  In17  1  0.66918457  0.83436133  0.61905653  1
  In  In18  1  0.16414640  0.00192107  0.38929018  1
  In  In19  1  0.16114754  0.00056519  0.85868359  1
  In  In20  1  0.17366550  0.32730019  0.38005297  1
  In  In21  1  0.16691303  0.35237319  0.87815236  1
  In  In22  1  0.16092640  0.66475123  0.37797301  1
  In  In23  1  0.15330133  0.66067533  0.87196516  1
  In  In24  1  0.50933424  -0.01783790  0.38378116  1
  In  In25  1  0.51400752  0.01637829  0.84712546  1
  In  In26  1  0.50580538  0.33816626  0.36678343  1
  In  In27  1  0.49308381  0.33097765  0.87597040  1
  In  In28  1  0.51205119  0.68027907  0.36905131  1
  In  In29  1  0.50739062  0.66473086  0.87024190  1
  In  In30  1  0.81940859  0.00158987  0.38701585  1
  In  In31  1  0.83359412  0.00230012  0.86387623  1
  In  In32  1  0.82000095  0.33465393  0.39422429  1
  In  In33  1  0.83926039  0.32546305  0.87810790  1
  In  In34  1  0.82979168  0.66742577  0.37796213  1
  In  In35  1  0.83301292  0.66614307  0.87184202  1
  In  In36  1  0.00044051  0.16875010  0.38377562  1
  In  In37  1  -0.01255694  0.16083465  0.86193444  1
  In  In38  1  -0.01475313  0.50992087  0.38202086  1
  In  In39  1  -0.00218498  0.50040727  0.87500697  1
  In  In40  1  0.00302951  0.82690760  0.38518688  1
  In  In41  1  -0.00415315  0.83055034  0.85875676  1
  In  In42  1  0.32785356  0.16784848  0.37687491  1
  In  In43  1  0.33801136  0.16359667  0.87272749  1
  In  In44  1  0.32727471  0.49539474  0.37028308  1
  In  In45  1  0.31493211  0.48835807  0.88129369  1
  In  In46  1  0.33589986  0.82299205  0.38094424  1
  In  In47  1  0.33114399  0.83741884  0.86837736  1
  In  In48  1  0.67572836  0.17129682  0.37464046  1
  In  In49  1  0.67713579  0.16604734  0.87083422  1
  In  In50  1  0.67194170  0.50501086  0.37368983  1
  In  In51  1  0.67489351  0.51691685  0.87364541  1
  In  In52  1  0.67064073  0.83193584  0.38174619  1
  In  In53  1  0.66962065  0.83994488  0.86079422  1
  In  In54  1  0.16605300  -0.00402585  0.12390200  1
  In  In55  1  0.16328614  -0.00097080  0.62367827  1
  In  In56  1  0.16334202  0.34716745  0.12655329  1
  In  In57  1  0.15626064  0.32121710  0.61588364  1
  In  In58  1  0.17422221  0.65374140  0.13774111  1
  In  In59  1  0.15740978  0.65596331  0.61562265  1
  In  In60  1  0.51717553  0.01053399  0.12345143  1
  In  In61  1  0.52829242  -0.03056380  0.65309373  1
  In  In62  1  0.50045621  0.33336123  0.13550442  1
  In  In63  1  0.50116420  0.31956339  0.62755117  1
  In  In64  1  0.50319801  0.66759748  0.13511644  1
  In  In65  1  0.50697081  0.69170011  0.62083719  1
  In  In66  1  0.81667995  0.00787353  0.12091793  1
  In  In67  1  0.82886978  0.00384453  0.61425184  1
  In  In68  1  0.82331451  0.32665789  0.11771258  1
  In  In69  1  0.83978844  0.34600700  0.61501142  1
  In  In70  1  0.84474288  0.66009646  0.13935667  1
  In  In71  1  0.83446046  0.66816532  0.62396509  1
  In  In72  1  0.16034463  0.82805612  -0.00368482  1
  In  In73  1  0.50170511  0.83609204  0.00234758  1
  In  In74  1  0.33734360  0.67473128  0.74305001  1
  In  In75  1  0.50665125  0.17193653  -0.01067017  1
  In  In76  1  0.49982168  0.16116924  0.50781310  1
  In  In77  1  -0.00209524  0.33863204  0.25093543  1
  In  In78  1  0.50065745  0.50437341  0.48932901  1
  In  In79  1  0.49842730  0.49853651  0.00559236  1
  In  In80  1  0.66976937  0.32841826  0.74898268  1
  In  In81  1  0.32657711  0.33418992  0.75426824  1
  In  In82  1  -0.00825431  -0.00607051  0.26061482  1
  In  In83  1  0.16154922  0.17694224  0.00003547  1
  In  In84  1  0.83274584  0.83240583  -0.00580341  1
  In  In85  1  0.34458614  -0.00996502  0.26184482  1
  Cu  Cu86  1  -0.00751411  0.00700540  -0.01111434  1
  Cu  Cu87  1  0.50610060  0.83464795  0.25553161  1
  Cu  Cu88  1  0.32667861  0.65707045  0.00383253  1
  Cu  Cu89  1  0.15868932  0.49960330  0.74659816  1
  Cu  Cu90  1  0.33723062  -0.00122192  -0.01138049  1
  Cu  Cu91  1  0.15624117  0.16787226  0.74351204  1
  Cu  Cu92  1  0.33411415  0.33771360  0.49955995  1
  Cu  Cu93  1  0.83462018  0.83656198  0.73992212  1
  Cu  Cu94  1  0.32608250  0.67130523  0.49936354  1
  Cu  Cu95  1  0.33007067  0.00253901  0.50237307  1
  Cu  Cu96  1  0.83223744  0.16427137  0.74227604  1
  Cu  Cu97  1  0.17800760  0.16685365  0.25489284  1
  Cu  Cu98  1  0.00052638  -0.00160975  0.50633992  1
  Cu  Cu99  1  0.84120082  0.50475609  0.74733050  1
  Cu  Cu100  1  0.00587779  0.65759017  0.00427437  1
  Cu  Cu101  1  0.16530050  0.83096854  0.74027529  1
  Cu  Cu102  1  0.83227438  0.16978681  0.25351587  1
  Cu  Cu103  1  -0.00412773  0.66213573  0.50180728  1
  Cu  Cu104  1  -0.01058854  0.33544459  -0.00283275  1
  Cu  Cu105  1  0.51045131  0.16656020  0.25211636  1
  Cu  Cu106  1  0.66842809  0.66777379  0.49707180  1
  Cu  Cu107  1  0.66538771  0.33610397  0.00300476  1
  Cu  Cu108  1  0.51041880  0.50412977  0.74954388  1
  Cu  Cu109  1  0.49544535  0.50139968  0.25141148  1
  Cu  Cu110  1  0.67665071  0.66883036  -0.00053893  1
  Cu  Cu111  1  0.82825750  0.49883376  0.25647505  1
  Cu  Cu112  1  0.15956646  0.82446013  0.25571864  1
  Cu  Cu113  1  0.16318543  0.50378743  0.25295924  1
  Cu  Cu114  1  0.00666744  0.33693452  0.50123383  1
  Se  Se115  1  0.07304611  0.07683756  0.05697810  1
  Se  Se116  1  0.08415601  0.08656423  0.55502857  1
  Se  Se117  1  0.07570106  0.41275894  0.05296934  1
  Se  Se118  1  0.08759950  0.42284854  0.55439348  1
  Se  Se119  1  0.07897689  0.74323697  0.06561841  1
  Se  Se120  1  0.07999658  0.74884375  0.55179267  1
  Se  Se121  1  0.41550904  0.07530451  0.05179717  1
  Se  Se122  1  0.41393472  0.07027864  0.56704563  1
  Se  Se123  1  0.41018794  0.40629939  0.06220260  1
  Se  Se124  1  0.41755590  0.41242498  0.56004629  1
  Se  Se125  1  0.40846800  0.74074556  0.05850419  1
  Se  Se126  1  0.41448771  0.75328932  0.54844284  1
  Se  Se127  1  0.74669260  0.09333491  0.04975344  1
  Se  Se128  1  0.76666252  0.10349072  0.54391978  1
  Se  Se129  1  0.74985626  0.42233282  0.05215565  1
  Se  Se130  1  0.74781994  0.41509467  0.54563426  1
  Se  Se131  1  0.75151181  0.74680693  0.06364522  1
  Se  Se132  1  0.75297039  0.74841507  0.55228032  1
  Se  Se133  1  0.25492232  0.24968834  0.06789643  1
  Se  Se134  1  0.25587456  0.25002111  0.55362382  1
  Se  Se135  1  0.24504989  0.57720377  0.05896300  1
  Se  Se136  1  0.24728896  0.57942351  0.54663814  1
  Se  Se137  1  0.25983843  0.92034973  0.05247832  1
  Se  Se138  1  0.24378405  0.91678625  0.55152801  1
  Se  Se139  1  0.58747489  0.25371097  0.06216815  1
  Se  Se140  1  0.59619977  0.25726294  0.55650460  1
  Se  Se141  1  0.59078424  0.59293516  0.05934035  1
  Se  Se142  1  0.58622600  0.58773647  0.55846826  1
  Se  Se143  1  0.59992894  0.92236223  0.05643470  1
  Se  Se144  1  0.57871003  0.92047255  0.55823090  1
  Se  Se145  1  0.90959487  0.24700653  0.04832996  1
  Se  Se146  1  0.92303641  0.25368159  0.55407445  1
  Se  Se147  1  0.91333039  0.58539583  0.05815017  1
  Se  Se148  1  0.91310640  0.57874162  0.55592980  1
  Se  Se149  1  0.92214710  0.92505470  0.05556031  1
  Se  Se150  1  0.91290578  0.91272658  0.55192098  1
  Se  Se151  1  0.08831993  0.24920388  0.44913735  1
  Se  Se152  1  0.06926116  0.25576958  0.93483654  1
  Se  Se153  1  0.08145318  0.57987978  0.44831466  1
  Se  Se154  1  0.08689671  0.57654783  0.94715580  1
  Se  Se155  1  0.08345390  0.91373953  0.45281078  1
  Se  Se156  1  0.07457692  0.92233877  0.93555290  1
  Se  Se157  1  0.41786469  0.25748632  0.44199878  1
  Se  Se158  1  0.39841772  0.26155739  0.94704579  1
  Se  Se159  1  0.40856268  0.59618198  0.43482170  1
  Se  Se160  1  0.41073191  0.58712021  0.93874545  1
  Se  Se161  1  0.40968736  0.91649643  0.44748223  1
  Se  Se162  1  0.42232859  0.92296702  0.93210042  1
  Se  Se163  1  0.76480058  0.22362981  0.45483490  1
  Se  Se164  1  0.74406732  0.25299817  0.94440465  1
  Se  Se165  1  0.75132543  0.57928870  0.44888045  1
  Se  Se166  1  0.75983724  0.58483015  0.94817277  1
  Se  Se167  1  0.74555832  0.91323643  0.45560559  1
  Se  Se168  1  0.74331734  0.92370623  0.93732470  1
  Se  Se169  1  0.25033484  0.09045746  0.45056720  1
  Se  Se170  1  0.24452918  0.07674481  0.93944106  1
  Se  Se171  1  0.25029562  0.41955649  0.44656804  1
  Se  Se172  1  0.24660226  0.41227081  0.95846202  1
  Se  Se173  1  0.24002541  0.75333584  0.44698211  1
  Se  Se174  1  0.25663986  0.73950166  0.93838585  1
  Se  Se175  1  0.59034262  0.07976783  0.44291620  1
  Se  Se176  1  0.59045069  0.07198250  0.93592239  1
  Se  Se177  1  0.59327033  0.40648702  0.44264940  1
  Se  Se178  1  0.58938547  0.41431778  0.93816713  1
  Se  Se179  1  0.57878583  0.75229206  0.45076648  1
  Se  Se180  1  0.59441768  0.74692676  0.94085737  1
  Se  Se181  1  0.92155253  0.07735758  0.44586221  1
  Se  Se182  1  0.90770822  0.08749104  0.93777846  1
  Se  Se183  1  0.91657201  0.41639471  0.45077785  1
  Se  Se184  1  0.90969650  0.42194347  0.94382897  1
  Se  Se185  1  0.91256872  0.74674273  0.44978125  1
  Se  Se186  1  0.93357796  0.74422550  0.94195475  1
  Se  Se187  1  0.25751317  0.25533009  0.30439876  1
  Se  Se188  1  0.23311766  0.24277383  0.81208478  1
  Se  Se189  1  0.24717307  0.58687419  0.30643971  1
  Se  Se190  1  0.24846115  0.57736217  0.80301865  1
  Se  Se191  1  0.23774576  0.91119333  0.31323740  1
  Se  Se192  1  0.24654682  0.91171653  0.79781763  1
  Se  Se193  1  0.59253305  0.25196353  0.30453902  1
  Se  Se194  1  0.57215062  0.24305915  0.80802606  1
  Se  Se195  1  0.58126699  0.58031696  0.30618158  1
  Se  Se196  1  0.59275968  0.58971951  0.79961330  1
  Se  Se197  1  0.59101999  0.91613707  0.30715190  1
  Se  Se198  1  0.58335402  0.91229130  0.79099597  1
  Se  Se199  1  0.91149992  0.24990028  0.31390719  1
  Se  Se200  1  0.90947191  0.25305524  0.79696627  1
  Se  Se201  1  0.91247357  0.58506309  0.30504298  1
  Se  Se202  1  0.92175991  0.58763628  0.80467194  1
  Se  Se203  1  0.90453318  0.90701653  0.32046421  1
  Se  Se204  1  0.91722124  0.92043246  0.79532202  1
  Se  Se205  1  0.09177610  0.08870501  0.31003442  1
  Se  Se206  1  0.07294846  0.08053234  0.79427450  1
  Se  Se207  1  0.08575409  0.42310298  0.31544143  1
  Se  Se208  1  0.08007209  0.41672605  0.80376593  1
  Se  Se209  1  0.07416058  0.74529466  0.30860682  1
  Se  Se210  1  0.08721187  0.74712407  0.79792366  1
  Se  Se211  1  0.43196736  0.08792300  0.31626722  1
  Se  Se212  1  0.39740075  0.07547717  0.79943405  1
  Se  Se213  1  0.41353752  0.41483149  0.30254836  1
  Se  Se214  1  0.42194219  0.43199993  0.80857473  1
  Se  Se215  1  0.41519693  0.75324457  0.30296668  1
  Se  Se216  1  0.42940227  0.75950051  0.80488896  1
  Se  Se217  1  0.75379729  0.08198975  0.30648161  1
  Se  Se218  1  0.74638233  0.08292470  0.79559897  1
  Se  Se219  1  0.75380002  0.41021347  0.31199989  1
  Se  Se220  1  0.75756607  0.42414622  0.80741528  1
  Se  Se221  1  0.72857605  0.73124789  0.31323272  1
  Se  Se222  1  0.75875335  0.75360472  0.80164080  1
  Se  Se223  1  0.25086188  0.07832260  0.19616204  1
  Se  Se224  1  0.24266914  0.08330895  0.69588606  1
  Se  Se225  1  0.24623429  0.41793917  0.20059502  1
  Se  Se226  1  0.24303633  0.42134535  0.68765362  1
  Se  Se227  1  0.25016655  0.74765537  0.20299802  1
  Se  Se228  1  0.24589813  0.75372927  0.67844261  1
  Se  Se229  1  0.59240219  0.07870991  0.20228423  1
  Se  Se230  1  0.57473118  0.09718044  0.69516989  1
  Se  Se231  1  0.58309719  0.41884294  0.20007663  1
  Se  Se232  1  0.58206789  0.42152477  0.68712154  1
  Se  Se233  1  0.58793670  0.75143649  0.19967931  1
  Se  Se234  1  0.59256510  0.75313069  0.69471349  1
  Se  Se235  1  0.91613568  0.09199743  0.19362179  1
  Se  Se236  1  0.91344913  0.07949205  0.68858792  1
  Se  Se237  1  0.90600864  0.42235356  0.18912958  1
  Se  Se238  1  0.91713936  0.41487259  0.69453363  1
  Se  Se239  1  0.91260508  0.75393490  0.20749847  1
  Se  Se240  1  0.91954577  0.74745052  0.69420837  1
  Se  Se241  1  0.09243921  0.24266995  0.19542494  1
  Se  Se242  1  0.07629050  0.25711784  0.69497168  1
  Se  Se243  1  0.07449189  0.58376003  0.20106276  1
  Se  Se244  1  0.07982703  0.58732270  0.69474602  1
  Se  Se245  1  0.08639010  0.90965034  0.19381552  1
  Se  Se246  1  0.07901471  0.91602407  0.69169101  1
  Se  Se247  1  0.41961463  0.24588878  0.20275899  1
  Se  Se248  1  0.41762308  0.24161836  0.69908072  1
  Se  Se249  1  0.41360819  0.58610877  0.19806150  1
  Se  Se250  1  0.43003674  0.58041407  0.68642646  1
  Se  Se251  1  0.42999290  0.91184485  0.18696050  1
  Se  Se252  1  0.40707761  0.91641646  0.70049172  1
  Se  Se253  1  0.75167573  0.25626735  0.19924173  1
  Se  Se254  1  0.75411763  0.24578704  0.68115789  1
  Se  Se255  1  0.74707725  0.58175945  0.19935935  1
  Se  Se256  1  0.75278655  0.58527880  0.69657113  1
  Se  Se257  1  0.76904317  0.91553194  0.19658292  1
  Se  Se258  1  0.75207708  0.92079299  0.68734022  1
