# generated using pymatgen
data_In86Cu29Se144
_symmetry_space_group_name_H-M   'P 1'
_cell_length_a   17.56595315
_cell_length_b   17.56618152
_cell_length_c   23.41081500
_cell_angle_alpha   89.97969733
_cell_angle_beta   89.98695426
_cell_angle_gamma   90.00706130
_symmetry_Int_Tables_number   1
_chemical_formula_structural   In86Cu29Se144
_chemical_formula_sum   'In86 Cu29 Se144'
_cell_volume   7223.79774087
_cell_formula_units_Z   1
loop_
 _symmetry_equiv_pos_site_id
 _symmetry_equiv_pos_as_xyz
  1  'x, y, z'
loop_
 _atom_site_type_symbol
 _atom_site_label
 _atom_site_symmetry_multiplicity
 _atom_site_fract_x
 _atom_site_fract_y
 _atom_site_fract_z
 _atom_site_occupancy
  In  In0  1  -0.00106635  0.18289577  0.12513108  1
  In  In1  1  0.00576237  0.19086181  0.61325314  1
  In  In2  1  -0.00455303  0.48421027  0.11653418  1
  In  In3  1  -0.01615521  0.46854844  0.60725409  1
  In  In4  1  0.00064389  0.82755821  0.12912773  1
  In  In5  1  0.01218106  0.82684727  0.62495436  1
  In  In6  1  0.34102653  0.15861522  0.13689110  1
  In  In7  1  0.34299300  0.16508669  0.62388124  1
  In  In8  1  0.32434335  0.49260864  0.11688219  1
  In  In9  1  0.33592033  0.50172079  0.62585232  1
  In  In10  1  0.34680942  0.84259900  0.12745091  1
  In  In11  1  0.33987268  0.83830251  0.62224431  1
  In  In12  1  0.65722644  0.16429288  0.12039274  1
  In  In13  1  0.67226533  0.16426283  0.61425216  1
  In  In14  1  0.66459209  0.49614258  0.11926480  1
  In  In15  1  0.65764438  0.49668695  0.62148765  1
  In  In16  1  0.66793344  0.83836242  0.12844787  1
  In  In17  1  0.65532733  0.85258318  0.62426351  1
  In  In18  1  0.18278362  -0.00626974  0.39871412  1
  In  In19  1  0.17478967  -0.00691849  0.86874326  1
  In  In20  1  0.17838341  0.32282702  0.39299914  1
  In  In21  1  0.17810027  0.34649383  0.85980377  1
  In  In22  1  0.17177409  0.66356095  0.38224297  1
  In  In23  1  0.16839148  0.65425563  0.87003616  1
  In  In24  1  0.49709377  0.00730220  0.38785840  1
  In  In25  1  0.51213290  0.01056158  0.85747484  1
  In  In26  1  0.48982956  0.34318716  0.38116148  1
  In  In27  1  0.50081114  0.33096807  0.87173177  1
  In  In28  1  0.50888386  0.67094604  0.39256826  1
  In  In29  1  0.48539752  0.66440921  0.86808453  1
  In  In30  1  0.83292081  0.01847347  0.37829549  1
  In  In31  1  0.82532913  0.01761172  0.87100856  1
  In  In32  1  0.82968069  0.33764875  0.38482398  1
  In  In33  1  0.82753030  0.33444873  0.86439505  1
  In  In34  1  0.82036703  0.65609174  0.37806007  1
  In  In35  1  0.82079073  0.65415438  0.87028327  1
  In  In36  1  0.00252873  0.18460080  0.39640503  1
  In  In37  1  -0.02001794  0.16819470  0.87168371  1
  In  In38  1  -0.00241526  0.49700733  0.38556572  1
  In  In39  1  0.00133174  0.49136374  0.87046902  1
  In  In40  1  0.00183748  0.84824120  0.38218908  1
  In  In41  1  0.00598810  0.82908970  0.86815164  1
  In  In42  1  0.33561681  0.16783603  0.38798578  1
  In  In43  1  0.34243246  0.17831614  0.86260859  1
  In  In44  1  0.34358532  0.49341668  0.37986247  1
  In  In45  1  0.32963172  0.49762818  0.86969953  1
  In  In46  1  0.33537018  0.84862902  0.39499487  1
  In  In47  1  0.35774634  0.84376771  0.84921158  1
  In  In48  1  0.66731225  0.14972149  0.39063758  1
  In  In49  1  0.66588582  0.16889412  0.86710372  1
  In  In50  1  0.67274596  0.50320748  0.39246115  1
  In  In51  1  0.67856045  0.47972590  0.87610620  1
  In  In52  1  0.63400522  0.84675407  0.40060968  1
  In  In53  1  0.64543295  0.84613115  0.86414095  1
  In  In54  1  0.18026828  0.01456990  0.13084915  1
  In  In55  1  0.20360424  0.02266845  0.59816789  1
  In  In56  1  0.16456988  0.33709977  0.12431660  1
  In  In57  1  0.16950652  0.33840595  0.62747274  1
  In  In58  1  0.17811919  0.65684444  0.12670374  1
  In  In59  1  0.17617769  0.67270715  0.61832181  1
  In  In60  1  0.49644376  0.00558677  0.13447242  1
  In  In61  1  0.49491132  0.00573363  0.61454053  1
  In  In62  1  0.49556724  0.32516668  0.11898090  1
  In  In63  1  0.50088017  0.33293556  0.62688791  1
  In  In64  1  0.50783237  0.66695472  0.12359527  1
  In  In65  1  0.49760961  0.65221233  0.61905300  1
  In  In66  1  0.81215866  0.00235689  0.12889033  1
  In  In67  1  0.81187971  0.01211177  0.62461117  1
  In  In68  1  0.83426390  0.33163251  0.11896248  1
  In  In69  1  0.83288500  0.33217246  0.62491923  1
  In  In70  1  0.84069539  0.65524719  0.12549925  1
  In  In71  1  0.83766952  0.65345307  0.62430125  1
  In  In72  1  0.66299464  0.66769529  0.25174231  1
  In  In73  1  0.33809589  0.67394675  0.25296484  1
  In  In74  1  0.00339702  0.00327643  0.74373509  1
  In  In75  1  0.00898814  0.66036329  0.74887441  1
  In  In76  1  0.82871415  0.82599797  0.00216517  1
  In  In77  1  0.00615968  0.01418179  0.26323475  1
  In  In78  1  0.00142807  0.33298392  0.25212769  1
  In  In79  1  0.16559826  0.17424126  -0.00318847  1
  In  In80  1  0.00140108  0.66514678  0.26147259  1
  In  In81  1  0.16769448  0.82135004  -0.00524070  1
  In  In82  1  0.66321344  0.66361752  0.74121196  1
  In  In83  1  0.66398585  0.33143435  0.26172959  1
  In  In84  1  0.84102739  0.82970742  0.50300095  1
  In  In85  1  0.49683608  0.82734108  -0.00446410  1
  Cu  Cu86  1  0.82628917  0.16915722  0.74460669  1
  Cu  Cu87  1  0.66589058  0.00701041  -0.00349556  1
  Cu  Cu88  1  0.18022740  0.16187306  0.26606014  1
  Cu  Cu89  1  0.16705045  0.16535679  0.73716966  1
  Cu  Cu90  1  0.17462923  0.85135288  0.25953408  1
  Cu  Cu91  1  0.16629901  0.49151496  0.24983479  1
  Cu  Cu92  1  0.66293793  0.64904546  -0.00513742  1
  Cu  Cu93  1  0.50309229  0.16565918  0.74093221  1
  Cu  Cu94  1  0.49894202  0.49956929  0.25297519  1
  Cu  Cu95  1  0.82816250  0.16602087  0.25436675  1
  Cu  Cu96  1  -0.00840733  0.00708697  -0.00123175  1
  Cu  Cu97  1  0.33271538  0.66309054  0.50238158  1
  Cu  Cu98  1  0.49354266  0.85032710  0.26364523  1
  Cu  Cu99  1  0.33564591  0.33286473  -0.00749105  1
  Cu  Cu100  1  0.00167845  0.00065645  0.50626450  1
  Cu  Cu101  1  0.18448471  0.84359441  0.73507921  1
  Cu  Cu102  1  -0.00564798  0.64921954  -0.00436248  1
  Cu  Cu103  1  0.66187027  0.33171078  0.50369745  1
  Cu  Cu104  1  0.34022178  0.00695828  0.00010968  1
  Cu  Cu105  1  0.33805822  0.33916318  0.50962448  1
  Cu  Cu106  1  0.00682439  0.66029614  0.50326504  1
  Cu  Cu107  1  0.49701918  0.16345261  0.25764073  1
  Cu  Cu108  1  -0.00522800  0.32997446  -0.00749772  1
  Cu  Cu109  1  0.82714386  0.83828346  0.74305163  1
  Cu  Cu110  1  0.49981980  0.49545680  0.74961301  1
  Cu  Cu111  1  0.16752468  0.50608933  0.74037822  1
  Cu  Cu112  1  0.81571549  0.83694049  0.25577396  1
  Cu  Cu113  1  0.32269150  0.65515157  -0.00915925  1
  Cu  Cu114  1  0.66771546  0.32947373  -0.00722675  1
  Se  Se115  1  0.07803225  0.07938102  0.06016335  1
  Se  Se116  1  0.08265298  0.08808309  0.55678929  1
  Se  Se117  1  0.08296425  0.40744758  0.04846289  1
  Se  Se118  1  0.08836078  0.40538403  0.54666923  1
  Se  Se119  1  0.07244063  0.73287232  0.05738302  1
  Se  Se120  1  0.08737985  0.75079733  0.54951767  1
  Se  Se121  1  0.41989215  0.08509019  0.05949489  1
  Se  Se122  1  0.40236163  0.07715013  0.54585677  1
  Se  Se123  1  0.41552435  0.41424852  0.05298037  1
  Se  Se124  1  0.42544998  0.42375821  0.55788824  1
  Se  Se125  1  0.40111686  0.73633101  0.05530405  1
  Se  Se126  1  0.41713747  0.74424690  0.55565011  1
  Se  Se127  1  0.74927454  0.08705818  0.05294395  1
  Se  Se128  1  0.74696026  0.07899171  0.54112922  1
  Se  Se129  1  0.74729354  0.41173924  0.05235940  1
  Se  Se130  1  0.74643748  0.41495620  0.55618628  1
  Se  Se131  1  0.73523343  0.73308464  0.06112678  1
  Se  Se132  1  0.75099038  0.75319462  0.57042629  1
  Se  Se133  1  0.26103376  0.25302139  0.06035389  1
  Se  Se134  1  0.25535019  0.25426401  0.56147756  1
  Se  Se135  1  0.23983905  0.57531999  0.04807085  1
  Se  Se136  1  0.24979778  0.57704809  0.55341376  1
  Se  Se137  1  0.25508848  0.92187098  0.05533959  1
  Se  Se138  1  0.24364681  0.89876039  0.55001278  1
  Se  Se139  1  0.58310540  0.24969407  0.04972825  1
  Se  Se140  1  0.57708456  0.24863914  0.55478820  1
  Se  Se141  1  0.57508505  0.57643441  0.05310670  1
  Se  Se142  1  0.59633241  0.59204399  0.54969239  1
  Se  Se143  1  0.58638674  0.92108625  0.05567450  1
  Se  Se144  1  0.57465339  0.91590963  0.54492388  1
  Se  Se145  1  0.91457247  0.24712476  0.04920990  1
  Se  Se146  1  0.89452848  0.23770152  0.55164732  1
  Se  Se147  1  0.91008775  0.57060183  0.05177642  1
  Se  Se148  1  0.91824659  0.57912540  0.55113595  1
  Se  Se149  1  0.91888853  0.92103682  0.06180605  1
  Se  Se150  1  0.92079888  0.92444395  0.56806125  1
  Se  Se151  1  0.07304316  0.27766591  0.46387994  1
  Se  Se152  1  0.07904144  0.25661481  0.92995253  1
  Se  Se153  1  0.09030586  0.57761115  0.44795423  1
  Se  Se154  1  0.08375442  0.57656350  0.93945656  1
  Se  Se155  1  0.08497827  0.91311033  0.45782654  1
  Se  Se156  1  0.07470810  0.92466138  0.94229304  1
  Se  Se157  1  0.41891722  0.25603043  0.45340631  1
  Se  Se158  1  0.41806162  0.24615058  0.94256269  1
  Se  Se159  1  0.41928424  0.58147467  0.44886104  1
  Se  Se160  1  0.41513446  0.57852587  0.94097692  1
  Se  Se161  1  0.44965377  0.89537037  0.45562826  1
  Se  Se162  1  0.41491874  0.92462806  0.93628064  1
  Se  Se163  1  0.74510778  0.25040559  0.44738575  1
  Se  Se164  1  0.75071328  0.24877144  0.93667973  1
  Se  Se165  1  0.76024501  0.58103890  0.45952116  1
  Se  Se166  1  0.75409840  0.57123108  0.94594250  1
  Se  Se167  1  0.75345552  0.92190158  0.44369219  1
  Se  Se168  1  0.74096141  0.91758987  0.93856233  1
  Se  Se169  1  0.24242259  0.09961367  0.45916234  1
  Se  Se170  1  0.25587061  0.08125181  0.93833943  1
  Se  Se171  1  0.25697929  0.42114753  0.45150916  1
  Se  Se172  1  0.24831833  0.41529112  0.94243705  1
  Se  Se173  1  0.25081396  0.74994941  0.44932583  1
  Se  Se174  1  0.26246145  0.75021437  0.92763917  1
  Se  Se175  1  0.56439139  0.09901899  0.45896122  1
  Se  Se176  1  0.58264218  0.08333437  0.93739932  1
  Se  Se177  1  0.58053755  0.41810673  0.44955980  1
  Se  Se178  1  0.58089236  0.41416198  0.94362497  1
  Se  Se179  1  0.61509776  0.72349169  0.45784263  1
  Se  Se180  1  0.59195453  0.73946863  0.93598990  1
  Se  Se181  1  0.92150147  0.08402697  0.45074692  1
  Se  Se182  1  0.90693257  0.08725851  0.94722415  1
  Se  Se183  1  0.91507768  0.41527269  0.45163920  1
  Se  Se184  1  0.91269684  0.41266801  0.93699141  1
  Se  Se185  1  0.92773804  0.73772791  0.43773075  1
  Se  Se186  1  0.92234804  0.74005897  0.93746768  1
  Se  Se187  1  0.25740682  0.25430244  0.31512845  1
  Se  Se188  1  0.24764628  0.24847847  0.79609198  1
  Se  Se189  1  0.24661178  0.57743275  0.30621075  1
  Se  Se190  1  0.25275663  0.58456847  0.79684544  1
  Se  Se191  1  0.25879169  0.92599513  0.31800087  1
  Se  Se192  1  0.26046146  0.92815848  0.79402082  1
  Se  Se193  1  0.57623563  0.24070805  0.32046811  1
  Se  Se194  1  0.58090672  0.25035069  0.79928725  1
  Se  Se195  1  0.57761297  0.57634185  0.31470657  1
  Se  Se196  1  0.58349166  0.57424204  0.81120435  1
  Se  Se197  1  0.58366081  0.92651414  0.31605574  1
  Se  Se198  1  0.56580260  0.91009494  0.78726206  1
  Se  Se199  1  0.91210686  0.24293954  0.31285424  1
  Se  Se200  1  0.91388368  0.25078407  0.79578215  1
  Se  Se201  1  0.90768301  0.57045359  0.30857697  1
  Se  Se202  1  0.90838809  0.57475749  0.80179064  1
  Se  Se203  1  0.90739426  0.91493572  0.30849405  1
  Se  Se204  1  0.91004812  0.91380181  0.80687902  1
  Se  Se205  1  0.09309572  0.09569971  0.32926925  1
  Se  Se206  1  0.09012019  0.09361217  0.80893619  1
  Se  Se207  1  0.09191496  0.41621280  0.31620594  1
  Se  Se208  1  0.08433619  0.42188782  0.79469490  1
  Se  Se209  1  0.09399938  0.76488730  0.31310426  1
  Se  Se210  1  0.10302010  0.76388500  0.79799608  1
  Se  Se211  1  0.41367156  0.08417365  0.31508355  1
  Se  Se212  1  0.41497456  0.08566294  0.79548607  1
  Se  Se213  1  0.41313690  0.41445347  0.30148865  1
  Se  Se214  1  0.41432490  0.41273929  0.80378277  1
  Se  Se215  1  0.42454329  0.75644206  0.32023426  1
  Se  Se216  1  0.42257130  0.74209527  0.78892448  1
  Se  Se217  1  0.74267636  0.08462511  0.30627548  1
  Se  Se218  1  0.74306314  0.08176265  0.79443422  1
  Se  Se219  1  0.75408996  0.42888501  0.31209066  1
  Se  Se220  1  0.74099449  0.40917996  0.79332325  1
  Se  Se221  1  0.74190480  0.75847380  0.31896990  1
  Se  Se222  1  0.75050803  0.75911751  0.80689878  1
  Se  Se223  1  0.25931645  0.07855504  0.20928459  1
  Se  Se224  1  0.25481864  0.08102412  0.69214070  1
  Se  Se225  1  0.25109265  0.41296288  0.19387586  1
  Se  Se226  1  0.25515442  0.41785348  0.69632649  1
  Se  Se227  1  0.24247269  0.76479273  0.19356401  1
  Se  Se228  1  0.26003855  0.74621034  0.69070095  1
  Se  Se229  1  0.58437978  0.08862961  0.19901739  1
  Se  Se230  1  0.58320148  0.08495765  0.68328169  1
  Se  Se231  1  0.57842205  0.41755206  0.19395671  1
  Se  Se232  1  0.58457505  0.41534505  0.69649607  1
  Se  Se233  1  0.56723503  0.76622620  0.19875167  1
  Se  Se234  1  0.57303177  0.75438354  0.68583627  1
  Se  Se235  1  0.91356448  0.09120191  0.19262766  1
  Se  Se236  1  0.91377706  0.09324690  0.68503709  1
  Se  Se237  1  0.90649703  0.42061891  0.19518552  1
  Se  Se238  1  0.92169874  0.40830594  0.69463655  1
  Se  Se239  1  0.90310429  0.75617872  0.20023788  1
  Se  Se240  1  0.91230300  0.75460704  0.69294729  1
  Se  Se241  1  0.09936803  0.23673566  0.20019377  1
  Se  Se242  1  0.08132945  0.25549543  0.69536141  1
  Se  Se243  1  0.08379449  0.57381467  0.19217237  1
  Se  Se244  1  0.08338644  0.57637543  0.67624725  1
  Se  Se245  1  0.08799702  0.91945806  0.19499215  1
  Se  Se246  1  0.09768649  0.92353596  0.68101437  1
  Se  Se247  1  0.42304022  0.25080424  0.19897102  1
  Se  Se248  1  0.41519953  0.25289126  0.69608892  1
  Se  Se249  1  0.42099007  0.57925398  0.18999360  1
  Se  Se250  1  0.41949923  0.58151921  0.69749832  1
  Se  Se251  1  0.41051888  0.92589407  0.20416743  1
  Se  Se252  1  0.41940164  0.92407705  0.68967416  1
  Se  Se253  1  0.75197238  0.24741936  0.19310890  1
  Se  Se254  1  0.74227170  0.24967416  0.68991278  1
  Se  Se255  1  0.75198381  0.57342646  0.19439692  1
  Se  Se256  1  0.75881844  0.56740239  0.69411974  1
  Se  Se257  1  0.73656069  0.92369430  0.20286249  1
  Se  Se258  1  0.74175399  0.92458020  0.69740680  1
