# generated using pymatgen
data_In86Cu29Se144
_symmetry_space_group_name_H-M   'P 1'
_cell_length_a   17.57031318
_cell_length_b   17.56907423
_cell_length_c   23.43687427
_cell_angle_alpha   89.98960529
_cell_angle_beta   89.98283779
_cell_angle_gamma   90.00485695
_symmetry_Int_Tables_number   1
_chemical_formula_structural   In86Cu29Se144
_chemical_formula_sum   'In86 Cu29 Se144'
_cell_volume   7234.82519800
_cell_formula_units_Z   1
loop_
 _symmetry_equiv_pos_site_id
 _symmetry_equiv_pos_as_xyz
  1  'x, y, z'
loop_
 _atom_site_type_symbol
 _atom_site_label
 _atom_site_symmetry_multiplicity
 _atom_site_fract_x
 _atom_site_fract_y
 _atom_site_fract_z
 _atom_site_occupancy
  In  In0  1  0.01500412  0.16625326  0.13054256  1
  In  In1  1  0.01021880  0.16373660  0.62581612  1
  In  In2  1  -0.01154912  0.49498507  0.11866012  1
  In  In3  1  -0.00023548  0.49970380  0.62713541  1
  In  In4  1  0.01499116  0.81998605  0.12175657  1
  In  In5  1  -0.00677958  0.82665493  0.61921991  1
  In  In6  1  0.33173417  0.16589192  0.12669806  1
  In  In7  1  0.33236807  0.16762262  0.62449715  1
  In  In8  1  0.34765509  0.48895701  0.13561556  1
  In  In9  1  0.31576336  0.49614871  0.62346847  1
  In  In10  1  0.33372445  0.83631347  0.12371750  1
  In  In11  1  0.33521050  0.84534869  0.62601751  1
  In  In12  1  0.66212930  0.17574087  0.11801608  1
  In  In13  1  0.67151375  0.18288766  0.62483541  1
  In  In14  1  0.66810176  0.49817372  0.11416890  1
  In  In15  1  0.67584762  0.49298902  0.63131738  1
  In  In16  1  0.65598055  0.84669223  0.12115969  1
  In  In17  1  0.66528514  0.81970328  0.63193372  1
  In  In18  1  0.17129326  -0.00411440  0.37707781  1
  In  In19  1  0.17835407  -0.00559470  0.87913326  1
  In  In20  1  0.16938924  0.33420222  0.37834058  1
  In  In21  1  0.15653826  0.32342789  0.86821654  1
  In  In22  1  0.16680196  0.65953607  0.37983170  1
  In  In23  1  0.16860055  0.67786573  0.87529193  1
  In  In24  1  0.49521581  0.01560735  0.37654208  1
  In  In25  1  0.49045679  0.01968606  0.88987123  1
  In  In26  1  0.46693326  0.32734040  0.36981577  1
  In  In27  1  0.49752260  0.33330157  0.87409794  1
  In  In28  1  0.49390824  0.67323396  0.36934106  1
  In  In29  1  0.51137106  0.65571042  0.88330462  1
  In  In30  1  0.82172753  -0.00311874  0.38279071  1
  In  In31  1  0.82837262  -0.00019738  0.87298338  1
  In  In32  1  0.85010492  0.33297936  0.37625679  1
  In  In33  1  0.84806647  0.34018879  0.86360427  1
  In  In34  1  0.83709241  0.66126303  0.38708446  1
  In  In35  1  0.82582483  0.65818596  0.86697758  1
  In  In36  1  0.00536988  0.18916603  0.36995524  1
  In  In37  1  0.00056923  0.18035849  0.87445285  1
  In  In38  1  0.00870196  0.48903835  0.38397156  1
  In  In39  1  -0.00664971  0.49451240  0.86974564  1
  In  In40  1  0.00259514  0.82824756  0.38411085  1
  In  In41  1  0.01482071  0.83045623  0.87393925  1
  In  In42  1  0.32937407  0.16815951  0.37721805  1
  In  In43  1  0.33245900  0.16839758  0.87563209  1
  In  In44  1  0.31712607  0.47773176  0.35699511  1
  In  In45  1  0.34708683  0.49698492  0.87737166  1
  In  In46  1  0.32092589  0.82545421  0.36648871  1
  In  In47  1  0.32578383  0.84239842  0.87998695  1
  In  In48  1  0.65790163  0.15433564  0.38030372  1
  In  In49  1  0.65098747  0.16478371  0.87370949  1
  In  In50  1  0.66509138  0.50789847  0.38109736  1
  In  In51  1  0.66834348  0.49950579  0.87342243  1
  In  In52  1  0.66787027  0.84760759  0.38427869  1
  In  In53  1  0.66962390  0.82462780  0.87610668  1
  In  In54  1  0.18489839  0.02175341  0.11663086  1
  In  In55  1  0.17638129  0.01169589  0.61544991  1
  In  In56  1  0.17857041  0.31653700  0.13989044  1
  In  In57  1  0.16609130  0.33155124  0.62736062  1
  In  In58  1  0.16846930  0.67995957  0.11768223  1
  In  In59  1  0.15640108  0.65372291  0.61740548  1
  In  In60  1  0.49100696  -0.00890442  0.11303771  1
  In  In61  1  0.48322817  -0.00298409  0.62867427  1
  In  In62  1  0.49737327  0.32855510  0.11675138  1
  In  In63  1  0.50791098  0.32453172  0.63070119  1
  In  In64  1  0.48657097  0.65569063  0.11534214  1
  In  In65  1  0.50575262  0.67572533  0.63167262  1
  In  In66  1  0.83549177  -0.00195864  0.12526050  1
  In  In67  1  0.84309805  0.00352420  0.62030585  1
  In  In68  1  0.82892375  0.34081144  0.12595530  1
  In  In69  1  0.81998763  0.34000394  0.63377518  1
  In  In70  1  0.84741599  0.65320801  0.11781388  1
  In  In71  1  0.83680625  0.66504476  0.62918453  1
  In  In72  1  0.00677076  0.66210303  0.24675846  1
  In  In73  1  0.66492143  0.33169119  0.24426868  1
  In  In74  1  0.16933233  0.49900598  0.00140241  1
  In  In75  1  0.49558918  0.49673268  0.49524414  1
  In  In76  1  0.83734738  0.16846310  0.49944964  1
  In  In77  1  0.00749847  0.00650084  0.25402707  1
  In  In78  1  0.66124084  0.00242683  0.75388326  1
  In  In79  1  0.66020731  0.00525276  0.25652620  1
  In  In80  1  0.50268044  0.83589511  0.50310920  1
  In  In81  1  0.66123230  0.66744522  0.24891136  1
  In  In82  1  0.83023420  0.16927176  -0.00315175  1
  In  In83  1  0.00496368  0.00305119  0.74110269  1
  In  In84  1  0.33398447  0.66212934  0.75082790  1
  In  In85  1  0.83191673  0.82698336  -0.00386761  1
  Cu  Cu86  1  0.16473566  0.49860755  0.25389236  1
  Cu  Cu87  1  0.00588404  -0.00050659  0.49860189  1
  Cu  Cu88  1  0.67561086  0.66335054  0.50756768  1
  Cu  Cu89  1  0.49242923  0.16853934  0.24715066  1
  Cu  Cu90  1  0.32932928  0.00421773  0.00198946  1
  Cu  Cu91  1  0.33309172  0.32925060  0.00351705  1
  Cu  Cu92  1  0.32831592  0.66517156  0.49467108  1
  Cu  Cu93  1  0.17356719  0.84169489  0.24600882  1
  Cu  Cu94  1  0.16217639  0.49443583  0.74859827  1
  Cu  Cu95  1  0.66601370  0.66669010  -0.00442942  1
  Cu  Cu96  1  0.00302502  0.33353258  -0.00382789  1
  Cu  Cu97  1  0.83747910  0.82953882  0.74822540  1
  Cu  Cu98  1  0.33701366  0.67228406  -0.00076607  1
  Cu  Cu99  1  0.83367113  0.82925678  0.25709783  1
  Cu  Cu100  1  0.48595161  0.83592996  0.24382902  1
  Cu  Cu101  1  0.50332203  0.49622150  0.75463610  1
  Cu  Cu102  1  0.33281508  0.00190434  0.49928011  1
  Cu  Cu103  1  0.83773393  0.49442108  0.25081387  1
  Cu  Cu104  1  0.17339072  0.16446866  0.74799950  1
  Cu  Cu105  1  0.66626284  0.33992677  -0.00543935  1
  Cu  Cu106  1  0.66343571  0.33519464  0.50424853  1
  Cu  Cu107  1  0.49765273  0.83284757  0.75610671  1
  Cu  Cu108  1  0.83373329  0.50439786  0.74864032  1
  Cu  Cu109  1  0.16845202  0.83175061  0.74962042  1
  Cu  Cu110  1  0.32719896  0.32843962  0.49957389  1
  Cu  Cu111  1  -0.00288333  0.66732224  0.50491284  1
  Cu  Cu112  1  0.49108250  0.16852400  0.75271221  1
  Cu  Cu113  1  0.00971237  -0.00290020  -0.00042829  1
  Cu  Cu114  1  0.00301680  0.34072961  0.50372943  1
  Se  Se115  1  0.08386560  0.08855801  0.05194650  1
  Se  Se116  1  0.08525081  0.08871199  0.54918857  1
  Se  Se117  1  0.08532324  0.40428205  0.06219935  1
  Se  Se118  1  0.08830771  0.42060425  0.55862302  1
  Se  Se119  1  0.07398528  0.73603227  0.04520364  1
  Se  Se120  1  0.08582527  0.75154339  0.55260932  1
  Se  Se121  1  0.41439384  0.08921848  0.05328040  1
  Se  Se122  1  0.41578267  0.08294817  0.55452991  1
  Se  Se123  1  0.41525346  0.41888224  0.05196874  1
  Se  Se124  1  0.40978355  0.40867961  0.56031300  1
  Se  Se125  1  0.41962184  0.75779483  0.05260725  1
  Se  Se126  1  0.40842638  0.74019471  0.55841482  1
  Se  Se127  1  0.74448839  0.07463073  0.05749489  1
  Se  Se128  1  0.74332521  0.08120923  0.55845542  1
  Se  Se129  1  0.75547287  0.41657241  0.04866245  1
  Se  Se130  1  0.75024693  0.41694400  0.55390777  1
  Se  Se131  1  0.74308099  0.74153301  0.06429727  1
  Se  Se132  1  0.75350420  0.75129694  0.56001353  1
  Se  Se133  1  0.24737720  0.24894255  0.05640960  1
  Se  Se134  1  0.24511175  0.24695729  0.55600431  1
  Se  Se135  1  0.26213699  0.58628755  0.06124811  1
  Se  Se136  1  0.24740264  0.57977397  0.54860839  1
  Se  Se137  1  0.24696052  0.91649472  0.05439027  1
  Se  Se138  1  0.25162540  0.91458347  0.55146369  1
  Se  Se139  1  0.58377071  0.25282675  0.04541765  1
  Se  Se140  1  0.58022873  0.24792109  0.55207315  1
  Se  Se141  1  0.58294034  0.58338107  0.05047079  1
  Se  Se142  1  0.58411506  0.58586800  0.56064011  1
  Se  Se143  1  0.58464697  0.92163002  0.04551672  1
  Se  Se144  1  0.58906364  0.92074539  0.56833414  1
  Se  Se145  1  0.92196652  0.25377012  0.05943417  1
  Se  Se146  1  0.92138656  0.25862156  0.56347013  1
  Se  Se147  1  0.92242112  0.57885158  0.04358217  1
  Se  Se148  1  0.91523262  0.58171965  0.55776189  1
  Se  Se149  1  0.92668461  0.91781478  0.05801415  1
  Se  Se150  1  0.91937257  0.91915304  0.55109339  1
  Se  Se151  1  0.08338555  0.25521792  0.44946020  1
  Se  Se152  1  0.08755447  0.24671779  0.94865580  1
  Se  Se153  1  0.08006367  0.58437146  0.44936743  1
  Se  Se154  1  0.08216875  0.58337964  0.93635707  1
  Se  Se155  1  0.08868152  0.91393696  0.44679795  1
  Se  Se156  1  0.09003511  0.91247287  0.94569299  1
  Se  Se157  1  0.41567939  0.24450748  0.45128530  1
  Se  Se158  1  0.41679229  0.25006095  0.94499580  1
  Se  Se159  1  0.40696998  0.58548612  0.43413364  1
  Se  Se160  1  0.41772887  0.58224525  0.95005135  1
  Se  Se161  1  0.40955457  0.91618242  0.43866150  1
  Se  Se162  1  0.41295441  0.92001444  0.94867739  1
  Se  Se163  1  0.74324937  0.25704056  0.43874586  1
  Se  Se164  1  0.74658216  0.25962002  0.93330881  1
  Se  Se165  1  0.75310275  0.57618500  0.45300508  1
  Se  Se166  1  0.75057635  0.58313174  0.94421609  1
  Se  Se167  1  0.75391001  0.91371912  0.45654351  1
  Se  Se168  1  0.74168036  0.92539669  0.94451488  1
  Se  Se169  1  0.24762215  0.08427606  0.44636794  1
  Se  Se170  1  0.24776805  0.08838472  0.94692516  1
  Se  Se171  1  0.25214245  0.42124016  0.44657648  1
  Se  Se172  1  0.25425135  0.40676708  0.93871754  1
  Se  Se173  1  0.24564965  0.75257658  0.44463400  1
  Se  Se174  1  0.24903514  0.75278713  0.94870090  1
  Se  Se175  1  0.58917471  0.06746258  0.45066124  1
  Se  Se176  1  0.58961793  0.08730242  0.95348344  1
  Se  Se177  1  0.58219503  0.40271261  0.43520676  1
  Se  Se178  1  0.57965848  0.42068441  0.94154449  1
  Se  Se179  1  0.59165775  0.73841029  0.44425974  1
  Se  Se180  1  0.58206926  0.75418751  0.94827068  1
  Se  Se181  1  0.92822407  0.08117478  0.43573332  1
  Se  Se182  1  0.92547534  0.07460877  0.94030573  1
  Se  Se183  1  0.91322298  0.41953776  0.45215414  1
  Se  Se184  1  0.91691563  0.41474189  0.94479207  1
  Se  Se185  1  0.91373151  0.75235858  0.45199405  1
  Se  Se186  1  0.92061274  0.74241734  0.93422065  1
  Se  Se187  1  0.27392076  0.27540485  0.31306567  1
  Se  Se188  1  0.25226025  0.25034174  0.80344657  1
  Se  Se189  1  0.24611523  0.58779631  0.30358365  1
  Se  Se190  1  0.24318135  0.57234287  0.81152469  1
  Se  Se191  1  0.25400325  0.92503821  0.30100665  1
  Se  Se192  1  0.25086742  0.91635349  0.80142667  1
  Se  Se193  1  0.57626501  0.24332558  0.30938639  1
  Se  Se194  1  0.57921843  0.25095712  0.80222512  1
  Se  Se195  1  0.57398834  0.57321391  0.30624040  1
  Se  Se196  1  0.58503064  0.58449757  0.80382406  1
  Se  Se197  1  0.56860177  0.90691586  0.31003324  1
  Se  Se198  1  0.57392838  0.91577931  0.81763416  1
  Se  Se199  1  0.91216694  0.25094145  0.29957644  1
  Se  Se200  1  0.92007286  0.24522140  0.79851831  1
  Se  Se201  1  0.91501083  0.57795313  0.31067175  1
  Se  Se202  1  0.92054891  0.58609513  0.80044767  1
  Se  Se203  1  0.91376092  0.91262673  0.31269395  1
  Se  Se204  1  0.91597015  0.91275293  0.80708750  1
  Se  Se205  1  0.09759458  0.09766911  0.31044603  1
  Se  Se206  1  0.09072539  0.08531260  0.80975794  1
  Se  Se207  1  0.08240596  0.41442213  0.30717523  1
  Se  Se208  1  0.07738815  0.41149868  0.80175053  1
  Se  Se209  1  0.09057790  0.75978380  0.30533720  1
  Se  Se210  1  0.08484714  0.74642287  0.79881760  1
  Se  Se211  1  0.41161620  0.08639660  0.30374447  1
  Se  Se212  1  0.41403230  0.08058806  0.80697030  1
  Se  Se213  1  0.42910177  0.42735846  0.29673686  1
  Se  Se214  1  0.41411570  0.41401261  0.80158375  1
  Se  Se215  1  0.40959054  0.74769093  0.29847972  1
  Se  Se216  1  0.41892987  0.74924664  0.81625615  1
  Se  Se217  1  0.75998610  0.09366741  0.30864465  1
  Se  Se218  1  0.75617059  0.09539142  0.80700221  1
  Se  Se219  1  0.75099449  0.42163323  0.31064064  1
  Se  Se220  1  0.75202369  0.41951267  0.80303567  1
  Se  Se221  1  0.75123513  0.75209160  0.31592533  1
  Se  Se222  1  0.74884867  0.75150973  0.80118007  1
  Se  Se223  1  0.24574495  0.09231521  0.19924166  1
  Se  Se224  1  0.25427297  0.07865491  0.69486764  1
  Se  Se225  1  0.25087810  0.41745267  0.20002383  1
  Se  Se226  1  0.25014701  0.41240963  0.69932767  1
  Se  Se227  1  0.24970492  0.75150059  0.19266874  1
  Se  Se228  1  0.24667658  0.74982822  0.68706615  1
  Se  Se229  1  0.57601166  0.08950712  0.18811525  1
  Se  Se230  1  0.57378883  0.09062361  0.69022918  1
  Se  Se231  1  0.57869619  0.42478681  0.18615261  1
  Se  Se232  1  0.58543211  0.41483634  0.69682543  1
  Se  Se233  1  0.57344998  0.75827554  0.18815667  1
  Se  Se234  1  0.58380128  0.74847780  0.70766004  1
  Se  Se235  1  0.91038929  0.08854855  0.19293044  1
  Se  Se236  1  0.90623059  0.09679765  0.69393323  1
  Se  Se237  1  0.91930121  0.41348595  0.19572050  1
  Se  Se238  1  0.91534417  0.41782516  0.69592819  1
  Se  Se239  1  0.90943991  0.75471209  0.19149655  1
  Se  Se240  1  0.92375474  0.74790598  0.69707955  1
  Se  Se241  1  0.07380783  0.25705674  0.20355510  1
  Se  Se242  1  0.08527712  0.24671749  0.69801410  1
  Se  Se243  1  0.09259365  0.57303017  0.18372735  1
  Se  Se244  1  0.08289034  0.58365679  0.69743739  1
  Se  Se245  1  0.08864322  0.91676939  0.18687358  1
  Se  Se246  1  0.09379492  0.91084040  0.68345825  1
  Se  Se247  1  0.41642269  0.25574804  0.19174985  1
  Se  Se248  1  0.41176425  0.25214550  0.69539798  1
  Se  Se249  1  0.41453127  0.59199907  0.19713632  1
  Se  Se250  1  0.42337800  0.57190442  0.68834511  1
  Se  Se251  1  0.41071058  0.92739290  0.19267135  1
  Se  Se252  1  0.41281851  0.91496986  0.70442012  1
  Se  Se253  1  0.75813213  0.23705757  0.19134785  1
  Se  Se254  1  0.74415793  0.25273273  0.70246911  1
  Se  Se255  1  0.75823549  0.57700615  0.19208002  1
  Se  Se256  1  0.74695862  0.58808966  0.69760278  1
  Se  Se257  1  0.75345034  0.90963375  0.19756346  1
  Se  Se258  1  0.75816065  0.91629061  0.69233970  1
