# generated using pymatgen
data_In86Cu29Se144
_symmetry_space_group_name_H-M   'P 1'
_cell_length_a   17.58599400
_cell_length_b   17.58367783
_cell_length_c   23.45181902
_cell_angle_alpha   90.00570267
_cell_angle_beta   89.97116489
_cell_angle_gamma   90.02401844
_symmetry_Int_Tables_number   1
_chemical_formula_structural   In86Cu29Se144
_chemical_formula_sum   'In86 Cu29 Se144'
_cell_volume   7251.92121737
_cell_formula_units_Z   1
loop_
 _symmetry_equiv_pos_site_id
 _symmetry_equiv_pos_as_xyz
  1  'x, y, z'
loop_
 _atom_site_type_symbol
 _atom_site_label
 _atom_site_symmetry_multiplicity
 _atom_site_fract_x
 _atom_site_fract_y
 _atom_site_fract_z
 _atom_site_occupancy
  In  In0  1  0.01515988  0.16962201  0.12564721  1
  In  In1  1  -0.00954343  0.16418650  0.62898267  1
  In  In2  1  0.00319723  0.50110955  0.12399658  1
  In  In3  1  -0.00993763  0.52155460  0.62641880  1
  In  In4  1  -0.01520688  0.83035408  0.12081209  1
  In  In5  1  0.00108707  0.82653481  0.61974969  1
  In  In6  1  0.34003238  0.16118270  0.13201604  1
  In  In7  1  0.35193370  0.14303223  0.63675940  1
  In  In8  1  0.32401427  0.50734475  0.12783081  1
  In  In9  1  0.32362180  0.49246506  0.63082683  1
  In  In10  1  0.34107096  0.82493092  0.13128398  1
  In  In11  1  0.33431136  0.85326705  0.62271835  1
  In  In12  1  0.65671932  0.17494854  0.11872854  1
  In  In13  1  0.65359314  0.17294349  0.63285240  1
  In  In14  1  0.68302615  0.50311602  0.12011142  1
  In  In15  1  0.67930808  0.48724255  0.63671748  1
  In  In16  1  0.66250948  0.82509324  0.11829836  1
  In  In17  1  0.67320030  0.81742260  0.64143799  1
  In  In18  1  0.17037012  -0.01468143  0.37831470  1
  In  In19  1  0.17467292  0.01842496  0.85123560  1
  In  In20  1  0.16920509  0.33679904  0.36853034  1
  In  In21  1  0.17316808  0.33316977  0.87951061  1
  In  In22  1  0.16670480  0.66960285  0.36967266  1
  In  In23  1  0.14865452  0.67029872  0.87515050  1
  In  In24  1  0.50043839  0.01191017  0.38232314  1
  In  In25  1  0.50178232  -0.00396524  0.87708862  1
  In  In26  1  0.49197234  0.33781584  0.37565059  1
  In  In27  1  0.48577313  0.32969900  0.86639394  1
  In  In28  1  0.49795534  0.66588439  0.36373677  1
  In  In29  1  0.51914966  0.66850441  0.86973570  1
  In  In30  1  0.82712418  -0.01175043  0.38159730  1
  In  In31  1  0.81901876  -0.01287702  0.86361518  1
  In  In32  1  0.84626170  0.33322722  0.37366128  1
  In  In33  1  0.83357965  0.35194410  0.87797737  1
  In  In34  1  0.83292316  0.66853229  0.37180908  1
  In  In35  1  0.83531000  0.66567264  0.87584018  1
  In  In36  1  -0.00531216  0.17760785  0.37322449  1
  In  In37  1  0.01407151  0.16396679  0.87017773  1
  In  In38  1  -0.00463925  0.50201477  0.37142560  1
  In  In39  1  -0.01601155  0.50733668  0.89122631  1
  In  In40  1  0.00924639  0.81907948  0.38940383  1
  In  In41  1  -0.00666506  0.82398200  0.86761603  1
  In  In42  1  0.34030198  0.17134803  0.37201887  1
  In  In43  1  0.33835132  0.17605268  0.87038679  1
  In  In44  1  0.33172957  0.50000277  0.36642706  1
  In  In45  1  0.33452808  0.48553996  0.87767024  1
  In  In46  1  0.32969705  0.82897114  0.36916959  1
  In  In47  1  0.33175657  0.84900533  0.87319690  1
  In  In48  1  0.66576879  0.15674833  0.38299159  1
  In  In49  1  0.65048562  0.15353219  0.86779853  1
  In  In50  1  0.66071147  0.51461110  0.37555273  1
  In  In51  1  0.67340160  0.51428584  0.86202833  1
  In  In52  1  0.68015661  0.82565348  0.38107573  1
  In  In53  1  0.66759340  0.83373987  0.87403857  1
  In  In54  1  0.17385191  0.01302572  0.12535775  1
  In  In55  1  0.18485689  -0.01709991  0.63542071  1
  In  In56  1  0.15747217  0.34900972  0.13169798  1
  In  In57  1  0.17130132  0.33643872  0.62918432  1
  In  In58  1  0.17414353  0.65561010  0.12778402  1
  In  In59  1  0.14977457  0.66763333  0.62268689  1
  In  In60  1  0.49645232  -0.00855407  0.11711395  1
  In  In61  1  0.48839695  0.00061785  0.63738232  1
  In  In62  1  0.50064964  0.31897184  0.12059334  1
  In  In63  1  0.52017576  0.31654550  0.63828283  1
  In  In64  1  0.49621819  0.67461822  0.12805612  1
  In  In65  1  0.50893474  0.67825395  0.63458153  1
  In  In66  1  0.84496497  -0.01283917  0.11780021  1
  In  In67  1  0.84361176  -0.01529636  0.63439614  1
  In  In68  1  0.83992576  0.35216559  0.11671358  1
  In  In69  1  0.80943199  0.33769295  0.62295958  1
  In  In70  1  0.83452032  0.66696571  0.12728404  1
  In  In71  1  0.83498949  0.66545225  0.62194461  1
  In  In72  1  0.16383640  0.83727306  -0.00643844  1
  In  In73  1  0.16219982  0.50435717  0.49036901  1
  In  In74  1  0.00795300  -0.00047452  0.25199365  1
  In  In75  1  0.82986146  0.16302195  -0.00033876  1
  In  In76  1  0.33494213  0.66703800  0.75124417  1
  In  In77  1  0.50027734  0.83527632  0.50648521  1
  In  In78  1  0.16965849  0.17324581  -0.00514630  1
  In  In79  1  -0.00105736  0.33358736  0.75462024  1
  In  In80  1  0.66615152  0.33783862  0.24461151  1
  In  In81  1  0.50527726  0.49637860  0.50406389  1
  In  In82  1  0.66645986  -0.00301315  0.25850123  1
  In  In83  1  0.83062753  0.16606497  0.50276510  1
  In  In84  1  0.17069985  0.16089859  0.50357680  1
  In  In85  1  0.50300390  0.50049420  -0.00797475  1
  Cu  Cu86  1  0.16280635  0.83266708  0.74754935  1
  Cu  Cu87  1  -0.00012629  -0.00635110  0.50581079  1
  Cu  Cu88  1  0.33326290  0.33018429  -0.00035934  1
  Cu  Cu89  1  0.17546808  0.17194495  0.24981573  1
  Cu  Cu90  1  0.66336052  0.33118159  -0.00675254  1
  Cu  Cu91  1  -0.00113827  0.34558012  0.49893957  1
  Cu  Cu92  1  0.49778889  0.16569917  0.25083588  1
  Cu  Cu93  1  0.83491299  0.82463996  0.75020342  1
  Cu  Cu94  1  0.83616137  0.50459498  0.24697717  1
  Cu  Cu95  1  0.67319867  0.66497073  0.50354911  1
  Cu  Cu96  1  0.16465837  0.50296283  0.24993814  1
  Cu  Cu97  1  -0.00383747  0.66271288  0.00147940  1
  Cu  Cu98  1  0.83962923  0.17541149  0.24759631  1
  Cu  Cu99  1  0.66473738  -0.00608178  -0.00815793  1
  Cu  Cu100  1  0.49760868  0.16391070  0.75385257  1
  Cu  Cu101  1  0.16493261  0.49813201  0.75134500  1
  Cu  Cu102  1  -0.00255376  -0.00709904  -0.01291251  1
  Cu  Cu103  1  0.16543902  0.83179214  0.25107354  1
  Cu  Cu104  1  0.83262124  0.82744543  0.25194323  1
  Cu  Cu105  1  0.32905305  0.66894133  0.49422226  1
  Cu  Cu106  1  0.34090763  0.00101166  0.00075654  1
  Cu  Cu107  1  0.49596505  0.50299156  0.24603888  1
  Cu  Cu108  1  0.33714746  0.67036418  0.00470210  1
  Cu  Cu109  1  0.67603693  0.66749708  -0.00382940  1
  Cu  Cu110  1  0.66182182  0.00258561  0.51193190  1
  Cu  Cu111  1  0.83886398  0.50743358  0.75167445  1
  Cu  Cu112  1  0.49787909  0.83618472  0.24791136  1
  Cu  Cu113  1  0.82603462  0.16816218  0.74831500  1
  Cu  Cu114  1  0.34326959  0.32342015  0.50155551  1
  Se  Se115  1  0.07582395  0.07249724  0.04961252  1
  Se  Se116  1  0.07673380  0.07701098  0.56389391  1
  Se  Se117  1  0.08519007  0.41913578  0.05425893  1
  Se  Se118  1  0.08058219  0.41864549  0.56192306  1
  Se  Se119  1  0.08118729  0.74543792  0.05851368  1
  Se  Se120  1  0.08394699  0.74925034  0.54781032  1
  Se  Se121  1  0.41861113  0.08812485  0.05550098  1
  Se  Se122  1  0.42062731  0.07357411  0.55635342  1
  Se  Se123  1  0.41434025  0.41490701  0.05848596  1
  Se  Se124  1  0.41263255  0.40976021  0.56354265  1
  Se  Se125  1  0.42087089  0.75525482  0.05340577  1
  Se  Se126  1  0.40838296  0.73969924  0.56160793  1
  Se  Se127  1  0.73980787  0.07012412  0.06110429  1
  Se  Se128  1  0.74939491  0.07846509  0.56976535  1
  Se  Se129  1  0.74648763  0.41512623  0.04511613  1
  Se  Se130  1  0.74694963  0.42645661  0.55062877  1
  Se  Se131  1  0.75623972  0.74989168  0.05405107  1
  Se  Se132  1  0.74740240  0.75433220  0.55838475  1
  Se  Se133  1  0.25423606  0.25453138  0.06506770  1
  Se  Se134  1  0.25878757  0.25175825  0.56330547  1
  Se  Se135  1  0.25107964  0.58338574  0.04983174  1
  Se  Se136  1  0.25435083  0.58585955  0.55641873  1
  Se  Se137  1  0.25524669  0.92205544  0.05869438  1
  Se  Se138  1  0.24869516  0.91915248  0.54950865  1
  Se  Se139  1  0.57836938  0.24742708  0.04299308  1
  Se  Se140  1  0.58961424  0.25394525  0.55470406  1
  Se  Se141  1  0.58958135  0.58961354  0.05622476  1
  Se  Se142  1  0.58920692  0.59080585  0.56391452  1
  Se  Se143  1  0.58376002  0.91240794  0.05100763  1
  Se  Se144  1  0.59009903  0.91590505  0.57183787  1
  Se  Se145  1  0.92332119  0.24966744  0.05905394  1
  Se  Se146  1  0.92122286  0.26278169  0.55940313  1
  Se  Se147  1  0.91360063  0.58184886  0.05775819  1
  Se  Se148  1  0.91483024  0.58711809  0.54840392  1
  Se  Se149  1  0.91681527  0.90920179  0.04151772  1
  Se  Se150  1  0.91170302  0.91130223  0.55381112  1
  Se  Se151  1  0.08069052  0.25996969  0.44507351  1
  Se  Se152  1  0.06868545  0.26134688  0.94553531  1
  Se  Se153  1  0.06928776  0.59879437  0.44088596  1
  Se  Se154  1  0.08535204  0.58351912  0.95047124  1
  Se  Se155  1  0.08596461  0.91492253  0.45121974  1
  Se  Se156  1  0.08628619  0.92654344  0.92538125  1
  Se  Se157  1  0.42555888  0.24442913  0.44573842  1
  Se  Se158  1  0.41787641  0.25012692  0.94589862  1
  Se  Se159  1  0.41313107  0.58626290  0.44042209  1
  Se  Se160  1  0.41166784  0.59388398  0.93612310  1
  Se  Se161  1  0.41192307  0.91746430  0.44115127  1
  Se  Se162  1  0.41875069  0.91319095  0.94824493  1
  Se  Se163  1  0.74690485  0.25816340  0.44032034  1
  Se  Se164  1  0.74330116  0.24830873  0.93383907  1
  Se  Se165  1  0.75143912  0.58505213  0.44383300  1
  Se  Se166  1  0.75194619  0.57828613  0.94289934  1
  Se  Se167  1  0.74071300  0.91984705  0.45430174  1
  Se  Se168  1  0.75496654  0.91196546  0.94585076  1
  Se  Se169  1  0.25924419  0.07720895  0.43979543  1
  Se  Se170  1  0.25544229  0.07505463  0.93983863  1
  Se  Se171  1  0.26265878  0.40728534  0.44354009  1
  Se  Se172  1  0.24880171  0.41679731  0.95204582  1
  Se  Se173  1  0.24738629  0.75102841  0.44114961  1
  Se  Se174  1  0.25629010  0.74395893  0.93803262  1
  Se  Se175  1  0.58230028  0.08554303  0.45659127  1
  Se  Se176  1  0.57910771  0.08349848  0.94900417  1
  Se  Se177  1  0.59333456  0.40928068  0.43992034  1
  Se  Se178  1  0.58910223  0.41225378  0.92946758  1
  Se  Se179  1  0.58367530  0.73842720  0.44367726  1
  Se  Se180  1  0.58801115  0.74910276  0.94626190  1
  Se  Se181  1  0.92591030  0.07600946  0.44183976  1
  Se  Se182  1  0.91654920  0.07837712  0.93269401  1
  Se  Se183  1  0.91401965  0.42339058  0.44480463  1
  Se  Se184  1  0.91270932  0.41326712  0.95674889  1
  Se  Se185  1  0.88651072  0.77549113  0.43770193  1
  Se  Se186  1  0.91923928  0.74900361  0.94537206  1
  Se  Se187  1  0.25749383  0.25540906  0.30433389  1
  Se  Se188  1  0.22730926  0.23251585  0.81209873  1
  Se  Se189  1  0.25014748  0.58672831  0.30187072  1
  Se  Se190  1  0.24248564  0.57987387  0.81367997  1
  Se  Se191  1  0.24974948  0.91743093  0.30047650  1
  Se  Se192  1  0.25126606  0.91615518  0.79563809  1
  Se  Se193  1  0.58442499  0.24279730  0.30894369  1
  Se  Se194  1  0.58099049  0.25208819  0.80320913  1
  Se  Se195  1  0.58355998  0.58365942  0.29719037  1
  Se  Se196  1  0.57514874  0.57759850  0.79564630  1
  Se  Se197  1  0.57590785  0.90618269  0.31728993  1
  Se  Se198  1  0.59740183  0.93026735  0.80904034  1
  Se  Se199  1  0.92459711  0.25852393  0.29761596  1
  Se  Se200  1  0.90499058  0.24423947  0.81353422  1
  Se  Se201  1  0.91750348  0.58808873  0.30208945  1
  Se  Se202  1  0.92409680  0.58417326  0.80805815  1
  Se  Se203  1  0.91321380  0.91217319  0.30891345  1
  Se  Se204  1  0.91697228  0.91391845  0.80046275  1
  Se  Se205  1  0.09483003  0.09357730  0.31349837  1
  Se  Se206  1  0.06713910  0.07739642  0.79224129  1
  Se  Se207  1  0.08233557  0.41962503  0.30503369  1
  Se  Se208  1  0.08295973  0.42576922  0.81662973  1
  Se  Se209  1  0.07817420  0.75367083  0.30455406  1
  Se  Se210  1  0.07925050  0.74636105  0.79685723  1
  Se  Se211  1  0.41914214  0.07953989  0.30524123  1
  Se  Se212  1  0.41602324  0.08055880  0.80901584  1
  Se  Se213  1  0.41821129  0.41654719  0.30086150  1
  Se  Se214  1  0.40911417  0.41816513  0.79946959  1
  Se  Se215  1  0.41327614  0.74932418  0.29896136  1
  Se  Se216  1  0.42099593  0.75733863  0.81216158  1
  Se  Se217  1  0.76527828  0.09299242  0.30932373  1
  Se  Se218  1  0.74378323  0.08186392  0.80027228  1
  Se  Se219  1  0.75491910  0.42359251  0.30796564  1
  Se  Se220  1  0.75455724  0.41945965  0.80027975  1
  Se  Se221  1  0.74299639  0.74648748  0.30121994  1
  Se  Se222  1  0.75059663  0.74590646  0.80720970  1
  Se  Se223  1  0.25471118  0.08097659  0.20145584  1
  Se  Se224  1  0.24223979  0.08905727  0.69712266  1
  Se  Se225  1  0.25222208  0.41879678  0.19925458  1
  Se  Se226  1  0.24926061  0.41110562  0.70516553  1
  Se  Se227  1  0.24754060  0.74902953  0.19482445  1
  Se  Se228  1  0.24454876  0.75165195  0.68694316  1
  Se  Se229  1  0.58170464  0.08633357  0.19238607  1
  Se  Se230  1  0.58147324  0.08071157  0.70044051  1
  Se  Se231  1  0.57582400  0.42612953  0.18240619  1
  Se  Se232  1  0.57591584  0.42475771  0.69889713  1
  Se  Se233  1  0.58412845  0.75423750  0.19587382  1
  Se  Se234  1  0.58250724  0.74899700  0.71185675  1
  Se  Se235  1  0.91338058  0.08696426  0.18881381  1
  Se  Se236  1  0.91229686  0.08398829  0.69998240  1
  Se  Se237  1  0.91835814  0.41830622  0.19508867  1
  Se  Se238  1  0.91082418  0.41910943  0.68912245  1
  Se  Se239  1  0.91930145  0.74874200  0.19776173  1
  Se  Se240  1  0.91860461  0.74678078  0.69210003  1
  Se  Se241  1  0.08654324  0.25159489  0.19901161  1
  Se  Se242  1  0.08678925  0.24464375  0.69275101  1
  Se  Se243  1  0.08105509  0.58580383  0.19610138  1
  Se  Se244  1  0.08332746  0.58282066  0.69894476  1
  Se  Se245  1  0.09030132  0.91002272  0.18421303  1
  Se  Se246  1  0.07832249  0.91309409  0.69175386  1
  Se  Se247  1  0.41864102  0.25346371  0.19807908  1
  Se  Se248  1  0.41536261  0.24874315  0.69864084  1
  Se  Se249  1  0.41329687  0.58791336  0.19326027  1
  Se  Se250  1  0.42049020  0.57677631  0.68892338  1
  Se  Se251  1  0.41708624  0.92134471  0.19477610  1
  Se  Se252  1  0.41898022  0.90362855  0.70248037  1
  Se  Se253  1  0.75817255  0.24716900  0.18413412  1
  Se  Se254  1  0.74294204  0.25484085  0.69925185  1
  Se  Se255  1  0.74791170  0.58578024  0.19676031  1
  Se  Se256  1  0.75380392  0.58701003  0.69627089  1
  Se  Se257  1  0.75630060  0.91312342  0.19239210  1
  Se  Se258  1  0.75104504  0.91423782  0.70274031  1
