# generated using pymatgen
data_In86Cu29Se144
_symmetry_space_group_name_H-M   'P 1'
_cell_length_a   17.60365915
_cell_length_b   17.59889727
_cell_length_c   23.45288269
_cell_angle_alpha   89.99809431
_cell_angle_beta   89.97575135
_cell_angle_gamma   90.01010891
_symmetry_Int_Tables_number   1
_chemical_formula_structural   In86Cu29Se144
_chemical_formula_sum   'In86 Cu29 Se144'
_cell_volume   7265.81929363
_cell_formula_units_Z   1
loop_
 _symmetry_equiv_pos_site_id
 _symmetry_equiv_pos_as_xyz
  1  'x, y, z'
loop_
 _atom_site_type_symbol
 _atom_site_label
 _atom_site_symmetry_multiplicity
 _atom_site_fract_x
 _atom_site_fract_y
 _atom_site_fract_z
 _atom_site_occupancy
  In  In0  1  0.00115756  0.15206415  0.12389078  1
  In  In1  1  0.00028359  0.15733360  0.62854900  1
  In  In2  1  0.00886131  0.49926025  0.13014266  1
  In  In3  1  -0.01067734  0.51213734  0.62970594  1
  In  In4  1  0.00274325  0.83515412  0.13208299  1
  In  In5  1  -0.00062309  0.83557083  0.62301127  1
  In  In6  1  0.33502269  0.16636948  0.12045948  1
  In  In7  1  0.33487636  0.17299064  0.63787727  1
  In  In8  1  0.33776450  0.49014196  0.12839613  1
  In  In9  1  0.34224374  0.48228282  0.62629043  1
  In  In10  1  0.34266114  0.83355328  0.12522400  1
  In  In11  1  0.34848239  0.84436590  0.61655213  1
  In  In12  1  0.66578502  0.17816724  0.12061179  1
  In  In13  1  0.67351932  0.15429342  0.64047599  1
  In  In14  1  0.66463114  0.50585488  0.11956690  1
  In  In15  1  0.66531954  0.50624315  0.62849596  1
  In  In16  1  0.66160269  0.84105516  0.12082066  1
  In  In17  1  0.67087855  0.84790920  0.62802904  1
  In  In18  1  0.16757760  0.00453966  0.37778047  1
  In  In19  1  0.17667398  0.00982223  0.86700909  1
  In  In20  1  0.16963865  0.31775437  0.37832175  1
  In  In21  1  0.15050527  0.31738207  0.86934032  1
  In  In22  1  0.16125295  0.68153906  0.37820309  1
  In  In23  1  0.15273241  0.66839466  0.87244175  1
  In  In24  1  0.48648970  0.00511217  0.37533402  1
  In  In25  1  0.49322116  -0.00247720  0.87317574  1
  In  In26  1  0.50121050  0.33694525  0.37773556  1
  In  In27  1  0.49611666  0.33229765  0.86757878  1
  In  In28  1  0.50455828  0.66272672  0.38260641  1
  In  In29  1  0.50821288  0.65926453  0.87964144  1
  In  In30  1  0.84371677  -0.00911631  0.39325032  1
  In  In31  1  0.82931759  0.00948537  0.84161989  1
  In  In32  1  0.82224282  0.33142434  0.38532967  1
  In  In33  1  0.81910122  0.31184143  0.85266152  1
  In  In34  1  0.84422925  0.67310704  0.37718712  1
  In  In35  1  0.82809882  0.66707783  0.86001519  1
  In  In36  1  0.01515457  0.15951081  0.38818273  1
  In  In37  1  0.00026381  0.16389833  0.86694363  1
  In  In38  1  -0.01270996  0.51410830  0.37449410  1
  In  In39  1  -0.00898945  0.49151645  0.86963106  1
  In  In40  1  0.00000840  0.84087318  0.37965121  1
  In  In41  1  -0.01044372  0.84047435  0.85112006  1
  In  In42  1  0.33182447  0.15552303  0.36594708  1
  In  In43  1  0.33188080  0.16527414  0.87188743  1
  In  In44  1  0.35061919  0.49264278  0.37456739  1
  In  In45  1  0.34566214  0.49770304  0.87926567  1
  In  In46  1  0.32087180  0.83799118  0.38537091  1
  In  In47  1  0.33829228  0.84979952  0.87117395  1
  In  In48  1  0.67211357  0.17620885  0.38976301  1
  In  In49  1  0.62047384  0.14028888  0.82491951  1
  In  In50  1  0.65467915  0.49095622  0.37974029  1
  In  In51  1  0.65231932  0.48892887  0.86313413  1
  In  In52  1  0.66517821  0.84578010  0.39595339  1
  In  In53  1  0.66501828  0.82719012  0.86188689  1
  In  In54  1  0.16025986  0.00833047  0.12737901  1
  In  In55  1  0.16814987  -0.00198367  0.62351785  1
  In  In56  1  0.17913857  0.33654027  0.12398793  1
  In  In57  1  0.17490319  0.31925768  0.62792179  1
  In  In58  1  0.15945220  0.66286076  0.13009804  1
  In  In59  1  0.15341536  0.67273109  0.62277050  1
  In  In60  1  0.49359425  -0.00933805  0.11664960  1
  In  In61  1  0.51158574  -0.00522006  0.64298761  1
  In  In62  1  0.49557838  0.32720755  0.11453514  1
  In  In63  1  0.49476228  0.33108902  0.63641227  1
  In  In64  1  0.50232619  0.66716033  0.11729465  1
  In  In65  1  0.51434456  0.67816864  0.61831243  1
  In  In66  1  0.84453807  0.00917580  0.12737384  1
  In  In67  1  0.83556569  0.00608987  0.63034370  1
  In  In68  1  0.83607054  0.33205293  0.12412347  1
  In  In69  1  0.83851788  0.31799832  0.63778947  1
  In  In70  1  0.83242473  0.67813769  0.13129996  1
  In  In71  1  0.81439904  0.69200179  0.64182826  1
  In  In72  1  0.82900539  0.49966716  0.50088448  1
  In  In73  1  0.50841838  0.16154946  0.51139435  1
  In  In74  1  0.82008451  0.16144035  -0.01742105  1
  In  In75  1  0.67623631  0.66283163  0.26094613  1
  In  In76  1  0.17043166  0.49731104  0.50423109  1
  In  In77  1  0.83116444  0.49874138  -0.00398940  1
  In  In78  1  0.66417520  0.33394892  0.25584412  1
  In  In79  1  0.33090875  0.66790851  0.24707181  1
  In  In80  1  0.16886817  0.83872448  -0.00789053  1
  In  In81  1  0.32765682  0.66348520  0.75503638  1
  In  In82  1  0.17420478  0.49645158  0.00979188  1
  In  In83  1  0.66873244  0.00365702  0.25635003  1
  In  In84  1  0.00314768  0.33568673  0.25645950  1
  In  In85  1  0.82591472  0.83623609  -0.01827040  1
  Cu  Cu86  1  0.16676615  0.83320573  0.74481543  1
  Cu  Cu87  1  0.00133812  0.32806969  0.51108741  1
  Cu  Cu88  1  0.33666961  0.66164246  0.50008032  1
  Cu  Cu89  1  -0.00074949  -0.00494852  -0.00417075  1
  Cu  Cu90  1  -0.00456473  0.31976271  -0.00741850  1
  Cu  Cu91  1  0.84123045  0.16227582  0.25846481  1
  Cu  Cu92  1  0.34255141  0.67683211  -0.00080803  1
  Cu  Cu93  1  0.49945832  0.82711167  0.25142414  1
  Cu  Cu94  1  0.33290119  0.32812419  -0.00392411  1
  Cu  Cu95  1  0.33824304  0.00670086  -0.00382907  1
  Cu  Cu96  1  0.00320346  0.00279961  0.50612990  1
  Cu  Cu97  1  0.16027788  0.84556527  0.25828620  1
  Cu  Cu98  1  0.84152123  0.83863401  0.25648878  1
  Cu  Cu99  1  0.84180647  0.50353817  0.74392555  1
  Cu  Cu100  1  -0.00459840  0.66568338  -0.00271642  1
  Cu  Cu101  1  0.49569989  0.16507187  0.24244789  1
  Cu  Cu102  1  0.65891027  0.00796640  -0.01309969  1
  Cu  Cu103  1  0.16138916  0.15898425  0.74858370  1
  Cu  Cu104  1  0.50225024  0.83462906  0.74419482  1
  Cu  Cu105  1  0.16641035  0.49049368  0.74293268  1
  Cu  Cu106  1  0.65212759  0.33220460  -0.01028144  1
  Cu  Cu107  1  0.49942982  0.50733738  0.75021348  1
  Cu  Cu108  1  0.16419540  0.50886843  0.25358735  1
  Cu  Cu109  1  -0.00576416  0.67865218  0.50398129  1
  Cu  Cu110  1  0.66595185  0.67095964  0.50813258  1
  Cu  Cu111  1  0.66154574  0.66556813  -0.00611860  1
  Cu  Cu112  1  0.33417909  0.00416878  0.50136602  1
  Cu  Cu113  1  0.34260239  0.32499112  0.50652852  1
  Cu  Cu114  1  0.17195898  0.16568919  0.24990526  1
  Se  Se115  1  0.08114205  0.07905333  0.04915877  1
  Se  Se116  1  0.08907485  0.08677857  0.55540598  1
  Se  Se117  1  0.07033699  0.40199208  0.05605160  1
  Se  Se118  1  0.07775229  0.41509824  0.56696650  1
  Se  Se119  1  0.07780765  0.74620261  0.05464357  1
  Se  Se120  1  0.08669202  0.75938763  0.54910531  1
  Se  Se121  1  0.42276158  0.08685290  0.05144163  1
  Se  Se122  1  0.41292338  0.07578561  0.56844597  1
  Se  Se123  1  0.41137868  0.41675102  0.05061436  1
  Se  Se124  1  0.42744647  0.41044581  0.55424441  1
  Se  Se125  1  0.42471156  0.75914043  0.05258522  1
  Se  Se126  1  0.41930937  0.74809234  0.55127727  1
  Se  Se127  1  0.74168838  0.07286921  0.05669594  1
  Se  Se128  1  0.72746350  0.06195109  0.56570455  1
  Se  Se129  1  0.73903957  0.40237521  0.05285743  1
  Se  Se130  1  0.75327889  0.41051249  0.56893164  1
  Se  Se131  1  0.74446226  0.74486710  0.05267178  1
  Se  Se132  1  0.74908663  0.75858802  0.55709484  1
  Se  Se133  1  0.24834500  0.24970370  0.05258808  1
  Se  Se134  1  0.25727477  0.24185000  0.55632616  1
  Se  Se135  1  0.26314983  0.59900234  0.06223610  1
  Se  Se136  1  0.25913285  0.58617281  0.56571639  1
  Se  Se137  1  0.25663340  0.92401060  0.05696988  1
  Se  Se138  1  0.25161351  0.91650261  0.55231834  1
  Se  Se139  1  0.57933441  0.24344742  0.04685677  1
  Se  Se140  1  0.59279974  0.25099696  0.57304247  1
  Se  Se141  1  0.58164846  0.58105772  0.04875697  1
  Se  Se142  1  0.58383065  0.57918462  0.55298110  1
  Se  Se143  1  0.58796024  0.92100701  0.04725088  1
  Se  Se144  1  0.56743894  0.91079997  0.56416358  1
  Se  Se145  1  0.91266163  0.24249787  0.05387435  1
  Se  Se146  1  0.91630762  0.24472729  0.56067460  1
  Se  Se147  1  0.91955372  0.58834844  0.06125500  1
  Se  Se148  1  0.90939904  0.59844497  0.55967198  1
  Se  Se149  1  0.91778305  0.91542577  0.05434808  1
  Se  Se150  1  0.91630398  0.92275516  0.55819685  1
  Se  Se151  1  0.08953052  0.25160289  0.45583861  1
  Se  Se152  1  0.08066607  0.23510227  0.94536864  1
  Se  Se153  1  0.07446230  0.58998900  0.44865059  1
  Se  Se154  1  0.07751961  0.57849753  0.94610013  1
  Se  Se155  1  0.08527132  0.92196450  0.44742533  1
  Se  Se156  1  0.07296669  0.91764650  0.93007837  1
  Se  Se157  1  0.41720199  0.24271420  0.44225686  1
  Se  Se158  1  0.41620685  0.24991064  0.93911215  1
  Se  Se159  1  0.41925767  0.57756126  0.44801143  1
  Se  Se160  1  0.41873949  0.58476882  0.94891388  1
  Se  Se161  1  0.41520212  0.91838012  0.44686702  1
  Se  Se162  1  0.41864620  0.91515019  0.94928638  1
  Se  Se163  1  0.75504632  0.25028606  0.45980248  1
  Se  Se164  1  0.72915600  0.25220786  0.92961174  1
  Se  Se165  1  0.74021335  0.59275120  0.43951429  1
  Se  Se166  1  0.74279541  0.58672297  0.93447574  1
  Se  Se167  1  0.74637077  0.92881825  0.46104518  1
  Se  Se168  1  0.74437244  0.93574215  0.92548199  1
  Se  Se169  1  0.25361691  0.08791041  0.44545706  1
  Se  Se170  1  0.24844612  0.08497503  0.94517971  1
  Se  Se171  1  0.26147485  0.40635459  0.44525921  1
  Se  Se172  1  0.24860932  0.40842481  0.93869970  1
  Se  Se173  1  0.24821687  0.74513270  0.45285892  1
  Se  Se174  1  0.25812545  0.74289411  0.93490336  1
  Se  Se175  1  0.58813348  0.07260294  0.44233693  1
  Se  Se176  1  0.58711566  0.09131972  0.92696867  1
  Se  Se177  1  0.60280072  0.38913369  0.44673086  1
  Se  Se178  1  0.57243611  0.42138011  0.94065958  1
  Se  Se179  1  0.58092595  0.74992473  0.45126636  1
  Se  Se180  1  0.58692764  0.75644415  0.94054797  1
  Se  Se181  1  0.91947549  0.08919246  0.45407399  1
  Se  Se182  1  0.91472457  0.06604724  0.93214769  1
  Se  Se183  1  0.93011981  0.41050996  0.44571011  1
  Se  Se184  1  0.91165433  0.40027264  0.93839639  1
  Se  Se185  1  0.91225317  0.76079991  0.44888702  1
  Se  Se186  1  0.92430267  0.74382950  0.93238800  1
  Se  Se187  1  0.25302661  0.25119987  0.30247888  1
  Se  Se188  1  0.24308666  0.24482698  0.80310922  1
  Se  Se189  1  0.24592874  0.58190590  0.31671828  1
  Se  Se190  1  0.23760908  0.56888361  0.81309665  1
  Se  Se191  1  0.25251860  0.92038035  0.30893856  1
  Se  Se192  1  0.24912432  0.91577090  0.79978794  1
  Se  Se193  1  0.57854586  0.23258369  0.30920735  1
  Se  Se194  1  0.59920198  0.28023565  0.79872693  1
  Se  Se195  1  0.57339001  0.57237917  0.30523943  1
  Se  Se196  1  0.58568796  0.59235129  0.79983817  1
  Se  Se197  1  0.57938804  0.90766321  0.31134686  1
  Se  Se198  1  0.58083767  0.91889432  0.80191886  1
  Se  Se199  1  0.91526070  0.24773921  0.31847478  1
  Se  Se200  1  0.94184682  0.26942500  0.80401651  1
  Se  Se201  1  0.90969856  0.58893388  0.30214369  1
  Se  Se202  1  0.92320284  0.58518624  0.80137820  1
  Se  Se203  1  0.91803286  0.92668707  0.31032244  1
  Se  Se204  1  0.89104463  0.90071505  0.78350155  1
  Se  Se205  1  0.08598958  0.08902913  0.30692089  1
  Se  Se206  1  0.07709536  0.07269509  0.80004447  1
  Se  Se207  1  0.09171051  0.42704000  0.31879650  1
  Se  Se208  1  0.08315496  0.41658715  0.80422649  1
  Se  Se209  1  0.07849739  0.75598496  0.30673111  1
  Se  Se210  1  0.08307086  0.74998421  0.79804586  1
  Se  Se211  1  0.41623166  0.07718709  0.29516163  1
  Se  Se212  1  0.40375340  0.07207743  0.80531408  1
  Se  Se213  1  0.42041000  0.40798691  0.30316609  1
  Se  Se214  1  0.41337053  0.42214585  0.80039834  1
  Se  Se215  1  0.41885938  0.75165583  0.31338269  1
  Se  Se216  1  0.42394506  0.75449005  0.80825135  1
  Se  Se217  1  0.75726134  0.08930302  0.31879763  1
  Se  Se218  1  0.76548755  0.12487638  0.79539916  1
  Se  Se219  1  0.75901425  0.42561514  0.31060997  1
  Se  Se220  1  0.75739890  0.42661012  0.80143939  1
  Se  Se221  1  0.75192327  0.76913372  0.31585065  1
  Se  Se222  1  0.75703753  0.75784764  0.79353950  1
  Se  Se223  1  0.25243947  0.08463006  0.19196708  1
  Se  Se224  1  0.24848268  0.07941864  0.69564617  1
  Se  Se225  1  0.24377063  0.42434662  0.19835097  1
  Se  Se226  1  0.25405071  0.40914040  0.69494229  1
  Se  Se227  1  0.23685233  0.76493966  0.19284469  1
  Se  Se228  1  0.25079615  0.75453528  0.68699883  1
  Se  Se229  1  0.58336654  0.08690981  0.18706485  1
  Se  Se230  1  0.57427678  0.09383047  0.71020947  1
  Se  Se231  1  0.58169380  0.41641893  0.18592303  1
  Se  Se232  1  0.58166158  0.42309474  0.69657697  1
  Se  Se233  1  0.58536583  0.75105446  0.19392985  1
  Se  Se234  1  0.58927662  0.75349776  0.69405816  1
  Se  Se235  1  0.92353074  0.08259957  0.20244596  1
  Se  Se236  1  0.91799346  0.08338545  0.70165821  1
  Se  Se237  1  0.90893786  0.42223192  0.19431637  1
  Se  Se238  1  0.92253158  0.41429516  0.69540702  1
  Se  Se239  1  0.91886982  0.75307438  0.20004648  1
  Se  Se240  1  0.94468474  0.72401934  0.68393370  1
  Se  Se241  1  0.08833491  0.24627241  0.19018506  1
  Se  Se242  1  0.08309966  0.24684681  0.69499982  1
  Se  Se243  1  0.07690522  0.58830424  0.20233341  1
  Se  Se244  1  0.08809958  0.58183260  0.69464981  1
  Se  Se245  1  0.08018432  0.92446072  0.19712735  1
  Se  Se246  1  0.08267253  0.91759543  0.69333963  1
  Se  Se247  1  0.41677253  0.25186759  0.18968528  1
  Se  Se248  1  0.41413398  0.25387038  0.70795676  1
  Se  Se249  1  0.42742502  0.57913488  0.19235890  1
  Se  Se250  1  0.42013652  0.58591295  0.68776011  1
  Se  Se251  1  0.42277958  0.91394835  0.19604154  1
  Se  Se252  1  0.40958674  0.91698744  0.70099051  1
  Se  Se253  1  0.76131565  0.24043308  0.19712596  1
  Se  Se254  1  0.75044288  0.24513065  0.70818251  1
  Se  Se255  1  0.75879712  0.57399980  0.19114466  1
  Se  Se256  1  0.74820896  0.58521134  0.69948094  1
  Se  Se257  1  0.75904191  0.91233564  0.19178086  1
  Se  Se258  1  0.76143093  0.91442624  0.70245957  1
