# generated using pymatgen
data_In86Cu29Se144
_symmetry_space_group_name_H-M   'P 1'
_cell_length_a   17.57669023
_cell_length_b   17.57413445
_cell_length_c   23.43272421
_cell_angle_alpha   90.03584568
_cell_angle_beta   89.99973230
_cell_angle_gamma   89.98617024
_symmetry_Int_Tables_number   1
_chemical_formula_structural   In86Cu29Se144
_chemical_formula_sum   'In86 Cu29 Se144'
_cell_volume   7238.25246916
_cell_formula_units_Z   1
loop_
 _symmetry_equiv_pos_site_id
 _symmetry_equiv_pos_as_xyz
  1  'x, y, z'
loop_
 _atom_site_type_symbol
 _atom_site_label
 _atom_site_symmetry_multiplicity
 _atom_site_fract_x
 _atom_site_fract_y
 _atom_site_fract_z
 _atom_site_occupancy
  In  In0  1  0.01302618  0.14755170  0.11885511  1
  In  In1  1  -0.00232626  0.14790693  0.62867645  1
  In  In2  1  0.00478284  0.50452233  0.11617618  1
  In  In3  1  0.00688184  0.48720162  0.63083556  1
  In  In4  1  -0.00631718  0.84043285  0.10641942  1
  In  In5  1  0.01079430  0.84848802  0.62307613  1
  In  In6  1  0.33080454  0.17254087  0.12852509  1
  In  In7  1  0.33499449  0.16808224  0.62271823  1
  In  In8  1  0.33104730  0.49744057  0.11761264  1
  In  In9  1  0.32918938  0.50894232  0.64077262  1
  In  In10  1  0.34152030  0.83757405  0.11838649  1
  In  In11  1  0.29797531  0.86733682  0.67333868  1
  In  In12  1  0.64725670  0.15979839  0.12705787  1
  In  In13  1  0.65486974  0.17751416  0.63485535  1
  In  In14  1  0.68256603  0.51819186  0.10077608  1
  In  In15  1  0.64933966  0.48905486  0.62919701  1
  In  In16  1  0.66500415  0.83223340  0.12100769  1
  In  In17  1  0.68050402  0.83043509  0.61953342  1
  In  In18  1  0.17554708  -0.00383091  0.38275261  1
  In  In19  1  0.17648482  -0.00489402  0.87430010  1
  In  In20  1  0.18535688  0.31767007  0.38856799  1
  In  In21  1  0.17556977  0.32756788  0.87528893  1
  In  In22  1  0.16731937  0.66964087  0.38495273  1
  In  In23  1  0.16997696  0.66948126  0.87646892  1
  In  In24  1  0.50687543  0.00357203  0.37588879  1
  In  In25  1  0.48883871  -0.02652848  0.85397930  1
  In  In26  1  0.48933371  0.34022677  0.37663591  1
  In  In27  1  0.50648425  0.34983606  0.85694769  1
  In  In28  1  0.50573215  0.65373151  0.36931306  1
  In  In29  1  0.49241055  0.67706813  0.88392657  1
  In  In30  1  0.81973926  -0.00278035  0.37560087  1
  In  In31  1  0.82043190  -0.00813888  0.86387909  1
  In  In32  1  0.83044690  0.32693057  0.37608300  1
  In  In33  1  0.83089736  0.34407674  0.87591222  1
  In  In34  1  0.83369598  0.67921573  0.37249933  1
  In  In35  1  0.82278966  0.67517615  0.89170102  1
  In  In36  1  0.00742655  0.17604594  0.37792867  1
  In  In37  1  0.01602170  0.16117526  0.87556029  1
  In  In38  1  0.00402478  0.51378167  0.37579549  1
  In  In39  1  -0.00647527  0.50815466  0.88290036  1
  In  In40  1  -0.00025148  0.83701681  0.38229401  1
  In  In41  1  0.00643950  0.84672703  0.87717777  1
  In  In42  1  0.33442248  0.16276248  0.37908674  1
  In  In43  1  0.32731138  0.16003522  0.86561117  1
  In  In44  1  0.34444324  0.48853187  0.37641664  1
  In  In45  1  0.33050696  0.49856491  0.87224823  1
  In  In46  1  0.31985834  0.83753485  0.37705921  1
  In  In47  1  0.33427270  0.83107349  0.87243986  1
  In  In48  1  0.67475219  0.15325784  0.38134129  1
  In  In49  1  0.66452804  0.15057353  0.86118470  1
  In  In50  1  0.65385898  0.50284495  0.36946876  1
  In  In51  1  0.66645634  0.50550759  0.88620119  1
  In  In52  1  0.67061011  0.83989435  0.37356330  1
  In  In53  1  0.64844515  0.84061085  0.89176149  1
  In  In54  1  0.17178147  0.01336709  0.10868807  1
  In  In55  1  0.16211494  0.00182227  0.62649995  1
  In  In56  1  0.18076966  0.34192014  0.11804838  1
  In  In57  1  0.17663096  0.34085310  0.61789949  1
  In  In58  1  0.16563381  0.66819722  0.11793723  1
  In  In59  1  0.17530401  0.67759972  0.62510329  1
  In  In60  1  0.50368446  -0.01140648  0.13061779  1
  In  In61  1  0.47897370  0.00310453  0.63925526  1
  In  In62  1  0.48469857  0.33281908  0.12278388  1
  In  In63  1  0.51180287  0.32369760  0.63620280  1
  In  In64  1  0.51869896  0.68417979  0.10230317  1
  In  In65  1  0.48381185  0.66518391  0.63658661  1
  In  In66  1  0.82439999  -0.02761337  0.11341244  1
  In  In67  1  0.84544378  -0.00062758  0.63514535  1
  In  In68  1  0.82101735  0.33187711  0.11987714  1
  In  In69  1  0.81572576  0.32065827  0.63002544  1
  In  In70  1  0.82322359  0.66751339  0.11091867  1
  In  In71  1  0.82164005  0.67330813  0.62602844  1
  In  In72  1  -0.00172203  -0.00211449  0.24500773  1
  In  In73  1  0.83818766  0.16932734  -0.00267395  1
  In  In74  1  0.49289606  0.16668001  -0.00718674  1
  In  In75  1  0.83876534  0.50349325  0.50980636  1
  In  In76  1  0.83659872  0.16060331  0.50347101  1
  In  In77  1  0.64821476  0.33355313  0.25076253  1
  In  In78  1  -0.00114686  0.32757831  0.74933651  1
  In  In79  1  0.00115756  0.67298197  0.76455546  1
  In  In80  1  0.00879978  0.33526663  0.25029266  1
  In  In81  1  -0.00064482  0.66809636  0.23831479  1
  In  In82  1  0.49688700  0.49726679  0.50548151  1
  In  In83  1  0.34082593  0.66707626  0.24735540  1
  In  In84  1  0.49642897  0.83106631  0.51019889  1
  In  In85  1  0.65759893  0.67260870  0.76136041  1
  Cu  Cu86  1  0.17522851  0.16670037  0.25026165  1
  Cu  Cu87  1  0.83921303  0.83606549  0.74911511  1
  Cu  Cu88  1  0.66773468  -0.00107892  0.50263982  1
  Cu  Cu89  1  0.49184186  0.15772661  0.25306257  1
  Cu  Cu90  1  0.33549505  0.33286956  0.50302175  1
  Cu  Cu91  1  0.00561830  0.66906517  -0.00377535  1
  Cu  Cu92  1  0.00594429  0.33358648  -0.00554720  1
  Cu  Cu93  1  0.16491419  0.50356224  0.75535479  1
  Cu  Cu94  1  0.18277933  0.48851024  0.25220562  1
  Cu  Cu95  1  0.81840289  0.49962627  0.75573241  1
  Cu  Cu96  1  0.66849936  0.66677921  0.49907181  1
  Cu  Cu97  1  0.66365332  0.33698097  -0.00906814  1
  Cu  Cu98  1  0.00415306  -0.00755563  0.50444241  1
  Cu  Cu99  1  0.32913058  -0.00265061  0.51148593  1
  Cu  Cu100  1  0.00740347  0.33437835  0.50341666  1
  Cu  Cu101  1  0.82435607  0.50235039  0.23603778  1
  Cu  Cu102  1  0.82553186  0.15475313  0.24803696  1
  Cu  Cu103  1  0.50190313  0.83434977  0.24505633  1
  Cu  Cu104  1  0.00607954  0.67064742  0.50196876  1
  Cu  Cu105  1  0.16835688  0.16049853  0.74760135  1
  Cu  Cu106  1  0.32924689  0.33227044  -0.00709683  1
  Cu  Cu107  1  0.81827988  0.82962321  0.24601236  1
  Cu  Cu108  1  0.33958597  -0.00292874  -0.00771184  1
  Cu  Cu109  1  0.49637137  0.16529603  0.74965027  1
  Cu  Cu110  1  0.66228530  -0.00005581  -0.00313478  1
  Cu  Cu111  1  0.32739991  0.67018615  0.50883953  1
  Cu  Cu112  1  0.32744536  0.66631894  -0.00335778  1
  Cu  Cu113  1  0.16243160  0.83861396  0.24953261  1
  Cu  Cu114  1  0.50391173  0.50485150  0.23807470  1
  Se  Se115  1  0.08163032  0.08130693  0.03731421  1
  Se  Se116  1  0.08304910  0.08378726  0.55262100  1
  Se  Se117  1  0.08686292  0.41652834  0.05258242  1
  Se  Se118  1  0.08770956  0.42391286  0.55211255  1
  Se  Se119  1  0.08691121  0.75374839  0.04993438  1
  Se  Se120  1  0.08630183  0.75450240  0.55765491  1
  Se  Se121  1  0.41384723  0.07631155  0.06019326  1
  Se  Se122  1  0.41967553  0.08080386  0.55602750  1
  Se  Se123  1  0.41310114  0.41329991  0.04784632  1
  Se  Se124  1  0.41082757  0.41115967  0.56849278  1
  Se  Se125  1  0.41364763  0.75320619  0.04526737  1
  Se  Se126  1  0.40129060  0.75154720  0.57036522  1
  Se  Se127  1  0.73934987  0.08289084  0.05759794  1
  Se  Se128  1  0.74537824  0.07897299  0.56656890  1
  Se  Se129  1  0.75524962  0.41296157  0.04345860  1
  Se  Se130  1  0.74098681  0.41142335  0.55761006  1
  Se  Se131  1  0.76576888  0.77512516  0.05141673  1
  Se  Se132  1  0.75830423  0.75088472  0.54516400  1
  Se  Se133  1  0.25341017  0.24699526  0.05175595  1
  Se  Se134  1  0.24969679  0.24742685  0.55172123  1
  Se  Se135  1  0.24638580  0.58207478  0.05184065  1
  Se  Se136  1  0.25137484  0.57976682  0.56192139  1
  Se  Se137  1  0.25512891  0.91818490  0.05088201  1
  Se  Se138  1  0.25648613  0.91091570  0.57033384  1
  Se  Se139  1  0.58674421  0.25774197  0.05404485  1
  Se  Se140  1  0.58589144  0.25499728  0.55669730  1
  Se  Se141  1  0.56423753  0.56484459  0.04819256  1
  Se  Se142  1  0.58678565  0.59503133  0.56144726  1
  Se  Se143  1  0.57962463  0.91710346  0.05265845  1
  Se  Se144  1  0.58532857  0.92588803  0.56574381  1
  Se  Se145  1  0.92935258  0.25649476  0.06198273  1
  Se  Se146  1  0.92353359  0.25779143  0.56344754  1
  Se  Se147  1  0.92030582  0.58723104  0.05112927  1
  Se  Se148  1  0.93037868  0.59422535  0.56852278  1
  Se  Se149  1  0.93004752  0.94176012  0.04283487  1
  Se  Se150  1  0.91256533  0.91710098  0.55647702  1
  Se  Se151  1  0.08837254  0.24522470  0.45339687  1
  Se  Se152  1  0.08937007  0.24930903  0.94493415  1
  Se  Se153  1  0.08607155  0.58219306  0.45107859  1
  Se  Se154  1  0.08862258  0.58352511  0.94527741  1
  Se  Se155  1  0.08942408  0.91259370  0.44847467  1
  Se  Se156  1  0.09302942  0.92050359  0.94785425  1
  Se  Se157  1  0.41719519  0.25207268  0.44590881  1
  Se  Se158  1  0.41108402  0.25736454  0.92996776  1
  Se  Se159  1  0.40936165  0.59506530  0.44539291  1
  Se  Se160  1  0.41008567  0.58260431  0.94363559  1
  Se  Se161  1  0.41035283  0.92066303  0.44578990  1
  Se  Se162  1  0.42381231  0.91275148  0.94180108  1
  Se  Se163  1  0.74287069  0.25654764  0.44870532  1
  Se  Se164  1  0.73844752  0.24738452  0.93567459  1
  Se  Se165  1  0.74748780  0.58337811  0.43982292  1
  Se  Se166  1  0.75762055  0.57611720  0.95521464  1
  Se  Se167  1  0.74983183  0.91393407  0.45018985  1
  Se  Se168  1  0.75221826  0.91902502  0.94652205  1
  Se  Se169  1  0.25289848  0.08204981  0.45158727  1
  Se  Se170  1  0.25614210  0.08482932  0.94423740  1
  Se  Se171  1  0.25605133  0.42134188  0.44869298  1
  Se  Se172  1  0.24442466  0.42049365  0.94466071  1
  Se  Se173  1  0.24937924  0.75412481  0.45140956  1
  Se  Se174  1  0.24861214  0.75648675  0.94533323  1
  Se  Se175  1  0.58387835  0.08258677  0.45068490  1
  Se  Se176  1  0.57980159  0.07350411  0.93476001  1
  Se  Se177  1  0.59131345  0.41117553  0.44385651  1
  Se  Se178  1  0.57242983  0.41614813  0.94288867  1
  Se  Se179  1  0.58307706  0.74401194  0.44089297  1
  Se  Se180  1  0.60270816  0.72543530  0.94848635  1
  Se  Se181  1  0.92682718  0.07173274  0.43797517  1
  Se  Se182  1  0.91416905  0.07867740  0.93178479  1
  Se  Se183  1  0.92370004  0.41165020  0.44148823  1
  Se  Se184  1  0.91616859  0.41616972  0.94828796  1
  Se  Se185  1  0.91878128  0.74707948  0.44655265  1
  Se  Se186  1  0.92587833  0.75529705  0.94303802  1
  Se  Se187  1  0.25546625  0.24900908  0.30654295  1
  Se  Se188  1  0.24794987  0.24990278  0.79842039  1
  Se  Se189  1  0.25024313  0.58067707  0.31240331  1
  Se  Se190  1  0.25000204  0.58874262  0.80467259  1
  Se  Se191  1  0.24691481  0.92028563  0.30300058  1
  Se  Se192  1  0.26245033  0.92192375  0.80100678  1
  Se  Se193  1  0.57456019  0.23694194  0.31546610  1
  Se  Se194  1  0.58247986  0.24584987  0.80235458  1
  Se  Se195  1  0.58763301  0.58607888  0.29295093  1
  Se  Se196  1  0.57137488  0.57742545  0.81571064  1
  Se  Se197  1  0.58090544  0.91476536  0.30584644  1
  Se  Se198  1  0.61014326  0.92269890  0.80570567  1
  Se  Se199  1  0.90823983  0.23873585  0.30274712  1
  Se  Se200  1  0.91389100  0.24562036  0.81615022  1
  Se  Se201  1  0.90745838  0.57738629  0.30038435  1
  Se  Se202  1  0.89838127  0.58198028  0.81245879  1
  Se  Se203  1  0.90606466  0.90623101  0.30586439  1
  Se  Se204  1  0.92197956  0.91822104  0.80294493  1
  Se  Se205  1  0.08800489  0.08845642  0.30758827  1
  Se  Se206  1  0.09014072  0.07741093  0.80393633  1
  Se  Se207  1  0.09600612  0.42017422  0.31636370  1
  Se  Se208  1  0.08017867  0.42405508  0.81162956  1
  Se  Se209  1  0.08560792  0.75422041  0.30833290  1
  Se  Se210  1  0.09954004  0.76794710  0.80652727  1
  Se  Se211  1  0.41158353  0.07512131  0.30944594  1
  Se  Se212  1  0.41422275  0.07781482  0.79946158  1
  Se  Se213  1  0.42585059  0.42400577  0.29817626  1
  Se  Se214  1  0.39292440  0.40328503  0.80116886  1
  Se  Se215  1  0.42468434  0.75938394  0.31315938  1
  Se  Se216  1  0.43515021  0.76445455  0.80643598  1
  Se  Se217  1  0.74143572  0.07459874  0.30187335  1
  Se  Se218  1  0.75954803  0.08763726  0.79244794  1
  Se  Se219  1  0.75485109  0.42087986  0.30448360  1
  Se  Se220  1  0.73735824  0.41807176  0.81078510  1
  Se  Se221  1  0.74102320  0.74562812  0.30325970  1
  Se  Se222  1  0.75949297  0.75863857  0.81105694  1
  Se  Se223  1  0.24779072  0.08020311  0.19058171  1
  Se  Se224  1  0.25377290  0.08257980  0.69168780  1
  Se  Se225  1  0.26370948  0.41032642  0.19494306  1
  Se  Se226  1  0.24170809  0.41685112  0.69943447  1
  Se  Se227  1  0.24363158  0.75492852  0.19164867  1
  Se  Se228  1  0.26117027  0.73107073  0.70387588  1
  Se  Se229  1  0.57934801  0.07710096  0.20146194  1
  Se  Se230  1  0.57977554  0.08026008  0.69729494  1
  Se  Se231  1  0.58439400  0.42459168  0.17693695  1
  Se  Se232  1  0.57677035  0.41861931  0.70620373  1
  Se  Se233  1  0.58044051  0.74931204  0.18997005  1
  Se  Se234  1  0.58305127  0.75699480  0.68776837  1
  Se  Se235  1  0.90488574  0.08274793  0.18296534  1
  Se  Se236  1  0.91017794  0.09391990  0.70529343  1
  Se  Se237  1  0.91185216  0.41926585  0.18661912  1
  Se  Se238  1  0.90082964  0.42245922  0.69515458  1
  Se  Se239  1  0.90951078  0.76215174  0.18462359  1
  Se  Se240  1  0.91592911  0.75203251  0.69095489  1
  Se  Se241  1  0.09245115  0.24285563  0.18764520  1
  Se  Se242  1  0.09149166  0.24464904  0.68590713  1
  Se  Se243  1  0.09910673  0.56966533  0.19395969  1
  Se  Se244  1  0.08309348  0.58245312  0.69630068  1
  Se  Se245  1  0.08745934  0.91213369  0.18210360  1
  Se  Se246  1  0.08031886  0.92402323  0.69938321  1
  Se  Se247  1  0.41870159  0.24795646  0.19875862  1
  Se  Se248  1  0.41257911  0.24878852  0.69640333  1
  Se  Se249  1  0.42506438  0.58657059  0.17881203  1
  Se  Se250  1  0.43530732  0.56407098  0.70553721  1
  Se  Se251  1  0.41032082  0.91487645  0.19798287  1
  Se  Se252  1  0.43402361  0.89688137  0.70814375  1
  Se  Se253  1  0.74695478  0.24189828  0.19268674  1
  Se  Se254  1  0.74431238  0.24871871  0.70665690  1
  Se  Se255  1  0.74482101  0.58973617  0.18603978  1
  Se  Se256  1  0.74507171  0.57939113  0.69223741  1
  Se  Se257  1  0.74110581  0.91971927  0.19459358  1
  Se  Se258  1  0.75209451  0.91296236  0.69364326  1
