# generated using pymatgen
data_In86Cu29Se144
_symmetry_space_group_name_H-M   'P 1'
_cell_length_a   17.59425546
_cell_length_b   17.59880339
_cell_length_c   23.45638960
_cell_angle_alpha   89.99470620
_cell_angle_beta   89.99314560
_cell_angle_gamma   89.98993808
_symmetry_Int_Tables_number   1
_chemical_formula_structural   In86Cu29Se144
_chemical_formula_sum   'In86 Cu29 Se144'
_cell_volume   7262.98567521
_cell_formula_units_Z   1
loop_
 _symmetry_equiv_pos_site_id
 _symmetry_equiv_pos_as_xyz
  1  'x, y, z'
loop_
 _atom_site_type_symbol
 _atom_site_label
 _atom_site_symmetry_multiplicity
 _atom_site_fract_x
 _atom_site_fract_y
 _atom_site_fract_z
 _atom_site_occupancy
  In  In0  1  0.00326597  0.16027954  0.11611720  1
  In  In1  1  -0.00442909  0.17822146  0.63023725  1
  In  In2  1  -0.01164480  0.50916763  0.12185728  1
  In  In3  1  -0.00546208  0.50833081  0.62429076  1
  In  In4  1  0.00795984  0.82783699  0.12226450  1
  In  In5  1  -0.00600605  0.83102396  0.61978667  1
  In  In6  1  0.33014951  0.14864975  0.10914329  1
  In  In7  1  0.34188622  0.15841896  0.62668472  1
  In  In8  1  0.34880499  0.50729604  0.13287381  1
  In  In9  1  0.35023578  0.50471481  0.62024653  1
  In  In10  1  0.33772406  0.83496593  0.12594278  1
  In  In11  1  0.33831455  0.82092443  0.60442392  1
  In  In12  1  0.66692642  0.16721463  0.12199950  1
  In  In13  1  0.66168093  0.15947074  0.62874866  1
  In  In14  1  0.67194297  0.49466303  0.13252899  1
  In  In15  1  0.66238682  0.49531255  0.62214444  1
  In  In16  1  0.65737277  0.84639924  0.13855097  1
  In  In17  1  0.66368859  0.83229620  0.61918045  1
  In  In18  1  0.16748238  -0.01473470  0.36985027  1
  In  In19  1  0.17492350  -0.01365736  0.90140919  1
  In  In20  1  0.17782690  0.32925550  0.37296978  1
  In  In21  1  0.16210499  0.32890601  0.87581324  1
  In  In22  1  0.18220153  0.67666855  0.37362444  1
  In  In23  1  0.18809356  0.66856135  0.86908301  1
  In  In24  1  0.49882453  0.00108785  0.37180172  1
  In  In25  1  0.50543733  -0.00545065  0.87758529  1
  In  In26  1  0.51104765  0.32092324  0.38079774  1
  In  In27  1  0.50435863  0.32112197  0.86956437  1
  In  In28  1  0.50256133  0.66842071  0.38905719  1
  In  In29  1  0.50180789  0.67405381  0.86771111  1
  In  In30  1  0.82238819  0.01247663  0.37957490  1
  In  In31  1  0.83119025  0.00666890  0.87547219  1
  In  In32  1  0.81575321  0.34649886  0.38321898  1
  In  In33  1  0.82761482  0.33347935  0.87680690  1
  In  In34  1  0.80323166  0.69364950  0.40433004  1
  In  In35  1  0.81255903  0.66547158  0.87196476  1
  In  In36  1  -0.00845042  0.15454795  0.37110852  1
  In  In37  1  0.00042416  0.15809510  0.89102277  1
  In  In38  1  -0.01141137  0.49774953  0.37153422  1
  In  In39  1  -0.00414589  0.48994885  0.87283681  1
  In  In40  1  0.00810258  0.83381432  0.38073241  1
  In  In41  1  0.00261138  0.84343341  0.87495010  1
  In  In42  1  0.34831164  0.16882543  0.36820260  1
  In  In43  1  0.34975201  0.14020791  0.89717476  1
  In  In44  1  0.34345355  0.52324045  0.37951339  1
  In  In45  1  0.32690646  0.51608657  0.86784130  1
  In  In46  1  0.33614600  0.82894604  0.38256163  1
  In  In47  1  0.34507053  0.83362748  0.88642662  1
  In  In48  1  0.66287365  0.17071376  0.37163448  1
  In  In49  1  0.66781922  0.16886041  0.87201766  1
  In  In50  1  0.66506641  0.50291250  0.38362329  1
  In  In51  1  0.67408588  0.50647633  0.86746208  1
  In  In52  1  0.65266163  0.83527633  0.38236723  1
  In  In53  1  0.65214968  0.82276802  0.86537724  1
  In  In54  1  0.18938006  0.01465462  0.10437092  1
  In  In55  1  0.18137335  -0.00769928  0.62668877  1
  In  In56  1  0.17424499  0.32287451  0.12560663  1
  In  In57  1  0.17380912  0.33210159  0.62851120  1
  In  In58  1  0.17549163  0.67848505  0.12361464  1
  In  In59  1  0.16941008  0.67356842  0.62692658  1
  In  In60  1  0.50247102  -0.00159026  0.12178462  1
  In  In61  1  0.51138282  0.00841539  0.61939900  1
  In  In62  1  0.51749556  0.33138912  0.12739234  1
  In  In63  1  0.51224854  0.33700004  0.62404178  1
  In  In64  1  0.49224561  0.67989518  0.13540259  1
  In  In65  1  0.50565585  0.66700197  0.61587588  1
  In  In66  1  0.81768125  0.00146792  0.12885285  1
  In  In67  1  0.81531693  -0.01451147  0.61433576  1
  In  In68  1  0.82616139  0.32947373  0.12167599  1
  In  In69  1  0.81742163  0.31424540  0.61757589  1
  In  In70  1  0.83147543  0.66046926  0.12295957  1
  In  In71  1  0.80283331  0.64492819  0.59624385  1
  In  In72  1  0.00166602  -0.00290587  0.24465913  1
  In  In73  1  0.34291587  -0.00665243  0.75931350  1
  In  In74  1  0.16345894  0.50288736  0.50565500  1
  In  In75  1  0.50703991  0.49602846  0.00421623  1
  In  In76  1  -0.00562761  0.33134362  0.23925849  1
  In  In77  1  0.83273294  0.83312466  0.00127173  1
  In  In78  1  0.16169481  0.49818413  -0.00501001  1
  In  In79  1  0.34169514  0.33069071  0.25185604  1
  In  In80  1  -0.00361026  0.33679360  0.75837533  1
  In  In81  1  0.16120027  0.15782856  0.49609826  1
  In  In82  1  -0.00627880  0.67158208  0.74069203  1
  In  In83  1  -0.00490539  0.66413300  0.24601102  1
  In  In84  1  0.33943290  0.33862163  0.74775012  1
  In  In85  1  -0.00278694  0.00508645  0.76051026  1
  Cu  Cu86  1  0.16857324  0.50195527  0.25545865  1
  Cu  Cu87  1  0.82968059  0.50111645  0.74114079  1
  Cu  Cu88  1  0.81851899  0.51063490  0.25756086  1
  Cu  Cu89  1  0.49957792  0.83225867  0.25631571  1
  Cu  Cu90  1  0.82695235  0.83241397  0.26219680  1
  Cu  Cu91  1  -0.00627182  0.33605250  -0.00051102  1
  Cu  Cu92  1  0.65757468  0.66990631  -0.00259394  1
  Cu  Cu93  1  -0.00998723  0.32819533  0.49865573  1
  Cu  Cu94  1  0.66675193  0.32726300  0.50120252  1
  Cu  Cu95  1  0.49378160  0.83122659  0.74370277  1
  Cu  Cu96  1  0.50298347  0.50938657  0.74309237  1
  Cu  Cu97  1  -0.00074857  0.00371492  0.49950694  1
  Cu  Cu98  1  0.66403156  0.00624127  0.49508028  1
  Cu  Cu99  1  0.17166586  0.83285008  0.74599895  1
  Cu  Cu100  1  0.33617656  0.32714574  -0.00152008  1
  Cu  Cu101  1  0.00502920  0.66592667  0.49986993  1
  Cu  Cu102  1  -0.00634642  0.66103263  -0.00199519  1
  Cu  Cu103  1  0.50336714  0.15866794  0.24525626  1
  Cu  Cu104  1  0.17441313  0.16817826  0.76632977  1
  Cu  Cu105  1  0.81729699  0.82905217  0.74141291  1
  Cu  Cu106  1  0.33546391  0.33191638  0.49805519  1
  Cu  Cu107  1  0.18487704  0.83251897  0.24766243  1
  Cu  Cu108  1  0.50531357  0.50791814  0.25860227  1
  Cu  Cu109  1  0.33738351  -0.00082208  0.49930829  1
  Cu  Cu110  1  0.67328355  0.32961046  -0.00079581  1
  Cu  Cu111  1  0.82354482  0.17717168  0.25166732  1
  Cu  Cu112  1  0.66752932  -0.00006535  0.00109914  1
  Cu  Cu113  1  0.82816685  0.16146089  0.74875209  1
  Cu  Cu114  1  0.33621083  0.66960080  0.00207754  1
  Se  Se115  1  0.07795968  0.07462647  0.04790022  1
  Se  Se116  1  0.07711549  0.07543094  0.56823482  1
  Se  Se117  1  0.07629859  0.41086331  0.06270912  1
  Se  Se118  1  0.07360127  0.40253283  0.56048563  1
  Se  Se119  1  0.07921206  0.73812416  0.05284325  1
  Se  Se120  1  0.08397955  0.74893796  0.55677004  1
  Se  Se121  1  0.42935671  0.08162469  0.04737384  1
  Se  Se122  1  0.41831692  0.08544858  0.55147938  1
  Se  Se123  1  0.41047423  0.40699208  0.06194453  1
  Se  Se124  1  0.41865179  0.40944810  0.55508007  1
  Se  Se125  1  0.42094486  0.75127327  0.05496710  1
  Se  Se126  1  0.44798971  0.76680547  0.54252658  1
  Se  Se127  1  0.75153923  0.08411086  0.05215379  1
  Se  Se128  1  0.74666961  0.08671303  0.55288880  1
  Se  Se129  1  0.74736832  0.41917173  0.05502293  1
  Se  Se130  1  0.75022130  0.41272468  0.55348323  1
  Se  Se131  1  0.73802888  0.74821246  0.06068706  1
  Se  Se132  1  0.76177148  0.76903103  0.54921869  1
  Se  Se133  1  0.24932583  0.24866472  0.05106533  1
  Se  Se134  1  0.25387351  0.24981634  0.55574103  1
  Se  Se135  1  0.25883822  0.58101303  0.05703507  1
  Se  Se136  1  0.25912148  0.59361442  0.55593289  1
  Se  Se137  1  0.23232386  0.88933260  0.05945522  1
  Se  Se138  1  0.24979524  0.91622764  0.54891177  1
  Se  Se139  1  0.58523198  0.25017240  0.05074644  1
  Se  Se140  1  0.58380837  0.24453628  0.55610601  1
  Se  Se141  1  0.58651902  0.59173864  0.06586833  1
  Se  Se142  1  0.58039391  0.57348997  0.55123041  1
  Se  Se143  1  0.58823868  0.91247816  0.05446314  1
  Se  Se144  1  0.58437318  0.92055548  0.54960600  1
  Se  Se145  1  0.91704673  0.25152854  0.05680757  1
  Se  Se146  1  0.91358527  0.24034684  0.55211898  1
  Se  Se147  1  0.90662942  0.58009144  0.04769760  1
  Se  Se148  1  0.91950859  0.57852151  0.54713801  1
  Se  Se149  1  0.91724957  0.92098738  0.06522320  1
  Se  Se150  1  0.91767033  0.91912351  0.55230670  1
  Se  Se151  1  0.07544499  0.25544390  0.43727399  1
  Se  Se152  1  0.08200157  0.25536664  0.94880330  1
  Se  Se153  1  0.08044205  0.58672292  0.43424990  1
  Se  Se154  1  0.07790389  0.59181996  0.93324721  1
  Se  Se155  1  0.08606635  0.92183061  0.44843109  1
  Se  Se156  1  0.07315022  0.90949880  0.95489793  1
  Se  Se157  1  0.41659221  0.24519742  0.44641004  1
  Se  Se158  1  0.42506143  0.25046703  0.94604710  1
  Se  Se159  1  0.42291181  0.58180951  0.45855476  1
  Se  Se160  1  0.41577304  0.58604450  0.94365839  1
  Se  Se161  1  0.42118636  0.91912008  0.44486093  1
  Se  Se162  1  0.39706866  0.94624769  0.94425117  1
  Se  Se163  1  0.74942814  0.24471191  0.44551746  1
  Se  Se164  1  0.75441539  0.24378044  0.94578545  1
  Se  Se165  1  0.76021041  0.57088644  0.45267137  1
  Se  Se166  1  0.74308890  0.58449630  0.94807890  1
  Se  Se167  1  0.74721957  0.91938882  0.44423252  1
  Se  Se168  1  0.73936029  0.91370116  0.93718852  1
  Se  Se169  1  0.25770594  0.07775963  0.43615440  1
  Se  Se170  1  0.23319288  0.09887415  0.95462009  1
  Se  Se171  1  0.25606155  0.41539881  0.44217877  1
  Se  Se172  1  0.26208333  0.41273686  0.93894700  1
  Se  Se173  1  0.24242529  0.75740450  0.45084576  1
  Se  Se174  1  0.25127445  0.74925964  0.94744975  1
  Se  Se175  1  0.57967593  0.08785701  0.44046926  1
  Se  Se176  1  0.58945825  0.08164245  0.94184327  1
  Se  Se177  1  0.58281257  0.41213848  0.44906187  1
  Se  Se178  1  0.59295896  0.41153243  0.93850688  1
  Se  Se179  1  0.57360547  0.76134919  0.45945211  1
  Se  Se180  1  0.57426127  0.75313790  0.94479450  1
  Se  Se181  1  0.91439617  0.08704118  0.44861780  1
  Se  Se182  1  0.91709078  0.06804656  0.94991079  1
  Se  Se183  1  0.91527037  0.41835620  0.44602335  1
  Se  Se184  1  0.91262495  0.41808291  0.94451148  1
  Se  Se185  1  0.92419228  0.75369568  0.44926415  1
  Se  Se186  1  0.91747986  0.74072933  0.93420663  1
  Se  Se187  1  0.24294978  0.23674525  0.30138104  1
  Se  Se188  1  0.26247038  0.24778898  0.81799259  1
  Se  Se189  1  0.25331038  0.58583690  0.30468427  1
  Se  Se190  1  0.25637132  0.59236893  0.79234949  1
  Se  Se191  1  0.26219783  0.91364379  0.30568610  1
  Se  Se192  1  0.24110825  0.91076285  0.81435133  1
  Se  Se193  1  0.57949617  0.24931593  0.29877206  1
  Se  Se194  1  0.59900614  0.26068093  0.80110039  1
  Se  Se195  1  0.58432308  0.58954058  0.31617785  1
  Se  Se196  1  0.58506043  0.58802633  0.80271904  1
  Se  Se197  1  0.58513243  0.91853668  0.30509311  1
  Se  Se198  1  0.57492004  0.91442406  0.79987448  1
  Se  Se199  1  0.90885371  0.25315650  0.31039096  1
  Se  Se200  1  0.91430885  0.23373489  0.81141548  1
  Se  Se201  1  0.90185948  0.59113410  0.31377948  1
  Se  Se202  1  0.90940346  0.57820578  0.80486093  1
  Se  Se203  1  0.91392346  0.91428303  0.31365245  1
  Se  Se204  1  0.90110084  0.90263793  0.80349883  1
  Se  Se205  1  0.09186867  0.08755444  0.30560941  1
  Se  Se206  1  0.09704008  0.08263707  0.82125663  1
  Se  Se207  1  0.08825742  0.41684538  0.30751988  1
  Se  Se208  1  0.09938734  0.42920710  0.80430106  1
  Se  Se209  1  0.09004881  0.75672989  0.30174525  1
  Se  Se210  1  0.08658500  0.75561110  0.80557452  1
  Se  Se211  1  0.41634138  0.07952962  0.29731260  1
  Se  Se212  1  0.42850592  0.09569930  0.80816801  1
  Se  Se213  1  0.42361170  0.42258306  0.31570169  1
  Se  Se214  1  0.42737038  0.43093246  0.81000811  1
  Se  Se215  1  0.42211064  0.74811847  0.31456580  1
  Se  Se216  1  0.41044851  0.75654570  0.80498160  1
  Se  Se217  1  0.74685603  0.08639601  0.30258128  1
  Se  Se218  1  0.74683712  0.07808521  0.80340695  1
  Se  Se219  1  0.74000488  0.41964540  0.30675637  1
  Se  Se220  1  0.75633520  0.41763518  0.80252927  1
  Se  Se221  1  0.74169654  0.75148289  0.31503648  1
  Se  Se222  1  0.73959817  0.74339382  0.79697323  1
  Se  Se223  1  0.25527819  0.08017704  0.18826231  1
  Se  Se224  1  0.24687368  0.08836640  0.70015424  1
  Se  Se225  1  0.24640251  0.42381169  0.19224102  1
  Se  Se226  1  0.24905903  0.43008792  0.68925540  1
  Se  Se227  1  0.26261963  0.74230222  0.19716471  1
  Se  Se228  1  0.25734322  0.76009323  0.68787097  1
  Se  Se229  1  0.58903987  0.07947595  0.19061994  1
  Se  Se230  1  0.58104831  0.07808549  0.69929588  1
  Se  Se231  1  0.58032386  0.42170399  0.20097595  1
  Se  Se232  1  0.58554763  0.41740847  0.69897107  1
  Se  Se233  1  0.58590032  0.74960726  0.20348936  1
  Se  Se234  1  0.58000947  0.75189958  0.68958385  1
  Se  Se235  1  0.90736186  0.09576659  0.19364669  1
  Se  Se236  1  0.91085644  0.08269721  0.68986315  1
  Se  Se237  1  0.90069413  0.43360420  0.19445897  1
  Se  Se238  1  0.90962652  0.41436120  0.68647987  1
  Se  Se239  1  0.90482318  0.76231326  0.19269418  1
  Se  Se240  1  0.89675401  0.75013706  0.68114573  1
  Se  Se241  1  0.09043485  0.23604528  0.19296075  1
  Se  Se242  1  0.09594044  0.24302762  0.70203436  1
  Se  Se243  1  0.09165241  0.57540178  0.18871145  1
  Se  Se244  1  0.09095793  0.57559858  0.69298502  1
  Se  Se245  1  0.09555955  0.90713895  0.19066557  1
  Se  Se246  1  0.08484265  0.91490602  0.69431271  1
  Se  Se247  1  0.42208167  0.24270347  0.18515601  1
  Se  Se248  1  0.42742945  0.24333404  0.69288519  1
  Se  Se249  1  0.41880150  0.58905991  0.20622608  1
  Se  Se250  1  0.42020769  0.59256839  0.69110221  1
  Se  Se251  1  0.42444560  0.91378549  0.19399546  1
  Se  Se252  1  0.41664708  0.91273440  0.68205759  1
  Se  Se253  1  0.74218677  0.25669669  0.19427221  1
  Se  Se254  1  0.74489475  0.24670793  0.69803590  1
  Se  Se255  1  0.74448826  0.59364247  0.19675314  1
  Se  Se256  1  0.74788883  0.58437487  0.68785420  1
  Se  Se257  1  0.75033308  0.91968940  0.20572079  1
  Se  Se258  1  0.73753125  0.91978015  0.69349995  1
