# generated using pymatgen
data_In86Cu29Se144
_symmetry_space_group_name_H-M   'P 1'
_cell_length_a   17.58585455
_cell_length_b   17.58397445
_cell_length_c   23.44202452
_cell_angle_alpha   90.00027546
_cell_angle_beta   89.99669484
_cell_angle_gamma   90.01342978
_symmetry_Int_Tables_number   1
_chemical_formula_structural   In86Cu29Se144
_chemical_formula_sum   'In86 Cu29 Se144'
_cell_volume   7248.95867764
_cell_formula_units_Z   1
loop_
 _symmetry_equiv_pos_site_id
 _symmetry_equiv_pos_as_xyz
  1  'x, y, z'
loop_
 _atom_site_type_symbol
 _atom_site_label
 _atom_site_symmetry_multiplicity
 _atom_site_fract_x
 _atom_site_fract_y
 _atom_site_fract_z
 _atom_site_occupancy
  In  In0  1  0.00144988  0.16124153  0.12719467  1
  In  In1  1  0.00172776  0.17307639  0.61762423  1
  In  In2  1  -0.01232087  0.49627889  0.12235456  1
  In  In3  1  -0.00691793  0.48955701  0.62710302  1
  In  In4  1  0.01820021  0.83562754  0.13169212  1
  In  In5  1  0.00640779  0.83396901  0.60939939  1
  In  In6  1  0.34211635  0.17469594  0.12117827  1
  In  In7  1  0.33630750  0.17352292  0.62032603  1
  In  In8  1  0.33646273  0.48889027  0.13884909  1
  In  In9  1  0.34426296  0.49404868  0.63445679  1
  In  In10  1  0.32743262  0.82586981  0.12567415  1
  In  In11  1  0.32036894  0.83500589  0.62343724  1
  In  In12  1  0.65885808  0.16231982  0.11482441  1
  In  In13  1  0.66255375  0.15825629  0.62050751  1
  In  In14  1  0.65595329  0.48057918  0.10355141  1
  In  In15  1  0.65991729  0.51188519  0.62193003  1
  In  In16  1  0.66378352  0.85162399  0.13016326  1
  In  In17  1  0.67685268  0.84272528  0.61760661  1
  In  In18  1  0.15889192  0.00697938  0.37792352  1
  In  In19  1  0.16864823  -0.00025273  0.88752021  1
  In  In20  1  0.15752292  0.33119255  0.35932241  1
  In  In21  1  0.15927179  0.32145570  0.86929256  1
  In  In22  1  0.17411614  0.66590930  0.37394205  1
  In  In23  1  0.18525223  0.66387289  0.87636663  1
  In  In24  1  0.51591952  0.00119746  0.37045541  1
  In  In25  1  0.50801789  -0.00523259  0.87911281  1
  In  In26  1  0.49466085  0.33201300  0.37969433  1
  In  In27  1  0.49423863  0.34060492  0.88363227  1
  In  In28  1  0.48377470  0.66954745  0.37242713  1
  In  In29  1  0.49766777  0.66911251  0.88209745  1
  In  In30  1  0.83455891  0.00224016  0.37760102  1
  In  In31  1  0.82800264  0.02751621  0.87444356  1
  In  In32  1  0.83275177  0.31831824  0.37354150  1
  In  In33  1  0.84906699  0.31182543  0.88911502  1
  In  In34  1  0.84668952  0.68147678  0.37768475  1
  In  In35  1  0.82062412  0.66574864  0.87547252  1
  In  In36  1  0.00235590  0.16715539  0.37199163  1
  In  In37  1  -0.00625671  0.17395713  0.88332981  1
  In  In38  1  0.01391540  0.49887950  0.36598627  1
  In  In39  1  0.00775146  0.48070043  0.87563905  1
  In  In40  1  -0.01316112  0.84087192  0.38595156  1
  In  In41  1  0.00424567  0.84738022  0.87649982  1
  In  In42  1  0.32568014  0.17410426  0.37948815  1
  In  In43  1  0.32472106  0.17380546  0.88211702  1
  In  In44  1  0.33475703  0.50637254  0.36558728  1
  In  In45  1  0.34335546  0.50388084  0.87060651  1
  In  In46  1  0.33197171  0.81471822  0.36626953  1
  In  In47  1  0.34206342  0.82783368  0.88383680  1
  In  In48  1  0.67722239  0.14735100  0.39362379  1
  In  In49  1  0.67711238  0.15840589  0.88135677  1
  In  In50  1  0.66421842  0.48249004  0.37910486  1
  In  In51  1  0.67298964  0.48333856  0.89672641  1
  In  In52  1  0.66508108  0.87037943  0.37251229  1
  In  In53  1  0.65334578  0.83190945  0.87326371  1
  In  In54  1  0.16133953  -0.01153279  0.12540491  1
  In  In55  1  0.15974955  -0.00245760  0.61221141  1
  In  In56  1  0.17942520  0.32414477  0.13788512  1
  In  In57  1  0.17302052  0.33060480  0.62928492  1
  In  In58  1  0.16970191  0.68333469  0.13101642  1
  In  In59  1  0.17340534  0.67964697  0.62415101  1
  In  In60  1  0.50646516  0.00831787  0.12052711  1
  In  In61  1  0.50193705  0.01371202  0.62105016  1
  In  In62  1  0.49195551  0.32491060  0.11606249  1
  In  In63  1  0.49185872  0.32792244  0.62393184  1
  In  In64  1  0.48909484  0.65964824  0.12273006  1
  In  In65  1  0.50278686  0.65377076  0.62403355  1
  In  In66  1  0.82405919  0.01036678  0.13276550  1
  In  In67  1  0.82642348  0.00755658  0.61782059  1
  In  In68  1  0.83501228  0.33241546  0.11600755  1
  In  In69  1  0.84666455  0.33144799  0.62698925  1
  In  In70  1  0.83970402  0.65751200  0.12361488  1
  In  In71  1  0.82689090  0.66805607  0.61971585  1
  In  In72  1  0.65986635  0.32124747  0.24112644  1
  In  In73  1  0.83236543  0.50113826  0.50293393  1
  In  In74  1  0.00351911  0.66365969  0.74144946  1
  In  In75  1  0.66800847  0.32942283  0.75599516  1
  In  In76  1  0.33534565  0.00204795  0.74656894  1
  In  In77  1  0.65877789  0.66508112  0.75056954  1
  In  In78  1  0.16859152  0.50120821  0.00315339  1
  In  In79  1  0.17023314  0.50166585  0.49004451  1
  In  In80  1  0.33540997  -0.00216931  0.25048281  1
  In  In81  1  0.66889699  0.66560080  0.24655668  1
  In  In82  1  0.49716778  0.83448026  0.49066068  1
  In  In83  1  0.83462912  0.83305638  0.00288354  1
  In  In84  1  0.00147224  0.66975285  0.25214553  1
  In  In85  1  0.00196511  0.00510671  0.74138827  1
  Cu  Cu86  1  0.49531290  0.50132417  0.25204321  1
  Cu  Cu87  1  0.32882768  -0.00101859  0.49452170  1
  Cu  Cu88  1  0.66162274  0.66800413  0.00144596  1
  Cu  Cu89  1  0.16241389  0.16773866  0.74927204  1
  Cu  Cu90  1  0.65766953  0.32756332  0.50274983  1
  Cu  Cu91  1  0.83334858  0.84302812  0.25469624  1
  Cu  Cu92  1  0.00411156  -0.00094780  0.00486998  1
  Cu  Cu93  1  0.17580528  0.82705063  0.75217700  1
  Cu  Cu94  1  0.33570919  0.66112115  0.49575625  1
  Cu  Cu95  1  0.00279241  0.66718337  0.00584824  1
  Cu  Cu96  1  0.83265640  0.84743112  0.74167079  1
  Cu  Cu97  1  0.16653768  0.16304183  0.25092655  1
  Cu  Cu98  1  0.49939144  0.49926026  0.75610407  1
  Cu  Cu99  1  0.33892809  0.00365217  0.00635629  1
  Cu  Cu100  1  0.83991544  0.49204320  0.75552022  1
  Cu  Cu101  1  0.66721166  -0.00045293  -0.00010330  1
  Cu  Cu102  1  0.33317155  0.33323758  0.50224537  1
  Cu  Cu103  1  0.49764800  0.16916392  0.74780745  1
  Cu  Cu104  1  0.00138258  0.32954408  0.49336391  1
  Cu  Cu105  1  0.50380469  0.17166257  0.24554965  1
  Cu  Cu106  1  0.32742288  0.33559151  0.00255138  1
  Cu  Cu107  1  0.83256035  0.49305806  0.24159395  1
  Cu  Cu108  1  0.83856998  0.16048262  0.25478250  1
  Cu  Cu109  1  0.49872163  0.83305892  0.75581356  1
  Cu  Cu110  1  0.00512270  0.32481260  0.00191549  1
  Cu  Cu111  1  -0.00504504  0.00900857  0.49732382  1
  Cu  Cu112  1  0.33164541  0.67095357  0.00273012  1
  Cu  Cu113  1  0.66237716  0.67002665  0.49714526  1
  Cu  Cu114  1  0.17437655  0.49409482  0.75386660  1
  Se  Se115  1  0.08861002  0.08164426  0.05778321  1
  Se  Se116  1  0.08324738  0.09002403  0.54866803  1
  Se  Se117  1  0.08336265  0.40696019  0.06251035  1
  Se  Se118  1  0.07975784  0.41203601  0.55381212  1
  Se  Se119  1  0.08574282  0.75253028  0.05501371  1
  Se  Se120  1  0.09179440  0.74665205  0.54995069  1
  Se  Se121  1  0.42408849  0.09179388  0.05239429  1
  Se  Se122  1  0.40820650  0.08021984  0.55265370  1
  Se  Se123  1  0.40835465  0.42048725  0.05698372  1
  Se  Se124  1  0.41554952  0.41812597  0.55562398  1
  Se  Se125  1  0.41735346  0.75343950  0.05469713  1
  Se  Se126  1  0.41323209  0.74435127  0.55792778  1
  Se  Se127  1  0.75291853  0.08162960  0.05187845  1
  Se  Se128  1  0.74759705  0.08848501  0.54698739  1
  Se  Se129  1  0.76531414  0.42376570  0.04683103  1
  Se  Se130  1  0.74073280  0.40906410  0.56283390  1
  Se  Se131  1  0.74214541  0.74564102  0.06433666  1
  Se  Se132  1  0.74830329  0.75011285  0.54988629  1
  Se  Se133  1  0.24683363  0.25059613  0.05614720  1
  Se  Se134  1  0.24609586  0.25126830  0.55334843  1
  Se  Se135  1  0.25569428  0.58923595  0.06554050  1
  Se  Se136  1  0.25828199  0.58258166  0.56013242  1
  Se  Se137  1  0.25424886  0.91788845  0.05647636  1
  Se  Se138  1  0.24740812  0.91320039  0.54822183  1
  Se  Se139  1  0.60184712  0.27189390  0.05590127  1
  Se  Se140  1  0.57540052  0.24537561  0.55729021  1
  Se  Se141  1  0.57632281  0.58398761  0.05190648  1
  Se  Se142  1  0.57964643  0.58254728  0.54582962  1
  Se  Se143  1  0.58317793  0.91653907  0.05187304  1
  Se  Se144  1  0.58472435  0.92429540  0.55200969  1
  Se  Se145  1  0.91973397  0.24165505  0.05456151  1
  Se  Se146  1  0.91410849  0.25278128  0.54841554  1
  Se  Se147  1  0.91519074  0.58045884  0.04837150  1
  Se  Se148  1  0.92873862  0.59032701  0.55882938  1
  Se  Se149  1  0.92155311  0.92046050  0.06610199  1
  Se  Se150  1  0.91702852  0.92407540  0.55460220  1
  Se  Se151  1  0.08857201  0.25309098  0.43834306  1
  Se  Se152  1  0.09153355  0.24380847  0.94880521  1
  Se  Se153  1  0.07156993  0.59338345  0.44126105  1
  Se  Se154  1  0.07855374  0.58964563  0.93884406  1
  Se  Se155  1  0.08001777  0.92238141  0.44845470  1
  Se  Se156  1  0.08599174  0.91237357  0.95340498  1
  Se  Se157  1  0.41575364  0.24690398  0.44958646  1
  Se  Se158  1  0.41276958  0.25196502  0.94972038  1
  Se  Se159  1  0.41702773  0.57702662  0.44275912  1
  Se  Se160  1  0.41136507  0.58522607  0.94786662  1
  Se  Se161  1  0.40569481  0.92222919  0.43033657  1
  Se  Se162  1  0.41861345  0.92013984  0.94805653  1
  Se  Se163  1  0.74900813  0.25366730  0.44973973  1
  Se  Se164  1  0.73609853  0.26139542  0.94659685  1
  Se  Se165  1  0.74458233  0.58853147  0.43692113  1
  Se  Se166  1  0.75079142  0.58743339  0.95135802  1
  Se  Se167  1  0.76017334  0.91187782  0.44701764  1
  Se  Se168  1  0.74813892  0.91968195  0.93753468  1
  Se  Se169  1  0.24499364  0.08702855  0.44621522  1
  Se  Se170  1  0.25216074  0.08425038  0.95219770  1
  Se  Se171  1  0.25626188  0.40599333  0.43415857  1
  Se  Se172  1  0.25132046  0.41285078  0.93670429  1
  Se  Se173  1  0.25316168  0.74749060  0.44600161  1
  Se  Se174  1  0.24698045  0.75375614  0.95010247  1
  Se  Se175  1  0.57046127  0.08327065  0.45101010  1
  Se  Se176  1  0.58337506  0.08424085  0.94753311  1
  Se  Se177  1  0.57726327  0.41446101  0.45103641  1
  Se  Se178  1  0.56585844  0.42638272  0.95574784  1
  Se  Se179  1  0.59091834  0.74866384  0.42979903  1
  Se  Se180  1  0.58117741  0.75455132  0.94919478  1
  Se  Se181  1  0.91450246  0.09346270  0.44324382  1
  Se  Se182  1  0.91947075  0.08080579  0.95070376  1
  Se  Se183  1  0.92213123  0.41590940  0.43654632  1
  Se  Se184  1  0.92373354  0.41277609  0.94966349  1
  Se  Se185  1  0.91670970  0.75036127  0.45667164  1
  Se  Se186  1  0.92417813  0.74394682  0.93894659  1
  Se  Se187  1  0.25297550  0.24767008  0.30038189  1
  Se  Se188  1  0.25143909  0.24595424  0.80204264  1
  Se  Se189  1  0.23313728  0.57186783  0.30335500  1
  Se  Se190  1  0.25581836  0.58339959  0.80167626  1
  Se  Se191  1  0.24317718  0.91403500  0.31167225  1
  Se  Se192  1  0.24830010  0.91434319  0.81173934  1
  Se  Se193  1  0.58416280  0.23995362  0.31545334  1
  Se  Se194  1  0.57355785  0.24447315  0.81481683  1
  Se  Se195  1  0.58290230  0.57382919  0.31104616  1
  Se  Se196  1  0.58509276  0.57157895  0.81822829  1
  Se  Se197  1  0.56926606  0.90712573  0.29569925  1
  Se  Se198  1  0.58465878  0.92016302  0.80109166  1
  Se  Se199  1  0.92021342  0.25157000  0.30106966  1
  Se  Se200  1  0.91653581  0.24436719  0.80661987  1
  Se  Se201  1  0.90321247  0.57647905  0.30647160  1
  Se  Se202  1  0.91630546  0.58088625  0.81183923  1
  Se  Se203  1  0.91991850  0.92159211  0.30755898  1
  Se  Se204  1  0.90984970  0.91992484  0.80788095  1
  Se  Se205  1  0.08086947  0.08108314  0.30168034  1
  Se  Se206  1  0.08961640  0.08414225  0.81167478  1
  Se  Se207  1  0.08047195  0.41837337  0.29107379  1
  Se  Se208  1  0.08468529  0.41049472  0.79889796  1
  Se  Se209  1  0.08222486  0.75976817  0.31619640  1
  Se  Se210  1  0.08687837  0.75280350  0.80985016  1
  Se  Se211  1  0.42287432  0.09382787  0.30883397  1
  Se  Se212  1  0.42019799  0.08832407  0.81198949  1
  Se  Se213  1  0.41824832  0.41202988  0.30559781  1
  Se  Se214  1  0.41626213  0.41003681  0.80389496  1
  Se  Se215  1  0.41792947  0.74595631  0.29427511  1
  Se  Se216  1  0.41807874  0.74873306  0.80849292  1
  Se  Se217  1  0.74818723  0.08477026  0.30847406  1
  Se  Se218  1  0.74451208  0.08933872  0.79850865  1
  Se  Se219  1  0.75259564  0.41389088  0.30264574  1
  Se  Se220  1  0.75732988  0.41870671  0.81650192  1
  Se  Se221  1  0.75288670  0.75795649  0.31084992  1
  Se  Se222  1  0.75627304  0.76170015  0.80193730  1
  Se  Se223  1  0.24967234  0.08904305  0.18791176  1
  Se  Se224  1  0.23807717  0.08470538  0.68724545  1
  Se  Se225  1  0.24040992  0.42337207  0.20490359  1
  Se  Se226  1  0.25655681  0.41112360  0.69822787  1
  Se  Se227  1  0.24950406  0.75676227  0.20392777  1
  Se  Se228  1  0.26003174  0.74538744  0.69972426  1
  Se  Se229  1  0.58701331  0.08700698  0.19401405  1
  Se  Se230  1  0.58129006  0.08479051  0.69725748  1
  Se  Se231  1  0.57391546  0.42283604  0.18946629  1
  Se  Se232  1  0.58116513  0.42387010  0.69318248  1
  Se  Se233  1  0.57842134  0.75215692  0.18728972  1
  Se  Se234  1  0.57797987  0.75958010  0.68684039  1
  Se  Se235  1  0.92102775  0.07801844  0.19912619  1
  Se  Se236  1  0.90932158  0.09552555  0.68847657  1
  Se  Se237  1  0.91556844  0.40720780  0.19242440  1
  Se  Se238  1  0.92258097  0.40944584  0.70271716  1
  Se  Se239  1  0.90645370  0.75925540  0.19144502  1
  Se  Se240  1  0.91085488  0.76018567  0.68748672  1
  Se  Se241  1  0.08186328  0.24582050  0.19738503  1
  Se  Se242  1  0.08127945  0.24952639  0.69266829  1
  Se  Se243  1  0.08196953  0.58128147  0.18524790  1
  Se  Se244  1  0.09780383  0.57097507  0.68678479  1
  Se  Se245  1  0.08656770  0.91892501  0.20461654  1
  Se  Se246  1  0.09350321  0.90446066  0.69090719  1
  Se  Se247  1  0.41746933  0.25509804  0.19660156  1
  Se  Se248  1  0.41105960  0.25059893  0.69733667  1
  Se  Se249  1  0.41293311  0.58672194  0.20057839  1
  Se  Se250  1  0.42130105  0.58672305  0.70119660  1
  Se  Se251  1  0.42377059  0.91518538  0.18578411  1
  Se  Se252  1  0.42504300  0.90966222  0.68733148  1
  Se  Se253  1  0.75977556  0.23604890  0.18824310  1
  Se  Se254  1  0.75192728  0.24644705  0.68816681  1
  Se  Se255  1  0.74696037  0.56756087  0.18316443  1
  Se  Se256  1  0.76023854  0.57376873  0.69605980  1
  Se  Se257  1  0.74633923  0.92430637  0.20303877  1
  Se  Se258  1  0.74555974  0.92741116  0.69167294  1
