# generated using pymatgen
data_In86Cu29Se144
_symmetry_space_group_name_H-M   'P 1'
_cell_length_a   17.59454996
_cell_length_b   17.59395283
_cell_length_c   23.45858941
_cell_angle_alpha   89.98317845
_cell_angle_beta   89.99381244
_cell_angle_gamma   89.96429629
_symmetry_Int_Tables_number   1
_chemical_formula_structural   In86Cu29Se144
_chemical_formula_sum   'In86 Cu29 Se144'
_cell_volume   7261.78479575
_cell_formula_units_Z   1
loop_
 _symmetry_equiv_pos_site_id
 _symmetry_equiv_pos_as_xyz
  1  'x, y, z'
loop_
 _atom_site_type_symbol
 _atom_site_label
 _atom_site_symmetry_multiplicity
 _atom_site_fract_x
 _atom_site_fract_y
 _atom_site_fract_z
 _atom_site_occupancy
  In  In0  1  0.02351800  0.17315616  0.12185756  1
  In  In1  1  -0.00414183  0.16168266  0.62479579  1
  In  In2  1  -0.00031208  0.50021660  0.12277788  1
  In  In3  1  0.00536268  0.51179736  0.62266379  1
  In  In4  1  -0.01604514  0.83351268  0.11895692  1
  In  In5  1  -0.01314105  0.83601808  0.63909996  1
  In  In6  1  0.32467071  0.15577342  0.12083998  1
  In  In7  1  0.33671106  0.17272800  0.62204706  1
  In  In8  1  0.33369438  0.49825382  0.11332480  1
  In  In9  1  0.36212751  0.47695862  0.65212273  1
  In  In10  1  0.35816432  0.83748176  0.12660591  1
  In  In11  1  0.33676616  0.81724922  0.62838434  1
  In  In12  1  0.65586645  0.17720581  0.12128206  1
  In  In13  1  0.66101779  0.18069029  0.64112731  1
  In  In14  1  0.67602618  0.51145228  0.11400082  1
  In  In15  1  0.65569149  0.48496060  0.62294083  1
  In  In16  1  0.65280748  0.81785980  0.11646318  1
  In  In17  1  0.66900484  0.84947270  0.62995983  1
  In  In18  1  0.17811344  -0.00255850  0.37583596  1
  In  In19  1  0.16353120  0.02022689  0.87406176  1
  In  In20  1  0.15291405  0.33161104  0.37942520  1
  In  In21  1  0.17718635  0.32275822  0.87888497  1
  In  In22  1  0.16477038  0.67978585  0.36859658  1
  In  In23  1  0.15443537  0.65491783  0.87367880  1
  In  In24  1  0.49367788  0.00434719  0.38494964  1
  In  In25  1  0.50850891  -0.00656225  0.87894713  1
  In  In26  1  0.49883775  0.33346804  0.38310601  1
  In  In27  1  0.49119854  0.33726039  0.86980234  1
  In  In28  1  0.50637636  0.66137854  0.38135345  1
  In  In29  1  0.49959127  0.66516165  0.87450946  1
  In  In30  1  0.83081600  -0.00226842  0.37579635  1
  In  In31  1  0.81658885  -0.01462310  0.85418792  1
  In  In32  1  0.85458893  0.34340637  0.37793958  1
  In  In33  1  0.83192006  0.34763719  0.87384960  1
  In  In34  1  0.82588437  0.65776888  0.36778633  1
  In  In35  1  0.83507307  0.65850895  0.87798676  1
  In  In36  1  0.00550233  0.18265433  0.37640303  1
  In  In37  1  0.01557530  0.16398581  0.87099450  1
  In  In38  1  -0.01073899  0.49300860  0.36995437  1
  In  In39  1  -0.01069286  0.50280518  0.88224837  1
  In  In40  1  0.01225144  0.82792473  0.37038239  1
  In  In41  1  -0.01610564  0.82320092  0.86491331  1
  In  In42  1  0.33565947  0.16364191  0.38439968  1
  In  In43  1  0.32081128  0.17995351  0.87759260  1
  In  In44  1  0.34303146  0.50837501  0.37671078  1
  In  In45  1  0.33392283  0.49557267  0.87204342  1
  In  In46  1  0.33150819  0.84203003  0.37742422  1
  In  In47  1  0.35073576  0.83452545  0.87704892  1
  In  In48  1  0.66122991  0.15739374  0.37951161  1
  In  In49  1  0.65899628  0.15572444  0.86377642  1
  In  In50  1  0.66140577  0.50619060  0.38109288  1
  In  In51  1  0.66400135  0.49846452  0.87293418  1
  In  In52  1  0.66946984  0.81905101  0.37657284  1
  In  In53  1  0.66126596  0.83577011  0.87819233  1
  In  In54  1  0.17510025  0.02050516  0.12112094  1
  In  In55  1  0.15242903  0.00511950  0.62805523  1
  In  In56  1  0.15600337  0.32265218  0.11864067  1
  In  In57  1  0.17860390  0.34010017  0.62349690  1
  In  In58  1  0.17009090  0.65187218  0.12108565  1
  In  In59  1  0.16983010  0.66557218  0.63367444  1
  In  In60  1  0.48977260  -0.01123638  0.11676209  1
  In  In61  1  0.50533351  0.01173999  0.62208687  1
  In  In62  1  0.49396407  0.33213310  0.11507610  1
  In  In63  1  0.50453804  0.32943288  0.62767294  1
  In  In64  1  0.51198214  0.67513620  0.11672537  1
  In  In65  1  0.49537628  0.65680986  0.62047910  1
  In  In66  1  0.84308661  -0.00650884  0.11778339  1
  In  In67  1  0.82452143  0.01715569  0.65580158  1
  In  In68  1  0.83571042  0.35111104  0.11984547  1
  In  In69  1  0.82039324  0.32862485  0.62760535  1
  In  In70  1  0.83047470  0.66417538  0.12244702  1
  In  In71  1  0.84852344  0.66809322  0.62851989  1
  In  In72  1  0.00136974  0.33340671  0.74978236  1
  In  In73  1  0.16842791  0.83458606  0.50097270  1
  In  In74  1  0.17257653  0.50186050  0.50045599  1
  In  In75  1  0.32717412  0.33079023  0.25176240  1
  In  In76  1  0.82458853  0.17303642  0.50888201  1
  In  In77  1  0.33449113  0.67018136  0.24820165  1
  In  In78  1  0.83539444  0.83347811  0.50584019  1
  In  In79  1  0.66239606  0.65894809  0.75391529  1
  In  In80  1  0.83538884  0.16397551  -0.01030455  1
  In  In81  1  0.33155098  -0.00124713  0.75297656  1
  In  In82  1  0.66950418  0.33963483  0.24687270  1
  In  In83  1  0.66346499  -0.00583130  0.25008092  1
  In  In84  1  0.16985747  0.83523758  -0.00307838  1
  In  In85  1  0.00124599  -0.00274039  0.24881377  1
  Cu  Cu86  1  0.50501276  0.83327632  0.75455507  1
  Cu  Cu87  1  0.16504805  0.50309760  0.75385330  1
  Cu  Cu88  1  0.16541089  0.82993638  0.75456942  1
  Cu  Cu89  1  0.33610967  0.33671174  -0.00395806  1
  Cu  Cu90  1  0.33845858  0.00549962  -0.00458674  1
  Cu  Cu91  1  0.67013897  0.00209446  -0.00667593  1
  Cu  Cu92  1  0.65672465  0.33349947  -0.00521519  1
  Cu  Cu93  1  0.33782510  0.66247652  -0.00207337  1
  Cu  Cu94  1  0.34081725  0.33361204  0.50642537  1
  Cu  Cu95  1  0.15831854  0.49714522  0.24604499  1
  Cu  Cu96  1  -0.00604695  0.66350424  -0.00189130  1
  Cu  Cu97  1  0.16387711  0.83458157  0.24458277  1
  Cu  Cu98  1  0.82754366  0.82241914  0.24407043  1
  Cu  Cu99  1  0.00212680  0.66662672  0.50116719  1
  Cu  Cu100  1  0.34291147  0.65737590  0.50738776  1
  Cu  Cu101  1  0.84269060  0.17355944  0.24916289  1
  Cu  Cu102  1  -0.00067241  -0.00245946  -0.00437755  1
  Cu  Cu103  1  0.83781443  0.50587681  0.24559456  1
  Cu  Cu104  1  0.49386378  0.16129919  0.25503637  1
  Cu  Cu105  1  0.65723173  0.00447706  0.50735216  1
  Cu  Cu106  1  -0.00778081  0.00611957  0.50712693  1
  Cu  Cu107  1  0.83261869  0.50306080  0.75339684  1
  Cu  Cu108  1  0.49528582  0.16778931  0.75078696  1
  Cu  Cu109  1  0.66703409  0.66529001  -0.00584559  1
  Cu  Cu110  1  0.33343887  0.00032402  0.50264954  1
  Cu  Cu111  1  0.50747251  0.50757883  0.24806132  1
  Cu  Cu112  1  0.66700378  0.66352571  0.50104462  1
  Cu  Cu113  1  0.66410614  0.33295107  0.50432314  1
  Cu  Cu114  1  0.00136598  0.33462115  -0.00319865  1
  Se  Se115  1  0.08300154  0.08164307  0.04713048  1
  Se  Se116  1  0.08299359  0.08779164  0.55241473  1
  Se  Se117  1  0.08309013  0.41702742  0.05334669  1
  Se  Se118  1  0.07881248  0.41319432  0.55683590  1
  Se  Se119  1  0.07832022  0.74407234  0.05643285  1
  Se  Se120  1  0.07672724  0.74922262  0.56296562  1
  Se  Se121  1  0.41998498  0.08764030  0.05269683  1
  Se  Se122  1  0.41652688  0.08643110  0.55390676  1
  Se  Se123  1  0.42190399  0.42166608  0.04580481  1
  Se  Se124  1  0.42062680  0.41808492  0.56105306  1
  Se  Se125  1  0.41817895  0.75001980  0.05009937  1
  Se  Se126  1  0.42190096  0.75187929  0.55283268  1
  Se  Se127  1  0.74447337  0.08134212  0.05923357  1
  Se  Se128  1  0.74236064  0.07739513  0.56944993  1
  Se  Se129  1  0.74435076  0.41360368  0.04764215  1
  Se  Se130  1  0.75062228  0.41501773  0.55430959  1
  Se  Se131  1  0.74939223  0.74749276  0.05141035  1
  Se  Se132  1  0.74353455  0.74335255  0.56437394  1
  Se  Se133  1  0.25644390  0.25445055  0.05538822  1
  Se  Se134  1  0.25045847  0.25206661  0.55249351  1
  Se  Se135  1  0.24866929  0.58006392  0.04568297  1
  Se  Se136  1  0.25987995  0.58210008  0.56745169  1
  Se  Se137  1  0.26018442  0.92301003  0.05861181  1
  Se  Se138  1  0.25555570  0.92120396  0.56595427  1
  Se  Se139  1  0.57527100  0.24747698  0.04648369  1
  Se  Se140  1  0.58712641  0.24485663  0.55807998  1
  Se  Se141  1  0.58128722  0.58249288  0.04764805  1
  Se  Se142  1  0.58485913  0.57874531  0.55462467  1
  Se  Se143  1  0.58884834  0.92066615  0.05215936  1
  Se  Se144  1  0.57853517  0.91428825  0.55717849  1
  Se  Se145  1  0.92044414  0.25156340  0.05759375  1
  Se  Se146  1  0.92302533  0.26196448  0.55921298  1
  Se  Se147  1  0.91284835  0.57984598  0.05419157  1
  Se  Se148  1  0.91631253  0.58492464  0.55211255  1
  Se  Se149  1  0.91254788  0.91241880  0.04199810  1
  Se  Se150  1  0.91200522  0.93079443  0.56838401  1
  Se  Se151  1  0.08513561  0.24771325  0.45336587  1
  Se  Se152  1  0.08391989  0.24766088  0.94673982  1
  Se  Se153  1  0.08379413  0.59266603  0.43785584  1
  Se  Se154  1  0.08060148  0.57871149  0.95044681  1
  Se  Se155  1  0.07093646  0.92574156  0.44474178  1
  Se  Se156  1  0.07996825  0.91856827  0.93361981  1
  Se  Se157  1  0.42031916  0.24799377  0.45038812  1
  Se  Se158  1  0.41655141  0.25043475  0.94301920  1
  Se  Se159  1  0.42545640  0.57647866  0.45126661  1
  Se  Se160  1  0.41752908  0.57934326  0.94156525  1
  Se  Se161  1  0.41450406  0.91345882  0.45111328  1
  Se  Se162  1  0.42302590  0.91659145  0.95058783  1
  Se  Se163  1  0.74368823  0.25934365  0.43636432  1
  Se  Se164  1  0.74028499  0.25456693  0.93557454  1
  Se  Se165  1  0.75323890  0.58429638  0.44676224  1
  Se  Se166  1  0.74806655  0.57719789  0.94354326  1
  Se  Se167  1  0.73989673  0.92550945  0.44729360  1
  Se  Se168  1  0.75318943  0.91904084  0.94092959  1
  Se  Se169  1  0.24681706  0.08082218  0.45033634  1
  Se  Se170  1  0.24909044  0.08769288  0.94829335  1
  Se  Se171  1  0.26319319  0.40931953  0.43907237  1
  Se  Se172  1  0.24863634  0.41780096  0.94446628  1
  Se  Se173  1  0.26039316  0.73696970  0.44618175  1
  Se  Se174  1  0.25696695  0.74277282  0.93711838  1
  Se  Se175  1  0.57739910  0.08890256  0.45288530  1
  Se  Se176  1  0.58466834  0.08682704  0.94469358  1
  Se  Se177  1  0.58357829  0.41701303  0.44784464  1
  Se  Se178  1  0.57680794  0.41779250  0.93990933  1
  Se  Se179  1  0.58475107  0.74982970  0.45023961  1
  Se  Se180  1  0.58010648  0.74904916  0.94411412  1
  Se  Se181  1  0.91390857  0.08347024  0.44294447  1
  Se  Se182  1  0.92063957  0.07256156  0.93028282  1
  Se  Se183  1  0.91919854  0.42716232  0.45250391  1
  Se  Se184  1  0.91044025  0.41678752  0.95170121  1
  Se  Se185  1  0.92256281  0.74726194  0.43932565  1
  Se  Se186  1  0.91319365  0.74919699  0.94521166  1
  Se  Se187  1  0.24280409  0.24333456  0.31483984  1
  Se  Se188  1  0.23925199  0.24215601  0.79956089  1
  Se  Se189  1  0.24228561  0.57456866  0.30669262  1
  Se  Se190  1  0.24971104  0.58538334  0.80681908  1
  Se  Se191  1  0.24686241  0.91111811  0.30252502  1
  Se  Se192  1  0.24343491  0.90960248  0.81653426  1
  Se  Se193  1  0.57916082  0.24553988  0.30757611  1
  Se  Se194  1  0.57866656  0.25149964  0.80403513  1
  Se  Se195  1  0.58743505  0.58683858  0.30581531  1
  Se  Se196  1  0.56522290  0.56700832  0.80211691  1
  Se  Se197  1  0.57876020  0.91215826  0.31720763  1
  Se  Se198  1  0.58817898  0.91961914  0.80321726  1
  Se  Se199  1  0.92169763  0.25624236  0.30377159  1
  Se  Se200  1  0.91322922  0.24820152  0.81406153  1
  Se  Se201  1  0.92145211  0.58767576  0.30109996  1
  Se  Se202  1  0.91901738  0.58316758  0.80495338  1
  Se  Se203  1  0.90557542  0.90369587  0.30635711  1
  Se  Se204  1  0.93217416  0.93038700  0.80105762  1
  Se  Se205  1  0.08629600  0.08441248  0.31216802  1
  Se  Se206  1  0.08735455  0.08504013  0.79469522  1
  Se  Se207  1  0.08242520  0.41566399  0.30561490  1
  Se  Se208  1  0.08608490  0.42172390  0.81543662  1
  Se  Se209  1  0.08051138  0.74789530  0.29319450  1
  Se  Se210  1  0.08099095  0.74510128  0.80507128  1
  Se  Se211  1  0.41314278  0.08140957  0.31135119  1
  Se  Se212  1  0.41991929  0.08701061  0.81466161  1
  Se  Se213  1  0.42767720  0.42378626  0.30489650  1
  Se  Se214  1  0.40008676  0.40593498  0.79892246  1
  Se  Se215  1  0.42080166  0.75311597  0.31371614  1
  Se  Se216  1  0.41941860  0.74936478  0.80324164  1
  Se  Se217  1  0.75889567  0.09272613  0.30469062  1
  Se  Se218  1  0.75441301  0.09187349  0.79531709  1
  Se  Se219  1  0.75928931  0.42518076  0.30931430  1
  Se  Se220  1  0.74635100  0.41846923  0.80085452  1
  Se  Se221  1  0.74446813  0.74406534  0.30060849  1
  Se  Se222  1  0.75137532  0.75023145  0.81125969  1
  Se  Se223  1  0.25038179  0.08649599  0.19997762  1
  Se  Se224  1  0.24697544  0.08826395  0.69048457  1
  Se  Se225  1  0.24517069  0.42327393  0.18765149  1
  Se  Se226  1  0.24650413  0.41552141  0.70322097  1
  Se  Se227  1  0.24635333  0.75798937  0.18290879  1
  Se  Se228  1  0.25148071  0.74927432  0.70235620  1
  Se  Se229  1  0.57667287  0.08889458  0.19126734  1
  Se  Se230  1  0.58099355  0.08259606  0.70039429  1
  Se  Se231  1  0.57831495  0.42353461  0.18429854  1
  Se  Se232  1  0.58684135  0.40798035  0.69904692  1
  Se  Se233  1  0.57535942  0.75413367  0.19581403  1
  Se  Se234  1  0.58007703  0.75340653  0.68977404  1
  Se  Se235  1  0.91517350  0.09045039  0.18651665  1
  Se  Se236  1  0.93557216  0.08321551  0.70537507  1
  Se  Se237  1  0.91905180  0.41726799  0.19535946  1
  Se  Se238  1  0.91228347  0.42558032  0.68910209  1
  Se  Se239  1  0.91715231  0.74589532  0.19174404  1
  Se  Se240  1  0.91673684  0.74404372  0.70576496  1
  Se  Se241  1  0.08877389  0.25007114  0.19991311  1
  Se  Se242  1  0.09039317  0.24914800  0.68684062  1
  Se  Se243  1  0.08110041  0.58563147  0.19318531  1
  Se  Se244  1  0.08133654  0.58474939  0.69958074  1
  Se  Se245  1  0.08775225  0.91359002  0.18042114  1
  Se  Se246  1  0.08667708  0.91234886  0.69746378  1
  Se  Se247  1  0.42196324  0.24556199  0.19202848  1
  Se  Se248  1  0.41430366  0.25041359  0.69579587  1
  Se  Se249  1  0.42053674  0.57869403  0.18672471  1
  Se  Se250  1  0.40389402  0.60301355  0.69644862  1
  Se  Se251  1  0.42217646  0.92304329  0.20056069  1
  Se  Se252  1  0.42359419  0.91189842  0.69163451  1
  Se  Se253  1  0.75955687  0.24637855  0.18709904  1
  Se  Se254  1  0.76578799  0.24031449  0.70388111  1
  Se  Se255  1  0.74721384  0.58319592  0.19407180  1
  Se  Se256  1  0.75276919  0.57663895  0.68751407  1
  Se  Se257  1  0.75422591  0.91016984  0.18549298  1
  Se  Se258  1  0.76031852  0.90378190  0.70397245  1
