# generated using pymatgen
data_In86Cu29Se144
_symmetry_space_group_name_H-M   'P 1'
_cell_length_a   17.57676397
_cell_length_b   17.57686790
_cell_length_c   23.43635932
_cell_angle_alpha   89.97684300
_cell_angle_beta   89.98477624
_cell_angle_gamma   90.00275275
_symmetry_Int_Tables_number   1
_chemical_formula_structural   In86Cu29Se144
_chemical_formula_sum   'In86 Cu29 Se144'
_cell_volume   7240.53247941
_cell_formula_units_Z   1
loop_
 _symmetry_equiv_pos_site_id
 _symmetry_equiv_pos_as_xyz
  1  'x, y, z'
loop_
 _atom_site_type_symbol
 _atom_site_label
 _atom_site_symmetry_multiplicity
 _atom_site_fract_x
 _atom_site_fract_y
 _atom_site_fract_z
 _atom_site_occupancy
  In  In0  1  0.01460530  0.16843644  0.12065099  1
  In  In1  1  -0.00983328  0.17896542  0.63297208  1
  In  In2  1  -0.01612730  0.49618946  0.11888059  1
  In  In3  1  -0.01698871  0.51218238  0.64678899  1
  In  In4  1  -0.00665280  0.83276831  0.12302181  1
  In  In5  1  -0.00343446  0.83233453  0.62383817  1
  In  In6  1  0.33218351  0.16487692  0.13022657  1
  In  In7  1  0.34513667  0.17642266  0.61650282  1
  In  In8  1  0.33479259  0.49795053  0.13500220  1
  In  In9  1  0.32765037  0.48742239  0.62392831  1
  In  In10  1  0.35744179  0.82186277  0.14934276  1
  In  In11  1  0.33619209  0.84252466  0.61076393  1
  In  In12  1  0.65199322  0.17881275  0.14290525  1
  In  In13  1  0.65350721  0.16464719  0.61154015  1
  In  In14  1  0.66044604  0.48694913  0.12836013  1
  In  In15  1  0.67363004  0.50040947  0.61083191  1
  In  In16  1  0.65621477  0.85567534  0.14057236  1
  In  In17  1  0.67541067  0.84248987  0.61486569  1
  In  In18  1  0.17243759  -0.00895094  0.38128640  1
  In  In19  1  0.17173980  0.00895519  0.87406632  1
  In  In20  1  0.16762033  0.33221765  0.36926784  1
  In  In21  1  0.16464982  0.32895088  0.86947419  1
  In  In22  1  0.18246649  0.67020942  0.37572820  1
  In  In23  1  0.16224614  0.67243146  0.87237235  1
  In  In24  1  0.50515939  -0.00083245  0.36486312  1
  In  In25  1  0.50694687  0.00078500  0.88283541  1
  In  In26  1  0.50115920  0.33298202  0.37844675  1
  In  In27  1  0.48904479  0.33082155  0.87656967  1
  In  In28  1  0.49394011  0.67195333  0.37794952  1
  In  In29  1  0.51551241  0.67560929  0.88318463  1
  In  In30  1  0.81640282  0.01789428  0.38767550  1
  In  In31  1  0.82706895  -0.00683553  0.86143673  1
  In  In32  1  0.83213425  0.32774518  0.37779021  1
  In  In33  1  0.84134262  0.33358784  0.87084841  1
  In  In34  1  0.83605050  0.65921549  0.38625997  1
  In  In35  1  0.83327014  0.64857111  0.87201627  1
  In  In36  1  -0.01326106  0.16823256  0.37894370  1
  In  In37  1  0.01093633  0.17673710  0.86322528  1
  In  In38  1  -0.00082622  0.48544203  0.37798856  1
  In  In39  1  -0.01312986  0.48150285  0.85713530  1
  In  In40  1  -0.00071373  0.83506784  0.38887663  1
  In  In41  1  -0.00577654  0.82478089  0.85827354  1
  In  In42  1  0.37057913  0.18281044  0.34527201  1
  In  In43  1  0.32822316  0.16937932  0.88799441  1
  In  In44  1  0.34063053  0.51399211  0.36897582  1
  In  In45  1  0.34485499  0.49284635  0.87207052  1
  In  In46  1  0.33994121  0.83287842  0.36929284  1
  In  In47  1  0.33768002  0.84127197  0.88093566  1
  In  In48  1  0.66056152  0.17092990  0.37124194  1
  In  In49  1  0.66966270  0.15555049  0.87505314  1
  In  In50  1  0.67434009  0.48017990  0.39028979  1
  In  In51  1  0.68001565  0.50956229  0.87830561  1
  In  In52  1  0.65291996  0.84755699  0.38354226  1
  In  In53  1  0.65344700  0.83264651  0.87502018  1
  In  In54  1  0.16705020  0.01422752  0.11608016  1
  In  In55  1  0.16973837  -0.01088325  0.62283113  1
  In  In56  1  0.17893334  0.32336791  0.13393815  1
  In  In57  1  0.15957031  0.34971119  0.64129071  1
  In  In58  1  0.18027596  0.67495571  0.12278868  1
  In  In59  1  0.15118267  0.66607480  0.62696089  1
  In  In60  1  0.49892060  0.00742385  0.13230576  1
  In  In61  1  0.50758047  0.00844869  0.61389566  1
  In  In62  1  0.50238784  0.32122933  0.14029528  1
  In  In63  1  0.49635099  0.32611252  0.61140707  1
  In  In64  1  0.48942560  0.66928176  0.12644959  1
  In  In65  1  0.50650900  0.67402153  0.61529340  1
  In  In66  1  0.82569257  -0.00562877  0.12869971  1
  In  In67  1  0.82990147  0.00206870  0.62426100  1
  In  In68  1  0.82539632  0.34019093  0.13017670  1
  In  In69  1  0.83758391  0.34028397  0.61161891  1
  In  In70  1  0.84022169  0.66433249  0.12399602  1
  In  In71  1  0.83385160  0.66653409  0.62001531  1
  In  In72  1  0.17285329  0.84150287  -0.00059682  1
  In  In73  1  0.33095857  0.66307467  0.75241881  1
  In  In74  1  0.66762076  0.33186423  0.74096169  1
  In  In75  1  0.50236478  0.50571282  0.00299418  1
  In  In76  1  0.33060674  0.00593761  0.75363636  1
  In  In77  1  0.16376582  0.50451766  0.50545446  1
  In  In78  1  0.82150208  0.83022340  0.00258707  1
  In  In79  1  0.17563851  0.15838133  0.49887845  1
  In  In80  1  0.83173249  0.16788109  -0.00368229  1
  In  In81  1  -0.00291346  0.00147277  0.24789068  1
  In  In82  1  0.00870501  0.66226022  0.24151300  1
  In  In83  1  0.16809402  0.49859750  0.00320364  1
  In  In84  1  0.67064283  0.66958169  0.74614813  1
  In  In85  1  0.66123286  0.66379066  0.25423873  1
  Cu  Cu86  1  0.66586296  0.66081237  0.49592914  1
  Cu  Cu87  1  0.16296931  0.16625261  0.25045970  1
  Cu  Cu88  1  0.83426578  0.83330955  0.73982956  1
  Cu  Cu89  1  -0.00329698  0.65845555  -0.00438118  1
  Cu  Cu90  1  0.33268192  0.33343125  0.49546787  1
  Cu  Cu91  1  0.66331353  0.33729127  0.00994529  1
  Cu  Cu92  1  0.83484655  0.49136050  0.25446101  1
  Cu  Cu93  1  0.16584650  0.49447831  0.25136532  1
  Cu  Cu94  1  0.82959976  0.16061096  0.74615117  1
  Cu  Cu95  1  0.16896661  0.83315121  0.25184737  1
  Cu  Cu96  1  0.66384212  -0.00385068  0.49520772  1
  Cu  Cu97  1  0.65673509  0.00654845  0.00687859  1
  Cu  Cu98  1  0.50342772  0.49413405  0.25529642  1
  Cu  Cu99  1  0.33682882  0.32600534  0.00692820  1
  Cu  Cu100  1  -0.00692073  0.33195412  0.50367601  1
  Cu  Cu101  1  0.17041755  0.16752975  0.75219519  1
  Cu  Cu102  1  0.82820020  0.83775768  0.26606809  1
  Cu  Cu103  1  0.83305841  0.17326480  0.25659453  1
  Cu  Cu104  1  0.49837685  0.49764388  0.74689863  1
  Cu  Cu105  1  -0.00331542  -0.00227229  0.50620855  1
  Cu  Cu106  1  0.00145023  0.33378473  -0.00949355  1
  Cu  Cu107  1  0.49882230  0.16846201  0.74209245  1
  Cu  Cu108  1  0.34335131  0.00565086  0.48714332  1
  Cu  Cu109  1  0.00093000  0.00604408  -0.01101065  1
  Cu  Cu110  1  0.34371357  -0.00195754  0.00754458  1
  Cu  Cu111  1  0.49990925  0.84578277  0.75189905  1
  Cu  Cu112  1  0.33803822  0.67449353  0.49434845  1
  Cu  Cu113  1  0.15852346  0.82608867  0.74310286  1
  Cu  Cu114  1  0.00071960  0.66656919  0.50756422  1
  Se  Se115  1  0.08326806  0.08767456  0.04314625  1
  Se  Se116  1  0.07790437  0.08250397  0.56344762  1
  Se  Se117  1  0.07926414  0.40487454  0.06011383  1
  Se  Se118  1  0.07259100  0.41406434  0.56217274  1
  Se  Se119  1  0.07552114  0.74239595  0.05450311  1
  Se  Se120  1  0.08595519  0.75418553  0.55378037  1
  Se  Se121  1  0.41972345  0.08870343  0.05972911  1
  Se  Se122  1  0.41878588  0.08838106  0.54766884  1
  Se  Se123  1  0.41692836  0.41028760  0.06335704  1
  Se  Se124  1  0.41261090  0.41961915  0.54998319  1
  Se  Se125  1  0.40965600  0.75481582  0.05976146  1
  Se  Se126  1  0.42256579  0.75738655  0.54823616  1
  Se  Se127  1  0.74376104  0.08513459  0.06299113  1
  Se  Se128  1  0.74501288  0.07817238  0.55214409  1
  Se  Se129  1  0.75186665  0.42199288  0.05497348  1
  Se  Se130  1  0.73593806  0.40038194  0.54650040  1
  Se  Se131  1  0.73876312  0.75359602  0.07516149  1
  Se  Se132  1  0.74775781  0.74487953  0.55181689  1
  Se  Se133  1  0.24810823  0.24432184  0.05663488  1
  Se  Se134  1  0.24560721  0.26502483  0.55987748  1
  Se  Se135  1  0.26560749  0.58761194  0.05667594  1
  Se  Se136  1  0.25930184  0.59697215  0.56023003  1
  Se  Se137  1  0.26277520  0.91679366  0.06765773  1
  Se  Se138  1  0.25521557  0.92921679  0.54415895  1
  Se  Se139  1  0.58229808  0.25206676  0.06156203  1
  Se  Se140  1  0.58325076  0.25438715  0.54189828  1
  Se  Se141  1  0.59251986  0.59216090  0.06478659  1
  Se  Se142  1  0.57962906  0.58087355  0.54960020  1
  Se  Se143  1  0.57773261  0.92013799  0.06051298  1
  Se  Se144  1  0.57899798  0.91239003  0.54861257  1
  Se  Se145  1  0.92159816  0.25721157  0.05687980  1
  Se  Se146  1  0.91277662  0.24016702  0.55070390  1
  Se  Se147  1  0.90810549  0.58086815  0.04790558  1
  Se  Se148  1  0.92126806  0.57687449  0.55823678  1
  Se  Se149  1  0.92160350  0.92879341  0.05224511  1
  Se  Se150  1  0.91078659  0.91373048  0.55638119  1
  Se  Se151  1  0.08059545  0.25572724  0.44523489  1
  Se  Se152  1  0.08643914  0.24765437  0.94268165  1
  Se  Se153  1  0.07738770  0.59242442  0.43823463  1
  Se  Se154  1  0.07845475  0.58041215  0.93713193  1
  Se  Se155  1  0.08519391  0.91974163  0.45324586  1
  Se  Se156  1  0.07406404  0.91543124  0.93308614  1
  Se  Se157  1  0.40972153  0.24566717  0.44107202  1
  Se  Se158  1  0.42294687  0.24628964  0.95233532  1
  Se  Se159  1  0.41794454  0.58199629  0.44800484  1
  Se  Se160  1  0.41168840  0.59222134  0.94018135  1
  Se  Se161  1  0.42343823  0.91650526  0.43721753  1
  Se  Se162  1  0.42298687  0.91620540  0.94983526  1
  Se  Se163  1  0.75902681  0.23182657  0.44052959  1
  Se  Se164  1  0.73965299  0.26256019  0.94065831  1
  Se  Se165  1  0.75484907  0.57394493  0.45259591  1
  Se  Se166  1  0.73657303  0.60621616  0.94777524  1
  Se  Se167  1  0.75484114  0.91065311  0.44891063  1
  Se  Se168  1  0.74034869  0.93049369  0.94432577  1
  Se  Se169  1  0.26766631  0.09111938  0.42756647  1
  Se  Se170  1  0.25351905  0.07320718  0.95188838  1
  Se  Se171  1  0.25142386  0.41822145  0.43959877  1
  Se  Se172  1  0.26080843  0.40773038  0.94420766  1
  Se  Se173  1  0.25237125  0.75921562  0.44517366  1
  Se  Se174  1  0.25735129  0.74178628  0.94306918  1
  Se  Se175  1  0.58245514  0.07879772  0.43923078  1
  Se  Se176  1  0.58101993  0.09370795  0.95050857  1
  Se  Se177  1  0.57621723  0.41158130  0.45411250  1
  Se  Se178  1  0.58984587  0.41353948  0.93979814  1
  Se  Se179  1  0.58273861  0.74798022  0.44656594  1
  Se  Se180  1  0.58646043  0.75918955  0.95455522  1
  Se  Se181  1  0.91716905  0.08380575  0.45261537  1
  Se  Se182  1  0.91627810  0.08059232  0.92973103  1
  Se  Se183  1  0.91176289  0.41594262  0.44876149  1
  Se  Se184  1  0.91566322  0.41903315  0.94273650  1
  Se  Se185  1  0.91582563  0.74754396  0.45240959  1
  Se  Se186  1  0.91991644  0.74839189  0.94049887  1
  Se  Se187  1  0.24901488  0.24751021  0.30238288  1
  Se  Se188  1  0.25708178  0.24401836  0.80867959  1
  Se  Se189  1  0.24650967  0.58427601  0.30028484  1
  Se  Se190  1  0.24330356  0.57185097  0.81145254  1
  Se  Se191  1  0.24877832  0.91742015  0.30514430  1
  Se  Se192  1  0.24050930  0.90339076  0.80582061  1
  Se  Se193  1  0.56561626  0.24184542  0.30499596  1
  Se  Se194  1  0.57960193  0.24532799  0.80730165  1
  Se  Se195  1  0.58317996  0.57020109  0.31918755  1
  Se  Se196  1  0.57710335  0.57815717  0.80754045  1
  Se  Se197  1  0.58946540  0.91252351  0.29905217  1
  Se  Se198  1  0.58482353  0.92547469  0.80574771  1
  Se  Se199  1  0.92214339  0.25497260  0.30453281  1
  Se  Se200  1  0.91133991  0.24583313  0.79982027  1
  Se  Se201  1  0.91640844  0.57897030  0.30706785  1
  Se  Se202  1  0.92170978  0.58810152  0.79882233  1
  Se  Se203  1  0.91337065  0.92022407  0.31906274  1
  Se  Se204  1  0.91759104  0.91757689  0.79463403  1
  Se  Se205  1  0.08596637  0.08584208  0.31363637  1
  Se  Se206  1  0.08712810  0.07901224  0.80082463  1
  Se  Se207  1  0.08009835  0.41383516  0.30304505  1
  Se  Se208  1  0.08722370  0.41019367  0.79939849  1
  Se  Se209  1  0.08298384  0.75646555  0.30988394  1
  Se  Se210  1  0.07972745  0.73786808  0.79483259  1
  Se  Se211  1  0.40366903  0.05705961  0.29345324  1
  Se  Se212  1  0.42389391  0.09315739  0.81124360  1
  Se  Se213  1  0.41493759  0.41580028  0.30848158  1
  Se  Se214  1  0.41913757  0.41065838  0.79921236  1
  Se  Se215  1  0.40859386  0.73590081  0.30291330  1
  Se  Se216  1  0.42539685  0.75777017  0.80934587  1
  Se  Se217  1  0.74967268  0.08543430  0.30406164  1
  Se  Se218  1  0.74197859  0.08021147  0.79765947  1
  Se  Se219  1  0.74905325  0.41310413  0.30868621  1
  Se  Se220  1  0.75365513  0.42287480  0.80446237  1
  Se  Se221  1  0.75200997  0.74823926  0.31895535  1
  Se  Se222  1  0.75831647  0.75946990  0.81003347  1
  Se  Se223  1  0.24171367  0.08119738  0.19565645  1
  Se  Se224  1  0.24826156  0.09361903  0.68522849  1
  Se  Se225  1  0.25465023  0.41189198  0.20195712  1
  Se  Se226  1  0.26204939  0.41397603  0.70356836  1
  Se  Se227  1  0.25148625  0.74484359  0.20268403  1
  Se  Se228  1  0.25229618  0.75811730  0.68558368  1
  Se  Se229  1  0.60265271  0.06490892  0.19938604  1
  Se  Se230  1  0.58231975  0.08524605  0.69029499  1
  Se  Se231  1  0.58764271  0.41020293  0.20375232  1
  Se  Se232  1  0.57743632  0.42377512  0.68284364  1
  Se  Se233  1  0.57118825  0.75689830  0.19919448  1
  Se  Se234  1  0.57805626  0.76346963  0.69127100  1
  Se  Se235  1  0.90882552  0.09638099  0.18825126  1
  Se  Se236  1  0.91744840  0.07926421  0.69491401  1
  Se  Se237  1  0.92024030  0.41442619  0.19702776  1
  Se  Se238  1  0.91046647  0.40273066  0.69451602  1
  Se  Se239  1  0.90522230  0.76139636  0.19983931  1
  Se  Se240  1  0.91636696  0.74448428  0.69199498  1
  Se  Se241  1  0.07999580  0.25055659  0.19787977  1
  Se  Se242  1  0.08397060  0.24988225  0.70034043  1
  Se  Se243  1  0.09537736  0.56984012  0.18025805  1
  Se  Se244  1  0.10773501  0.55829357  0.69189750  1
  Se  Se245  1  0.08935419  0.90952387  0.18781891  1
  Se  Se246  1  0.08134060  0.91690914  0.69265165  1
  Se  Se247  1  0.40954928  0.24584888  0.20329695  1
  Se  Se248  1  0.41845022  0.25601966  0.69174075  1
  Se  Se249  1  0.42417650  0.57880572  0.19940960  1
  Se  Se250  1  0.42470499  0.58398879  0.68695405  1
  Se  Se251  1  0.40577471  0.93856822  0.20432239  1
  Se  Se252  1  0.41876487  0.91963015  0.68898348  1
  Se  Se253  1  0.74984303  0.25687182  0.20175076  1
  Se  Se254  1  0.75341353  0.23931602  0.68192357  1
  Se  Se255  1  0.75794319  0.57624305  0.19469714  1
  Se  Se256  1  0.75515859  0.57256846  0.69051856  1
  Se  Se257  1  0.75315002  0.92246011  0.20816410  1
  Se  Se258  1  0.74562513  0.91765874  0.69396495  1
