# generated using pymatgen
data_In86Cu29Se144
_symmetry_space_group_name_H-M   'P 1'
_cell_length_a   17.58403981
_cell_length_b   17.57545643
_cell_length_c   23.44415123
_cell_angle_alpha   89.99015846
_cell_angle_beta   89.97468575
_cell_angle_gamma   89.99559880
_symmetry_Int_Tables_number   1
_chemical_formula_structural   In86Cu29Se144
_chemical_formula_sum   'In86 Cu29 Se144'
_cell_volume   7245.35609102
_cell_formula_units_Z   1
loop_
 _symmetry_equiv_pos_site_id
 _symmetry_equiv_pos_as_xyz
  1  'x, y, z'
loop_
 _atom_site_type_symbol
 _atom_site_label
 _atom_site_symmetry_multiplicity
 _atom_site_fract_x
 _atom_site_fract_y
 _atom_site_fract_z
 _atom_site_occupancy
  In  In0  1  -0.00137156  0.16826321  0.12683769  1
  In  In1  1  -0.00476449  0.17056250  0.62244932  1
  In  In2  1  0.00515940  0.49587903  0.12905786  1
  In  In3  1  -0.00964620  0.48887590  0.62504559  1
  In  In4  1  0.01016938  0.83057301  0.12600192  1
  In  In5  1  0.00741412  0.83672965  0.63059993  1
  In  In6  1  0.31632152  0.16484951  0.12550651  1
  In  In7  1  0.32156361  0.15719732  0.62256786  1
  In  In8  1  0.34697975  0.50021913  0.12243789  1
  In  In9  1  0.34699757  0.49885013  0.62752472  1
  In  In10  1  0.33305417  0.83436648  0.12684595  1
  In  In11  1  0.33615500  0.82725187  0.63430373  1
  In  In12  1  0.68137738  0.16511386  0.12715818  1
  In  In13  1  0.66941546  0.16334793  0.62104854  1
  In  In14  1  0.65359197  0.49586290  0.12432212  1
  In  In15  1  0.65398421  0.50035414  0.62550035  1
  In  In16  1  0.65693276  0.84489998  0.11875201  1
  In  In17  1  0.65531741  0.88000425  0.63117868  1
  In  In18  1  0.17188437  0.00833727  0.37234218  1
  In  In19  1  0.16729456  -0.00095312  0.88259401  1
  In  In20  1  0.15532645  0.32666517  0.37474156  1
  In  In21  1  0.14067007  0.33147035  0.87514517  1
  In  In22  1  0.16849798  0.66438792  0.36126517  1
  In  In23  1  0.18709784  0.67144296  0.87575882  1
  In  In24  1  0.48998111  0.00830210  0.38703372  1
  In  In25  1  0.49018056  -0.01294401  0.86191572  1
  In  In26  1  0.50940416  0.32645461  0.38256948  1
  In  In27  1  0.51089932  0.33602793  0.87204793  1
  In  In28  1  0.48842650  0.67620746  0.38268630  1
  In  In29  1  0.47448622  0.68490932  0.89234568  1
  In  In30  1  0.84679369  -0.00020331  0.37591688  1
  In  In31  1  0.84963048  0.01588484  0.85569321  1
  In  In32  1  0.82986264  0.32574353  0.37119609  1
  In  In33  1  0.83107679  0.32385062  0.87386356  1
  In  In34  1  0.83533081  0.66021940  0.37074460  1
  In  In35  1  0.83677729  0.67258283  0.87720854  1
  In  In36  1  0.00226733  0.16841107  0.37787343  1
  In  In37  1  0.00088536  0.16052888  0.88386306  1
  In  In38  1  -0.00264941  0.49440897  0.36406780  1
  In  In39  1  0.01172994  0.48247715  0.87273514  1
  In  In40  1  0.00706863  0.84031232  0.36492420  1
  In  In41  1  0.00571431  0.88264439  0.87997399  1
  In  In42  1  0.33794664  0.15903265  0.38231005  1
  In  In43  1  0.33179458  0.14822065  0.87076739  1
  In  In44  1  0.33137721  0.51074720  0.37437417  1
  In  In45  1  0.32451691  0.52601022  0.87405698  1
  In  In46  1  0.33616116  0.83793287  0.36630252  1
  In  In47  1  0.33016039  0.83580957  0.87836819  1
  In  In48  1  0.65404013  0.17126536  0.38663659  1
  In  In49  1  0.67649433  0.17604728  0.86537822  1
  In  In50  1  0.66881075  0.48870334  0.37705292  1
  In  In51  1  0.66065453  0.48621313  0.87061906  1
  In  In52  1  0.66009507  0.83112179  0.37967222  1
  In  In53  1  0.65910002  0.83066869  0.87080970  1
  In  In54  1  0.16391338  0.00668539  0.12521655  1
  In  In55  1  0.15297729  0.01234313  0.63845806  1
  In  In56  1  0.15501484  0.31355277  0.11693324  1
  In  In57  1  0.16405906  0.31813678  0.62412946  1
  In  In58  1  0.16804345  0.66941536  0.12611864  1
  In  In59  1  0.16906058  0.68099584  0.62973208  1
  In  In60  1  0.49792988  -0.01552990  0.12364843  1
  In  In61  1  0.49623652  -0.00062917  0.62153039  1
  In  In62  1  0.50013256  0.34320196  0.12783506  1
  In  In63  1  0.51003452  0.34064117  0.62454263  1
  In  In64  1  0.48784802  0.66303717  0.11811553  1
  In  In65  1  0.49046020  0.66649655  0.62268803  1
  In  In66  1  0.84143680  0.02023954  0.11720909  1
  In  In67  1  0.81652642  0.02163619  0.64097676  1
  In  In68  1  0.84737781  0.31674405  0.13635574  1
  In  In69  1  0.84823871  0.31059197  0.63484579  1
  In  In70  1  0.84239613  0.67645877  0.12425369  1
  In  In71  1  0.83367578  0.66621936  0.62096590  1
  In  In72  1  0.66959924  0.00132477  0.24918396  1
  In  In73  1  0.67017516  0.66392805  0.24899664  1
  In  In74  1  0.17111795  0.49086672  0.50305111  1
  In  In75  1  0.33162134  0.33544300  0.24440712  1
  In  In76  1  0.82831168  0.49058579  0.49242325  1
  In  In77  1  0.17340607  0.84030934  0.49779282  1
  In  In78  1  0.82830303  0.49411220  -0.00648389  1
  In  In79  1  0.50164505  0.16559177  -0.00732965  1
  In  In80  1  0.66003009  0.66500481  0.75062188  1
  In  In81  1  0.01219141  0.66131241  0.75887104  1
  In  In82  1  0.17054006  0.49749107  0.00107811  1
  In  In83  1  0.82762504  0.83978516  0.50676135  1
  In  In84  1  0.83356325  0.84298812  0.00064083  1
  In  In85  1  0.32938634  0.33229715  0.74498928  1
  Cu  Cu86  1  0.49741380  0.83540177  0.75041628  1
  Cu  Cu87  1  0.66578440  0.33487407  0.50435444  1
  Cu  Cu88  1  0.50654560  0.16268565  0.74554716  1
  Cu  Cu89  1  -0.00466560  0.01208047  0.50488242  1
  Cu  Cu90  1  0.66923571  0.33037288  -0.00291716  1
  Cu  Cu91  1  0.34213107  0.32838261  0.50518754  1
  Cu  Cu92  1  0.16777482  0.49979767  0.24519465  1
  Cu  Cu93  1  0.33039143  -0.00105372  0.50348080  1
  Cu  Cu94  1  0.00070156  0.66656001  0.48826745  1
  Cu  Cu95  1  0.65443625  0.66624135  -0.00104889  1
  Cu  Cu96  1  0.16119788  0.16310439  0.24868648  1
  Cu  Cu97  1  0.49915867  0.16270594  0.25963912  1
  Cu  Cu98  1  0.49300089  0.83235452  0.25082373  1
  Cu  Cu99  1  0.49477393  0.50505580  0.75001058  1
  Cu  Cu100  1  0.83592253  0.16858922  0.74981099  1
  Cu  Cu101  1  0.83956539  0.49872587  0.25100335  1
  Cu  Cu102  1  0.83661940  0.16917099  0.25213039  1
  Cu  Cu103  1  0.17014190  0.83883305  0.75726853  1
  Cu  Cu104  1  0.33280765  0.33673115  -0.00245146  1
  Cu  Cu105  1  0.83191102  0.48863841  0.75206907  1
  Cu  Cu106  1  0.33154622  -0.00311714  0.00055089  1
  Cu  Cu107  1  0.15935339  0.16355676  0.75297867  1
  Cu  Cu108  1  0.50214130  0.49997776  0.24922561  1
  Cu  Cu109  1  0.16600782  0.83479091  0.24442280  1
  Cu  Cu110  1  0.00539813  0.66958264  0.00081867  1
  Cu  Cu111  1  0.65453023  0.67265567  0.50549515  1
  Cu  Cu112  1  0.84302078  0.83890039  0.24500651  1
  Cu  Cu113  1  0.66540971  0.00250105  -0.00788011  1
  Cu  Cu114  1  0.33865840  0.66717525  0.50012348  1
  Se  Se115  1  0.09990842  0.10690702  0.05951067  1
  Se  Se116  1  0.08652427  0.08720139  0.55763612  1
  Se  Se117  1  0.07119974  0.40739213  0.05218587  1
  Se  Se118  1  0.07262353  0.40377361  0.55501539  1
  Se  Se119  1  0.08953942  0.75065829  0.05357054  1
  Se  Se120  1  0.07643301  0.74529128  0.55185742  1
  Se  Se121  1  0.41308753  0.08095819  0.05897421  1
  Se  Se122  1  0.41347279  0.08589080  0.55378869  1
  Se  Se123  1  0.42024398  0.41335245  0.05108829  1
  Se  Se124  1  0.42137206  0.41798252  0.55465181  1
  Se  Se125  1  0.43253176  0.77185580  0.05904352  1
  Se  Se126  1  0.41279309  0.75656059  0.55503711  1
  Se  Se127  1  0.74528154  0.08422810  0.04821822  1
  Se  Se128  1  0.75387812  0.08018347  0.55406655  1
  Se  Se129  1  0.74656623  0.40851176  0.06234017  1
  Se  Se130  1  0.74835254  0.41130907  0.56597091  1
  Se  Se131  1  0.74013849  0.74372489  0.05702299  1
  Se  Se132  1  0.73498112  0.75028221  0.56591249  1
  Se  Se133  1  0.25280282  0.25004750  0.04884053  1
  Se  Se134  1  0.25059451  0.24821137  0.55184597  1
  Se  Se135  1  0.26119452  0.58947354  0.05662536  1
  Se  Se136  1  0.25427755  0.59184817  0.56051505  1
  Se  Se137  1  0.24903072  0.91939595  0.05947003  1
  Se  Se138  1  0.25045138  0.92506634  0.56889384  1
  Se  Se139  1  0.58778895  0.25210049  0.06006764  1
  Se  Se140  1  0.58208658  0.24950744  0.55592555  1
  Se  Se141  1  0.57820751  0.58036137  0.05460279  1
  Se  Se142  1  0.57588823  0.58270361  0.55572578  1
  Se  Se143  1  0.58010788  0.92113494  0.04414801  1
  Se  Se144  1  0.57063774  0.91390259  0.54820526  1
  Se  Se145  1  0.90496776  0.23808368  0.05673250  1
  Se  Se146  1  0.91130182  0.24641756  0.55019582  1
  Se  Se147  1  0.92150235  0.58627362  0.05418145  1
  Se  Se148  1  0.92265195  0.58653282  0.54966391  1
  Se  Se149  1  0.93013635  0.92675019  0.05812203  1
  Se  Se150  1  0.92358850  0.92428245  0.56444332  1
  Se  Se151  1  0.09206985  0.24086356  0.44823869  1
  Se  Se152  1  0.08999132  0.24042242  0.95091392  1
  Se  Se153  1  0.08422817  0.58231664  0.43651593  1
  Se  Se154  1  0.07929322  0.58682094  0.93843895  1
  Se  Se155  1  0.07308639  0.92717595  0.44454874  1
  Se  Se156  1  0.10534382  0.90470617  0.95601157  1
  Se  Se157  1  0.42205123  0.24448028  0.44772095  1
  Se  Se158  1  0.40906756  0.25528682  0.93373333  1
  Se  Se159  1  0.41787343  0.57831312  0.44843906  1
  Se  Se160  1  0.42454710  0.56812089  0.94682454  1
  Se  Se161  1  0.40631249  0.91303010  0.44583589  1
  Se  Se162  1  0.41820129  0.92074371  0.94450478  1
  Se  Se163  1  0.74734090  0.25523647  0.44639165  1
  Se  Se164  1  0.75057155  0.24411410  0.94660791  1
  Se  Se165  1  0.73813973  0.59660825  0.44422602  1
  Se  Se166  1  0.73706608  0.59119716  0.93807599  1
  Se  Se167  1  0.74364262  0.92628660  0.44042102  1
  Se  Se168  1  0.74774939  0.92378011  0.93233402  1
  Se  Se169  1  0.24697711  0.08240465  0.44970035  1
  Se  Se170  1  0.25170792  0.08579996  0.95004363  1
  Se  Se171  1  0.26205370  0.40456073  0.43933150  1
  Se  Se172  1  0.25340680  0.41046798  0.93234672  1
  Se  Se173  1  0.25340651  0.74040408  0.43831194  1
  Se  Se174  1  0.27011085  0.73787956  0.94932352  1
  Se  Se175  1  0.58883916  0.07249605  0.45081498  1
  Se  Se176  1  0.58599153  0.07837047  0.92767873  1
  Se  Se177  1  0.58338227  0.41952983  0.45053752  1
  Se  Se178  1  0.58332266  0.41522103  0.94910091  1
  Se  Se179  1  0.57514993  0.75627866  0.44979944  1
  Se  Se180  1  0.58053340  0.75816354  0.94702329  1
  Se  Se181  1  0.91269376  0.09003126  0.44766736  1
  Se  Se182  1  0.91372627  0.06968437  0.94361113  1
  Se  Se183  1  0.92783869  0.40632931  0.43917889  1
  Se  Se184  1  0.92522188  0.40324373  0.94378345  1
  Se  Se185  1  0.91795894  0.75309286  0.43749497  1
  Se  Se186  1  0.92774564  0.75348061  0.94120437  1
  Se  Se187  1  0.24831060  0.24288333  0.30707701  1
  Se  Se188  1  0.24331987  0.24479109  0.81082702  1
  Se  Se189  1  0.25513068  0.58109140  0.29593206  1
  Se  Se190  1  0.23417982  0.57863866  0.79801068  1
  Se  Se191  1  0.24470153  0.91705327  0.30363417  1
  Se  Se192  1  0.25357940  0.92365647  0.80927979  1
  Se  Se193  1  0.58474482  0.24835436  0.30657958  1
  Se  Se194  1  0.58260328  0.25147300  0.79939138  1
  Se  Se195  1  0.57903335  0.58068941  0.31302050  1
  Se  Se196  1  0.57045508  0.58388886  0.81580105  1
  Se  Se197  1  0.57561649  0.91383405  0.30872916  1
  Se  Se198  1  0.58906801  0.91694006  0.79721305  1
  Se  Se199  1  0.92229814  0.25139891  0.30513240  1
  Se  Se200  1  0.92039323  0.24308422  0.80993733  1
  Se  Se201  1  0.92089283  0.58850893  0.29957335  1
  Se  Se202  1  0.90962275  0.57050411  0.81269158  1
  Se  Se203  1  0.92175599  0.92432438  0.29927992  1
  Se  Se204  1  0.90788453  0.90122066  0.80150312  1
  Se  Se205  1  0.07893698  0.08174547  0.30598345  1
  Se  Se206  1  0.08315238  0.07894780  0.81170496  1
  Se  Se207  1  0.08911657  0.41459866  0.30068479  1
  Se  Se208  1  0.08733870  0.41571717  0.79425473  1
  Se  Se209  1  0.08244654  0.74975870  0.29853799  1
  Se  Se210  1  0.08738434  0.76193320  0.82012412  1
  Se  Se211  1  0.41371660  0.07842111  0.30741225  1
  Se  Se212  1  0.41763244  0.08221900  0.79585725  1
  Se  Se213  1  0.42186087  0.41849522  0.31037706  1
  Se  Se214  1  0.41483972  0.42178369  0.80979302  1
  Se  Se215  1  0.41311061  0.74323959  0.30187384  1
  Se  Se216  1  0.41449864  0.75366339  0.80618237  1
  Se  Se217  1  0.75439232  0.09011413  0.31276394  1
  Se  Se218  1  0.74514680  0.08272986  0.79571473  1
  Se  Se219  1  0.75315277  0.41867220  0.30419239  1
  Se  Se220  1  0.74747029  0.40701695  0.80476930  1
  Se  Se221  1  0.75858711  0.76323739  0.30608738  1
  Se  Se222  1  0.75833637  0.75343580  0.80429414  1
  Se  Se223  1  0.25029212  0.08078011  0.20054651  1
  Se  Se224  1  0.25084124  0.08380422  0.70303920  1
  Se  Se225  1  0.24068524  0.41859605  0.17962638  1
  Se  Se226  1  0.24114724  0.42263133  0.68457036  1
  Se  Se227  1  0.25175179  0.74906532  0.19626039  1
  Se  Se228  1  0.24972458  0.75044056  0.70530981  1
  Se  Se229  1  0.57504468  0.08866299  0.18907677  1
  Se  Se230  1  0.58548184  0.07863145  0.68951838  1
  Se  Se231  1  0.58653581  0.41291919  0.20166296  1
  Se  Se232  1  0.58198601  0.42055751  0.70200742  1
  Se  Se233  1  0.58022486  0.75666942  0.19181553  1
  Se  Se234  1  0.57942513  0.75952533  0.68697659  1
  Se  Se235  1  0.91728888  0.08398694  0.19829981  1
  Se  Se236  1  0.92416925  0.08568772  0.69871381  1
  Se  Se237  1  0.92227328  0.41458191  0.19778450  1
  Se  Se238  1  0.91918469  0.40853486  0.70015214  1
  Se  Se239  1  0.92434281  0.74943830  0.19620291  1
  Se  Se240  1  0.91922927  0.74351735  0.69228189  1
  Se  Se241  1  0.07993382  0.25183846  0.19946662  1
  Se  Se242  1  0.07958877  0.24718484  0.69716311  1
  Se  Se243  1  0.08383926  0.58525970  0.19374256  1
  Se  Se244  1  0.08646193  0.57681222  0.68387934  1
  Se  Se245  1  0.08227542  0.92125061  0.19489093  1
  Se  Se246  1  0.08104743  0.91707322  0.70464912  1
  Se  Se247  1  0.42378495  0.23867703  0.19023158  1
  Se  Se248  1  0.42237950  0.24327584  0.68660386  1
  Se  Se249  1  0.41879117  0.58342791  0.19701719  1
  Se  Se250  1  0.41256802  0.59083994  0.69931180  1
  Se  Se251  1  0.41279089  0.92026841  0.19914068  1
  Se  Se252  1  0.41538970  0.92046575  0.69637603  1
  Se  Se253  1  0.74667660  0.25069978  0.20250381  1
  Se  Se254  1  0.74481791  0.24679322  0.69694857  1
  Se  Se255  1  0.76030849  0.57508021  0.18631671  1
  Se  Se256  1  0.75792815  0.57431860  0.69243122  1
  Se  Se257  1  0.75995696  0.91440501  0.18427787  1
  Se  Se258  1  0.77210183  0.89910682  0.69250213  1
