# generated using pymatgen
data_In86Cu29Se144
_symmetry_space_group_name_H-M   'P 1'
_cell_length_a   17.58705295
_cell_length_b   17.58891222
_cell_length_c   23.45050577
_cell_angle_alpha   90.00229642
_cell_angle_beta   89.99634989
_cell_angle_gamma   90.00117214
_symmetry_Int_Tables_number   1
_chemical_formula_structural   In86Cu29Se144
_chemical_formula_sum   'In86 Cu29 Se144'
_cell_volume   7254.11213955
_cell_formula_units_Z   1
loop_
 _symmetry_equiv_pos_site_id
 _symmetry_equiv_pos_as_xyz
  1  'x, y, z'
loop_
 _atom_site_type_symbol
 _atom_site_label
 _atom_site_symmetry_multiplicity
 _atom_site_fract_x
 _atom_site_fract_y
 _atom_site_fract_z
 _atom_site_occupancy
  In  In0  1  0.00121324  0.16853347  0.12151747  1
  In  In1  1  0.01159072  0.17010734  0.62545888  1
  In  In2  1  -0.01487338  0.50672771  0.13718435  1
  In  In3  1  -0.00014164  0.48499693  0.62334445  1
  In  In4  1  -0.01890707  0.83794121  0.15106295  1
  In  In5  1  0.00239206  0.82519139  0.61574410  1
  In  In6  1  0.33442287  0.16488773  0.12603389  1
  In  In7  1  0.34925855  0.16317488  0.62823773  1
  In  In8  1  0.33020686  0.49337496  0.12232493  1
  In  In9  1  0.32898984  0.49483190  0.62079190  1
  In  In10  1  0.35699564  0.84170995  0.12711491  1
  In  In11  1  0.33607710  0.84014751  0.61119123  1
  In  In12  1  0.66724232  0.16854528  0.12240100  1
  In  In13  1  0.65212216  0.17376194  0.63609249  1
  In  In14  1  0.65612589  0.48771077  0.11969667  1
  In  In15  1  0.65768562  0.49645262  0.62306165  1
  In  In16  1  0.65773218  0.85379843  0.13840852  1
  In  In17  1  0.65546385  0.85158904  0.62814105  1
  In  In18  1  0.15989565  -0.00958668  0.36541190  1
  In  In19  1  0.17533450  0.00513907  0.88000873  1
  In  In20  1  0.17787718  0.33828363  0.37193083  1
  In  In21  1  0.15608854  0.32535131  0.87044725  1
  In  In22  1  0.16315803  0.67058556  0.37649914  1
  In  In23  1  0.16293198  0.67773187  0.87181968  1
  In  In24  1  0.50380520  0.00516608  0.36921420  1
  In  In25  1  0.50274625  -0.00146808  0.88088169  1
  In  In26  1  0.50149907  0.33250538  0.37469777  1
  In  In27  1  0.50540853  0.32828782  0.87608021  1
  In  In28  1  0.49423386  0.67199046  0.38120291  1
  In  In29  1  0.49929471  0.66493700  0.88987793  1
  In  In30  1  0.82436098  -0.00889941  0.35649406  1
  In  In31  1  0.82040597  0.03809826  0.89374067  1
  In  In32  1  0.82885205  0.33914787  0.35839770  1
  In  In33  1  0.83167492  0.32970576  0.88075786  1
  In  In34  1  0.84701091  0.65937268  0.36217299  1
  In  In35  1  0.82098212  0.66791359  0.88336000  1
  In  In36  1  -0.00560805  0.16193391  0.36363118  1
  In  In37  1  -0.01993694  0.17965081  0.89967070  1
  In  In38  1  0.00635749  0.50499015  0.36424639  1
  In  In39  1  0.00801419  0.48445206  0.88290850  1
  In  In40  1  0.00721744  0.84255404  0.35864774  1
  In  In41  1  0.00791887  0.83949688  0.87529434  1
  In  In42  1  0.34955413  0.17880048  0.36685565  1
  In  In43  1  0.32993872  0.17219303  0.87996782  1
  In  In44  1  0.34081489  0.48896524  0.38231724  1
  In  In45  1  0.35606891  0.48913798  0.88427260  1
  In  In46  1  0.33207121  0.83523576  0.37197795  1
  In  In47  1  0.33424360  0.84523904  0.88075708  1
  In  In48  1  0.65137289  0.15697319  0.36610167  1
  In  In49  1  0.66497525  0.16952535  0.87731449  1
  In  In50  1  0.66737912  0.48728161  0.37112536  1
  In  In51  1  0.67862581  0.48867776  0.88907931  1
  In  In52  1  0.65397488  0.84391564  0.37322984  1
  In  In53  1  0.65059805  0.83600879  0.87831432  1
  In  In54  1  0.15682947  0.01860706  0.13014597  1
  In  In55  1  0.17672886  0.00183312  0.61554560  1
  In  In56  1  0.17585226  0.32252769  0.13172154  1
  In  In57  1  0.16312426  0.33945361  0.62904412  1
  In  In58  1  0.15737218  0.65864453  0.12738199  1
  In  In59  1  0.17343972  0.66895493  0.61233688  1
  In  In60  1  0.49940517  0.00461564  0.12803663  1
  In  In61  1  0.52083596  0.01678572  0.59609917  1
  In  In62  1  0.49936496  0.33071937  0.12376546  1
  In  In63  1  0.50041124  0.33373633  0.62774926  1
  In  In64  1  0.50052000  0.66957694  0.11412711  1
  In  In65  1  0.49429300  0.66219288  0.61412902  1
  In  In66  1  0.82741114  0.00422523  0.13023192  1
  In  In67  1  0.81934129  -0.00090951  0.62503110  1
  In  In68  1  0.83247187  0.33564072  0.12463897  1
  In  In69  1  0.83457598  0.32747976  0.63427846  1
  In  In70  1  0.84489183  0.66873119  0.12922985  1
  In  In71  1  0.83395668  0.66478772  0.62366426  1
  In  In72  1  0.67137944  0.66705085  0.24830638  1
  In  In73  1  -0.00981261  0.65250904  0.73714883  1
  In  In74  1  0.82514272  0.83299959  0.48522247  1
  In  In75  1  0.17236030  0.16536617  0.49586582  1
  In  In76  1  0.17185561  0.83522818  0.00588029  1
  In  In77  1  0.66481386  0.65786840  0.74928553  1
  In  In78  1  0.33336709  0.65812032  0.75720544  1
  In  In79  1  0.33903706  0.00400013  0.75310908  1
  In  In80  1  0.82962298  0.83260526  0.01551026  1
  In  In81  1  0.16711049  0.49691805  0.00969737  1
  In  In82  1  0.82567402  0.16872439  0.49684187  1
  In  In83  1  0.33055748  0.66567989  0.25444792  1
  In  In84  1  -0.00377051  0.00832394  0.75766343  1
  In  In85  1  0.83466622  0.50050450  0.49547385  1
  Cu  Cu86  1  0.33214901  0.66348448  0.49401393  1
  Cu  Cu87  1  0.16858183  0.16224207  0.25103133  1
  Cu  Cu88  1  -0.00060011  0.66981113  0.00862540  1
  Cu  Cu89  1  0.33951144  0.33218125  0.50088853  1
  Cu  Cu90  1  -0.00559697  0.33476861  0.00639790  1
  Cu  Cu91  1  0.50382836  0.17059876  0.24472986  1
  Cu  Cu92  1  0.01356136  0.66810759  0.49190521  1
  Cu  Cu93  1  0.83168999  0.17298152  0.24173881  1
  Cu  Cu94  1  0.16398466  0.49299622  0.24646223  1
  Cu  Cu95  1  0.66012309  0.33058651  0.49669042  1
  Cu  Cu96  1  0.66561417  0.00144836  0.00528632  1
  Cu  Cu97  1  0.33924940  0.00377253  0.00411346  1
  Cu  Cu98  1  0.16327011  0.17537769  0.75480895  1
  Cu  Cu99  1  0.49692097  0.49589828  0.25015912  1
  Cu  Cu100  1  0.17134504  0.83201935  0.24761229  1
  Cu  Cu101  1  0.49848946  0.83844895  0.75131407  1
  Cu  Cu102  1  0.33660241  0.33059092  0.00277436  1
  Cu  Cu103  1  0.50600066  0.49109152  0.75470953  1
  Cu  Cu104  1  -0.00504411  -0.00953973  0.48666169  1
  Cu  Cu105  1  0.82687965  0.84939769  0.75406937  1
  Cu  Cu106  1  0.17412096  0.49024621  0.75122181  1
  Cu  Cu107  1  0.33169360  -0.00546866  0.48903971  1
  Cu  Cu108  1  0.66542509  0.32710308  0.00022759  1
  Cu  Cu109  1  0.83153814  0.16971707  0.75810787  1
  Cu  Cu110  1  0.16166438  0.83281462  0.73639718  1
  Cu  Cu111  1  0.84033900  0.48896469  0.75979243  1
  Cu  Cu112  1  0.00643554  0.33600583  0.49720782  1
  Cu  Cu113  1  0.66729839  0.67124357  0.49656680  1
  Cu  Cu114  1  0.66592388  0.66011588  0.00616856  1
  Se  Se115  1  0.09009004  0.09348618  0.05154277  1
  Se  Se116  1  0.07138492  0.07297604  0.54963230  1
  Se  Se117  1  0.07591108  0.41152829  0.06921190  1
  Se  Se118  1  0.08893661  0.41765717  0.55107171  1
  Se  Se119  1  0.07261257  0.75561410  0.06760567  1
  Se  Se120  1  0.09126792  0.75570488  0.54619387  1
  Se  Se121  1  0.42178837  0.08793219  0.05584029  1
  Se  Se122  1  0.40546527  0.08079297  0.54722351  1
  Se  Se123  1  0.41744238  0.41711693  0.05400717  1
  Se  Se124  1  0.42105694  0.41751186  0.55603563  1
  Se  Se125  1  0.41403851  0.75404854  0.05121518  1
  Se  Se126  1  0.41506569  0.74859218  0.54771675  1
  Se  Se127  1  0.75283954  0.08304318  0.05487816  1
  Se  Se128  1  0.73597530  0.08407925  0.55860894  1
  Se  Se129  1  0.74783988  0.41356102  0.05177334  1
  Se  Se130  1  0.74884826  0.40516445  0.55712353  1
  Se  Se131  1  0.73565933  0.74426417  0.07137079  1
  Se  Se132  1  0.74427879  0.74883131  0.56059132  1
  Se  Se133  1  0.25167078  0.24793546  0.05473050  1
  Se  Se134  1  0.25625754  0.25285341  0.56158461  1
  Se  Se135  1  0.25809304  0.59703254  0.05824754  1
  Se  Se136  1  0.25171732  0.57839543  0.54918437  1
  Se  Se137  1  0.25694432  0.92674124  0.06641885  1
  Se  Se138  1  0.24478316  0.91532929  0.54338365  1
  Se  Se139  1  0.57974851  0.24684270  0.05342394  1
  Se  Se140  1  0.58276101  0.25035151  0.55657864  1
  Se  Se141  1  0.57681054  0.57509014  0.05114264  1
  Se  Se142  1  0.58913046  0.58428102  0.55154246  1
  Se  Se143  1  0.58190260  0.91806418  0.05733783  1
  Se  Se144  1  0.57374503  0.89891278  0.54554700  1
  Se  Se145  1  0.91087064  0.24809697  0.05474953  1
  Se  Se146  1  0.92521316  0.25641557  0.55572492  1
  Se  Se147  1  0.91579018  0.58223589  0.05596069  1
  Se  Se148  1  0.93103474  0.59196272  0.55446498  1
  Se  Se149  1  0.92798380  0.92053071  0.06551971  1
  Se  Se150  1  0.91462580  0.92065657  0.55495553  1
  Se  Se151  1  0.07716811  0.24947890  0.43628865  1
  Se  Se152  1  0.08444576  0.25732507  0.95253741  1
  Se  Se153  1  0.08729665  0.57531720  0.44121174  1
  Se  Se154  1  0.08045713  0.59363039  0.94543543  1
  Se  Se155  1  0.08365634  0.90884685  0.43984799  1
  Se  Se156  1  0.08003100  0.92609949  0.94734975  1
  Se  Se157  1  0.42140868  0.24964369  0.44721627  1
  Se  Se158  1  0.41936495  0.24954235  0.94693323  1
  Se  Se159  1  0.42030918  0.57941616  0.44716310  1
  Se  Se160  1  0.40608993  0.59011746  0.95242310  1
  Se  Se161  1  0.42004870  0.91738239  0.43689005  1
  Se  Se162  1  0.41995877  0.91676908  0.95166035  1
  Se  Se163  1  0.74284356  0.25911061  0.43342788  1
  Se  Se164  1  0.75240923  0.24410236  0.94970861  1
  Se  Se165  1  0.74646858  0.59327917  0.43600043  1
  Se  Se166  1  0.75527257  0.58079419  0.95599224  1
  Se  Se167  1  0.73818086  0.93701757  0.44130258  1
  Se  Se168  1  0.74635851  0.91838951  0.94376678  1
  Se  Se169  1  0.25463904  0.07926338  0.42908257  1
  Se  Se170  1  0.25377900  0.08515235  0.95092720  1
  Se  Se171  1  0.25051352  0.41261565  0.45074630  1
  Se  Se172  1  0.25028013  0.40894690  0.94236117  1
  Se  Se173  1  0.25224297  0.75037311  0.44131740  1
  Se  Se174  1  0.25706237  0.74264313  0.94261389  1
  Se  Se175  1  0.57592414  0.08969199  0.44404675  1
  Se  Se176  1  0.58539755  0.08358146  0.94766388  1
  Se  Se177  1  0.58186405  0.41989545  0.44535183  1
  Se  Se178  1  0.58076323  0.41399591  0.94969480  1
  Se  Se179  1  0.58359502  0.75501808  0.44462012  1
  Se  Se180  1  0.58723760  0.74884537  0.95306602  1
  Se  Se181  1  0.91175863  0.07483430  0.43505680  1
  Se  Se182  1  0.93044076  0.06793727  0.95958065  1
  Se  Se183  1  0.92145001  0.40846332  0.43603871  1
  Se  Se184  1  0.91382553  0.41732451  0.94970922  1
  Se  Se185  1  0.92662622  0.74500389  0.43458549  1
  Se  Se186  1  0.92304492  0.75005216  0.94394387  1
  Se  Se187  1  0.25075059  0.24876378  0.30287939  1
  Se  Se188  1  0.25310929  0.25321768  0.80595893  1
  Se  Se189  1  0.24444165  0.56984930  0.31172853  1
  Se  Se190  1  0.24197994  0.57040528  0.81803146  1
  Se  Se191  1  0.25416853  0.91636091  0.29939299  1
  Se  Se192  1  0.23782339  0.90723412  0.80367853  1
  Se  Se193  1  0.58415356  0.25609361  0.30087367  1
  Se  Se194  1  0.59926019  0.26183756  0.80652590  1
  Se  Se195  1  0.57418794  0.58079482  0.30909159  1
  Se  Se196  1  0.57988734  0.57540382  0.81734895  1
  Se  Se197  1  0.58829528  0.92631306  0.29772573  1
  Se  Se198  1  0.58166835  0.92057896  0.80454153  1
  Se  Se199  1  0.91640882  0.25113665  0.29840512  1
  Se  Se200  1  0.91896151  0.24632323  0.81284784  1
  Se  Se201  1  0.90458267  0.56005670  0.29595145  1
  Se  Se202  1  0.91275330  0.57980066  0.81721074  1
  Se  Se203  1  0.91850057  0.91838978  0.29325880  1
  Se  Se204  1  0.90650725  0.92057147  0.81879508  1
  Se  Se205  1  0.08006650  0.07845300  0.29916480  1
  Se  Se206  1  0.08733127  0.09495285  0.81744177  1
  Se  Se207  1  0.08468200  0.40861240  0.30303620  1
  Se  Se208  1  0.08007747  0.41615336  0.80207551  1
  Se  Se209  1  0.08854892  0.74560575  0.29963896  1
  Se  Se210  1  0.07819126  0.75347910  0.79425504  1
  Se  Se211  1  0.42000923  0.08725545  0.29829742  1
  Se  Se212  1  0.42629794  0.09376856  0.81239877  1
  Se  Se213  1  0.41429778  0.41365302  0.30514610  1
  Se  Se214  1  0.41838257  0.40984204  0.80510215  1
  Se  Se215  1  0.42788994  0.75748466  0.30359541  1
  Se  Se216  1  0.42183509  0.75757593  0.81263253  1
  Se  Se217  1  0.74940822  0.09091514  0.29833594  1
  Se  Se218  1  0.74716191  0.08289727  0.80613465  1
  Se  Se219  1  0.74889313  0.42660521  0.29372614  1
  Se  Se220  1  0.74940973  0.41287873  0.81029598  1
  Se  Se221  1  0.75461861  0.75805574  0.31319264  1
  Se  Se222  1  0.75121627  0.75695854  0.80765612  1
  Se  Se223  1  0.25537227  0.08127634  0.19847723  1
  Se  Se224  1  0.23886948  0.09042071  0.69391545  1
  Se  Se225  1  0.25500503  0.41514663  0.19692550  1
  Se  Se226  1  0.25845917  0.41183886  0.69605818  1
  Se  Se227  1  0.24882984  0.75282925  0.18533462  1
  Se  Se228  1  0.25197844  0.75172928  0.68862208  1
  Se  Se229  1  0.58878099  0.08547884  0.19447328  1
  Se  Se230  1  0.57396131  0.07070801  0.68894781  1
  Se  Se231  1  0.57960458  0.41359457  0.19642437  1
  Se  Se232  1  0.58984890  0.41358352  0.69756686  1
  Se  Se233  1  0.57223784  0.75227668  0.19298372  1
  Se  Se234  1  0.57266962  0.75025560  0.69147823  1
  Se  Se235  1  0.91736216  0.08801392  0.19257368  1
  Se  Se236  1  0.90799398  0.09325774  0.68909981  1
  Se  Se237  1  0.92364668  0.40198849  0.19710016  1
  Se  Se238  1  0.92115945  0.41208414  0.69909138  1
  Se  Se239  1  0.91710417  0.73356364  0.21072114  1
  Se  Se240  1  0.90398285  0.76633550  0.69265947  1
  Se  Se241  1  0.08490858  0.24445933  0.19643554  1
  Se  Se242  1  0.07993080  0.25524956  0.69815886  1
  Se  Se243  1  0.08076174  0.58340073  0.20150945  1
  Se  Se244  1  0.09826403  0.57285518  0.68668274  1
  Se  Se245  1  0.08906549  0.91804105  0.19637140  1
  Se  Se246  1  0.08124546  0.92101829  0.68515977  1
  Se  Se247  1  0.41482321  0.25168868  0.19449515  1
  Se  Se248  1  0.42246861  0.24718035  0.69670773  1
  Se  Se249  1  0.42115386  0.58004416  0.19005197  1
  Se  Se250  1  0.42733157  0.57548728  0.69477336  1
  Se  Se251  1  0.42512038  0.92120495  0.20223950  1
  Se  Se252  1  0.41835002  0.91218660  0.68815773  1
  Se  Se253  1  0.74371352  0.25560243  0.19254302  1
  Se  Se254  1  0.74869038  0.24798858  0.70002933  1
  Se  Se255  1  0.74973640  0.57443875  0.18450401  1
  Se  Se256  1  0.76398548  0.56777828  0.69386033  1
  Se  Se257  1  0.76957082  0.90212989  0.19750208  1
  Se  Se258  1  0.73989060  0.92643467  0.70023588  1
