# generated using pymatgen
data_In86Cu29Se144
_symmetry_space_group_name_H-M   'P 1'
_cell_length_a   17.57682993
_cell_length_b   17.57996684
_cell_length_c   23.43830245
_cell_angle_alpha   90.00535990
_cell_angle_beta   90.01354953
_cell_angle_gamma   89.98284780
_symmetry_Int_Tables_number   1
_chemical_formula_structural   In86Cu29Se144
_chemical_formula_sum   'In86 Cu29 Se144'
_cell_volume   7242.43694602
_cell_formula_units_Z   1
loop_
 _symmetry_equiv_pos_site_id
 _symmetry_equiv_pos_as_xyz
  1  'x, y, z'
loop_
 _atom_site_type_symbol
 _atom_site_label
 _atom_site_symmetry_multiplicity
 _atom_site_fract_x
 _atom_site_fract_y
 _atom_site_fract_z
 _atom_site_occupancy
  In  In0  1  -0.01100712  0.15692390  0.12041670  1
  In  In1  1  0.00071758  0.17300267  0.61689498  1
  In  In2  1  0.00618698  0.51293173  0.12378060  1
  In  In3  1  0.00568778  0.50009743  0.61860695  1
  In  In4  1  -0.00965643  0.84308998  0.15213084  1
  In  In5  1  -0.00990498  0.83460820  0.62312685  1
  In  In6  1  0.34788805  0.17346608  0.11540296  1
  In  In7  1  0.33642036  0.16834106  0.62229899  1
  In  In8  1  0.33922662  0.49470377  0.12995452  1
  In  In9  1  0.33594976  0.51316431  0.62630509  1
  In  In10  1  0.32912418  0.82304138  0.12571934  1
  In  In11  1  0.34153506  0.81829926  0.62603956  1
  In  In12  1  0.66436297  0.16616860  0.12636962  1
  In  In13  1  0.66637188  0.16628342  0.62562765  1
  In  In14  1  0.65657195  0.51072831  0.12883443  1
  In  In15  1  0.67088243  0.49909952  0.63776337  1
  In  In16  1  0.65770092  0.84463908  0.13407487  1
  In  In17  1  0.65861415  0.84223421  0.62984568  1
  In  In18  1  0.16781661  0.01253780  0.37067698  1
  In  In19  1  0.17679993  0.00630822  0.87803786  1
  In  In20  1  0.17801826  0.32666287  0.38004082  1
  In  In21  1  0.16414711  0.32017768  0.87446753  1
  In  In22  1  0.15778021  0.65737696  0.37098574  1
  In  In23  1  0.16124388  0.65871616  0.86629690  1
  In  In24  1  0.50923948  -0.00840816  0.37832009  1
  In  In25  1  0.50310214  -0.00959243  0.88465813  1
  In  In26  1  0.48969712  0.32438744  0.36716442  1
  In  In27  1  0.51376547  0.32228892  0.88342882  1
  In  In28  1  0.50933689  0.67360487  0.36987671  1
  In  In29  1  0.49716177  0.66598408  0.87881308  1
  In  In30  1  0.84163063  0.00410351  0.36466360  1
  In  In31  1  0.82688245  0.01595475  0.87825510  1
  In  In32  1  0.81538484  0.33530541  0.37442400  1
  In  In33  1  0.80356072  0.32528792  0.86652836  1
  In  In34  1  0.83744939  0.67467279  0.36355281  1
  In  In35  1  0.82659017  0.65201041  0.85911208  1
  In  In36  1  0.00587470  0.16162101  0.37607219  1
  In  In37  1  0.00131708  0.15897058  0.88064179  1
  In  In38  1  0.01100513  0.51783909  0.37972286  1
  In  In39  1  -0.01092267  0.50356017  0.87222286  1
  In  In40  1  -0.00147251  0.82968738  0.36055548  1
  In  In41  1  0.00398642  0.82076858  0.87517744  1
  In  In42  1  0.32919178  0.16890407  0.37858363  1
  In  In43  1  0.33856404  0.15681104  0.88741832  1
  In  In44  1  0.32895043  0.49084295  0.37195979  1
  In  In45  1  0.33202223  0.51517370  0.87467356  1
  In  In46  1  0.34994295  0.83740430  0.37361215  1
  In  In47  1  0.34601059  0.83213037  0.87953773  1
  In  In48  1  0.66397816  0.16416045  0.37392728  1
  In  In49  1  0.66351170  0.16562774  0.87423806  1
  In  In50  1  0.66751530  0.50037373  0.36636047  1
  In  In51  1  0.65945282  0.48907732  0.86822874  1
  In  In52  1  0.66316326  0.82646282  0.36635080  1
  In  In53  1  0.65815197  0.82285462  0.87308616  1
  In  In54  1  0.15621451  -0.00306195  0.12737859  1
  In  In55  1  0.16510422  0.00992655  0.62034872  1
  In  In56  1  0.18196490  0.33627959  0.12648926  1
  In  In57  1  0.16167244  0.32864933  0.61671960  1
  In  In58  1  0.16112826  0.68519827  0.14156169  1
  In  In59  1  0.17154635  0.66387408  0.62180038  1
  In  In60  1  0.50817124  0.01312308  0.11486166  1
  In  In61  1  0.51418359  0.01264572  0.61705394  1
  In  In62  1  0.49966747  0.33442608  0.12433008  1
  In  In63  1  0.51257347  0.32861308  0.63050213  1
  In  In64  1  0.49657381  0.66838477  0.12308579  1
  In  In65  1  0.49907640  0.66783804  0.62909733  1
  In  In66  1  0.82208244  0.00487997  0.13821989  1
  In  In67  1  0.81575622  -0.00031561  0.62495401  1
  In  In68  1  0.82842362  0.31760181  0.12439790  1
  In  In69  1  0.83530556  0.32445888  0.62187632  1
  In  In70  1  0.82544549  0.68158693  0.14178415  1
  In  In71  1  0.83344972  0.66353989  0.63342043  1
  In  In72  1  0.34112665  -0.00348294  0.75645444  1
  In  In73  1  0.17265109  0.49834092  0.00576481  1
  In  In74  1  0.82960723  0.49385710  -0.00784137  1
  In  In75  1  0.16796157  0.83585704  0.00768936  1
  In  In76  1  0.33343075  0.00089681  0.24659251  1
  In  In77  1  0.49969443  0.49673495  0.50487764  1
  In  In78  1  -0.00596319  -0.00415166  0.75638344  1
  In  In79  1  0.83573956  0.49934404  0.50195753  1
  In  In80  1  -0.00411657  0.33705805  0.74104963  1
  In  In81  1  0.34005908  0.33005700  0.75205825  1
  In  In82  1  -0.00182819  0.33726287  0.24860271  1
  In  In83  1  0.17063822  0.83791499  0.49464514  1
  In  In84  1  0.83253108  0.83478148  0.01019666  1
  In  In85  1  0.83109256  0.83349865  0.48937643  1
  Cu  Cu86  1  0.33761217  0.00171206  0.49575094  1
  Cu  Cu87  1  -0.00281220  0.01074822  0.49395904  1
  Cu  Cu88  1  0.00132915  0.33159703  0.49631209  1
  Cu  Cu89  1  0.49995010  0.83216435  0.24812358  1
  Cu  Cu90  1  0.16709506  0.50115972  0.74512163  1
  Cu  Cu91  1  0.33821785  0.66589412  0.50182729  1
  Cu  Cu92  1  0.65939112  0.32414238  0.49798727  1
  Cu  Cu93  1  0.33881203  0.33284001  0.00215683  1
  Cu  Cu94  1  0.67001841  0.00343625  0.00414025  1
  Cu  Cu95  1  0.16807531  0.17208900  0.25182001  1
  Cu  Cu96  1  0.33183802  0.32998176  0.49685390  1
  Cu  Cu97  1  0.17343474  0.50124688  0.25104449  1
  Cu  Cu98  1  0.65192608  0.66697289  0.00014613  1
  Cu  Cu99  1  0.16472671  0.82509022  0.74632634  1
  Cu  Cu100  1  0.66722252  0.67283308  0.49661636  1
  Cu  Cu101  1  -0.00177828  0.32227777  -0.00172083  1
  Cu  Cu102  1  -0.00680479  0.66911684  0.00416372  1
  Cu  Cu103  1  0.49973241  0.50283882  0.75293928  1
  Cu  Cu104  1  0.49928984  0.50322999  0.24730650  1
  Cu  Cu105  1  0.66283634  0.32716125  0.00041908  1
  Cu  Cu106  1  0.50317971  0.16582576  0.24473489  1
  Cu  Cu107  1  0.82592653  0.16609700  0.24947866  1
  Cu  Cu108  1  0.33296372  0.66689312  0.00317268  1
  Cu  Cu109  1  0.50141710  0.83058748  0.75370997  1
  Cu  Cu110  1  0.66454727  0.00831200  0.49962770  1
  Cu  Cu111  1  0.00005989  0.00505478  0.00378679  1
  Cu  Cu112  1  0.83007065  0.49792837  0.25149586  1
  Cu  Cu113  1  0.82849319  0.16862271  0.74822544  1
  Cu  Cu114  1  0.82747643  0.83124196  0.74754145  1
  Se  Se115  1  0.08667033  0.08598673  0.05546204  1
  Se  Se116  1  0.08390394  0.08790126  0.54965874  1
  Se  Se117  1  0.07345199  0.40632401  0.05885979  1
  Se  Se118  1  0.08374433  0.41615213  0.54907794  1
  Se  Se119  1  0.06850607  0.75188326  0.06444788  1
  Se  Se120  1  0.07950256  0.75243420  0.55663322  1
  Se  Se121  1  0.41788170  0.08344460  0.04672546  1
  Se  Se122  1  0.41724363  0.08530724  0.55310841  1
  Se  Se123  1  0.41788995  0.42041211  0.05456759  1
  Se  Se124  1  0.40882497  0.40545612  0.56420605  1
  Se  Se125  1  0.41592468  0.75403652  0.05251179  1
  Se  Se126  1  0.42566160  0.74741843  0.55190045  1
  Se  Se127  1  0.75352951  0.08320359  0.05982988  1
  Se  Se128  1  0.75098862  0.08855582  0.55235745  1
  Se  Se129  1  0.74234578  0.41138019  0.05991749  1
  Se  Se130  1  0.73733254  0.41055409  0.55653866  1
  Se  Se131  1  0.73667013  0.74161029  0.06101764  1
  Se  Se132  1  0.74771731  0.74940586  0.55960972  1
  Se  Se133  1  0.25051810  0.25223843  0.05279039  1
  Se  Se134  1  0.24982214  0.24592327  0.55291600  1
  Se  Se135  1  0.24920651  0.59596884  0.06771426  1
  Se  Se136  1  0.25271968  0.58142346  0.55082881  1
  Se  Se137  1  0.25978538  0.92814717  0.06139606  1
  Se  Se138  1  0.26169753  0.92178032  0.56109220  1
  Se  Se139  1  0.57995672  0.24613347  0.05652119  1
  Se  Se140  1  0.57821271  0.24437046  0.55476955  1
  Se  Se141  1  0.57395846  0.57916686  0.05284458  1
  Se  Se142  1  0.59587668  0.58718530  0.55911883  1
  Se  Se143  1  0.58674944  0.91557759  0.05334051  1
  Se  Se144  1  0.58619684  0.91644377  0.55074766  1
  Se  Se145  1  0.91079442  0.24431547  0.05167114  1
  Se  Se146  1  0.91409286  0.25008696  0.54743177  1
  Se  Se147  1  0.90714344  0.58911173  0.05986601  1
  Se  Se148  1  0.92223998  0.59762315  0.55528208  1
  Se  Se149  1  0.92595274  0.92357708  0.06707073  1
  Se  Se150  1  0.91795604  0.92925644  0.55328219  1
  Se  Se151  1  0.08610216  0.24735700  0.44380524  1
  Se  Se152  1  0.08666795  0.24236499  0.94741414  1
  Se  Se153  1  0.09197585  0.58717343  0.45409870  1
  Se  Se154  1  0.07491750  0.58655815  0.94697686  1
  Se  Se155  1  0.07386959  0.92448614  0.43625302  1
  Se  Se156  1  0.07434859  0.92153030  0.94175978  1
  Se  Se157  1  0.41846828  0.24834171  0.44597652  1
  Se  Se158  1  0.42121037  0.24800181  0.94929984  1
  Se  Se159  1  0.41726117  0.58580120  0.43907360  1
  Se  Se160  1  0.41490625  0.58243931  0.95009992  1
  Se  Se161  1  0.42283808  0.91497643  0.44959139  1
  Se  Se162  1  0.40055907  0.92828366  0.94955351  1
  Se  Se163  1  0.74801641  0.24607174  0.44552745  1
  Se  Se164  1  0.74852500  0.24473955  0.94787957  1
  Se  Se165  1  0.74729101  0.59004685  0.43893509  1
  Se  Se166  1  0.73856702  0.59174883  0.94062192  1
  Se  Se167  1  0.74061927  0.92728332  0.43532130  1
  Se  Se168  1  0.74539773  0.91859017  0.94297287  1
  Se  Se169  1  0.24842973  0.08265260  0.44684714  1
  Se  Se170  1  0.24116277  0.08847940  0.95270381  1
  Se  Se171  1  0.24982374  0.41922434  0.44899797  1
  Se  Se172  1  0.25648150  0.40909544  0.93898104  1
  Se  Se173  1  0.26126332  0.74574380  0.43822326  1
  Se  Se174  1  0.24578314  0.73938790  0.94151236  1
  Se  Se175  1  0.57772313  0.08779915  0.44557027  1
  Se  Se176  1  0.58644502  0.08230927  0.94643786  1
  Se  Se177  1  0.58636865  0.41179067  0.43855546  1
  Se  Se178  1  0.58584611  0.41936020  0.94897152  1
  Se  Se179  1  0.58332922  0.75537560  0.44450551  1
  Se  Se180  1  0.57350044  0.75613302  0.94861026  1
  Se  Se181  1  0.90916872  0.08873349  0.44090898  1
  Se  Se182  1  0.91327493  0.08506906  0.95105937  1
  Se  Se183  1  0.92236115  0.41175406  0.43521654  1
  Se  Se184  1  0.92081454  0.39960922  0.93546641  1
  Se  Se185  1  0.92867004  0.74274661  0.43946739  1
  Se  Se186  1  0.90967385  0.74089602  0.94120245  1
  Se  Se187  1  0.25517832  0.25144629  0.30370393  1
  Se  Se188  1  0.25167152  0.23607034  0.80934098  1
  Se  Se189  1  0.25476038  0.58457980  0.30612787  1
  Se  Se190  1  0.25139976  0.58434132  0.79797046  1
  Se  Se191  1  0.24763122  0.91274282  0.31074254  1
  Se  Se192  1  0.24171011  0.90380528  0.80949416  1
  Se  Se193  1  0.58359740  0.24857405  0.30299147  1
  Se  Se194  1  0.60252412  0.26715877  0.80701199  1
  Se  Se195  1  0.58441340  0.58517159  0.30086125  1
  Se  Se196  1  0.58128678  0.58634847  0.80825491  1
  Se  Se197  1  0.58329955  0.91769538  0.30012550  1
  Se  Se198  1  0.58138215  0.91610873  0.80809670  1
  Se  Se199  1  0.90848155  0.24774000  0.30911171  1
  Se  Se200  1  0.91358008  0.24457349  0.80878930  1
  Se  Se201  1  0.91686792  0.57522939  0.30629869  1
  Se  Se202  1  0.93405067  0.59407963  0.79827385  1
  Se  Se203  1  0.90788590  0.90785176  0.29812413  1
  Se  Se204  1  0.90264595  0.90633517  0.81625852  1
  Se  Se205  1  0.08183533  0.08626407  0.29895064  1
  Se  Se206  1  0.09118312  0.08810071  0.80515011  1
  Se  Se207  1  0.09074721  0.42068986  0.31134557  1
  Se  Se208  1  0.09069279  0.42072116  0.80758783  1
  Se  Se209  1  0.09319518  0.75119548  0.30172528  1
  Se  Se210  1  0.07859916  0.74467979  0.79955726  1
  Se  Se211  1  0.42397195  0.08726137  0.30929543  1
  Se  Se212  1  0.42989548  0.08918453  0.81270966  1
  Se  Se213  1  0.41706570  0.41806212  0.30124812  1
  Se  Se214  1  0.42279914  0.42176859  0.81537475  1
  Se  Se215  1  0.41807646  0.74860895  0.30146726  1
  Se  Se216  1  0.41560545  0.74810105  0.80587132  1
  Se  Se217  1  0.74443899  0.08076797  0.30283040  1
  Se  Se218  1  0.74691978  0.08369372  0.80170130  1
  Se  Se219  1  0.74356062  0.41188550  0.29730377  1
  Se  Se220  1  0.77606197  0.44462049  0.80895808  1
  Se  Se221  1  0.74525566  0.74531620  0.29846091  1
  Se  Se222  1  0.74464565  0.74825555  0.80228448  1
  Se  Se223  1  0.24744557  0.09533265  0.18699209  1
  Se  Se224  1  0.24955709  0.08563860  0.69429988  1
  Se  Se225  1  0.25549114  0.41467885  0.20077328  1
  Se  Se226  1  0.24620021  0.41623460  0.68855444  1
  Se  Se227  1  0.25636618  0.75548224  0.20537827  1
  Se  Se228  1  0.25167524  0.74539828  0.69391470  1
  Se  Se229  1  0.58580651  0.07787562  0.19582004  1
  Se  Se230  1  0.59292432  0.07638915  0.69511209  1
  Se  Se231  1  0.58180791  0.41723147  0.19455268  1
  Se  Se232  1  0.58260576  0.41665699  0.70173880  1
  Se  Se233  1  0.58179776  0.74646633  0.19442319  1
  Se  Se234  1  0.58463152  0.74923218  0.69656965  1
  Se  Se235  1  0.91671365  0.08544515  0.20034310  1
  Se  Se236  1  0.91279333  0.08886761  0.68973076  1
  Se  Se237  1  0.90906081  0.42486475  0.18472756  1
  Se  Se238  1  0.90461022  0.42953690  0.68606875  1
  Se  Se239  1  0.93983496  0.72355182  0.20153084  1
  Se  Se240  1  0.91738419  0.75392619  0.69653845  1
  Se  Se241  1  0.08620031  0.24725537  0.18753051  1
  Se  Se242  1  0.09148982  0.24015513  0.69375245  1
  Se  Se243  1  0.08650404  0.58173987  0.19924809  1
  Se  Se244  1  0.08477621  0.58236640  0.68938230  1
  Se  Se245  1  0.09330178  0.91771699  0.20534067  1
  Se  Se246  1  0.08912394  0.91296718  0.69005963  1
  Se  Se247  1  0.41699492  0.25018063  0.19471999  1
  Se  Se248  1  0.43003223  0.23603767  0.69691716  1
  Se  Se249  1  0.41491162  0.58727992  0.19507816  1
  Se  Se250  1  0.41668122  0.58624643  0.69973774  1
  Se  Se251  1  0.42572777  0.91546470  0.18540258  1
  Se  Se252  1  0.42675174  0.91170252  0.68914591  1
  Se  Se253  1  0.74309995  0.25139613  0.19867421  1
  Se  Se254  1  0.74890450  0.25474393  0.69414132  1
  Se  Se255  1  0.74661500  0.58283586  0.19864990  1
  Se  Se256  1  0.74328242  0.59293107  0.70065536  1
  Se  Se257  1  0.77296673  0.88891425  0.19377941  1
  Se  Se258  1  0.74494876  0.91995752  0.70018177  1
