# generated using pymatgen
data_In86Cu29Se144
_symmetry_space_group_name_H-M   'P 1'
_cell_length_a   17.78837576
_cell_length_b   17.79301753
_cell_length_c   23.60741422
_cell_angle_alpha   90.00324994
_cell_angle_beta   89.92346519
_cell_angle_gamma   89.98891194
_symmetry_Int_Tables_number   1
_chemical_formula_structural   In86Cu29Se144
_chemical_formula_sum   'In86 Cu29 Se144'
_cell_volume   7471.94945853
_cell_formula_units_Z   1
loop_
 _symmetry_equiv_pos_site_id
 _symmetry_equiv_pos_as_xyz
  1  'x, y, z'
loop_
 _atom_site_type_symbol
 _atom_site_label
 _atom_site_symmetry_multiplicity
 _atom_site_fract_x
 _atom_site_fract_y
 _atom_site_fract_z
 _atom_site_occupancy
  In  In0  1  -0.00137752  0.16873193  0.12812639  1
  In  In1  1  0.00661535  0.16366858  0.62026596  1
  In  In2  1  0.01533019  0.47942695  0.13781223  1
  In  In3  1  -0.03716884  0.47183123  0.59856417  1
  In  In4  1  0.00135519  0.84318935  0.12629600  1
  In  In5  1  -0.03068027  0.82329752  0.61493985  1
  In  In6  1  0.35093097  0.16771997  0.12355740  1
  In  In7  1  0.33430009  0.17026299  0.61433960  1
  In  In8  1  0.35336125  0.44414762  0.15879135  1
  In  In9  1  0.33080282  0.50137107  0.61499877  1
  In  In10  1  0.35636389  0.83803486  0.12650822  1
  In  In11  1  0.33640229  0.81901031  0.62162256  1
  In  In12  1  0.66896944  0.16932054  0.12549914  1
  In  In13  1  0.65945378  0.17420570  0.63017748  1
  In  In14  1  0.66368429  0.51228343  0.13418058  1
  In  In15  1  0.65984767  0.48110293  0.61903506  1
  In  In16  1  0.66726074  0.82758900  0.12478716  1
  In  In17  1  0.66329936  0.82099282  0.61324944  1
  In  In18  1  0.17813492  0.02142584  0.35605317  1
  In  In19  1  0.15864123  0.00410696  0.88068002  1
  In  In20  1  0.16501669  0.34183583  0.37448203  1
  In  In21  1  0.16300874  0.34371845  0.87543581  1
  In  In22  1  0.16572972  0.65890334  0.37533851  1
  In  In23  1  0.15221394  0.67065538  0.87071235  1
  In  In24  1  0.50532579  0.00329908  0.37174769  1
  In  In25  1  0.50560429  0.00144005  0.88230235  1
  In  In26  1  0.50537454  0.34258817  0.37761110  1
  In  In27  1  0.51414334  0.32768077  0.88832785  1
  In  In28  1  0.51499384  0.66223655  0.38697380  1
  In  In29  1  0.50927828  0.65930226  0.87790429  1
  In  In30  1  0.82969867  0.00178010  0.36668291  1
  In  In31  1  0.77672391  0.03923270  0.94892950  1
  In  In32  1  0.83487175  0.33841216  0.37532033  1
  In  In33  1  0.82239580  0.33660405  0.86323944  1
  In  In34  1  0.82173722  0.67618049  0.38937948  1
  In  In35  1  0.82853743  0.67892640  0.87380415  1
  In  In36  1  0.01724629  0.18877727  0.35085124  1
  In  In37  1  -0.02619674  0.16771897  0.88455918  1
  In  In38  1  0.00443677  0.49338809  0.38366565  1
  In  In39  1  -0.00456408  0.49900209  0.86894285  1
  In  In40  1  -0.01194217  0.84234769  0.37206076  1
  In  In41  1  -0.06952787  0.88362431  0.91792080  1
  In  In42  1  0.35057151  0.16513372  0.37676738  1
  In  In43  1  0.33885793  0.17830799  0.88082187  1
  In  In44  1  0.33783769  0.49378524  0.37614725  1
  In  In45  1  0.33637090  0.50756024  0.87313939  1
  In  In46  1  0.34031251  0.85362866  0.36818349  1
  In  In47  1  0.33572170  0.83981792  0.87738139  1
  In  In48  1  0.66512414  0.16693893  0.37084254  1
  In  In49  1  0.66268241  0.18158257  0.87561029  1
  In  In50  1  0.66816843  0.50475537  0.38348379  1
  In  In51  1  0.65566666  0.49255917  0.86501819  1
  In  In52  1  0.66512384  0.83471313  0.38010591  1
  In  In53  1  0.66578748  0.82910190  0.87581570  1
  In  In54  1  0.16667235  0.01693702  0.13775281  1
  In  In55  1  0.15468022  0.00194599  0.62021394  1
  In  In56  1  0.19614968  0.27531408  0.21327120  1
  In  In57  1  0.15699922  0.32478469  0.61465723  1
  In  In58  1  0.17561159  0.65733223  0.12783693  1
  In  In59  1  0.16457983  0.66049271  0.62299182  1
  In  In60  1  0.51268981  -0.00216405  0.12673560  1
  In  In61  1  0.50814358  0.00158446  0.61534070  1
  In  In62  1  0.51765173  0.33291594  0.12605741  1
  In  In63  1  0.49871384  0.32702597  0.62255787  1
  In  In64  1  0.50576291  0.67660341  0.12081895  1
  In  In65  1  0.51969804  0.66396766  0.59852948  1
  In  In66  1  0.83376102  -0.00652570  0.12075805  1
  In  In67  1  0.83304244  -0.00689880  0.62169961  1
  In  In68  1  0.84449411  0.32408440  0.12823991  1
  In  In69  1  0.82227410  0.33016431  0.63464759  1
  In  In70  1  0.82692870  0.65786873  0.12445086  1
  In  In71  1  0.78507155  0.62745681  0.56659106  1
  In  In72  1  -0.00265826  -0.00152260  0.75405266  1
  In  In73  1  0.83280210  0.16211942  0.48855118  1
  In  In74  1  0.83234125  0.50631746  0.00252249  1
  In  In75  1  0.17500029  0.49076043  0.01380080  1
  In  In76  1  -0.00817764  0.67282188  0.26213198  1
  In  In77  1  0.17229694  0.17189001  0.01265841  1
  In  In78  1  0.33312211  0.66239303  0.74481269  1
  In  In79  1  -0.00159509  0.67205132  0.74864787  1
  In  In80  1  0.33083544  0.33499728  0.74063003  1
  In  In81  1  0.33525711  0.00059942  0.75202174  1
  In  In82  1  0.67069238  0.00578529  0.76171355  1
  In  In83  1  0.18188421  0.82896558  0.01225526  1
  In  In84  1  0.34147442  0.66482770  0.25692662  1
  In  In85  1  0.17201328  0.84524846  0.49002797  1
  Cu  Cu86  1  0.50732245  0.16989899  0.25081346  1
  Cu  Cu87  1  0.15023246  0.83625604  0.75090904  1
  Cu  Cu88  1  0.33368973  0.66796759  0.49744650  1
  Cu  Cu89  1  0.00299952  0.65769726  0.00052032  1
  Cu  Cu90  1  0.82662071  0.16132620  0.24462646  1
  Cu  Cu91  1  0.17459917  0.83664217  0.24805737  1
  Cu  Cu92  1  0.15342638  0.49562931  0.74705915  1
  Cu  Cu93  1  0.32769767  0.32769918  0.49332626  1
  Cu  Cu94  1  0.82469818  0.50751387  0.73121495  1
  Cu  Cu95  1  0.67362978  0.33929921  0.00114676  1
  Cu  Cu96  1  0.00621765  0.66983724  0.49659061  1
  Cu  Cu97  1  0.00492381  0.01178736  0.49154989  1
  Cu  Cu98  1  0.33705761  0.00269588  0.49254433  1
  Cu  Cu99  1  0.34334763  0.00406082  0.00482085  1
  Cu  Cu100  1  0.82698317  0.83676031  0.25156784  1
  Cu  Cu101  1  0.66998470  0.00115643  0.49337444  1
  Cu  Cu102  1  0.82315356  0.83350140  0.75203933  1
  Cu  Cu103  1  0.33970823  0.66086675  -0.00097855  1
  Cu  Cu104  1  0.50137897  0.82374192  0.74044658  1
  Cu  Cu105  1  -0.00493829  0.32916919  -0.00006582  1
  Cu  Cu106  1  0.49585722  0.49793957  0.74457156  1
  Cu  Cu107  1  0.66599534  0.66901495  0.00120197  1
  Cu  Cu108  1  0.82665591  0.50414774  0.25538898  1
  Cu  Cu109  1  0.34886254  0.33464104  0.00789812  1
  Cu  Cu110  1  0.51139937  0.83570587  0.24944415  1
  Cu  Cu111  1  0.83179564  0.16588394  0.75613423  1
  Cu  Cu112  1  0.50547381  0.50269913  0.25759620  1
  Cu  Cu113  1  0.16352146  0.16865444  0.74487771  1
  Cu  Cu114  1  -0.00280895  0.32580853  0.49319216  1
  Se  Se115  1  0.07821168  0.07537077  0.05790237  1
  Se  Se116  1  0.08858600  0.08866568  0.54754981  1
  Se  Se117  1  0.08128093  0.39743134  0.06075230  1
  Se  Se118  1  0.07824781  0.41254164  0.54759014  1
  Se  Se119  1  0.08091170  0.73622758  0.06241683  1
  Se  Se120  1  0.08601003  0.75749762  0.55626600  1
  Se  Se121  1  0.42975520  0.08198693  0.05673092  1
  Se  Se122  1  0.41692453  0.08072000  0.55290937  1
  Se  Se123  1  0.42418852  0.41864714  0.06519945  1
  Se  Se124  1  0.40468002  0.40234330  0.55784775  1
  Se  Se125  1  0.41623709  0.74941664  0.05192817  1
  Se  Se126  1  0.41868857  0.74920737  0.54833392  1
  Se  Se127  1  0.75541124  0.08601675  0.05561966  1
  Se  Se128  1  0.74497635  0.08028000  0.55905094  1
  Se  Se129  1  0.74879642  0.41666708  0.06517759  1
  Se  Se130  1  0.76204679  0.41205980  0.55773897  1
  Se  Se131  1  0.75285496  0.74384941  0.05610124  1
  Se  Se132  1  0.78334299  0.77493903  0.56312810  1
  Se  Se133  1  0.26261821  0.26160768  0.06529947  1
  Se  Se134  1  0.24507740  0.24586014  0.54913737  1
  Se  Se135  1  0.26926619  0.58222423  0.06389247  1
  Se  Se136  1  0.24870893  0.58911952  0.55116644  1
  Se  Se137  1  0.26184929  0.93165376  0.06807852  1
  Se  Se138  1  0.26089777  0.92537230  0.55932079  1
  Se  Se139  1  0.59288400  0.25176483  0.05240512  1
  Se  Se140  1  0.57884131  0.24116884  0.55686348  1
  Se  Se141  1  0.58695785  0.58623950  0.05782750  1
  Se  Se142  1  0.56613054  0.54540084  0.54546433  1
  Se  Se143  1  0.58025450  0.90520706  0.05837507  1
  Se  Se144  1  0.58987274  0.91770962  0.55045431  1
  Se  Se145  1  0.91657216  0.24359457  0.05317459  1
  Se  Se146  1  0.91734763  0.24859108  0.55603635  1
  Se  Se147  1  0.93241332  0.57872432  0.06618390  1
  Se  Se148  1  0.93397745  0.60819165  0.57016875  1
  Se  Se149  1  0.91563793  0.90687487  0.05339612  1
  Se  Se150  1  0.92485940  0.93166883  0.54897315  1
  Se  Se151  1  0.08271384  0.24972390  0.43771051  1
  Se  Se152  1  0.08010422  0.25092039  0.94081493  1
  Se  Se153  1  0.08581657  0.58407085  0.44712668  1
  Se  Se154  1  0.08351310  0.57657737  0.94330438  1
  Se  Se155  1  0.08375128  0.93257421  0.42976695  1
  Se  Se156  1  0.09246735  0.90578397  0.94546958  1
  Se  Se157  1  0.42247411  0.25551759  0.44394425  1
  Se  Se158  1  0.42387052  0.24798428  0.95222980  1
  Se  Se159  1  0.41278071  0.58530169  0.44188495  1
  Se  Se160  1  0.42038738  0.57941907  0.94334162  1
  Se  Se161  1  0.42229459  0.92049997  0.44281824  1
  Se  Se162  1  0.41678454  0.91951957  0.94536353  1
  Se  Se163  1  0.74068897  0.25859067  0.44210700  1
  Se  Se164  1  0.75307708  0.26030212  0.94195151  1
  Se  Se165  1  0.75589381  0.58162033  0.45788647  1
  Se  Se166  1  0.74166566  0.58730822  0.93790041  1
  Se  Se167  1  0.75543383  0.92206343  0.44099750  1
  Se  Se168  1  0.77140901  0.89240224  0.93778781  1
  Se  Se169  1  0.25585141  0.08282775  0.43738139  1
  Se  Se170  1  0.25859982  0.07948358  0.94497572  1
  Se  Se171  1  0.24972804  0.41857022  0.44481196  1
  Se  Se172  1  0.26533207  0.40746734  0.94378073  1
  Se  Se173  1  0.26027905  0.74945385  0.43361429  1
  Se  Se174  1  0.25674797  0.73604024  0.93824661  1
  Se  Se175  1  0.58704245  0.08443038  0.44203234  1
  Se  Se176  1  0.61410282  0.06649765  0.93728118  1
  Se  Se177  1  0.57033493  0.43675451  0.44917080  1
  Se  Se178  1  0.58910986  0.42333212  0.94909624  1
  Se  Se179  1  0.59683656  0.74567349  0.45178231  1
  Se  Se180  1  0.58285698  0.74879888  0.94498735  1
  Se  Se181  1  0.92882271  0.08636315  0.42669037  1
  Se  Se182  1  0.92508841  0.04832034  0.93272356  1
  Se  Se183  1  0.91397606  0.41602771  0.44889877  1
  Se  Se184  1  0.91901088  0.41253030  0.94142915  1
  Se  Se185  1  0.92507383  0.75254029  0.44404055  1
  Se  Se186  1  0.93001163  0.73771936  0.93891079  1
  Se  Se187  1  0.26005618  0.25878972  0.31268006  1
  Se  Se188  1  0.24220743  0.24580032  0.80842839  1
  Se  Se189  1  0.24428473  0.57364962  0.30532449  1
  Se  Se190  1  0.23501786  0.57620940  0.80453599  1
  Se  Se191  1  0.25705285  0.92427439  0.29617542  1
  Se  Se192  1  0.23669269  0.91226624  0.80823381  1
  Se  Se193  1  0.58249139  0.25531629  0.30769628  1
  Se  Se194  1  0.57379473  0.25211631  0.80792416  1
  Se  Se195  1  0.58746781  0.58494344  0.31081895  1
  Se  Se196  1  0.57677935  0.58156020  0.79947380  1
  Se  Se197  1  0.58968798  0.91713067  0.30746986  1
  Se  Se198  1  0.57142669  0.90679778  0.80552969  1
  Se  Se199  1  0.90004780  0.24754804  0.30299004  1
  Se  Se200  1  0.91667056  0.25055541  0.80601376  1
  Se  Se201  1  0.90480295  0.58084197  0.31986322  1
  Se  Se202  1  0.90096130  0.57739421  0.80393420  1
  Se  Se203  1  0.91504235  0.92038025  0.29779254  1
  Se  Se204  1  0.90188644  0.91509363  0.80862974  1
  Se  Se205  1  0.07685185  0.08157620  0.29259170  1
  Se  Se206  1  0.08440617  0.09651977  0.81119923  1
  Se  Se207  1  0.07335651  0.41536872  0.30799272  1
  Se  Se208  1  0.07678551  0.41286402  0.80371852  1
  Se  Se209  1  0.09462794  0.76303281  0.31148343  1
  Se  Se210  1  0.07121632  0.76640725  0.81474966  1
  Se  Se211  1  0.42286667  0.08502638  0.30186899  1
  Se  Se212  1  0.42137528  0.08867357  0.81357392  1
  Se  Se213  1  0.41935394  0.41724334  0.30429664  1
  Se  Se214  1  0.41655078  0.42000827  0.80593736  1
  Se  Se215  1  0.43100274  0.75734500  0.31222808  1
  Se  Se216  1  0.41831968  0.75371253  0.80650297  1
  Se  Se217  1  0.74432463  0.08330288  0.30146959  1
  Se  Se218  1  0.76242246  0.08789295  0.82185661  1
  Se  Se219  1  0.74751700  0.42286367  0.31242269  1
  Se  Se220  1  0.75024246  0.42701605  0.79608194  1
  Se  Se221  1  0.75336246  0.75449135  0.31160500  1
  Se  Se222  1  0.74108925  0.74691143  0.80199386  1
  Se  Se223  1  0.24194628  0.11858114  0.19179159  1
  Se  Se224  1  0.24193746  0.08530884  0.68948592  1
  Se  Se225  1  0.21668032  0.41586761  0.17972512  1
  Se  Se226  1  0.23630482  0.42364695  0.68533589  1
  Se  Se227  1  0.25437518  0.75538484  0.19098043  1
  Se  Se228  1  0.23564111  0.75813650  0.69431804  1
  Se  Se229  1  0.58762200  0.08752202  0.19478794  1
  Se  Se230  1  0.57602033  0.08198661  0.69603492  1
  Se  Se231  1  0.58676082  0.42213850  0.19904970  1
  Se  Se232  1  0.57561407  0.41009192  0.69351706  1
  Se  Se233  1  0.58582764  0.74554519  0.19655405  1
  Se  Se234  1  0.57814938  0.74298731  0.68212295  1
  Se  Se235  1  0.91032721  0.08215482  0.18908833  1
  Se  Se236  1  0.90799476  0.08932974  0.69077843  1
  Se  Se237  1  0.90471569  0.42497638  0.19573027  1
  Se  Se238  1  0.91425726  0.41733676  0.69283723  1
  Se  Se239  1  0.90991482  0.75550349  0.19235207  1
  Se  Se240  1  0.89829410  0.75008377  0.69289156  1
  Se  Se241  1  0.05182575  0.26150204  0.20384091  1
  Se  Se242  1  0.08071106  0.24901744  0.69100530  1
  Se  Se243  1  0.08355688  0.58772533  0.19905706  1
  Se  Se244  1  0.07796371  0.57712469  0.68715567  1
  Se  Se245  1  0.09080236  0.91548695  0.19366911  1
  Se  Se246  1  0.07484446  0.90690728  0.68345756  1
  Se  Se247  1  0.42956302  0.25243301  0.19295459  1
  Se  Se248  1  0.41767075  0.23470977  0.69324021  1
  Se  Se249  1  0.42240078  0.57364008  0.19207738  1
  Se  Se250  1  0.42317195  0.58035285  0.68245404  1
  Se  Se251  1  0.42745631  0.91962609  0.19900642  1
  Se  Se252  1  0.42009790  0.90827250  0.68769172  1
  Se  Se253  1  0.75027374  0.25241442  0.19366596  1
  Se  Se254  1  0.74588548  0.24348509  0.70256206  1
  Se  Se255  1  0.74970304  0.59112065  0.20222633  1
  Se  Se256  1  0.74545507  0.58215024  0.66988859  1
  Se  Se257  1  0.74972898  0.91456944  0.19055995  1
  Se  Se258  1  0.74565636  0.91536392  0.69208389  1
