# generated using pymatgen
data_In86Cu29Se144
_symmetry_space_group_name_H-M   'P 1'
_cell_length_a   17.58098680
_cell_length_b   17.58276581
_cell_length_c   23.44524234
_cell_angle_alpha   89.98891100
_cell_angle_beta   90.00522100
_cell_angle_gamma   89.98835168
_symmetry_Int_Tables_number   1
_chemical_formula_structural   In86Cu29Se144
_chemical_formula_sum   'In86 Cu29 Se144'
_cell_volume   7247.44864341
_cell_formula_units_Z   1
loop_
 _symmetry_equiv_pos_site_id
 _symmetry_equiv_pos_as_xyz
  1  'x, y, z'
loop_
 _atom_site_type_symbol
 _atom_site_label
 _atom_site_symmetry_multiplicity
 _atom_site_fract_x
 _atom_site_fract_y
 _atom_site_fract_z
 _atom_site_occupancy
  In  In0  1  0.01146336  0.16632248  0.12635105  1
  In  In1  1  -0.00093655  0.16240088  0.61982297  1
  In  In2  1  0.00323515  0.49288935  0.14010684  1
  In  In3  1  0.01107343  0.51701410  0.61727307  1
  In  In4  1  -0.00408916  0.82671389  0.11760171  1
  In  In5  1  -0.00024204  0.82801420  0.62950054  1
  In  In6  1  0.33121496  0.18370962  0.13157876  1
  In  In7  1  0.31601738  0.16584224  0.61923010  1
  In  In8  1  0.32126769  0.51165703  0.13653822  1
  In  In9  1  0.33312081  0.49859491  0.61312647  1
  In  In10  1  0.32502429  0.82929185  0.11877707  1
  In  In11  1  0.33809864  0.83540518  0.62262743  1
  In  In12  1  0.65969338  0.16470483  0.12578169  1
  In  In13  1  0.68448857  0.16628195  0.62306192  1
  In  In14  1  0.67997759  0.51511017  0.12959438  1
  In  In15  1  0.66024476  0.49064993  0.61545680  1
  In  In16  1  0.65987990  0.82504636  0.11819001  1
  In  In17  1  0.66825482  0.83023383  0.61846585  1
  In  In18  1  0.16075966  -0.00183602  0.38348528  1
  In  In19  1  0.16403021  -0.00110578  0.87067572  1
  In  In20  1  0.16584851  0.34100690  0.37959426  1
  In  In21  1  0.16308164  0.33546789  0.88382422  1
  In  In22  1  0.16654317  0.66249697  0.37572838  1
  In  In23  1  0.16421972  0.67379920  0.88012218  1
  In  In24  1  0.48935676  -0.00849307  0.37652546  1
  In  In25  1  0.49058866  0.00080253  0.87264992  1
  In  In26  1  0.50053474  0.34334339  0.37473747  1
  In  In27  1  0.49526629  0.32179755  0.86711714  1
  In  In28  1  0.49930234  0.66579598  0.37454007  1
  In  In29  1  0.51179861  0.67227154  0.87572169  1
  In  In30  1  0.83586475  -0.00201247  0.38502968  1
  In  In31  1  0.83778921  -0.02837842  0.87146639  1
  In  In32  1  0.84070265  0.33123320  0.38213069  1
  In  In33  1  0.83124568  0.34786552  0.87035964  1
  In  In34  1  0.83695077  0.66303100  0.37489413  1
  In  In35  1  0.84570606  0.67195135  0.87074123  1
  In  In36  1  -0.00770108  0.17501907  0.38245860  1
  In  In37  1  0.01810946  0.16743930  0.87575545  1
  In  In38  1  0.00007399  0.50508243  0.37659279  1
  In  In39  1  0.00405813  0.51375394  0.87041453  1
  In  In40  1  0.00997203  0.81823624  0.38251084  1
  In  In41  1  -0.00145633  0.83423995  0.87168273  1
  In  In42  1  0.31973554  0.16689712  0.37669386  1
  In  In43  1  0.33154587  0.15453010  0.87103329  1
  In  In44  1  0.32984215  0.49943987  0.37746423  1
  In  In45  1  0.32545854  0.48962399  0.87551055  1
  In  In46  1  0.34131116  0.82065113  0.38267355  1
  In  In47  1  0.32181100  0.84060969  0.87997313  1
  In  In48  1  0.67167766  0.17734050  0.37723790  1
  In  In49  1  0.65748223  0.16566061  0.86902330  1
  In  In50  1  0.65605826  0.50891332  0.38193280  1
  In  In51  1  0.67480891  0.50274748  0.86473183  1
  In  In52  1  0.68024870  0.81964520  0.38319819  1
  In  In53  1  0.67370423  0.83032422  0.88713400  1
  In  In54  1  0.16362358  -0.00048292  0.11563966  1
  In  In55  1  0.16691286  -0.00264039  0.62724079  1
  In  In56  1  0.16474993  0.33805535  0.13092625  1
  In  In57  1  0.17947870  0.33816356  0.60843121  1
  In  In58  1  0.16722256  0.66521559  0.12576589  1
  In  In59  1  0.15046537  0.65702000  0.62236646  1
  In  In60  1  0.50573245  -0.00902099  0.12146746  1
  In  In61  1  0.49867497  -0.01614507  0.62592109  1
  In  In62  1  0.48722407  0.32324556  0.13357763  1
  In  In63  1  0.50146263  0.35246360  0.62035861  1
  In  In64  1  0.49127785  0.67642675  0.13334320  1
  In  In65  1  0.49531116  0.66042647  0.61463057  1
  In  In66  1  0.84226558  -0.00520192  0.12008418  1
  In  In67  1  0.84208592  -0.00000874  0.62486042  1
  In  In68  1  0.83877250  0.35510135  0.13123608  1
  In  In69  1  0.82829993  0.32601662  0.61740935  1
  In  In70  1  0.82942651  0.66911448  0.13975407  1
  In  In71  1  0.85016332  0.67763382  0.61699765  1
  In  In72  1  0.83418768  0.16122586  0.00237357  1
  In  In73  1  0.33093965  0.00200044  0.25383743  1
  In  In74  1  0.66890172  0.66526945  0.74854135  1
  In  In75  1  0.32839476  0.66324548  0.74340596  1
  In  In76  1  0.66241089  -0.00187328  0.24339658  1
  In  In77  1  0.67244989  -0.00183663  0.74723655  1
  In  In78  1  0.33331604  0.33426870  0.73795897  1
  In  In79  1  0.00082134  0.33403275  0.74568407  1
  In  In80  1  0.49375451  0.50013695  0.00019397  1
  In  In81  1  0.50172524  0.16563945  0.49266730  1
  In  In82  1  0.48982822  0.15742465  -0.00317855  1
  In  In83  1  0.00098943  -0.00322553  0.24616097  1
  In  In84  1  0.66323855  0.34423163  0.25412918  1
  In  In85  1  0.84091659  0.50809133  0.00180852  1
  Cu  Cu86  1  0.16161229  0.83435836  0.75460640  1
  Cu  Cu87  1  0.66813470  0.67362154  0.00431040  1
  Cu  Cu88  1  0.00211961  0.33584380  0.50021213  1
  Cu  Cu89  1  0.32731873  -0.00181541  -0.00544064  1
  Cu  Cu90  1  0.00269491  -0.00461007  0.50605359  1
  Cu  Cu91  1  0.16725463  0.16497981  0.74688037  1
  Cu  Cu92  1  0.83782813  0.82647488  0.25336736  1
  Cu  Cu93  1  0.17365532  0.82237671  0.25083033  1
  Cu  Cu94  1  0.31865432  0.33520887  0.00602795  1
  Cu  Cu95  1  0.67366579  0.33370432  0.49670092  1
  Cu  Cu96  1  0.49476489  0.83471701  0.75014807  1
  Cu  Cu97  1  0.66104006  0.33317869  -0.00574005  1
  Cu  Cu98  1  0.49860560  0.50501950  0.25591034  1
  Cu  Cu99  1  -0.00126254  0.66958057  0.49626283  1
  Cu  Cu100  1  0.16231289  0.17837843  0.25288527  1
  Cu  Cu101  1  0.33361838  0.66847261  0.00682003  1
  Cu  Cu102  1  0.32915950  0.66956284  0.49634089  1
  Cu  Cu103  1  0.66689172  0.66592440  0.49819260  1
  Cu  Cu104  1  0.83860856  0.16614277  0.74432636  1
  Cu  Cu105  1  0.16791944  0.50002246  0.25631896  1
  Cu  Cu106  1  0.00503026  0.67016672  -0.00030578  1
  Cu  Cu107  1  0.33024650  -0.00524957  0.49987686  1
  Cu  Cu108  1  0.66926219  -0.00541542  0.50691942  1
  Cu  Cu109  1  0.00307616  -0.00451460  -0.00511442  1
  Cu  Cu110  1  0.50400684  0.82565308  0.25134684  1
  Cu  Cu111  1  0.50200406  0.16970012  0.74764115  1
  Cu  Cu112  1  0.83044188  0.17682062  0.25625512  1
  Cu  Cu113  1  0.82759209  0.49694305  0.74068624  1
  Cu  Cu114  1  0.00832728  0.33416560  0.00672866  1
  Se  Se115  1  0.07872492  0.08405567  0.05013507  1
  Se  Se116  1  0.08818509  0.08142185  0.55518565  1
  Se  Se117  1  0.08238819  0.42299681  0.06186409  1
  Se  Se118  1  0.08436716  0.42162281  0.55138366  1
  Se  Se119  1  0.09051233  0.75147513  0.05377875  1
  Se  Se120  1  0.08095200  0.75082576  0.55393725  1
  Se  Se121  1  0.40064514  0.07506985  0.06413002  1
  Se  Se122  1  0.41538263  0.07584355  0.55784914  1
  Se  Se123  1  0.40623425  0.41140241  0.06328055  1
  Se  Se124  1  0.41457631  0.41425761  0.54671689  1
  Se  Se125  1  0.42079290  0.75280599  0.05450047  1
  Se  Se126  1  0.41489903  0.75050232  0.55158330  1
  Se  Se127  1  0.73811285  0.07380049  0.05922390  1
  Se  Se128  1  0.75678370  0.07907698  0.55358443  1
  Se  Se129  1  0.74102194  0.41408659  0.05430076  1
  Se  Se130  1  0.75575248  0.41869780  0.54937727  1
  Se  Se131  1  0.75915799  0.74550845  0.05999600  1
  Se  Se132  1  0.75149465  0.74793475  0.55177980  1
  Se  Se133  1  0.24086355  0.24777195  0.05963220  1
  Se  Se134  1  0.25333845  0.24754547  0.54273952  1
  Se  Se135  1  0.25022851  0.58138114  0.05519626  1
  Se  Se136  1  0.24770615  0.58958096  0.55430252  1
  Se  Se137  1  0.24585234  0.91436145  0.04996817  1
  Se  Se138  1  0.24823487  0.91384312  0.55634070  1
  Se  Se139  1  0.58043850  0.25634378  0.05484185  1
  Se  Se140  1  0.59190982  0.25123966  0.55722913  1
  Se  Se141  1  0.58706313  0.58878326  0.05980380  1
  Se  Se142  1  0.58188671  0.58020493  0.54860192  1
  Se  Se143  1  0.58717896  0.91675029  0.05176739  1
  Se  Se144  1  0.58006322  0.91079134  0.55232611  1
  Se  Se145  1  0.91718820  0.26048510  0.06214044  1
  Se  Se146  1  0.91927423  0.24829559  0.55180895  1
  Se  Se147  1  0.92746732  0.59253935  0.06564684  1
  Se  Se148  1  0.91550681  0.58197037  0.54742134  1
  Se  Se149  1  0.91809425  0.91399965  0.04833540  1
  Se  Se150  1  0.91831326  0.91098795  0.55720726  1
  Se  Se151  1  0.08486761  0.25085437  0.44694881  1
  Se  Se152  1  0.08705685  0.24773656  0.95288744  1
  Se  Se153  1  0.08516969  0.58348802  0.44826142  1
  Se  Se154  1  0.08434537  0.58256070  0.94701232  1
  Se  Se155  1  0.08280274  0.91115041  0.45013951  1
  Se  Se156  1  0.08631624  0.91299241  0.94083731  1
  Se  Se157  1  0.40917522  0.25745484  0.44008082  1
  Se  Se158  1  0.40066070  0.25844710  0.94309227  1
  Se  Se159  1  0.41487828  0.58591391  0.44415076  1
  Se  Se160  1  0.40813149  0.59252649  0.93812312  1
  Se  Se161  1  0.41777878  0.91150079  0.45081092  1
  Se  Se162  1  0.41653820  0.91748249  0.94486777  1
  Se  Se163  1  0.75750334  0.24476956  0.45010705  1
  Se  Se164  1  0.74647372  0.25511939  0.93848415  1
  Se  Se165  1  0.75168198  0.58351705  0.44569915  1
  Se  Se166  1  0.74372579  0.59272784  0.94050538  1
  Se  Se167  1  0.75259912  0.91301497  0.45020872  1
  Se  Se168  1  0.75159972  0.92103743  0.95005072  1
  Se  Se169  1  0.24831118  0.08049078  0.44832960  1
  Se  Se170  1  0.24541756  0.08399859  0.94248884  1
  Se  Se171  1  0.24169632  0.42830276  0.44854481  1
  Se  Se172  1  0.24251717  0.42302553  0.95152672  1
  Se  Se173  1  0.24205402  0.75278257  0.44639473  1
  Se  Se174  1  0.25102339  0.75021125  0.94962109  1
  Se  Se175  1  0.59528107  0.07042783  0.43792060  1
  Se  Se176  1  0.59042765  0.07383137  0.94196654  1
  Se  Se177  1  0.58307923  0.41458369  0.44884692  1
  Se  Se178  1  0.58437382  0.41458994  0.93428016  1
  Se  Se179  1  0.58069974  0.74921151  0.44589955  1
  Se  Se180  1  0.58053728  0.75292866  0.95150986  1
  Se  Se181  1  0.92154432  0.08040526  0.44982984  1
  Se  Se182  1  0.92247069  0.07871187  0.93630228  1
  Se  Se183  1  0.91917102  0.42046788  0.44777645  1
  Se  Se184  1  0.92881171  0.41146127  0.94292229  1
  Se  Se185  1  0.90984152  0.75270461  0.44743794  1
  Se  Se186  1  0.91904184  0.75042566  0.94529196  1
  Se  Se187  1  0.24725763  0.25598027  0.30757906  1
  Se  Se188  1  0.24486049  0.24933430  0.80703952  1
  Se  Se189  1  0.25331859  0.58570886  0.30549927  1
  Se  Se190  1  0.24201964  0.57781877  0.80924160  1
  Se  Se191  1  0.24407832  0.90893923  0.31294099  1
  Se  Se192  1  0.25114578  0.91785047  0.80201910  1
  Se  Se193  1  0.57633214  0.24348271  0.30700522  1
  Se  Se194  1  0.58697579  0.25289944  0.79738616  1
  Se  Se195  1  0.58635214  0.58762940  0.30378926  1
  Se  Se196  1  0.57087091  0.57458415  0.80274602  1
  Se  Se197  1  0.58200338  0.90829948  0.31099969  1
  Se  Se198  1  0.58208322  0.90854442  0.80961170  1
  Se  Se199  1  0.91913036  0.25482911  0.30626423  1
  Se  Se200  1  0.91305028  0.24521089  0.81124083  1
  Se  Se201  1  0.93407360  0.59946927  0.30656988  1
  Se  Se202  1  0.90760587  0.57582103  0.80073305  1
  Se  Se203  1  0.91498831  0.91072712  0.31197817  1
  Se  Se204  1  0.92826533  0.91993453  0.79699775  1
  Se  Se205  1  0.08532256  0.08886726  0.30949321  1
  Se  Se206  1  0.08275873  0.08351008  0.79980197  1
  Se  Se207  1  0.08129539  0.41776853  0.30764320  1
  Se  Se208  1  0.09144473  0.42076367  0.80716255  1
  Se  Se209  1  0.08431484  0.74603786  0.30399969  1
  Se  Se210  1  0.08227308  0.74575594  0.80559459  1
  Se  Se211  1  0.42308361  0.09271940  0.31083154  1
  Se  Se212  1  0.41885795  0.08467750  0.79878069  1
  Se  Se213  1  0.41536661  0.41954613  0.30520211  1
  Se  Se214  1  0.42094297  0.42231276  0.80416718  1
  Se  Se215  1  0.41492074  0.74813896  0.30398575  1
  Se  Se216  1  0.41637103  0.75214875  0.80976287  1
  Se  Se217  1  0.75477025  0.08523937  0.30848356  1
  Se  Se218  1  0.76163872  0.08725593  0.81042099  1
  Se  Se219  1  0.75282032  0.42339438  0.31839228  1
  Se  Se220  1  0.74625086  0.41332915  0.79477423  1
  Se  Se221  1  0.75068007  0.74550972  0.30427188  1
  Se  Se222  1  0.75529926  0.75970000  0.80656595  1
  Se  Se223  1  0.23507461  0.08812033  0.19348192  1
  Se  Se224  1  0.25292871  0.08153932  0.69612957  1
  Se  Se225  1  0.25069567  0.41512436  0.20156487  1
  Se  Se226  1  0.23952357  0.42888513  0.68822193  1
  Se  Se227  1  0.25758699  0.74490911  0.19415525  1
  Se  Se228  1  0.23794053  0.75689275  0.68839688  1
  Se  Se229  1  0.56456947  0.09311441  0.19431616  1
  Se  Se230  1  0.58067715  0.08766711  0.68622421  1
  Se  Se231  1  0.57403005  0.42927177  0.18642920  1
  Se  Se232  1  0.58834272  0.41604299  0.69381239  1
  Se  Se233  1  0.59138436  0.74684608  0.19710605  1
  Se  Se234  1  0.57240976  0.75363998  0.68956222  1
  Se  Se235  1  0.90593916  0.09376919  0.19296563  1
  Se  Se236  1  0.92297420  0.08289400  0.69492428  1
  Se  Se237  1  0.90918510  0.42562815  0.20902409  1
  Se  Se238  1  0.91361249  0.42093682  0.68229151  1
  Se  Se239  1  0.92646061  0.75213351  0.19756631  1
  Se  Se240  1  0.92370987  0.73928619  0.69860772  1
  Se  Se241  1  0.07552360  0.25620257  0.19854441  1
  Se  Se242  1  0.09539399  0.25006291  0.68485619  1
  Se  Se243  1  0.08877390  0.58459316  0.19893090  1
  Se  Se244  1  0.07597774  0.58612604  0.70086736  1
  Se  Se245  1  0.09497678  0.90615590  0.19093025  1
  Se  Se246  1  0.08203942  0.91683707  0.69596078  1
  Se  Se247  1  0.40952055  0.25123680  0.20800835  1
  Se  Se248  1  0.42437191  0.24198823  0.68054078  1
  Se  Se249  1  0.41548796  0.58720168  0.20012726  1
  Se  Se250  1  0.42254819  0.57254927  0.68914610  1
  Se  Se251  1  0.42155648  0.90952624  0.19409924  1
  Se  Se252  1  0.41015949  0.91789752  0.69937091  1
  Se  Se253  1  0.75160240  0.24983897  0.18997962  1
  Se  Se254  1  0.75322383  0.25166650  0.69707870  1
  Se  Se255  1  0.76401911  0.57154548  0.20649644  1
  Se  Se256  1  0.75345117  0.58218687  0.68060444  1
  Se  Se257  1  0.76058732  0.90853919  0.19104895  1
  Se  Se258  1  0.75899600  0.90378977  0.69085415  1
