# generated using pymatgen
data_In86Cu29Se144
_symmetry_space_group_name_H-M   'P 1'
_cell_length_a   17.58823623
_cell_length_b   17.58495889
_cell_length_c   23.44841435
_cell_angle_alpha   89.96953564
_cell_angle_beta   89.99626356
_cell_angle_gamma   90.01251326
_symmetry_Int_Tables_number   1
_chemical_formula_structural   In86Cu29Se144
_chemical_formula_sum   'In86 Cu29 Se144'
_cell_volume   7252.32160271
_cell_formula_units_Z   1
loop_
 _symmetry_equiv_pos_site_id
 _symmetry_equiv_pos_as_xyz
  1  'x, y, z'
loop_
 _atom_site_type_symbol
 _atom_site_label
 _atom_site_symmetry_multiplicity
 _atom_site_fract_x
 _atom_site_fract_y
 _atom_site_fract_z
 _atom_site_occupancy
  In  In0  1  -0.00278075  0.16894720  0.12390574  1
  In  In1  1  0.01249344  0.17258774  0.62793818  1
  In  In2  1  0.00224048  0.49893468  0.12186977  1
  In  In3  1  0.00889442  0.49443188  0.63230932  1
  In  In4  1  0.02673914  0.82663781  0.14088680  1
  In  In5  1  -0.01177512  0.82505743  0.62479199  1
  In  In6  1  0.35749352  0.19320338  0.11031837  1
  In  In7  1  0.34475146  0.16818528  0.63999821  1
  In  In8  1  0.33430586  0.50068626  0.12895607  1
  In  In9  1  0.32833668  0.49093766  0.61977200  1
  In  In10  1  0.32786374  0.81962780  0.12499079  1
  In  In11  1  0.34534880  0.84150592  0.62574852  1
  In  In12  1  0.66550177  0.17358692  0.12101365  1
  In  In13  1  0.64994931  0.19032243  0.63871008  1
  In  In14  1  0.66146243  0.48953798  0.13564241  1
  In  In15  1  0.65246156  0.49275430  0.61090284  1
  In  In16  1  0.65261437  0.83002701  0.12317178  1
  In  In17  1  0.67255162  0.82270353  0.62194330  1
  In  In18  1  0.16669702  0.01442772  0.36917953  1
  In  In19  1  0.18914918  0.00904181  0.87608780  1
  In  In20  1  0.17757562  0.34545443  0.36609693  1
  In  In21  1  0.16488892  0.33557547  0.88131541  1
  In  In22  1  0.15473558  0.65417790  0.36453148  1
  In  In23  1  0.15560263  0.66503844  0.87424528  1
  In  In24  1  0.50571544  0.00445188  0.37478487  1
  In  In25  1  0.45131856  0.03050537  0.91892498  1
  In  In26  1  0.49946827  0.34040398  0.36840988  1
  In  In27  1  0.49956634  0.33143048  0.87171634  1
  In  In28  1  0.48263964  0.64347177  0.34845667  1
  In  In29  1  0.50308544  0.66386858  0.88625085  1
  In  In30  1  0.82991003  -0.00852443  0.36758544  1
  In  In31  1  0.84791385  0.00585200  0.87746278  1
  In  In32  1  0.83317727  0.32929243  0.36864690  1
  In  In33  1  0.83151146  0.33351378  0.87877391  1
  In  In34  1  0.82768459  0.65801970  0.35893423  1
  In  In35  1  0.83074016  0.64613493  0.88049517  1
  In  In36  1  0.00823908  0.17312792  0.36018497  1
  In  In37  1  -0.01336050  0.18004419  0.89024617  1
  In  In38  1  0.00480316  0.50491411  0.36480793  1
  In  In39  1  -0.00119859  0.49681457  0.87868343  1
  In  In40  1  -0.00818044  0.82235089  0.35604749  1
  In  In41  1  0.01368965  0.82397440  0.87606178  1
  In  In42  1  0.34738146  0.18733135  0.36220776  1
  In  In43  1  0.32847201  0.17442367  0.88174947  1
  In  In44  1  0.33654508  0.48852552  0.37049853  1
  In  In45  1  0.34879700  0.48634948  0.88787960  1
  In  In46  1  0.34870991  0.83042233  0.37486817  1
  In  In47  1  0.33581700  0.84930710  0.87885190  1
  In  In48  1  0.64570271  0.18701340  0.37490299  1
  In  In49  1  0.64444647  0.19202074  0.88645668  1
  In  In50  1  0.65190729  0.48887337  0.35573708  1
  In  In51  1  0.67431395  0.48856007  0.88310830  1
  In  In52  1  0.67213285  0.82806611  0.37269138  1
  In  In53  1  0.65541270  0.82538478  0.88037807  1
  In  In54  1  0.16296039  -0.00094128  0.12060268  1
  In  In55  1  0.17370820  0.01888449  0.62824785  1
  In  In56  1  0.16423833  0.33369335  0.12147459  1
  In  In57  1  0.16705825  0.33676269  0.63285656  1
  In  In58  1  0.18199618  0.65640303  0.13726076  1
  In  In59  1  0.17068367  0.64538787  0.62466132  1
  In  In60  1  0.50335753  0.00830425  0.11304750  1
  In  In61  1  0.48500295  0.00700221  0.63291017  1
  In  In62  1  0.49579170  0.33433194  0.13168840  1
  In  In63  1  0.49813354  0.33522337  0.62539511  1
  In  In64  1  0.49494967  0.65720848  0.13535678  1
  In  In65  1  0.50849590  0.65387129  0.62158323  1
  In  In66  1  0.84074927  0.01538018  0.11883085  1
  In  In67  1  0.82959483  -0.01085050  0.62696914  1
  In  In68  1  0.83278444  0.33347936  0.12329369  1
  In  In69  1  0.83778706  0.33931436  0.63270638  1
  In  In70  1  0.84622553  0.65349498  0.13131188  1
  In  In71  1  0.83172039  0.66954726  0.62313105  1
  In  In72  1  0.66980210  0.00612399  0.24018855  1
  In  In73  1  0.65977077  0.00445627  0.76018010  1
  In  In74  1  0.66979295  0.65706502  0.74216254  1
  In  In75  1  0.83304432  0.83688167  0.00859960  1
  In  In76  1  0.32458600  -0.00018298  0.24279746  1
  In  In77  1  0.17561914  0.17758164  0.49990467  1
  In  In78  1  0.16597215  0.82823570  0.49320403  1
  In  In79  1  0.32571141  0.66643360  0.75038392  1
  In  In80  1  0.17086786  0.83180889  0.00119818  1
  In  In81  1  0.82358202  0.16639724  0.50147250  1
  In  In82  1  0.82681971  0.82626265  0.49751606  1
  In  In83  1  0.50651871  0.82255023  0.50093668  1
  In  In84  1  0.00801774  0.00727450  0.75213479  1
  In  In85  1  0.82431153  0.50099958  0.49213087  1
  Cu  Cu86  1  0.50333323  0.49504648  0.75112442  1
  Cu  Cu87  1  0.16285684  0.49787102  0.75623258  1
  Cu  Cu88  1  0.67000465  0.00485972  -0.00038193  1
  Cu  Cu89  1  0.83280220  0.17083472  0.75649310  1
  Cu  Cu90  1  0.66099720  0.65403810  0.01087438  1
  Cu  Cu91  1  0.49500739  0.83969078  0.75473479  1
  Cu  Cu92  1  0.00668017  0.34004182  0.50262164  1
  Cu  Cu93  1  0.33345331  0.34108080  0.00306228  1
  Cu  Cu94  1  0.16600347  0.49190913  0.24718051  1
  Cu  Cu95  1  -0.00021440  0.00266969  0.48444344  1
  Cu  Cu96  1  0.49900260  0.82935320  0.24436646  1
  Cu  Cu97  1  0.83903432  0.81845469  0.75354064  1
  Cu  Cu98  1  -0.00202801  0.65964362  0.00226501  1
  Cu  Cu99  1  0.65876036  0.33635405  0.00501260  1
  Cu  Cu100  1  0.34591393  0.33788149  0.49535388  1
  Cu  Cu101  1  0.33374926  0.01144705  0.50513923  1
  Cu  Cu102  1  0.33724132  0.66340501  0.00596730  1
  Cu  Cu103  1  0.00284784  0.65579882  0.49216697  1
  Cu  Cu104  1  0.17116237  0.17326379  0.75575499  1
  Cu  Cu105  1  0.33551911  0.65135236  0.49184470  1
  Cu  Cu106  1  0.83500791  0.16567111  0.24767485  1
  Cu  Cu107  1  0.83904445  0.83591935  0.24286969  1
  Cu  Cu108  1  0.16386834  0.83274062  0.75185154  1
  Cu  Cu109  1  0.16304888  0.16409066  0.23803422  1
  Cu  Cu110  1  0.84084502  0.50021030  0.24299634  1
  Cu  Cu111  1  -0.00251470  0.33603673  0.00298236  1
  Cu  Cu112  1  0.00132410  0.00264111  0.00430207  1
  Cu  Cu113  1  0.65337750  0.01305802  0.50321846  1
  Cu  Cu114  1  0.84150077  0.49600252  0.75526402  1
  Se  Se115  1  0.08417294  0.08770373  0.05470924  1
  Se  Se116  1  0.07706863  0.07814841  0.55055584  1
  Se  Se117  1  0.08522490  0.41939979  0.05120213  1
  Se  Se118  1  0.08973965  0.41801161  0.55873638  1
  Se  Se119  1  0.08344970  0.73825763  0.05967306  1
  Se  Se120  1  0.07625967  0.73932128  0.55627938  1
  Se  Se121  1  0.41512258  0.08476736  0.04724109  1
  Se  Se122  1  0.41616798  0.09261745  0.55934051  1
  Se  Se123  1  0.41838751  0.41970575  0.05979030  1
  Se  Se124  1  0.42370069  0.42386479  0.55232432  1
  Se  Se125  1  0.42074116  0.74411139  0.06057851  1
  Se  Se126  1  0.40512086  0.73566468  0.55775187  1
  Se  Se127  1  0.75035807  0.08957944  0.05292197  1
  Se  Se128  1  0.73874664  0.07839713  0.56816676  1
  Se  Se129  1  0.74409749  0.41720335  0.05866344  1
  Se  Se130  1  0.74865336  0.40187732  0.55449644  1
  Se  Se131  1  0.74684869  0.73896565  0.06417051  1
  Se  Se132  1  0.73363280  0.72817080  0.54703493  1
  Se  Se133  1  0.24810467  0.25268465  0.05078499  1
  Se  Se134  1  0.26531139  0.26218783  0.56199972  1
  Se  Se135  1  0.24968939  0.58195179  0.05675747  1
  Se  Se136  1  0.24887258  0.57554975  0.54862221  1
  Se  Se137  1  0.26363857  0.92236658  0.05595829  1
  Se  Se138  1  0.25218077  0.92457615  0.55727877  1
  Se  Se139  1  0.57393149  0.25155455  0.05636420  1
  Se  Se140  1  0.57890407  0.24983354  0.55624748  1
  Se  Se141  1  0.57829758  0.57415420  0.06622107  1
  Se  Se142  1  0.58644669  0.58862450  0.54471733  1
  Se  Se143  1  0.58759658  0.91855989  0.05064718  1
  Se  Se144  1  0.58566099  0.92221708  0.56507138  1
  Se  Se145  1  0.91415778  0.24940859  0.05326033  1
  Se  Se146  1  0.92601489  0.25407436  0.55744584  1
  Se  Se147  1  0.91241627  0.57622700  0.05141411  1
  Se  Se148  1  0.92103961  0.58318862  0.55694303  1
  Se  Se149  1  0.93478270  0.91394740  0.06683367  1
  Se  Se150  1  0.92392625  0.92347769  0.54968651  1
  Se  Se151  1  0.07942712  0.25849431  0.43858360  1
  Se  Se152  1  0.08466644  0.25138437  0.95270792  1
  Se  Se153  1  0.08730609  0.57286453  0.44240878  1
  Se  Se154  1  0.08373830  0.58163984  0.94720530  1
  Se  Se155  1  0.07757740  0.91737798  0.42955195  1
  Se  Se156  1  0.08076827  0.92672350  0.94016886  1
  Se  Se157  1  0.42451620  0.25089593  0.44250004  1
  Se  Se158  1  0.41530951  0.25955301  0.94707704  1
  Se  Se159  1  0.42157701  0.57661746  0.43590070  1
  Se  Se160  1  0.42239947  0.57966814  0.95374840  1
  Se  Se161  1  0.41500358  0.92609249  0.44844628  1
  Se  Se162  1  0.43511858  0.89115904  0.95168481  1
  Se  Se163  1  0.74073683  0.26352409  0.44431542  1
  Se  Se164  1  0.74642093  0.25516357  0.95059719  1
  Se  Se165  1  0.73813385  0.58655371  0.42907253  1
  Se  Se166  1  0.74671454  0.57791359  0.95418662  1
  Se  Se167  1  0.73544553  0.92942385  0.44606570  1
  Se  Se168  1  0.74787438  0.92175324  0.93930647  1
  Se  Se169  1  0.26318080  0.08766073  0.43692315  1
  Se  Se170  1  0.25717430  0.08256451  0.95383497  1
  Se  Se171  1  0.25209842  0.41417588  0.44590441  1
  Se  Se172  1  0.24569010  0.42198417  0.95077148  1
  Se  Se173  1  0.25819821  0.73854572  0.43574170  1
  Se  Se174  1  0.25958050  0.73965225  0.93888765  1
  Se  Se175  1  0.57540385  0.09371021  0.44504271  1
  Se  Se176  1  0.58320518  0.08692426  0.94978927  1
  Se  Se177  1  0.58161964  0.42269170  0.43743393  1
  Se  Se178  1  0.57732680  0.41575585  0.94537069  1
  Se  Se179  1  0.57545481  0.74065306  0.42545226  1
  Se  Se180  1  0.58691829  0.74341052  0.95592257  1
  Se  Se181  1  0.91465719  0.08523122  0.43337087  1
  Se  Se182  1  0.91244009  0.08483157  0.95612393  1
  Se  Se183  1  0.92394717  0.41142459  0.43920468  1
  Se  Se184  1  0.91306357  0.41757290  0.94783400  1
  Se  Se185  1  0.92007306  0.73922477  0.43704733  1
  Se  Se186  1  0.92030167  0.74588848  0.94434662  1
  Se  Se187  1  0.23866170  0.24201274  0.30119251  1
  Se  Se188  1  0.25048386  0.25795465  0.80985160  1
  Se  Se189  1  0.24845897  0.57342832  0.30396971  1
  Se  Se190  1  0.24880934  0.57347386  0.81555466  1
  Se  Se191  1  0.24921782  0.91217564  0.31445594  1
  Se  Se192  1  0.24893057  0.91451225  0.80311533  1
  Se  Se193  1  0.59188849  0.27023664  0.29443253  1
  Se  Se194  1  0.58617534  0.25692715  0.80016335  1
  Se  Se195  1  0.59360184  0.59137278  0.28898891  1
  Se  Se196  1  0.58118766  0.57807153  0.81043138  1
  Se  Se197  1  0.57990373  0.91235555  0.30309670  1
  Se  Se198  1  0.57116368  0.91522358  0.81842311  1
  Se  Se199  1  0.91825810  0.25369339  0.29766489  1
  Se  Se200  1  0.91825125  0.25213712  0.80880600  1
  Se  Se201  1  0.92365357  0.58693137  0.29501340  1
  Se  Se202  1  0.91980156  0.58436034  0.80678547  1
  Se  Se203  1  0.91792981  0.92343435  0.29635467  1
  Se  Se204  1  0.91681959  0.90668624  0.80782507  1
  Se  Se205  1  0.08230050  0.08074398  0.29387790  1
  Se  Se206  1  0.08868070  0.09534348  0.81808049  1
  Se  Se207  1  0.07806818  0.41038021  0.29930235  1
  Se  Se208  1  0.08038996  0.41404549  0.80917895  1
  Se  Se209  1  0.09020895  0.75055875  0.29717995  1
  Se  Se210  1  0.08112661  0.74492108  0.79812797  1
  Se  Se211  1  0.42438114  0.08468374  0.30178956  1
  Se  Se212  1  0.41049805  0.07910698  0.82095223  1
  Se  Se213  1  0.39355832  0.38954151  0.29949626  1
  Se  Se214  1  0.41498587  0.41759907  0.80379080  1
  Se  Se215  1  0.40902303  0.75092151  0.29478174  1
  Se  Se216  1  0.42114861  0.74893978  0.81160377  1
  Se  Se217  1  0.74863936  0.09501077  0.31180344  1
  Se  Se218  1  0.75507091  0.09109216  0.81668906  1
  Se  Se219  1  0.76044537  0.41947820  0.30066205  1
  Se  Se220  1  0.75213484  0.41728567  0.80619309  1
  Se  Se221  1  0.75287162  0.75748098  0.29798242  1
  Se  Se222  1  0.75234960  0.74618396  0.81269730  1
  Se  Se223  1  0.25255096  0.09707766  0.17816968  1
  Se  Se224  1  0.25332945  0.08595631  0.70454359  1
  Se  Se225  1  0.24897823  0.41117624  0.19262760  1
  Se  Se226  1  0.24988909  0.42313511  0.69901354  1
  Se  Se227  1  0.23169744  0.76893502  0.19772676  1
  Se  Se228  1  0.24139284  0.75879730  0.68386772  1
  Se  Se229  1  0.57105039  0.09485456  0.19122954  1
  Se  Se230  1  0.56831093  0.09336377  0.70200148  1
  Se  Se231  1  0.59594123  0.39108685  0.20419616  1
  Se  Se232  1  0.58799418  0.41958676  0.69271849  1
  Se  Se233  1  0.58672062  0.74523890  0.19780374  1
  Se  Se234  1  0.57200901  0.75794440  0.69352563  1
  Se  Se235  1  0.91948269  0.08201640  0.19682614  1
  Se  Se236  1  0.90812763  0.09029225  0.69066117  1
  Se  Se237  1  0.92090642  0.41390597  0.19079691  1
  Se  Se238  1  0.92624350  0.41301626  0.70152072  1
  Se  Se239  1  0.92271517  0.74940526  0.19422827  1
  Se  Se240  1  0.91889897  0.73785943  0.69684745  1
  Se  Se241  1  0.07918715  0.25323520  0.19191444  1
  Se  Se242  1  0.08393093  0.25255472  0.70206365  1
  Se  Se243  1  0.08330197  0.57822842  0.19537449  1
  Se  Se244  1  0.08469150  0.58474637  0.70138725  1
  Se  Se245  1  0.09542577  0.92636017  0.20143293  1
  Se  Se246  1  0.08778755  0.91350019  0.68519746  1
  Se  Se247  1  0.40584489  0.25737954  0.20097922  1
  Se  Se248  1  0.40747534  0.27180571  0.69948662  1
  Se  Se249  1  0.39791985  0.59175709  0.20289587  1
  Se  Se250  1  0.42139271  0.57823776  0.69363148  1
  Se  Se251  1  0.42487555  0.91516037  0.18485430  1
  Se  Se252  1  0.40823341  0.92213152  0.70406618  1
  Se  Se253  1  0.75205994  0.24622835  0.19273949  1
  Se  Se254  1  0.75468711  0.25390494  0.69887317  1
  Se  Se255  1  0.74952508  0.58203948  0.19615076  1
  Se  Se256  1  0.76068041  0.56477466  0.68567809  1
  Se  Se257  1  0.75899559  0.91294328  0.18129264  1
  Se  Se258  1  0.75305416  0.90160132  0.69968442  1
