# generated using pymatgen
data_In86Cu29Se144
_symmetry_space_group_name_H-M   'P 1'
_cell_length_a   17.56691860
_cell_length_b   17.56741478
_cell_length_c   23.41963834
_cell_angle_alpha   89.98291229
_cell_angle_beta   89.98751890
_cell_angle_gamma   90.00045323
_symmetry_Int_Tables_number   1
_chemical_formula_structural   In86Cu29Se144
_chemical_formula_sum   'In86 Cu29 Se144'
_cell_volume   7227.42509011
_cell_formula_units_Z   1
loop_
 _symmetry_equiv_pos_site_id
 _symmetry_equiv_pos_as_xyz
  1  'x, y, z'
loop_
 _atom_site_type_symbol
 _atom_site_label
 _atom_site_symmetry_multiplicity
 _atom_site_fract_x
 _atom_site_fract_y
 _atom_site_fract_z
 _atom_site_occupancy
  In  In0  1  0.00561617  0.15216678  0.12595078  1
  In  In1  1  -0.00864670  0.17303029  0.62510078  1
  In  In2  1  0.00188575  0.49748839  0.10998124  1
  In  In3  1  -0.00088172  0.50005165  0.62449808  1
  In  In4  1  0.01019357  0.84164629  0.12674124  1
  In  In5  1  -0.00825204  0.84684348  0.62803022  1
  In  In6  1  0.32247054  0.17260406  0.12219665  1
  In  In7  1  0.34345851  0.15568544  0.63963078  1
  In  In8  1  0.33328831  0.50200336  0.11649173  1
  In  In9  1  0.33542005  0.49651308  0.62863263  1
  In  In10  1  0.34046037  0.82356422  0.12817924  1
  In  In11  1  0.35015807  0.82171863  0.63344381  1
  In  In12  1  0.67793719  0.16603079  0.11980584  1
  In  In13  1  0.66549789  0.16816727  0.62936386  1
  In  In14  1  0.66410100  0.50807154  0.11317070  1
  In  In15  1  0.66900100  0.51082229  0.62991722  1
  In  In16  1  0.65474289  0.84026933  0.11981476  1
  In  In17  1  0.67101855  0.83276351  0.62480617  1
  In  In18  1  0.16748550  -0.00054277  0.36960712  1
  In  In19  1  0.17155116  0.01021759  0.86221200  1
  In  In20  1  0.17497731  0.34448343  0.37508432  1
  In  In21  1  0.16912912  0.32784681  0.87528364  1
  In  In22  1  0.17667469  0.65055573  0.37711416  1
  In  In23  1  0.16804399  0.64216895  0.86765227  1
  In  In24  1  0.49840600  -0.00175336  0.38590280  1
  In  In25  1  0.48831816  -0.01008967  0.86902640  1
  In  In26  1  0.49704064  0.32866950  0.38631805  1
  In  In27  1  0.51233823  0.34486323  0.86143421  1
  In  In28  1  0.49437913  0.67541761  0.39012585  1
  In  In29  1  0.49868930  0.66624704  0.86791012  1
  In  In30  1  0.83582834  -0.00397549  0.38527644  1
  In  In31  1  0.83937302  -0.00972387  0.85491175  1
  In  In32  1  0.82241555  0.34424810  0.39021923  1
  In  In33  1  0.83432154  0.35859346  0.86273354  1
  In  In34  1  0.82615207  0.67509792  0.39738271  1
  In  In35  1  0.80434010  0.65165595  0.84988498  1
  In  In36  1  0.00375411  0.15530475  0.37951125  1
  In  In37  1  0.02316144  0.16919168  0.86974424  1
  In  In38  1  0.00101226  0.50331138  0.38540255  1
  In  In39  1  0.00128676  0.48159267  0.89213931  1
  In  In40  1  -0.00806928  0.83909768  0.37882573  1
  In  In41  1  -0.01012431  0.84152875  0.87088808  1
  In  In42  1  0.34454025  0.15854960  0.38031980  1
  In  In43  1  0.31642314  0.16616167  0.85995211  1
  In  In44  1  0.32417737  0.50910662  0.38317047  1
  In  In45  1  0.33319522  0.50383459  0.86389661  1
  In  In46  1  0.33673793  0.83832648  0.37334378  1
  In  In47  1  0.34443210  0.83737711  0.86969530  1
  In  In48  1  0.66708945  0.16490466  0.39400175  1
  In  In49  1  0.66901341  0.16648671  0.86202431  1
  In  In50  1  0.65588127  0.51486655  0.39922884  1
  In  In51  1  0.66332560  0.50088931  0.86734822  1
  In  In52  1  0.65719399  0.83013274  0.39764076  1
  In  In53  1  0.65436402  0.81433054  0.85180643  1
  In  In54  1  0.16156263  0.00383160  0.12653077  1
  In  In55  1  0.16774858  0.00896957  0.64184185  1
  In  In56  1  0.17273525  0.33909278  0.10527262  1
  In  In57  1  0.16917433  0.34705171  0.63609174  1
  In  In58  1  0.17539860  0.66621736  0.12349654  1
  In  In59  1  0.18238928  0.65667977  0.63564756  1
  In  In60  1  0.49891879  -0.02003455  0.11926846  1
  In  In61  1  0.50135837  0.00051608  0.62687391  1
  In  In62  1  0.48460592  0.33798412  0.11961075  1
  In  In63  1  0.50161451  0.33731838  0.62760535  1
  In  In64  1  0.48765291  0.65781619  0.11384782  1
  In  In65  1  0.50863039  0.66654931  0.61987237  1
  In  In66  1  0.84631819  0.01314317  0.12270569  1
  In  In67  1  0.82673404  -0.00032901  0.62664882  1
  In  In68  1  0.82687173  0.34327294  0.12136797  1
  In  In69  1  0.83229495  0.33005884  0.62738573  1
  In  In70  1  0.84275122  0.66267548  0.12213846  1
  In  In71  1  0.81266907  0.65265671  0.61780064  1
  In  In72  1  0.00495287  0.33316479  0.25114795  1
  In  In73  1  0.82520856  0.82526856  -0.00875006  1
  In  In74  1  0.66686082  0.33674481  0.25490482  1
  In  In75  1  0.66651655  0.67065372  0.26539128  1
  In  In76  1  0.66510240  -0.00506668  0.25556968  1
  In  In77  1  0.49358515  0.17358635  -0.00343046  1
  In  In78  1  0.84081619  0.17311025  -0.00656752  1
  In  In79  1  0.16966218  0.17593864  0.50171963  1
  In  In80  1  0.00135630  0.32822931  0.75101156  1
  In  In81  1  0.00906678  0.67221891  0.25246465  1
  In  In82  1  -0.00306029  0.66643707  0.75072094  1
  In  In83  1  0.16790182  0.83153175  0.51166505  1
  In  In84  1  0.32834446  0.33298166  0.24539232  1
  In  In85  1  0.16916253  0.82670423  0.00213608  1
  Cu  Cu86  1  -0.01058006  0.65880909  -0.00809462  1
  Cu  Cu87  1  0.33601958  0.66152017  0.50835509  1
  Cu  Cu88  1  0.50092535  0.83512789  0.74375976  1
  Cu  Cu89  1  -0.00304806  0.33901801  0.50769668  1
  Cu  Cu90  1  0.00447780  0.00309162  -0.00584649  1
  Cu  Cu91  1  0.83625494  0.84770076  0.25653246  1
  Cu  Cu92  1  0.00145025  0.66864742  0.50685054  1
  Cu  Cu93  1  0.83349284  0.16050872  0.74615863  1
  Cu  Cu94  1  0.83571113  0.50948914  0.25517188  1
  Cu  Cu95  1  0.65990454  0.66524248  -0.01409343  1
  Cu  Cu96  1  0.17192323  0.83825620  0.24865482  1
  Cu  Cu97  1  0.33532083  0.33520840  0.50692182  1
  Cu  Cu98  1  0.66023769  -0.00938162  -0.01324768  1
  Cu  Cu99  1  0.16717896  0.16078536  0.24740118  1
  Cu  Cu100  1  0.66513331  0.34342006  -0.00890368  1
  Cu  Cu101  1  -0.00640624  0.00406898  0.50483016  1
  Cu  Cu102  1  0.50382109  0.50886191  0.74299399  1
  Cu  Cu103  1  0.50355159  0.15164674  0.25623013  1
  Cu  Cu104  1  0.49840450  0.16799539  0.74789420  1
  Cu  Cu105  1  0.49394884  0.82281657  0.24980680  1
  Cu  Cu106  1  0.17052531  0.83426841  0.75138847  1
  Cu  Cu107  1  0.33590597  0.66513336  -0.00743651  1
  Cu  Cu108  1  0.84555758  0.16396936  0.25696655  1
  Cu  Cu109  1  0.32724646  0.00332196  -0.01035517  1
  Cu  Cu110  1  0.66459344  0.33344178  0.51235905  1
  Cu  Cu111  1  0.48993714  0.50081239  0.24741181  1
  Cu  Cu112  1  0.66145450  0.00423187  0.51076540  1
  Cu  Cu113  1  0.33774884  0.33916783  -0.01188627  1
  Cu  Cu114  1  0.33875311  -0.00773732  0.50809726  1
  Se  Se115  1  0.08843138  0.08326595  0.04960215  1
  Se  Se116  1  0.08285666  0.07930414  0.56005690  1
  Se  Se117  1  0.08232512  0.41628300  0.04257727  1
  Se  Se118  1  0.08623151  0.41536136  0.55958219  1
  Se  Se119  1  0.06727577  0.73819140  0.05602239  1
  Se  Se120  1  0.08018082  0.74130606  0.57200294  1
  Se  Se121  1  0.41011801  0.07667291  0.05712021  1
  Se  Se122  1  0.41539989  0.08493190  0.55846459  1
  Se  Se123  1  0.41760246  0.42163281  0.04542986  1
  Se  Se124  1  0.42053857  0.42022485  0.55640304  1
  Se  Se125  1  0.41387640  0.75276481  0.04816010  1
  Se  Se126  1  0.42066391  0.75204393  0.55232233  1
  Se  Se127  1  0.74538244  0.06990492  0.04679415  1
  Se  Se128  1  0.74952035  0.08859353  0.55775105  1
  Se  Se129  1  0.74951436  0.42239155  0.04906870  1
  Se  Se130  1  0.74925919  0.41753560  0.56277679  1
  Se  Se131  1  0.73653745  0.73794684  0.05783941  1
  Se  Se132  1  0.74493775  0.74826165  0.55133772  1
  Se  Se133  1  0.25823083  0.25120653  0.04275394  1
  Se  Se134  1  0.25724005  0.25502467  0.56887238  1
  Se  Se135  1  0.24957366  0.58667090  0.04867267  1
  Se  Se136  1  0.24908478  0.57761020  0.55702632  1
  Se  Se137  1  0.25711369  0.92207242  0.05885114  1
  Se  Se138  1  0.25546864  0.92231717  0.57186192  1
  Se  Se139  1  0.59276823  0.26067948  0.05691032  1
  Se  Se140  1  0.57873074  0.24689948  0.55934469  1
  Se  Se141  1  0.57779045  0.58403888  0.04502540  1
  Se  Se142  1  0.58692417  0.57918478  0.55257564  1
  Se  Se143  1  0.57723676  0.90925193  0.04150859  1
  Se  Se144  1  0.57958935  0.91368524  0.55768088  1
  Se  Se145  1  0.92421016  0.25324893  0.06561727  1
  Se  Se146  1  0.91256964  0.25077531  0.55288599  1
  Se  Se147  1  0.90707421  0.57690135  0.04767922  1
  Se  Se148  1  0.91733151  0.58240149  0.55640010  1
  Se  Se149  1  0.92194418  0.91834438  0.05126481  1
  Se  Se150  1  0.90931304  0.91813180  0.55337119  1
  Se  Se151  1  0.07550074  0.26382342  0.44082469  1
  Se  Se152  1  0.07966041  0.25543743  0.94592893  1
  Se  Se153  1  0.08540943  0.58897495  0.45061946  1
  Se  Se154  1  0.08461694  0.58104539  0.94652602  1
  Se  Se155  1  0.08180303  0.92585675  0.44826526  1
  Se  Se156  1  0.08451150  0.91773117  0.93875243  1
  Se  Se157  1  0.41244138  0.24559032  0.45314666  1
  Se  Se158  1  0.41300658  0.25603815  0.92675663  1
  Se  Se159  1  0.41717011  0.57834781  0.45131343  1
  Se  Se160  1  0.41692033  0.58274474  0.93707337  1
  Se  Se161  1  0.41709402  0.90844738  0.45085212  1
  Se  Se162  1  0.41533831  0.91550770  0.94821707  1
  Se  Se163  1  0.75065721  0.25142380  0.45752315  1
  Se  Se164  1  0.74317563  0.25667639  0.93534095  1
  Se  Se165  1  0.76756885  0.56811017  0.45656338  1
  Se  Se166  1  0.74828076  0.58268978  0.93826378  1
  Se  Se167  1  0.74404769  0.92279421  0.45284980  1
  Se  Se168  1  0.74420193  0.91598359  0.92685955  1
  Se  Se169  1  0.25417005  0.07058724  0.44832777  1
  Se  Se170  1  0.24549481  0.08765378  0.93923956  1
  Se  Se171  1  0.24988825  0.41642126  0.45201624  1
  Se  Se172  1  0.25266746  0.42129826  0.93601142  1
  Se  Se173  1  0.25567213  0.74475666  0.44726477  1
  Se  Se174  1  0.25225186  0.74368063  0.93332011  1
  Se  Se175  1  0.57489470  0.08481216  0.45516532  1
  Se  Se176  1  0.58372290  0.08373132  0.93570180  1
  Se  Se177  1  0.57992659  0.41160379  0.45365390  1
  Se  Se178  1  0.57797280  0.42446277  0.94109453  1
  Se  Se179  1  0.60456482  0.71947661  0.45653033  1
  Se  Se180  1  0.58059744  0.75452610  0.93659876  1
  Se  Se181  1  0.91306070  0.08930267  0.45052945  1
  Se  Se182  1  0.91887612  0.07395428  0.93244368  1
  Se  Se183  1  0.91546090  0.42323017  0.45256863  1
  Se  Se184  1  0.90872549  0.39984905  0.95146477  1
  Se  Se185  1  0.92275405  0.75797369  0.45456500  1
  Se  Se186  1  0.91356508  0.73702973  0.92980072  1
  Se  Se187  1  0.24561734  0.23863657  0.31134803  1
  Se  Se188  1  0.25031613  0.26468789  0.79550272  1
  Se  Se189  1  0.25134588  0.57566943  0.30214804  1
  Se  Se190  1  0.26137868  0.59406080  0.79258891  1
  Se  Se191  1  0.25496116  0.92030102  0.30379735  1
  Se  Se192  1  0.25557243  0.91778835  0.80355191  1
  Se  Se193  1  0.58002358  0.23851208  0.31302323  1
  Se  Se194  1  0.58696164  0.25171725  0.79613480  1
  Se  Se195  1  0.57175609  0.57381382  0.31379602  1
  Se  Se196  1  0.58765503  0.59147880  0.79794554  1
  Se  Se197  1  0.57724126  0.89953281  0.31348417  1
  Se  Se198  1  0.58117479  0.92234157  0.79903618  1
  Se  Se199  1  0.91171975  0.25370128  0.31789111  1
  Se  Se200  1  0.90770083  0.24006418  0.81239121  1
  Se  Se201  1  0.91222314  0.59158509  0.31590725  1
  Se  Se202  1  0.92093033  0.56954824  0.81546901  1
  Se  Se203  1  0.92140949  0.92962247  0.30818821  1
  Se  Se204  1  0.91623989  0.90147368  0.78811423  1
  Se  Se205  1  0.08235294  0.08319634  0.30352184  1
  Se  Se206  1  0.06307208  0.06465160  0.79988187  1
  Se  Se207  1  0.08923536  0.43075869  0.30786688  1
  Se  Se208  1  0.08579092  0.42412947  0.80958937  1
  Se  Se209  1  0.09636826  0.76162772  0.31718491  1
  Se  Se210  1  0.09085336  0.75457126  0.81259802  1
  Se  Se211  1  0.41762400  0.07132668  0.30874556  1
  Se  Se212  1  0.41625395  0.08602155  0.80395795  1
  Se  Se213  1  0.41948749  0.41533179  0.31116381  1
  Se  Se214  1  0.42222063  0.42355064  0.79640774  1
  Se  Se215  1  0.41541190  0.74282981  0.31074961  1
  Se  Se216  1  0.41763553  0.75126582  0.79834362  1
  Se  Se217  1  0.75150287  0.09186635  0.31351809  1
  Se  Se218  1  0.74714372  0.07627339  0.79651865  1
  Se  Se219  1  0.74908898  0.43404036  0.31499605  1
  Se  Se220  1  0.73175343  0.40910018  0.79634641  1
  Se  Se221  1  0.75960885  0.76665387  0.31823111  1
  Se  Se222  1  0.77210549  0.77283535  0.79420685  1
  Se  Se223  1  0.25379645  0.08231212  0.19263138  1
  Se  Se224  1  0.25022365  0.08877101  0.70891145  1
  Se  Se225  1  0.23911242  0.42221275  0.18677115  1
  Se  Se226  1  0.25842129  0.41772715  0.70426124  1
  Se  Se227  1  0.24910794  0.74950207  0.19616643  1
  Se  Se228  1  0.25465348  0.75094783  0.70026427  1
  Se  Se229  1  0.58220642  0.08420001  0.18620683  1
  Se  Se230  1  0.58261672  0.08311113  0.69690527  1
  Se  Se231  1  0.57519991  0.42207072  0.18898495  1
  Se  Se232  1  0.58670919  0.41991029  0.69471313  1
  Se  Se233  1  0.57932285  0.74683492  0.19031773  1
  Se  Se234  1  0.58490527  0.75020227  0.69372924  1
  Se  Se235  1  0.92479520  0.07936248  0.20211918  1
  Se  Se236  1  0.91915606  0.08136093  0.69196016  1
  Se  Se237  1  0.91158475  0.42802407  0.19388862  1
  Se  Se238  1  0.91069195  0.42316225  0.69653608  1
  Se  Se239  1  0.91024974  0.76206327  0.19399502  1
  Se  Se240  1  0.91044224  0.74372323  0.68192798  1
  Se  Se241  1  0.09534144  0.24810623  0.18680019  1
  Se  Se242  1  0.09301240  0.23799845  0.69283332  1
  Se  Se243  1  0.08405461  0.57690044  0.18713779  1
  Se  Se244  1  0.09069528  0.57061405  0.69808487  1
  Se  Se245  1  0.08395535  0.92136808  0.20012290  1
  Se  Se246  1  0.08374994  0.91336850  0.69864670  1
  Se  Se247  1  0.42795858  0.23752887  0.19417753  1
  Se  Se248  1  0.41697668  0.25735877  0.69872381  1
  Se  Se249  1  0.41082532  0.58340247  0.19095510  1
  Se  Se250  1  0.41916876  0.59070964  0.68916295  1
  Se  Se251  1  0.41778198  0.91361839  0.19678727  1
  Se  Se252  1  0.41436391  0.92327194  0.69778101  1
  Se  Se253  1  0.76259187  0.24340090  0.19645156  1
  Se  Se254  1  0.75147889  0.24923864  0.69802721  1
  Se  Se255  1  0.75127319  0.58364157  0.19338628  1
  Se  Se256  1  0.75226590  0.58546658  0.70432072  1
  Se  Se257  1  0.75763851  0.91483812  0.18623146  1
  Se  Se258  1  0.74140674  0.92297072  0.69580459  1
