# generated using pymatgen
data_In86Cu29Se144
_symmetry_space_group_name_H-M   'P 1'
_cell_length_a   17.57298680
_cell_length_b   17.57198883
_cell_length_c   23.43495335
_cell_angle_alpha   89.97927372
_cell_angle_beta   89.99743576
_cell_angle_gamma   90.00657379
_symmetry_Int_Tables_number   1
_chemical_formula_structural   In86Cu29Se144
_chemical_formula_sum   'In86 Cu29 Se144'
_cell_volume   7236.53326483
_cell_formula_units_Z   1
loop_
 _symmetry_equiv_pos_site_id
 _symmetry_equiv_pos_as_xyz
  1  'x, y, z'
loop_
 _atom_site_type_symbol
 _atom_site_label
 _atom_site_symmetry_multiplicity
 _atom_site_fract_x
 _atom_site_fract_y
 _atom_site_fract_z
 _atom_site_occupancy
  In  In0  1  0.00164773  0.16335865  0.13141065  1
  In  In1  1  0.00311452  0.16052449  0.61012310  1
  In  In2  1  0.01470448  0.51022386  0.11772299  1
  In  In3  1  -0.00883740  0.51490347  0.62979378  1
  In  In4  1  -0.00386330  0.82101763  0.12561462  1
  In  In5  1  -0.00410955  0.81550891  0.62715143  1
  In  In6  1  0.35051396  0.15124818  0.13438494  1
  In  In7  1  0.32245760  0.14558463  0.61433015  1
  In  In8  1  0.33604657  0.50121666  0.12088523  1
  In  In9  1  0.34053701  0.50484542  0.63215355  1
  In  In10  1  0.34392301  0.84404333  0.11680793  1
  In  In11  1  0.33922893  0.83293762  0.62398458  1
  In  In12  1  0.66283888  0.17180898  0.13178872  1
  In  In13  1  0.63517131  0.12390198  0.58644994  1
  In  In14  1  0.65698923  0.49052502  0.11241024  1
  In  In15  1  0.67716976  0.50168409  0.62518922  1
  In  In16  1  0.66024064  0.84085843  0.12305034  1
  In  In17  1  0.65737002  0.85046220  0.64480914  1
  In  In18  1  0.17434034  -0.01157510  0.38450319  1
  In  In19  1  0.16063721  -0.01356045  0.87216504  1
  In  In20  1  0.17036663  0.32242085  0.37441303  1
  In  In21  1  0.18095686  0.33650418  0.87585090  1
  In  In22  1  0.16421605  0.68776211  0.37754947  1
  In  In23  1  0.17013583  0.66779984  0.87223943  1
  In  In24  1  0.50283342  0.00505804  0.37505374  1
  In  In25  1  0.49872170  0.00431871  0.87465393  1
  In  In26  1  0.48843018  0.32383537  0.36431372  1
  In  In27  1  0.50363961  0.32857425  0.88391895  1
  In  In28  1  0.50164061  0.67198416  0.38104498  1
  In  In29  1  0.49631026  0.67708684  0.87817922  1
  In  In30  1  0.82262021  0.01425676  0.38434415  1
  In  In31  1  0.81715401  -0.00486874  0.86424220  1
  In  In32  1  0.83165940  0.33520982  0.37456479  1
  In  In33  1  0.83944689  0.34387268  0.87404930  1
  In  In34  1  0.82940991  0.65138640  0.37595689  1
  In  In35  1  0.81728480  0.66224762  0.85644176  1
  In  In36  1  0.00968694  0.15091805  0.39498042  1
  In  In37  1  -0.01080392  0.15837870  0.87041666  1
  In  In38  1  -0.01365403  0.49828099  0.37280373  1
  In  In39  1  -0.01179037  0.51542814  0.88292969  1
  In  In40  1  0.01344163  0.83718790  0.37763921  1
  In  In41  1  0.01885049  0.82845511  0.87658089  1
  In  In42  1  0.33783465  0.16390563  0.37483730  1
  In  In43  1  0.34630429  0.17107315  0.87006821  1
  In  In44  1  0.34525554  0.49775237  0.37160685  1
  In  In45  1  0.32368129  0.50807423  0.88275852  1
  In  In46  1  0.31858570  0.84046096  0.38636132  1
  In  In47  1  0.33286766  0.83570000  0.87331510  1
  In  In48  1  0.65921090  0.16416030  0.37392286  1
  In  In49  1  0.65565582  0.15526267  0.86909062  1
  In  In50  1  0.68140250  0.49930312  0.37393128  1
  In  In51  1  0.64518416  0.53525287  0.90509862  1
  In  In52  1  0.64757271  0.83817978  0.38120252  1
  In  In53  1  0.65378236  0.82643906  0.87137736  1
  In  In54  1  0.18016833  0.00483467  0.12343962  1
  In  In55  1  0.17911908  0.00967085  0.61788747  1
  In  In56  1  0.17494677  0.35126149  0.12445959  1
  In  In57  1  0.17327233  0.32013692  0.62055927  1
  In  In58  1  0.16443502  0.66417147  0.11946143  1
  In  In59  1  0.16492072  0.67291323  0.62814465  1
  In  In60  1  0.50167823  -0.00145176  0.12255244  1
  In  In61  1  0.49636777  -0.01122904  0.62411683  1
  In  In62  1  0.50296138  0.33096043  0.12590855  1
  In  In63  1  0.51580853  0.32772902  0.62241726  1
  In  In64  1  0.50682802  0.66904041  0.10700711  1
  In  In65  1  0.48547393  0.68795777  0.64132576  1
  In  In66  1  0.81683389  -0.00805127  0.12689461  1
  In  In67  1  0.81336796  -0.00831097  0.62041782  1
  In  In68  1  0.82299980  0.33005912  0.12770747  1
  In  In69  1  0.82672368  0.32622901  0.61542098  1
  In  In70  1  0.84787284  0.67153885  0.12513693  1
  In  In71  1  0.83723794  0.66821965  0.63521605  1
  In  In72  1  0.66922697  0.66513123  0.24534424  1
  In  In73  1  0.00430714  -0.00495981  0.74272207  1
  In  In74  1  0.33817230  0.33166734  0.75149164  1
  In  In75  1  0.82498393  0.16892309  0.00829220  1
  In  In76  1  0.50283991  0.50211153  0.49882485  1
  In  In77  1  0.67591106  0.33634916  0.74686862  1
  In  In78  1  -0.00004126  -0.00235221  0.26360708  1
  In  In79  1  0.82198377  0.82581366  -0.01144526  1
  In  In80  1  0.16389607  0.50144370  0.50985256  1
  In  In81  1  0.33167260  0.66783927  0.24604973  1
  In  In82  1  0.00316477  0.33494529  0.74158384  1
  In  In83  1  0.17212418  0.16975020  -0.00093383  1
  In  In84  1  -0.00011800  0.33049900  0.25435982  1
  In  In85  1  0.83283775  0.83104996  0.50678201  1
  Cu  Cu86  1  0.49531831  0.83772299  0.75519304  1
  Cu  Cu87  1  0.33583013  -0.00315557  -0.00179953  1
  Cu  Cu88  1  0.33913881  0.33430560  0.00413292  1
  Cu  Cu89  1  0.66993312  0.33038180  0.49415042  1
  Cu  Cu90  1  0.50730841  0.49399089  0.24469473  1
  Cu  Cu91  1  0.49175337  0.84160037  0.25070183  1
  Cu  Cu92  1  0.34126329  -0.00197507  0.49857197  1
  Cu  Cu93  1  -0.00363770  0.33739928  0.49514881  1
  Cu  Cu94  1  0.66503356  0.66850628  0.50499965  1
  Cu  Cu95  1  0.00606904  0.33903769  -0.00242844  1
  Cu  Cu96  1  0.16307915  0.50261792  0.75581862  1
  Cu  Cu97  1  -0.00657195  -0.00740738  -0.00316561  1
  Cu  Cu98  1  0.18227163  0.16872994  0.25266723  1
  Cu  Cu99  1  0.83596078  0.49852844  0.24864391  1
  Cu  Cu100  1  -0.00503902  0.66042666  0.50471213  1
  Cu  Cu101  1  0.16854994  0.50740493  0.24386868  1
  Cu  Cu102  1  0.50128173  0.16489236  0.24991188  1
  Cu  Cu103  1  0.50419375  0.51157374  0.76124914  1
  Cu  Cu104  1  0.49865461  0.15800350  0.74075212  1
  Cu  Cu105  1  0.16692790  0.83982018  0.25222533  1
  Cu  Cu106  1  0.33636959  0.32726473  0.49646856  1
  Cu  Cu107  1  0.82616150  0.50703287  0.75606288  1
  Cu  Cu108  1  0.82954956  0.16432439  0.25752370  1
  Cu  Cu109  1  0.00603518  0.66606867  -0.00141489  1
  Cu  Cu110  1  0.66980418  0.33056099  0.00197681  1
  Cu  Cu111  1  0.82298392  0.16345267  0.73975370  1
  Cu  Cu112  1  0.82707214  0.83229528  0.24980771  1
  Cu  Cu113  1  0.17734846  0.83056697  0.74841381  1
  Cu  Cu114  1  0.32961291  0.67041859  -0.00425612  1
  Se  Se115  1  0.07321307  0.07772173  0.05505723  1
  Se  Se116  1  0.09061641  0.08037862  0.54669991  1
  Se  Se117  1  0.09138916  0.42021086  0.05003965  1
  Se  Se118  1  0.06985044  0.40926108  0.56622555  1
  Se  Se119  1  0.08397787  0.75368059  0.05288851  1
  Se  Se120  1  0.08137566  0.74463738  0.55306630  1
  Se  Se121  1  0.41759447  0.08220313  0.05171798  1
  Se  Se122  1  0.42523712  0.08104638  0.55180176  1
  Se  Se123  1  0.42354778  0.41821829  0.05630211  1
  Se  Se124  1  0.41165231  0.40843595  0.55970889  1
  Se  Se125  1  0.41503360  0.75303209  0.04784542  1
  Se  Se126  1  0.42811811  0.75529978  0.55558523  1
  Se  Se127  1  0.73263301  0.07280421  0.05700403  1
  Se  Se128  1  0.77004241  0.09569413  0.55015058  1
  Se  Se129  1  0.75690975  0.41329658  0.05184692  1
  Se  Se130  1  0.74588698  0.41654022  0.55075220  1
  Se  Se131  1  0.74417414  0.74235072  0.06197854  1
  Se  Se132  1  0.74023505  0.74803703  0.56915409  1
  Se  Se133  1  0.26019409  0.25195304  0.06555729  1
  Se  Se134  1  0.25119963  0.24326045  0.54783882  1
  Se  Se135  1  0.25242437  0.58455916  0.05359610  1
  Se  Se136  1  0.26165430  0.58987124  0.56082690  1
  Se  Se137  1  0.24756281  0.91765132  0.05071060  1
  Se  Se138  1  0.25705554  0.91644709  0.55366620  1
  Se  Se139  1  0.58625303  0.24799165  0.05585691  1
  Se  Se140  1  0.58032343  0.24992207  0.54327442  1
  Se  Se141  1  0.59005284  0.58363977  0.04392629  1
  Se  Se142  1  0.58233540  0.58998917  0.56647494  1
  Se  Se143  1  0.56811380  0.90336513  0.05313546  1
  Se  Se144  1  0.59808692  0.92095875  0.56048992  1
  Se  Se145  1  0.93040121  0.25648270  0.05984204  1
  Se  Se146  1  0.91726715  0.25028035  0.54935275  1
  Se  Se147  1  0.92051329  0.58561615  0.05313530  1
  Se  Se148  1  0.90521487  0.58389478  0.55648875  1
  Se  Se149  1  0.91205713  0.91574498  0.05813601  1
  Se  Se150  1  0.92527824  0.92041462  0.56428140  1
  Se  Se151  1  0.08707685  0.25465829  0.44932215  1
  Se  Se152  1  0.07474627  0.25258082  0.93554680  1
  Se  Se153  1  0.07645458  0.58454137  0.44080602  1
  Se  Se154  1  0.09075206  0.58286647  0.94444317  1
  Se  Se155  1  0.07743523  0.92231315  0.45109709  1
  Se  Se156  1  0.08706614  0.91439519  0.95145889  1
  Se  Se157  1  0.42261738  0.24665929  0.44444799  1
  Se  Se158  1  0.41561141  0.24701565  0.94922982  1
  Se  Se159  1  0.40441330  0.59289748  0.44572310  1
  Se  Se160  1  0.41619557  0.58603706  0.94575985  1
  Se  Se161  1  0.42205972  0.91510939  0.44249998  1
  Se  Se162  1  0.41852138  0.91543914  0.94245766  1
  Se  Se163  1  0.75066583  0.24691254  0.43906382  1
  Se  Se164  1  0.74582579  0.25365309  0.93515854  1
  Se  Se165  1  0.74590120  0.58295137  0.45180404  1
  Se  Se166  1  0.77196166  0.58526796  0.94363067  1
  Se  Se167  1  0.73997339  0.91908887  0.44753867  1
  Se  Se168  1  0.73337702  0.92787851  0.94171141  1
  Se  Se169  1  0.25599559  0.08212304  0.44530854  1
  Se  Se170  1  0.25540355  0.07781236  0.93649374  1
  Se  Se171  1  0.25568099  0.41564310  0.44326032  1
  Se  Se172  1  0.25165234  0.41488735  0.95185067  1
  Se  Se173  1  0.24607527  0.74942271  0.45388439  1
  Se  Se174  1  0.24684135  0.75443891  0.94248009  1
  Se  Se175  1  0.58507071  0.08216890  0.44787737  1
  Se  Se176  1  0.56867919  0.09796924  0.94431924  1
  Se  Se177  1  0.58620546  0.41106771  0.43444858  1
  Se  Se178  1  0.58425498  0.41454218  0.95074453  1
  Se  Se179  1  0.57895372  0.75057245  0.45424240  1
  Se  Se180  1  0.58923934  0.74539958  0.94827195  1
  Se  Se181  1  0.91669711  0.07369079  0.45486696  1
  Se  Se182  1  0.90932639  0.07407709  0.94244291  1
  Se  Se183  1  0.90994855  0.42036902  0.44611745  1
  Se  Se184  1  0.91617961  0.41948770  0.94890600  1
  Se  Se185  1  0.91910908  0.74190156  0.44006414  1
  Se  Se186  1  0.92357654  0.74123191  0.93615813  1
  Se  Se187  1  0.26177062  0.25591114  0.30443867  1
  Se  Se188  1  0.24106957  0.23977210  0.80348784  1
  Se  Se189  1  0.24263109  0.58284184  0.31268672  1
  Se  Se190  1  0.25408701  0.58326286  0.80332266  1
  Se  Se191  1  0.25264930  0.91879386  0.30589747  1
  Se  Se192  1  0.25237581  0.92044717  0.80180986  1
  Se  Se193  1  0.58527782  0.25080654  0.30110999  1
  Se  Se194  1  0.57224307  0.24818550  0.79993511  1
  Se  Se195  1  0.57748097  0.57760506  0.30972171  1
  Se  Se196  1  0.58872744  0.59312774  0.81293077  1
  Se  Se197  1  0.58220780  0.91843648  0.30311318  1
  Se  Se198  1  0.58140420  0.92189781  0.80498268  1
  Se  Se199  1  0.92127570  0.23320218  0.31592414  1
  Se  Se200  1  0.90348654  0.24357221  0.80007673  1
  Se  Se201  1  0.91629348  0.58578912  0.30009729  1
  Se  Se202  1  0.92208352  0.58654189  0.79998780  1
  Se  Se203  1  0.90252466  0.90910387  0.31738718  1
  Se  Se204  1  0.92204639  0.91226497  0.81292536  1
  Se  Se205  1  0.09704193  0.09146736  0.31223832  1
  Se  Se206  1  0.08876735  0.08955754  0.80603237  1
  Se  Se207  1  0.09325137  0.42589403  0.30940216  1
  Se  Se208  1  0.08372797  0.41988389  0.81326638  1
  Se  Se209  1  0.08131446  0.75413732  0.30062478  1
  Se  Se210  1  0.08925635  0.74902095  0.79966670  1
  Se  Se211  1  0.41730581  0.08165264  0.30352107  1
  Se  Se212  1  0.41554224  0.08175638  0.79954931  1
  Se  Se213  1  0.41588219  0.41770809  0.29647366  1
  Se  Se214  1  0.42437543  0.42236271  0.81461258  1
  Se  Se215  1  0.41717893  0.75623148  0.31085156  1
  Se  Se216  1  0.41209877  0.74927736  0.80386070  1
  Se  Se217  1  0.74346639  0.07860038  0.30469083  1
  Se  Se218  1  0.74090614  0.08316909  0.79616157  1
  Se  Se219  1  0.75273764  0.41465367  0.30032179  1
  Se  Se220  1  0.74444440  0.43007417  0.81653064  1
  Se  Se221  1  0.74860833  0.75402222  0.31466576  1
  Se  Se222  1  0.75935183  0.77523073  0.80313907  1
  Se  Se223  1  0.25582080  0.07717230  0.20029664  1
  Se  Se224  1  0.25452476  0.07983465  0.69686122  1
  Se  Se225  1  0.25750355  0.42425471  0.19764570  1
  Se  Se226  1  0.23936515  0.42044365  0.69278472  1
  Se  Se227  1  0.24496705  0.76197526  0.18749926  1
  Se  Se228  1  0.25862247  0.74591296  0.69400720  1
  Se  Se229  1  0.58204336  0.08049467  0.19457482  1
  Se  Se230  1  0.58566877  0.08054085  0.68591742  1
  Se  Se231  1  0.59268251  0.41260324  0.19315432  1
  Se  Se232  1  0.57448937  0.42932119  0.69500421  1
  Se  Se233  1  0.56868399  0.75281635  0.19311081  1
  Se  Se234  1  0.58489689  0.75184404  0.70746305  1
  Se  Se235  1  0.90715247  0.08231342  0.19515693  1
  Se  Se236  1  0.91309330  0.08753050  0.68551301  1
  Se  Se237  1  0.91936398  0.42049627  0.18740953  1
  Se  Se238  1  0.89930656  0.42187586  0.69267533  1
  Se  Se239  1  0.91704185  0.75094320  0.20322126  1
  Se  Se240  1  0.92326297  0.74429514  0.70466988  1
  Se  Se241  1  0.09808439  0.24575715  0.19270142  1
  Se  Se242  1  0.08937797  0.23556482  0.68992726  1
  Se  Se243  1  0.08263195  0.59132189  0.19557094  1
  Se  Se244  1  0.08526471  0.58396309  0.69608158  1
  Se  Se245  1  0.08419635  0.91773688  0.18987054  1
  Se  Se246  1  0.09674489  0.90661506  0.68421582  1
  Se  Se247  1  0.41871016  0.25182658  0.19715076  1
  Se  Se248  1  0.42053982  0.24432321  0.68326218  1
  Se  Se249  1  0.43195585  0.58442824  0.18829792  1
  Se  Se250  1  0.41614597  0.58566903  0.70412809  1
  Se  Se251  1  0.41144393  0.92383949  0.19462813  1
  Se  Se252  1  0.41215232  0.91840415  0.69856119  1
  Se  Se253  1  0.75118864  0.24900322  0.20161201  1
  Se  Se254  1  0.74035599  0.23830366  0.67911989  1
  Se  Se255  1  0.75630286  0.57488827  0.18453302  1
  Se  Se256  1  0.74342678  0.58792769  0.69973571  1
  Se  Se257  1  0.74011658  0.91317075  0.20014429  1
  Se  Se258  1  0.76870925  0.90823618  0.70387271  1
