# generated using pymatgen
data_In86Cu29Se144
_symmetry_space_group_name_H-M   'P 1'
_cell_length_a   17.58310228
_cell_length_b   17.57783111
_cell_length_c   23.44228412
_cell_angle_alpha   90.00113900
_cell_angle_beta   90.00115106
_cell_angle_gamma   90.00770310
_symmetry_Int_Tables_number   1
_chemical_formula_structural   In86Cu29Se144
_chemical_formula_sum   'In86 Cu29 Se144'
_cell_volume   7245.37237181
_cell_formula_units_Z   1
loop_
 _symmetry_equiv_pos_site_id
 _symmetry_equiv_pos_as_xyz
  1  'x, y, z'
loop_
 _atom_site_type_symbol
 _atom_site_label
 _atom_site_symmetry_multiplicity
 _atom_site_fract_x
 _atom_site_fract_y
 _atom_site_fract_z
 _atom_site_occupancy
  In  In0  1  -0.00177752  0.17252034  0.10739186  1
  In  In1  1  0.00188156  0.18198455  0.62744731  1
  In  In2  1  0.01594342  0.51251267  0.13229846  1
  In  In3  1  0.00120856  0.49944289  0.62412276  1
  In  In4  1  -0.00451715  0.82736514  0.11812939  1
  In  In5  1  -0.00919341  0.82122277  0.62003173  1
  In  In6  1  0.32087840  0.17477264  0.12604517  1
  In  In7  1  0.33762258  0.16380637  0.63481377  1
  In  In8  1  0.32126377  0.48907111  0.13095097  1
  In  In9  1  0.33262878  0.50087813  0.61868260  1
  In  In10  1  0.33837651  0.84527082  0.12652585  1
  In  In11  1  0.32092145  0.84583206  0.62774927  1
  In  In12  1  0.67964349  0.16745630  0.12636603  1
  In  In13  1  0.66750266  0.15631162  0.62790531  1
  In  In14  1  0.65898417  0.50480825  0.14295586  1
  In  In15  1  0.67700698  0.51167245  0.61479561  1
  In  In16  1  0.67046740  0.82225302  0.12681706  1
  In  In17  1  0.67034693  0.81788569  0.63576214  1
  In  In18  1  0.17495705  -0.01184849  0.37963745  1
  In  In19  1  0.17303891  -0.00623443  0.88077604  1
  In  In20  1  0.18331346  0.33816942  0.37108442  1
  In  In21  1  0.16469953  0.32804949  0.87347868  1
  In  In22  1  0.15881506  0.67122031  0.38109393  1
  In  In23  1  0.16902517  0.66827294  0.86469019  1
  In  In24  1  0.49541261  0.00575800  0.37349638  1
  In  In25  1  0.48901153  -0.02070607  0.85442631  1
  In  In26  1  0.51279579  0.35414657  0.35576253  1
  In  In27  1  0.49224033  0.34561930  0.87560517  1
  In  In28  1  0.50054830  0.64622196  0.37355901  1
  In  In29  1  0.50221543  0.67834056  0.85670909  1
  In  In30  1  0.83264000  -0.00228217  0.38780732  1
  In  In31  1  0.82837320  0.00339204  0.87511572  1
  In  In32  1  0.82580537  0.34369726  0.38461957  1
  In  In33  1  0.83548038  0.32040156  0.87854232  1
  In  In34  1  0.83307862  0.66685654  0.37675842  1
  In  In35  1  0.84714394  0.67388527  0.86585525  1
  In  In36  1  -0.00266858  0.15667416  0.37725792  1
  In  In37  1  -0.00209480  0.18119678  0.88520299  1
  In  In38  1  -0.00901743  0.50918565  0.38333012  1
  In  In39  1  0.00119946  0.49768897  0.86422042  1
  In  In40  1  0.00817928  0.82168819  0.38376469  1
  In  In41  1  0.01014158  0.82588060  0.87826155  1
  In  In42  1  0.33451855  0.17347253  0.36754561  1
  In  In43  1  0.32851493  0.16489855  0.87404543  1
  In  In44  1  0.34072523  0.49339983  0.38415868  1
  In  In45  1  0.32776399  0.50193374  0.86347191  1
  In  In46  1  0.32729496  0.83096928  0.37814910  1
  In  In47  1  0.32197486  0.82292195  0.86340259  1
  In  In48  1  0.66226530  0.17706989  0.37635087  1
  In  In49  1  0.67923881  0.16070695  0.87697484  1
  In  In50  1  0.66690895  0.50510967  0.37324663  1
  In  In51  1  0.65522885  0.50500957  0.87252241  1
  In  In52  1  0.68215404  0.83551153  0.37693756  1
  In  In53  1  0.67442146  0.84187380  0.86598519  1
  In  In54  1  0.17139992  0.00647844  0.11703045  1
  In  In55  1  0.18417423  -0.00647531  0.62501178  1
  In  In56  1  0.16869371  0.33086827  0.11874041  1
  In  In57  1  0.16056334  0.33795673  0.63046192  1
  In  In58  1  0.15371330  0.65862255  0.12694185  1
  In  In59  1  0.16351425  0.66547880  0.62166038  1
  In  In60  1  0.48491666  -0.01275724  0.12858017  1
  In  In61  1  0.49527756  -0.00362747  0.63807017  1
  In  In62  1  0.49423710  0.34222468  0.13660168  1
  In  In63  1  0.48783441  0.33698089  0.62662661  1
  In  In64  1  0.50354194  0.67792147  0.13383264  1
  In  In65  1  0.50906766  0.66365934  0.62772654  1
  In  In66  1  0.83881532  0.00473528  0.11452971  1
  In  In67  1  0.82700172  -0.01108743  0.61994436  1
  In  In68  1  0.83635060  0.32113450  0.12750060  1
  In  In69  1  0.84052536  0.34511455  0.61658804  1
  In  In70  1  0.82776247  0.67242851  0.13067537  1
  In  In71  1  0.83342634  0.66465455  0.62585184  1
  In  In72  1  0.50310205  0.83387945  0.00140113  1
  In  In73  1  0.83433651  0.49649620  -0.00037618  1
  In  In74  1  0.00079041  -0.00179552  0.24712270  1
  In  In75  1  0.49817879  0.16934862  0.50647035  1
  In  In76  1  0.33522547  0.66359875  0.25492252  1
  In  In77  1  0.49972686  0.82879072  0.50168638  1
  In  In78  1  0.66872548  0.33374409  0.75453217  1
  In  In79  1  0.16352666  0.49352535  0.00267018  1
  In  In80  1  0.49265533  0.50789699  0.01074799  1
  In  In81  1  0.50623448  0.16311695  -0.00895054  1
  In  In82  1  0.00199193  0.00288949  0.75586654  1
  In  In83  1  0.66271842  -0.00315707  0.24734570  1
  In  In84  1  0.00189072  0.33822777  0.24795851  1
  In  In85  1  0.16443316  0.16826321  0.50072826  1
  Cu  Cu86  1  0.49900838  0.50117706  0.74562376  1
  Cu  Cu87  1  -0.00434673  0.66473429  0.50322105  1
  Cu  Cu88  1  0.33707350  0.33417331  0.49836429  1
  Cu  Cu89  1  0.67059931  -0.00382013  0.50770709  1
  Cu  Cu90  1  0.66722410  0.33209373  0.00774141  1
  Cu  Cu91  1  0.32774077  0.66682893  0.49908035  1
  Cu  Cu92  1  0.66714097  0.33510177  0.49347650  1
  Cu  Cu93  1  0.84116088  0.82722759  0.25145916  1
  Cu  Cu94  1  0.15984268  0.82967889  0.74790335  1
  Cu  Cu95  1  0.17154302  0.50379688  0.74347018  1
  Cu  Cu96  1  0.16992228  0.83171724  0.25415437  1
  Cu  Cu97  1  0.16985794  0.17084151  0.75164113  1
  Cu  Cu98  1  0.17601051  0.16136332  0.24406689  1
  Cu  Cu99  1  0.83703446  0.16645223  0.75346406  1
  Cu  Cu100  1  0.83554823  0.49999450  0.74236621  1
  Cu  Cu101  1  0.83017500  0.17028449  0.25194716  1
  Cu  Cu102  1  0.83038224  0.82868298  0.74541232  1
  Cu  Cu103  1  0.00108446  0.33651338  0.50231488  1
  Cu  Cu104  1  0.00150188  0.67090562  -0.00117982  1
  Cu  Cu105  1  0.49655730  0.16649517  0.75256409  1
  Cu  Cu106  1  -0.00258386  0.00032591  0.50230952  1
  Cu  Cu107  1  0.33017877  0.66657709  -0.01147133  1
  Cu  Cu108  1  0.33022291  -0.00011823  -0.00143806  1
  Cu  Cu109  1  0.49264322  0.16705846  0.24919493  1
  Cu  Cu110  1  -0.00168813  -0.00228792  -0.00734761  1
  Cu  Cu111  1  0.67331946  -0.00142055  -0.00568868  1
  Cu  Cu112  1  0.67115707  0.66463482  0.50198318  1
  Cu  Cu113  1  0.83329751  0.50499574  0.25857082  1
  Cu  Cu114  1  0.67693071  0.67407043  0.00003012  1
  Se  Se115  1  0.08120518  0.07975002  0.04860963  1
  Se  Se116  1  0.07833424  0.07763529  0.56456561  1
  Se  Se117  1  0.06374303  0.40934973  0.05905258  1
  Se  Se118  1  0.08705509  0.41707759  0.55497739  1
  Se  Se119  1  0.08889220  0.74831849  0.05358010  1
  Se  Se120  1  0.08280037  0.75053417  0.55131240  1
  Se  Se121  1  0.41457350  0.07864430  0.05644651  1
  Se  Se122  1  0.41032226  0.07346649  0.56081017  1
  Se  Se123  1  0.40374068  0.40621771  0.05748433  1
  Se  Se124  1  0.42113204  0.41896046  0.55028175  1
  Se  Se125  1  0.40933543  0.74003149  0.05623607  1
  Se  Se126  1  0.40728858  0.74466545  0.56290416  1
  Se  Se127  1  0.74937051  0.08643855  0.04994009  1
  Se  Se128  1  0.75320620  0.08626212  0.55504229  1
  Se  Se129  1  0.74068376  0.41858272  0.06668427  1
  Se  Se130  1  0.75009050  0.41839979  0.54859652  1
  Se  Se131  1  0.75924745  0.75600915  0.05349538  1
  Se  Se132  1  0.74980091  0.75000090  0.55748497  1
  Se  Se133  1  0.24215859  0.24406100  0.04986702  1
  Se  Se134  1  0.25939323  0.25318236  0.56103708  1
  Se  Se135  1  0.25779238  0.58920527  0.05707373  1
  Se  Se136  1  0.24499629  0.58142282  0.55175125  1
  Se  Se137  1  0.25165042  0.91300705  0.05311245  1
  Se  Se138  1  0.24642513  0.91353829  0.54696621  1
  Se  Se139  1  0.58139976  0.25397590  0.06398911  1
  Se  Se140  1  0.59293400  0.26069656  0.56295559  1
  Se  Se141  1  0.59479630  0.59672107  0.06118696  1
  Se  Se142  1  0.57994991  0.58390798  0.55032479  1
  Se  Se143  1  0.59351370  0.92632841  0.06094767  1
  Se  Se144  1  0.58634781  0.91841741  0.56550265  1
  Se  Se145  1  0.90485727  0.25125290  0.04706625  1
  Se  Se146  1  0.91781979  0.24994385  0.55238013  1
  Se  Se147  1  0.92373967  0.58859692  0.05946748  1
  Se  Se148  1  0.91330054  0.57976020  0.55646092  1
  Se  Se149  1  0.91759772  0.91526564  0.05016345  1
  Se  Se150  1  0.91546198  0.91257801  0.55270742  1
  Se  Se151  1  0.07851451  0.25890812  0.43712518  1
  Se  Se152  1  0.09268013  0.25202504  0.95069777  1
  Se  Se153  1  0.08270369  0.58349813  0.45098544  1
  Se  Se154  1  0.07855386  0.58663518  0.93922004  1
  Se  Se155  1  0.08102942  0.92010569  0.44693256  1
  Se  Se156  1  0.08646160  0.91231374  0.94729856  1
  Se  Se157  1  0.42002366  0.25757289  0.43775780  1
  Se  Se158  1  0.41079505  0.25878688  0.94379172  1
  Se  Se159  1  0.41735766  0.58377658  0.45167976  1
  Se  Se160  1  0.41743960  0.59058491  0.93328650  1
  Se  Se161  1  0.41184728  0.92451455  0.44477923  1
  Se  Se162  1  0.40847746  0.91587434  0.93882587  1
  Se  Se163  1  0.75106386  0.24525261  0.44766994  1
  Se  Se164  1  0.74562465  0.25059108  0.94972117  1
  Se  Se165  1  0.75174417  0.58110236  0.44522787  1
  Se  Se166  1  0.74726244  0.58830465  0.93800141  1
  Se  Se167  1  0.75301164  0.91104309  0.45546784  1
  Se  Se168  1  0.75433167  0.91082395  0.94368806  1
  Se  Se169  1  0.25978212  0.08406008  0.44196978  1
  Se  Se170  1  0.24902122  0.08608184  0.94700900  1
  Se  Se171  1  0.24713250  0.41676794  0.45113532  1
  Se  Se172  1  0.25946756  0.41542034  0.93999279  1
  Se  Se173  1  0.24544770  0.75315387  0.44873872  1
  Se  Se174  1  0.24376125  0.74947039  0.94005745  1
  Se  Se175  1  0.59070552  0.07571547  0.44633553  1
  Se  Se176  1  0.58447992  0.06327112  0.93106722  1
  Se  Se177  1  0.58262497  0.41710435  0.44076617  1
  Se  Se178  1  0.58770291  0.41470496  0.95015265  1
  Se  Se179  1  0.59043982  0.74238764  0.43902676  1
  Se  Se180  1  0.58944467  0.74457200  0.93840347  1
  Se  Se181  1  0.91502528  0.08715456  0.45189720  1
  Se  Se182  1  0.91516909  0.08385163  0.94212534  1
  Se  Se183  1  0.91478613  0.42004326  0.45147917  1
  Se  Se184  1  0.92692747  0.41068854  0.94004904  1
  Se  Se185  1  0.91293869  0.74965931  0.44893439  1
  Se  Se186  1  0.91577705  0.75083212  0.94511185  1
  Se  Se187  1  0.25094411  0.25202832  0.29694740  1
  Se  Se188  1  0.25503332  0.25442156  0.80383144  1
  Se  Se189  1  0.24707057  0.57953258  0.31826606  1
  Se  Se190  1  0.25447608  0.59073832  0.79485219  1
  Se  Se191  1  0.25446421  0.91578880  0.30373126  1
  Se  Se192  1  0.24085857  0.91664710  0.80118320  1
  Se  Se193  1  0.58273989  0.24571535  0.30015797  1
  Se  Se194  1  0.57675781  0.24395349  0.81572390  1
  Se  Se195  1  0.57894415  0.57355952  0.29959701  1
  Se  Se196  1  0.58516108  0.58408355  0.79695487  1
  Se  Se197  1  0.57946056  0.90954381  0.31291931  1
  Se  Se198  1  0.58870773  0.91231244  0.79392818  1
  Se  Se199  1  0.91338040  0.24794266  0.31161859  1
  Se  Se200  1  0.92027911  0.25057983  0.80461573  1
  Se  Se201  1  0.92020462  0.58870385  0.30640169  1
  Se  Se202  1  0.91959363  0.58232144  0.79778793  1
  Se  Se203  1  0.91350615  0.91292062  0.31294561  1
  Se  Se204  1  0.91101030  0.90664038  0.80900455  1
  Se  Se205  1  0.09502893  0.08644404  0.30787013  1
  Se  Se206  1  0.09018012  0.09347249  0.81534091  1
  Se  Se207  1  0.08358570  0.42360476  0.31496147  1
  Se  Se208  1  0.09366680  0.41890852  0.80216380  1
  Se  Se209  1  0.08319125  0.75064113  0.30474249  1
  Se  Se210  1  0.07582531  0.74561597  0.79943157  1
  Se  Se211  1  0.41291915  0.08132677  0.30223791  1
  Se  Se212  1  0.41014805  0.08339544  0.80317331  1
  Se  Se213  1  0.39566337  0.40706205  0.30448043  1
  Se  Se214  1  0.41633324  0.41765193  0.79898750  1
  Se  Se215  1  0.42540315  0.75309869  0.31458776  1
  Se  Se216  1  0.41470127  0.75815938  0.79397355  1
  Se  Se217  1  0.75521809  0.08319539  0.31054301  1
  Se  Se218  1  0.74995782  0.08157129  0.80014157  1
  Se  Se219  1  0.75130776  0.41586997  0.30651624  1
  Se  Se220  1  0.76077725  0.42585768  0.81296297  1
  Se  Se221  1  0.75203241  0.74973306  0.30418528  1
  Se  Se222  1  0.74904242  0.74478569  0.80199966  1
  Se  Se223  1  0.25651597  0.07362165  0.19288049  1
  Se  Se224  1  0.24860945  0.08257464  0.69931293  1
  Se  Se225  1  0.22013985  0.42596951  0.19318499  1
  Se  Se226  1  0.25450954  0.41760033  0.69179947  1
  Se  Se227  1  0.24744108  0.75220391  0.18955800  1
  Se  Se228  1  0.24402743  0.75069454  0.69150595  1
  Se  Se229  1  0.57306717  0.08911917  0.18630328  1
  Se  Se230  1  0.58169664  0.08563887  0.69961868  1
  Se  Se231  1  0.58126162  0.41439290  0.20536470  1
  Se  Se232  1  0.58564736  0.42190750  0.68837412  1
  Se  Se233  1  0.58731824  0.75641220  0.20117636  1
  Se  Se234  1  0.57210068  0.75448695  0.70101026  1
  Se  Se235  1  0.91282207  0.09500635  0.19011509  1
  Se  Se236  1  0.91321242  0.08627986  0.68929941  1
  Se  Se237  1  0.90805161  0.42935679  0.18963977  1
  Se  Se238  1  0.91987509  0.41287597  0.69469836  1
  Se  Se239  1  0.92422739  0.74748521  0.19509326  1
  Se  Se240  1  0.91746250  0.74522639  0.69693599  1
  Se  Se241  1  0.08333018  0.23621796  0.18978182  1
  Se  Se242  1  0.08288333  0.25356257  0.70183529  1
  Se  Se243  1  0.08992275  0.58539280  0.20854765  1
  Se  Se244  1  0.08185622  0.58415935  0.69341754  1
  Se  Se245  1  0.09174582  0.90918195  0.18836986  1
  Se  Se246  1  0.08219890  0.91372829  0.68820225  1
  Se  Se247  1  0.40943580  0.24969151  0.19528255  1
  Se  Se248  1  0.41677158  0.25359761  0.70039130  1
  Se  Se249  1  0.42051402  0.57425927  0.18933699  1
  Se  Se250  1  0.41613022  0.58178158  0.68961571  1
  Se  Se251  1  0.42321401  0.90331646  0.20412743  1
  Se  Se252  1  0.40661771  0.91662003  0.70057977  1
  Se  Se253  1  0.74656657  0.25468510  0.20083907  1
  Se  Se254  1  0.75813520  0.24803451  0.69105908  1
  Se  Se255  1  0.75137260  0.58867001  0.20185945  1
  Se  Se256  1  0.74707736  0.58363940  0.69568594  1
  Se  Se257  1  0.76595208  0.91503440  0.19136439  1
  Se  Se258  1  0.74877876  0.91712090  0.69611439  1
