# generated using pymatgen
data_In86Cu29Se144
_symmetry_space_group_name_H-M   'P 1'
_cell_length_a   17.58877133
_cell_length_b   17.58530595
_cell_length_c   23.44179772
_cell_angle_alpha   89.99060756
_cell_angle_beta   89.99501145
_cell_angle_gamma   90.02848126
_symmetry_Int_Tables_number   1
_chemical_formula_structural   In86Cu29Se144
_chemical_formula_sum   'In86 Cu29 Se144'
_cell_volume   7250.63902691
_cell_formula_units_Z   1
loop_
 _symmetry_equiv_pos_site_id
 _symmetry_equiv_pos_as_xyz
  1  'x, y, z'
loop_
 _atom_site_type_symbol
 _atom_site_label
 _atom_site_symmetry_multiplicity
 _atom_site_fract_x
 _atom_site_fract_y
 _atom_site_fract_z
 _atom_site_occupancy
  In  In0  1  -0.00482836  0.15999096  0.12370029  1
  In  In1  1  -0.00464151  0.18086573  0.62195632  1
  In  In2  1  0.00527455  0.50295224  0.11765744  1
  In  In3  1  0.00745795  0.50389071  0.61976772  1
  In  In4  1  -0.00255755  0.84636850  0.12417932  1
  In  In5  1  -0.00031548  0.81656742  0.62688642  1
  In  In6  1  0.32106412  0.15737874  0.13319367  1
  In  In7  1  0.33077511  0.16063646  0.62392072  1
  In  In8  1  0.34719519  0.51753127  0.10685305  1
  In  In9  1  0.33547793  0.52355265  0.62818736  1
  In  In10  1  0.33922627  0.82934304  0.12339981  1
  In  In11  1  0.32546092  0.82333922  0.61469533  1
  In  In12  1  0.68256298  0.14033549  0.14718560  1
  In  In13  1  0.66908918  0.15000544  0.62211838  1
  In  In14  1  0.66900284  0.50620006  0.12521294  1
  In  In15  1  0.66698312  0.48694542  0.62595984  1
  In  In16  1  0.66483838  0.83891885  0.11830987  1
  In  In17  1  0.66897728  0.84643992  0.62146439  1
  In  In18  1  0.15597706  -0.00975255  0.36045268  1
  In  In19  1  0.17267013  -0.00811197  0.89458107  1
  In  In20  1  0.17110201  0.34447465  0.37464838  1
  In  In21  1  0.15818157  0.33787746  0.88432248  1
  In  In22  1  0.17482057  0.65923291  0.37398287  1
  In  In23  1  0.15816324  0.67350930  0.87837604  1
  In  In24  1  0.49469613  -0.00555746  0.36055681  1
  In  In25  1  0.50288478  -0.01490122  0.88222691  1
  In  In26  1  0.50658267  0.32040642  0.36679002  1
  In  In27  1  0.50794320  0.34536337  0.87855708  1
  In  In28  1  0.50841103  0.67936033  0.36571768  1
  In  In29  1  0.48849969  0.67716067  0.88809703  1
  In  In30  1  0.83867094  -0.00409581  0.36726736  1
  In  In31  1  0.82297365  0.00632302  0.88748120  1
  In  In32  1  0.82588657  0.34054099  0.37580483  1
  In  In33  1  0.82997934  0.33700811  0.88201918  1
  In  In34  1  0.82116561  0.66699992  0.37230456  1
  In  In35  1  0.84336058  0.65808260  0.88010422  1
  In  In36  1  -0.00394053  0.14306026  0.36523166  1
  In  In37  1  -0.00285383  0.16830819  0.88633773  1
  In  In38  1  0.00292327  0.49635719  0.37741801  1
  In  In39  1  -0.01382043  0.51580612  0.87713421  1
  In  In40  1  0.00070965  0.84903529  0.37091548  1
  In  In41  1  0.00836187  0.82453088  0.88290422  1
  In  In42  1  0.33855604  0.15330647  0.35794840  1
  In  In43  1  0.33339313  0.15085422  0.88562870  1
  In  In44  1  0.32243261  0.50066480  0.37431931  1
  In  In45  1  0.30229129  0.53833391  0.90800040  1
  In  In46  1  0.33346827  0.82992084  0.37020442  1
  In  In47  1  0.33555803  0.81768516  0.89299585  1
  In  In48  1  0.66585357  0.17383351  0.36086004  1
  In  In49  1  0.67950365  0.16173621  0.88153617  1
  In  In50  1  0.66812228  0.50937146  0.36999459  1
  In  In51  1  0.67260103  0.49621322  0.88672632  1
  In  In52  1  0.66732452  0.82243371  0.36647406  1
  In  In53  1  0.65970849  0.84328259  0.88658740  1
  In  In54  1  0.16687696  0.00036280  0.13282540  1
  In  In55  1  0.18433133  -0.00379601  0.62224326  1
  In  In56  1  0.17391991  0.33416063  0.11842918  1
  In  In57  1  0.14959477  0.33748191  0.62518357  1
  In  In58  1  0.18804540  0.68656526  0.10397959  1
  In  In59  1  0.16912177  0.66862489  0.62362673  1
  In  In60  1  0.52558736  -0.02242513  0.14015187  1
  In  In61  1  0.51920067  -0.00511837  0.62257529  1
  In  In62  1  0.50702913  0.34564589  0.12579015  1
  In  In63  1  0.51191248  0.33720767  0.62641753  1
  In  In64  1  0.49729688  0.67409101  0.11740198  1
  In  In65  1  0.48696148  0.66734058  0.62674674  1
  In  In66  1  0.82415253  0.00310844  0.12091368  1
  In  In67  1  0.81645915  -0.00227625  0.62007481  1
  In  In68  1  0.82408389  0.32470107  0.12049102  1
  In  In69  1  0.83493944  0.33047978  0.61335817  1
  In  In70  1  0.82931515  0.66601506  0.12101473  1
  In  In71  1  0.84927917  0.66422181  0.62832114  1
  In  In72  1  0.33680164  0.34103079  0.75595695  1
  In  In73  1  0.15949389  0.16558124  0.48729989  1
  In  In74  1  0.34130439  -0.02043481  0.76285124  1
  In  In75  1  0.49789321  0.15924040  0.48254024  1
  In  In76  1  0.33235512  0.33959425  0.25339554  1
  In  In77  1  -0.00624275  0.34134665  0.75277811  1
  In  In78  1  -0.00160318  0.33197014  0.23791073  1
  In  In79  1  0.83867875  0.83078869  0.49789980  1
  In  In80  1  -0.00299434  -0.00547993  0.75258461  1
  In  In81  1  -0.00407480  0.67323590  0.23903381  1
  In  In82  1  0.50276981  0.16525134  0.01536972  1
  In  In83  1  0.49729520  0.50217055  0.50241672  1
  In  In84  1  0.67146564  0.33378483  0.75834649  1
  In  In85  1  0.66952343  0.66847756  0.75176259  1
  Cu  Cu86  1  0.33284355  0.67230737  0.49759044  1
  Cu  Cu87  1  0.00315451  0.33054337  0.00294268  1
  Cu  Cu88  1  0.50697978  0.16088426  0.74365153  1
  Cu  Cu89  1  0.16361085  0.82258964  0.75030690  1
  Cu  Cu90  1  0.50321453  0.51055145  0.24215157  1
  Cu  Cu91  1  -0.00354879  0.00127377  0.00421980  1
  Cu  Cu92  1  0.49963078  0.83238559  0.75712719  1
  Cu  Cu93  1  0.17161457  0.82819271  0.24397946  1
  Cu  Cu94  1  0.33765683  0.32877195  0.00745336  1
  Cu  Cu95  1  0.83044516  0.83558692  0.75419154  1
  Cu  Cu96  1  -0.00921299  0.33270219  0.49587842  1
  Cu  Cu97  1  0.49870161  0.82626698  0.24520592  1
  Cu  Cu98  1  0.16915704  0.15984186  0.76398533  1
  Cu  Cu99  1  0.00838549  0.66447769  0.49917180  1
  Cu  Cu100  1  0.82694411  0.50434019  0.24864768  1
  Cu  Cu101  1  0.32901323  -0.00070970  0.01189368  1
  Cu  Cu102  1  0.66837996  0.32865253  0.49492283  1
  Cu  Cu103  1  0.66816587  0.66747903  0.49511903  1
  Cu  Cu104  1  0.49097329  0.51449503  0.76424278  1
  Cu  Cu105  1  0.17311050  0.51356142  0.75251896  1
  Cu  Cu106  1  0.66932740  0.33156242  0.00647862  1
  Cu  Cu107  1  0.00475255  -0.00086648  0.49630300  1
  Cu  Cu108  1  0.17216129  0.50750871  0.24117762  1
  Cu  Cu109  1  0.82649353  0.15758404  0.75168249  1
  Cu  Cu110  1  0.33567856  -0.01039927  0.49222045  1
  Cu  Cu111  1  0.32610541  0.33833872  0.49769665  1
  Cu  Cu112  1  0.83691335  0.16440313  0.24698960  1
  Cu  Cu113  1  0.66467936  0.67021988  0.00058454  1
  Cu  Cu114  1  -0.00384480  0.66594180  0.00255304  1
  Se  Se115  1  0.08428409  0.07906546  0.05869762  1
  Se  Se116  1  0.08036887  0.07919826  0.56203680  1
  Se  Se117  1  0.08730432  0.41575289  0.05269959  1
  Se  Se118  1  0.07867214  0.41297724  0.54819336  1
  Se  Se119  1  0.07303782  0.75335203  0.05676884  1
  Se  Se120  1  0.08628315  0.75152018  0.55283510  1
  Se  Se121  1  0.41552641  0.07136395  0.07174792  1
  Se  Se122  1  0.41129346  0.07487545  0.55390733  1
  Se  Se123  1  0.42472473  0.41558065  0.05055817  1
  Se  Se124  1  0.40671337  0.40970596  0.56320259  1
  Se  Se125  1  0.40020466  0.73808101  0.04876614  1
  Se  Se126  1  0.42229156  0.75080349  0.54945338  1
  Se  Se127  1  0.74708021  0.09664212  0.05560321  1
  Se  Se128  1  0.75265627  0.08544044  0.54764695  1
  Se  Se129  1  0.75211764  0.42112880  0.05573198  1
  Se  Se130  1  0.74626160  0.41520399  0.55067402  1
  Se  Se131  1  0.75014139  0.75210542  0.05240511  1
  Se  Se132  1  0.74910094  0.74093120  0.56146569  1
  Se  Se133  1  0.25473373  0.24213119  0.05580105  1
  Se  Se134  1  0.24821550  0.25253344  0.55690516  1
  Se  Se135  1  0.23336154  0.56759886  0.04836911  1
  Se  Se136  1  0.25203734  0.58651503  0.55166434  1
  Se  Se137  1  0.24557107  0.91481682  0.06258075  1
  Se  Se138  1  0.24780749  0.91218713  0.54610438  1
  Se  Se139  1  0.59975175  0.24972072  0.07165373  1
  Se  Se140  1  0.58335705  0.24885602  0.55316659  1
  Se  Se141  1  0.58424973  0.58428781  0.05421378  1
  Se  Se142  1  0.59158001  0.59099519  0.56226793  1
  Se  Se143  1  0.57579366  0.91636406  0.04945968  1
  Se  Se144  1  0.58726490  0.91552218  0.54723057  1
  Se  Se145  1  0.91830632  0.24996347  0.05624247  1
  Se  Se146  1  0.91097999  0.24188737  0.54449192  1
  Se  Se147  1  0.91300108  0.58088044  0.05428852  1
  Se  Se148  1  0.92031273  0.58514057  0.55161626  1
  Se  Se149  1  0.90890615  0.91819352  0.05326672  1
  Se  Se150  1  0.92724531  0.92104861  0.56205132  1
  Se  Se151  1  0.06841769  0.25725681  0.42940661  1
  Se  Se152  1  0.08800693  0.24487182  0.95187334  1
  Se  Se153  1  0.08798770  0.58000778  0.44266344  1
  Se  Se154  1  0.07825983  0.58360641  0.94663568  1
  Se  Se155  1  0.08912901  0.91758958  0.44374040  1
  Se  Se156  1  0.07980423  0.91284796  0.95523253  1
  Se  Se157  1  0.39965297  0.25713549  0.43440372  1
  Se  Se158  1  0.41892270  0.25148797  0.94256075  1
  Se  Se159  1  0.41388661  0.59029380  0.43762097  1
  Se  Se160  1  0.43191781  0.57011100  0.95064394  1
  Se  Se161  1  0.42133424  0.91372038  0.43657860  1
  Se  Se162  1  0.40874399  0.92059763  0.95123716  1
  Se  Se163  1  0.74664550  0.24605546  0.43823078  1
  Se  Se164  1  0.75244477  0.25059786  0.95032845  1
  Se  Se165  1  0.75082662  0.58080661  0.44597495  1
  Se  Se166  1  0.75237799  0.58618852  0.95045613  1
  Se  Se167  1  0.74850128  0.91434094  0.43650964  1
  Se  Se168  1  0.75089741  0.91441369  0.95335122  1
  Se  Se169  1  0.25661750  0.07587827  0.43410532  1
  Se  Se170  1  0.24719350  0.08592738  0.95966895  1
  Se  Se171  1  0.24222212  0.42546637  0.44996628  1
  Se  Se172  1  0.25582991  0.40788426  0.94840067  1
  Se  Se173  1  0.24863542  0.75096274  0.44185576  1
  Se  Se174  1  0.23941960  0.74567809  0.95463881  1
  Se  Se175  1  0.59240645  0.07240421  0.42903157  1
  Se  Se176  1  0.58588688  0.07965039  0.94608839  1
  Se  Se177  1  0.58289570  0.41002654  0.44001571  1
  Se  Se178  1  0.58646352  0.41602512  0.95437406  1
  Se  Se179  1  0.58516123  0.75078051  0.44373236  1
  Se  Se180  1  0.57799321  0.75660280  0.95283903  1
  Se  Se181  1  0.91691512  0.07632387  0.44324952  1
  Se  Se182  1  0.91296908  0.08669544  0.95224499  1
  Se  Se183  1  0.91177732  0.42106438  0.44366326  1
  Se  Se184  1  0.92386178  0.41379218  0.94402467  1
  Se  Se185  1  0.92804014  0.74237778  0.43591279  1
  Se  Se186  1  0.91373647  0.75083818  0.94885651  1
  Se  Se187  1  0.23753010  0.24571166  0.30662821  1
  Se  Se188  1  0.25103545  0.24441788  0.81700923  1
  Se  Se189  1  0.25563350  0.58508878  0.29845729  1
  Se  Se190  1  0.25149695  0.59257752  0.81216677  1
  Se  Se191  1  0.25269767  0.91314183  0.29983279  1
  Se  Se192  1  0.23787287  0.90082205  0.81724460  1
  Se  Se193  1  0.58096180  0.25064861  0.29026931  1
  Se  Se194  1  0.57703959  0.24110265  0.81177033  1
  Se  Se195  1  0.58685389  0.58966831  0.29998899  1
  Se  Se196  1  0.58350479  0.58532341  0.81993155  1
  Se  Se197  1  0.58352105  0.90750913  0.29947954  1
  Se  Se198  1  0.58500483  0.91658328  0.80612180  1
  Se  Se199  1  0.91375280  0.24879197  0.30742862  1
  Se  Se200  1  0.90703326  0.24050743  0.80934618  1
  Se  Se201  1  0.91609166  0.57717601  0.30616970  1
  Se  Se202  1  0.91172635  0.58507034  0.79903992  1
  Se  Se203  1  0.92144840  0.91797107  0.29641283  1
  Se  Se204  1  0.90995446  0.91172276  0.81766546  1
  Se  Se205  1  0.09101525  0.08844019  0.29419010  1
  Se  Se206  1  0.08682891  0.07911897  0.81912641  1
  Se  Se207  1  0.09059837  0.42627918  0.29747567  1
  Se  Se208  1  0.09121380  0.42866190  0.80863565  1
  Se  Se209  1  0.08828723  0.75177997  0.30692984  1
  Se  Se210  1  0.07454015  0.74578295  0.80289819  1
  Se  Se211  1  0.43829764  0.09665255  0.29060927  1
  Se  Se212  1  0.42693962  0.08689851  0.80962050  1
  Se  Se213  1  0.42908691  0.43103886  0.31015712  1
  Se  Se214  1  0.41201271  0.43223719  0.82208874  1
  Se  Se215  1  0.41179286  0.74501834  0.29843544  1
  Se  Se216  1  0.41391925  0.75415830  0.81110099  1
  Se  Se217  1  0.75350863  0.08242867  0.30197912  1
  Se  Se218  1  0.74603740  0.07591645  0.80634697  1
  Se  Se219  1  0.74674515  0.41945515  0.30327358  1
  Se  Se220  1  0.76269507  0.43091176  0.80790534  1
  Se  Se221  1  0.75780124  0.75009905  0.29755867  1
  Se  Se222  1  0.75224795  0.75692783  0.81690816  1
  Se  Se223  1  0.24942471  0.07627964  0.20682147  1
  Se  Se224  1  0.25093202  0.08300409  0.70286997  1
  Se  Se225  1  0.25500357  0.42814229  0.18410189  1
  Se  Se226  1  0.24347194  0.42350233  0.69003970  1
  Se  Se227  1  0.25385329  0.74368098  0.19267147  1
  Se  Se228  1  0.25340480  0.74985745  0.69443577  1
  Se  Se229  1  0.56000108  0.09798512  0.20014777  1
  Se  Se230  1  0.59184841  0.07488172  0.69815330  1
  Se  Se231  1  0.58836216  0.42273397  0.19758942  1
  Se  Se232  1  0.57068528  0.43032715  0.70508184  1
  Se  Se233  1  0.58387915  0.75062217  0.18756355  1
  Se  Se234  1  0.57859098  0.75779778  0.69081582  1
  Se  Se235  1  0.91458934  0.07790621  0.19303446  1
  Se  Se236  1  0.91325563  0.08833573  0.68901229  1
  Se  Se237  1  0.90703513  0.42772044  0.18655590  1
  Se  Se238  1  0.90765826  0.42227054  0.68550920  1
  Se  Se239  1  0.90089322  0.76595785  0.18974780  1
  Se  Se240  1  0.91477506  0.75241214  0.70280727  1
  Se  Se241  1  0.09454334  0.24347348  0.18709004  1
  Se  Se242  1  0.08983079  0.23988924  0.70169815  1
  Se  Se243  1  0.09384563  0.58939573  0.18223643  1
  Se  Se244  1  0.08560753  0.58430641  0.69213498  1
  Se  Se245  1  0.08258644  0.91327543  0.19953648  1
  Se  Se246  1  0.09417908  0.91243117  0.69032481  1
  Se  Se247  1  0.41520703  0.25539915  0.18603908  1
  Se  Se248  1  0.42403322  0.24431270  0.69077475  1
  Se  Se249  1  0.41574986  0.58751111  0.18924493  1
  Se  Se250  1  0.41228350  0.59468350  0.70543105  1
  Se  Se251  1  0.41442823  0.91351881  0.19623494  1
  Se  Se252  1  0.42356759  0.90769747  0.68690712  1
  Se  Se253  1  0.75178559  0.25282508  0.20008670  1
  Se  Se254  1  0.75421758  0.24477493  0.69021597  1
  Se  Se255  1  0.74849612  0.59109599  0.19597139  1
  Se  Se256  1  0.75344979  0.57582559  0.68988440  1
  Se  Se257  1  0.72271815  0.94034244  0.18769620  1
  Se  Se258  1  0.75062751  0.91615173  0.69771174  1
