# generated using pymatgen
data_In86Cu29Se144
_symmetry_space_group_name_H-M   'P 1'
_cell_length_a   17.57517379
_cell_length_b   17.57466607
_cell_length_c   23.43237288
_cell_angle_alpha   89.98793319
_cell_angle_beta   90.04189922
_cell_angle_gamma   89.98656206
_symmetry_Int_Tables_number   1
_chemical_formula_structural   In86Cu29Se144
_chemical_formula_sum   'In86 Cu29 Se144'
_cell_volume   7237.73773281
_cell_formula_units_Z   1
loop_
 _symmetry_equiv_pos_site_id
 _symmetry_equiv_pos_as_xyz
  1  'x, y, z'
loop_
 _atom_site_type_symbol
 _atom_site_label
 _atom_site_symmetry_multiplicity
 _atom_site_fract_x
 _atom_site_fract_y
 _atom_site_fract_z
 _atom_site_occupancy
  In  In0  1  0.00473147  0.17216632  0.11402594  1
  In  In1  1  -0.00709553  0.16944952  0.63970168  1
  In  In2  1  0.00036132  0.50154304  0.12161914  1
  In  In3  1  -0.00762865  0.50370385  0.63920609  1
  In  In4  1  -0.00645159  0.82421818  0.11381779  1
  In  In5  1  -0.01278811  0.84731415  0.64360300  1
  In  In6  1  0.33013180  0.18346609  0.12554832  1
  In  In7  1  0.34153145  0.15939442  0.62434552  1
  In  In8  1  0.33299105  0.50595045  0.13034891  1
  In  In9  1  0.33370615  0.49070093  0.62342001  1
  In  In10  1  0.32375025  0.82091472  0.11074381  1
  In  In11  1  0.33274480  0.82435854  0.62745266  1
  In  In12  1  0.66118234  0.15952906  0.12923920  1
  In  In13  1  0.66140511  0.17146352  0.63134300  1
  In  In14  1  0.67479214  0.50482532  0.12306668  1
  In  In15  1  0.66250331  0.50701508  0.62664578  1
  In  In16  1  0.67212344  0.83268351  0.11926271  1
  In  In17  1  0.67528310  0.82114117  0.63361524  1
  In  In18  1  0.16548566  -0.00330660  0.37139781  1
  In  In19  1  0.16232778  0.00664597  0.88552609  1
  In  In20  1  0.17049669  0.33603394  0.35975673  1
  In  In21  1  0.15568529  0.34951976  0.89688973  1
  In  In22  1  0.16310833  0.65696909  0.36144025  1
  In  In23  1  0.14674575  0.68167045  0.88841408  1
  In  In24  1  0.52028973  -0.00663890  0.37487802  1
  In  In25  1  0.49744111  -0.01489728  0.88049910  1
  In  In26  1  0.49726052  0.34212917  0.37674901  1
  In  In27  1  0.50238135  0.32616868  0.87509021  1
  In  In28  1  0.49455188  0.65019656  0.35188811  1
  In  In29  1  0.51942074  0.67065931  0.87813370  1
  In  In30  1  0.81296277  -0.00423064  0.37101535  1
  In  In31  1  0.82944227  -0.00320477  0.87616994  1
  In  In32  1  0.84236556  0.32060843  0.36382508  1
  In  In33  1  0.83459382  0.33324811  0.87932153  1
  In  In34  1  0.84216497  0.67562842  0.36695918  1
  In  In35  1  0.82950790  0.66290331  0.88357015  1
  In  In36  1  -0.01708828  0.17445688  0.36774828  1
  In  In37  1  -0.00581377  0.16368858  0.87895719  1
  In  In38  1  0.00098846  0.50035600  0.36542984  1
  In  In39  1  -0.00372450  0.50261478  0.88068505  1
  In  In40  1  -0.00111399  0.82087530  0.37218809  1
  In  In41  1  -0.00254458  0.82860988  0.87394191  1
  In  In42  1  0.34224557  0.18744435  0.36462736  1
  In  In43  1  0.33093766  0.15644697  0.88873196  1
  In  In44  1  0.34834027  0.50436673  0.35267513  1
  In  In45  1  0.32049315  0.48946726  0.88401104  1
  In  In46  1  0.34690376  0.82680950  0.36849138  1
  In  In47  1  0.33322991  0.84859514  0.89600766  1
  In  In48  1  0.66889946  0.14991635  0.36809423  1
  In  In49  1  0.67756413  0.17639063  0.86971026  1
  In  In50  1  0.65129135  0.49713696  0.36992545  1
  In  In51  1  0.68107947  0.51568478  0.86883823  1
  In  In52  1  0.67212631  0.83650470  0.36694812  1
  In  In53  1  0.66336465  0.82969837  0.88125422  1
  In  In54  1  0.17218555  -0.00249610  0.10163629  1
  In  In55  1  0.15876606  -0.00472150  0.63421656  1
  In  In56  1  0.16851278  0.33096395  0.11505537  1
  In  In57  1  0.16465383  0.32647497  0.63285313  1
  In  In58  1  0.16703783  0.66082744  0.11883127  1
  In  In59  1  0.16477433  0.66124171  0.63407653  1
  In  In60  1  0.51884540  0.00759436  0.13128050  1
  In  In61  1  0.49264169  0.01191433  0.62651069  1
  In  In62  1  0.48766581  0.32668504  0.13970535  1
  In  In63  1  0.50580871  0.34054482  0.61666938  1
  In  In64  1  0.49705457  0.66462670  0.13165116  1
  In  In65  1  0.51170512  0.67075566  0.62263203  1
  In  In66  1  0.82413207  -0.00223388  0.11537566  1
  In  In67  1  0.83811086  -0.00961377  0.63742961  1
  In  In68  1  0.84090612  0.34586062  0.11495577  1
  In  In69  1  0.83471436  0.33282365  0.63719768  1
  In  In70  1  0.83341160  0.67250055  0.12094035  1
  In  In71  1  0.82231583  0.67528991  0.63163559  1
  In  In72  1  0.16853973  0.83105928  0.50999340  1
  In  In73  1  0.33591068  -0.00379070  0.24270409  1
  In  In74  1  0.50362698  0.50188407  0.00911867  1
  In  In75  1  0.82739371  0.49916879  0.49928481  1
  In  In76  1  0.51531879  0.83463619  0.49490610  1
  In  In77  1  0.16918403  0.50080837  0.49520332  1
  In  In78  1  0.67225694  0.33757520  0.24697306  1
  In  In79  1  0.33204491  0.67156698  0.75506465  1
  In  In80  1  0.82937019  0.16392786  0.49644980  1
  In  In81  1  0.49819397  0.16571839  0.00842728  1
  In  In82  1  -0.00043014  -0.00200139  0.23472690  1
  In  In83  1  0.16946498  0.17020754  0.50495414  1
  In  In84  1  0.32981737  0.00098141  0.75947614  1
  In  In85  1  0.32857494  0.33116300  0.75753036  1
  Cu  Cu86  1  0.50691175  0.50129654  0.74893922  1
  Cu  Cu87  1  0.16333497  0.49622812  0.23817065  1
  Cu  Cu88  1  -0.00921639  -0.00905101  0.50834320  1
  Cu  Cu89  1  0.33693475  0.65967252  0.00199790  1
  Cu  Cu90  1  0.83400567  0.83631945  0.23951005  1
  Cu  Cu91  1  0.33876362  0.66369498  0.48569906  1
  Cu  Cu92  1  -0.01146269  0.67718508  0.50101069  1
  Cu  Cu93  1  0.66513940  0.00347519  -0.00207241  1
  Cu  Cu94  1  0.00046712  0.66317004  0.00011589  1
  Cu  Cu95  1  0.67037927  -0.00266470  0.50074524  1
  Cu  Cu96  1  0.15894023  0.16914999  0.24030348  1
  Cu  Cu97  1  0.00393488  0.33523039  0.50090286  1
  Cu  Cu98  1  -0.00920243  -0.00408904  -0.00529978  1
  Cu  Cu99  1  0.15281255  0.50670228  0.76361608  1
  Cu  Cu100  1  0.33762078  0.01456528  0.49887988  1
  Cu  Cu101  1  0.34815902  0.34044592  0.49284544  1
  Cu  Cu102  1  0.82921144  0.82771039  0.75984691  1
  Cu  Cu103  1  0.50355975  0.83103523  0.24386438  1
  Cu  Cu104  1  0.65947431  0.32977371  0.49909080  1
  Cu  Cu105  1  -0.00154727  0.33330614  -0.00088995  1
  Cu  Cu106  1  0.83915035  0.50655913  0.24084802  1
  Cu  Cu107  1  0.16710605  0.82045366  0.23881837  1
  Cu  Cu108  1  0.66306553  0.66301189  0.49775415  1
  Cu  Cu109  1  0.83551604  0.49523268  0.75744988  1
  Cu  Cu110  1  0.83322352  0.16308859  0.75760346  1
  Cu  Cu111  1  0.50987087  0.16867072  0.75077929  1
  Cu  Cu112  1  0.50486034  0.82989771  0.75705539  1
  Cu  Cu113  1  0.66586152  0.33879282  -0.00141709  1
  Cu  Cu114  1  0.15741153  0.17256910  0.76185042  1
  Se  Se115  1  0.07662591  0.08027995  0.04516368  1
  Se  Se116  1  0.07226197  0.07905622  0.56203937  1
  Se  Se117  1  0.08146721  0.41807224  0.05173101  1
  Se  Se118  1  0.08037014  0.41526487  0.56289609  1
  Se  Se119  1  0.08782895  0.74796438  0.04989638  1
  Se  Se120  1  0.07277887  0.74498532  0.56701376  1
  Se  Se121  1  0.41091159  0.07625872  0.06886797  1
  Se  Se122  1  0.42645637  0.09427144  0.54843517  1
  Se  Se123  1  0.41318626  0.40756032  0.06255542  1
  Se  Se124  1  0.42241797  0.42732883  0.55021104  1
  Se  Se125  1  0.42341370  0.74154989  0.05354023  1
  Se  Se126  1  0.41284060  0.74577306  0.55038429  1
  Se  Se127  1  0.74275048  0.09135931  0.05224666  1
  Se  Se128  1  0.74875547  0.07689766  0.56396864  1
  Se  Se129  1  0.74965440  0.42457921  0.04901661  1
  Se  Se130  1  0.74496575  0.40382542  0.56013378  1
  Se  Se131  1  0.76951182  0.76858487  0.05099282  1
  Se  Se132  1  0.74410149  0.74534498  0.55315346  1
  Se  Se133  1  0.23816308  0.23265415  0.04970668  1
  Se  Se134  1  0.26620739  0.26588480  0.55945637  1
  Se  Se135  1  0.25261178  0.57534055  0.05266736  1
  Se  Se136  1  0.25920134  0.59485088  0.55632965  1
  Se  Se137  1  0.24962456  0.90576402  0.03989336  1
  Se  Se138  1  0.26305164  0.93175089  0.56182807  1
  Se  Se139  1  0.58672533  0.26476081  0.06322651  1
  Se  Se140  1  0.58183901  0.24355322  0.55419658  1
  Se  Se141  1  0.59520541  0.59934486  0.05686214  1
  Se  Se142  1  0.58011957  0.58083476  0.55145514  1
  Se  Se143  1  0.58541086  0.92286269  0.05602117  1
  Se  Se144  1  0.59083831  0.92166108  0.56621053  1
  Se  Se145  1  0.91152973  0.24947624  0.04855950  1
  Se  Se146  1  0.92126665  0.25480098  0.55882132  1
  Se  Se147  1  0.91508345  0.58349055  0.05413014  1
  Se  Se148  1  0.91908143  0.58623253  0.56062978  1
  Se  Se149  1  0.91056809  0.91359161  0.05069635  1
  Se  Se150  1  0.90877089  0.90811788  0.56078984  1
  Se  Se151  1  0.07984973  0.25448049  0.43774431  1
  Se  Se152  1  0.08045937  0.24378046  0.94939070  1
  Se  Se153  1  0.07102475  0.59509786  0.44244908  1
  Se  Se154  1  0.08698254  0.57593509  0.95138688  1
  Se  Se155  1  0.07864664  0.92018482  0.44583491  1
  Se  Se156  1  0.07821490  0.91318020  0.94501337  1
  Se  Se157  1  0.42446017  0.24673318  0.44494435  1
  Se  Se158  1  0.41068833  0.25986401  0.94784227  1
  Se  Se159  1  0.41946534  0.57998558  0.43247780  1
  Se  Se160  1  0.41636802  0.58437799  0.93775636  1
  Se  Se161  1  0.41186589  0.92361446  0.44196531  1
  Se  Se162  1  0.42194794  0.92483401  0.96201621  1
  Se  Se163  1  0.74298960  0.25824335  0.43635614  1
  Se  Se164  1  0.74818343  0.25149075  0.94844668  1
  Se  Se165  1  0.74553160  0.58827074  0.43450087  1
  Se  Se166  1  0.74401085  0.58316372  0.95249213  1
  Se  Se167  1  0.74771950  0.91016885  0.44680356  1
  Se  Se168  1  0.74708708  0.91680654  0.94720465  1
  Se  Se169  1  0.25437046  0.08556129  0.43505544  1
  Se  Se170  1  0.25570632  0.07183200  0.95638871  1
  Se  Se171  1  0.25777859  0.41362091  0.43319710  1
  Se  Se172  1  0.25826401  0.40909406  0.96131461  1
  Se  Se173  1  0.25078311  0.74631556  0.43570611  1
  Se  Se174  1  0.25471129  0.74418454  0.94838588  1
  Se  Se175  1  0.58941882  0.08201379  0.44737558  1
  Se  Se176  1  0.58621137  0.08697136  0.93794518  1
  Se  Se177  1  0.58172054  0.42020972  0.44846548  1
  Se  Se178  1  0.58688151  0.41785889  0.93822550  1
  Se  Se179  1  0.58634501  0.73789182  0.42995579  1
  Se  Se180  1  0.56646013  0.76687188  0.95180982  1
  Se  Se181  1  0.92245574  0.07178022  0.43961194  1
  Se  Se182  1  0.90674810  0.08381917  0.94644807  1
  Se  Se183  1  0.92186800  0.40981233  0.43945110  1
  Se  Se184  1  0.91338476  0.41862926  0.94905673  1
  Se  Se185  1  0.90774271  0.75905889  0.44623389  1
  Se  Se186  1  0.91825181  0.74760308  0.94701678  1
  Se  Se187  1  0.24823026  0.24821211  0.29266163  1
  Se  Se188  1  0.24328065  0.24474750  0.82213133  1
  Se  Se189  1  0.24755693  0.57948564  0.29360058  1
  Se  Se190  1  0.24372334  0.58189717  0.81699156  1
  Se  Se191  1  0.24230175  0.90218342  0.30308940  1
  Se  Se192  1  0.24330410  0.90937069  0.81647853  1
  Se  Se193  1  0.58585330  0.25028410  0.31199099  1
  Se  Se194  1  0.58815129  0.25728237  0.80229927  1
  Se  Se195  1  0.60184276  0.58940959  0.29378952  1
  Se  Se196  1  0.58640246  0.58800654  0.80111188  1
  Se  Se197  1  0.58678879  0.91498444  0.29654009  1
  Se  Se198  1  0.58523577  0.91721531  0.80826279  1
  Se  Se199  1  0.92515757  0.25613181  0.28846155  1
  Se  Se200  1  0.91577736  0.24961145  0.80858524  1
  Se  Se201  1  0.92073585  0.58748118  0.30004123  1
  Se  Se202  1  0.91316328  0.58331136  0.81079805  1
  Se  Se203  1  0.91423724  0.91386685  0.30556673  1
  Se  Se204  1  0.91350369  0.91509283  0.80733755  1
  Se  Se205  1  0.08523577  0.08829988  0.30523687  1
  Se  Se206  1  0.08077824  0.08041246  0.81077092  1
  Se  Se207  1  0.08028858  0.41616546  0.29704929  1
  Se  Se208  1  0.08024585  0.41279259  0.81445677  1
  Se  Se209  1  0.08135890  0.74798602  0.29870681  1
  Se  Se210  1  0.07816346  0.74362339  0.80498505  1
  Se  Se211  1  0.41971699  0.07510848  0.31412255  1
  Se  Se212  1  0.42660232  0.09311047  0.81231583  1
  Se  Se213  1  0.40958658  0.39426370  0.29734270  1
  Se  Se214  1  0.42286421  0.42776088  0.81019259  1
  Se  Se215  1  0.41438254  0.74759223  0.29216518  1
  Se  Se216  1  0.41738249  0.76052683  0.81840438  1
  Se  Se217  1  0.77694555  0.10347001  0.30312343  1
  Se  Se218  1  0.74610350  0.07832191  0.80475449  1
  Se  Se219  1  0.76415496  0.42873435  0.30819922  1
  Se  Se220  1  0.74867220  0.41240256  0.80797244  1
  Se  Se221  1  0.75477084  0.75362227  0.29888310  1
  Se  Se222  1  0.74580199  0.74509137  0.81268812  1
  Se  Se223  1  0.23679847  0.08080957  0.18608552  1
  Se  Se224  1  0.24150048  0.09767099  0.69737619  1
  Se  Se225  1  0.24853794  0.41139385  0.18898755  1
  Se  Se226  1  0.23691046  0.42964652  0.70003437  1
  Se  Se227  1  0.25575594  0.74033033  0.18890985  1
  Se  Se228  1  0.23681083  0.76442345  0.69978109  1
  Se  Se229  1  0.58280372  0.09183647  0.20662637  1
  Se  Se230  1  0.58439809  0.07810604  0.69708164  1
  Se  Se231  1  0.57817903  0.42717328  0.19043758  1
  Se  Se232  1  0.58352176  0.41580252  0.69243336  1
  Se  Se233  1  0.58918604  0.75145236  0.19066230  1
  Se  Se234  1  0.58309529  0.74492976  0.70083083  1
  Se  Se235  1  0.90991495  0.09023668  0.18095332  1
  Se  Se236  1  0.91769721  0.07844007  0.70443137  1
  Se  Se237  1  0.91968470  0.41762753  0.19271602  1
  Se  Se238  1  0.92111862  0.41035448  0.70540607  1
  Se  Se239  1  0.92081617  0.75105352  0.19297234  1
  Se  Se240  1  0.91146299  0.74666690  0.70185688  1
  Se  Se241  1  0.08001700  0.25487295  0.18714390  1
  Se  Se242  1  0.07850530  0.25555548  0.70385707  1
  Se  Se243  1  0.08110365  0.58627967  0.19138017  1
  Se  Se244  1  0.07658974  0.58960734  0.70403285  1
  Se  Se245  1  0.09542269  0.90946269  0.17962590  1
  Se  Se246  1  0.08440051  0.91810364  0.70628257  1
  Se  Se247  1  0.42637229  0.22383026  0.20251342  1
  Se  Se248  1  0.42227802  0.24693544  0.69362995  1
  Se  Se249  1  0.42323938  0.57538552  0.19978216  1
  Se  Se250  1  0.41980994  0.57911225  0.69059589  1
  Se  Se251  1  0.42069956  0.90537906  0.18103932  1
  Se  Se252  1  0.42140267  0.90862966  0.69533404  1
  Se  Se253  1  0.75781200  0.25267216  0.18248601  1
  Se  Se254  1  0.75138402  0.24549826  0.69995844  1
  Se  Se255  1  0.75292967  0.58913660  0.19247248  1
  Se  Se256  1  0.75533251  0.57484232  0.69603068  1
  Se  Se257  1  0.74797726  0.92149945  0.19188941  1
  Se  Se258  1  0.74788664  0.91106670  0.70263723  1
