# generated using pymatgen
data_In86Cu29Se144
_symmetry_space_group_name_H-M   'P 1'
_cell_length_a   17.56801806
_cell_length_b   17.56593343
_cell_length_c   23.42412387
_cell_angle_alpha   89.99005462
_cell_angle_beta   89.98246359
_cell_angle_gamma   90.01953859
_symmetry_Int_Tables_number   1
_chemical_formula_structural   In86Cu29Se144
_chemical_formula_sum   'In86 Cu29 Se144'
_cell_volume   7228.65180628
_cell_formula_units_Z   1
loop_
 _symmetry_equiv_pos_site_id
 _symmetry_equiv_pos_as_xyz
  1  'x, y, z'
loop_
 _atom_site_type_symbol
 _atom_site_label
 _atom_site_symmetry_multiplicity
 _atom_site_fract_x
 _atom_site_fract_y
 _atom_site_fract_z
 _atom_site_occupancy
  In  In0  1  0.00728012  0.16962038  0.12609771  1
  In  In1  1  0.01365593  0.17805797  0.62307487  1
  In  In2  1  0.00239104  0.49665164  0.12726448  1
  In  In3  1  0.00291825  0.49322406  0.61650194  1
  In  In4  1  0.00244611  0.81888624  0.12544237  1
  In  In5  1  0.00901156  0.81805278  0.62156642  1
  In  In6  1  0.33113072  0.16649105  0.12399752  1
  In  In7  1  0.34686680  0.15977124  0.62356508  1
  In  In8  1  0.33128071  0.49982024  0.12544336  1
  In  In9  1  0.32362408  0.50287179  0.63199083  1
  In  In10  1  0.33430764  0.83319707  0.12086315  1
  In  In11  1  0.32272447  0.82390897  0.62259509  1
  In  In12  1  0.64726039  0.19195450  0.15334394  1
  In  In13  1  0.65408198  0.16474297  0.62329883  1
  In  In14  1  0.66156249  0.49619093  0.12247663  1
  In  In15  1  0.67763015  0.49897479  0.62518472  1
  In  In16  1  0.65987667  0.84359359  0.12336662  1
  In  In17  1  0.65624518  0.83642720  0.63227416  1
  In  In18  1  0.17164923  -0.01540896  0.37294846  1
  In  In19  1  0.17615728  -0.00549656  0.88739393  1
  In  In20  1  0.16129676  0.36374582  0.37544042  1
  In  In21  1  0.16741609  0.33515820  0.87704822  1
  In  In22  1  0.17275191  0.66671866  0.36732416  1
  In  In23  1  0.17749866  0.65489619  0.88340195  1
  In  In24  1  0.50677340  0.01643626  0.35907313  1
  In  In25  1  0.50157356  -0.00595413  0.88272072  1
  In  In26  1  0.49582913  0.31605024  0.37313252  1
  In  In27  1  0.48940272  0.34651315  0.88725561  1
  In  In28  1  0.48928274  0.67362095  0.37154775  1
  In  In29  1  0.49667257  0.66536922  0.87668298  1
  In  In30  1  0.83117263  0.02282862  0.36710441  1
  In  In31  1  0.82234643  0.01410251  0.87602455  1
  In  In32  1  0.86044585  0.36351661  0.33534541  1
  In  In33  1  0.84692685  0.33586688  0.87472814  1
  In  In34  1  0.84431841  0.64107745  0.37352704  1
  In  In35  1  0.81567196  0.66501145  0.87850174  1
  In  In36  1  0.00029869  0.19946264  0.36416317  1
  In  In37  1  -0.00335375  0.18377934  0.87567519  1
  In  In38  1  -0.00058265  0.50208079  0.36579534  1
  In  In39  1  0.01087032  0.49027599  0.88560600  1
  In  In40  1  0.02490858  0.83036199  0.37607095  1
  In  In41  1  0.00433900  0.84173025  0.88032787  1
  In  In42  1  0.35539044  0.17646582  0.36892403  1
  In  In43  1  0.32614838  0.17726524  0.88509553  1
  In  In44  1  0.30970210  0.50251642  0.37605855  1
  In  In45  1  0.33160450  0.49951188  0.87507178  1
  In  In46  1  0.32274629  0.82504704  0.36342406  1
  In  In47  1  0.34147751  0.82367980  0.88136738  1
  In  In48  1  0.66451582  0.16923569  0.36081214  1
  In  In49  1  0.66451650  0.15670617  0.87375724  1
  In  In50  1  0.68620209  0.49358399  0.37222839  1
  In  In51  1  0.65443515  0.50767223  0.88630168  1
  In  In52  1  0.65569643  0.83954150  0.37467567  1
  In  In53  1  0.65348377  0.82713607  0.87285377  1
  In  In54  1  0.18010801  0.01339604  0.11897565  1
  In  In55  1  0.18050571  -0.00413462  0.61944204  1
  In  In56  1  0.16539527  0.33335664  0.12646646  1
  In  In57  1  0.15999580  0.34640404  0.63368960  1
  In  In58  1  0.16446441  0.66245080  0.12462939  1
  In  In59  1  0.17573082  0.65789869  0.61535155  1
  In  In60  1  0.50270325  0.00669601  0.12237918  1
  In  In61  1  0.49861796  0.00982557  0.62247097  1
  In  In62  1  0.49858509  0.33748895  0.12102316  1
  In  In63  1  0.50376136  0.31774529  0.62380241  1
  In  In64  1  0.48587532  0.65547571  0.11814161  1
  In  In65  1  0.49378024  0.66767757  0.63219236  1
  In  In66  1  0.81618475  -0.00051525  0.13170860  1
  In  In67  1  0.82677473  -0.00868749  0.62577955  1
  In  In68  1  0.82232593  0.35221984  0.14926615  1
  In  In69  1  0.83891711  0.35017144  0.62160624  1
  In  In70  1  0.85206678  0.65865533  0.13298955  1
  In  In71  1  0.84108554  0.65021785  0.62564183  1
  In  In72  1  -0.00345384  0.66511255  0.75109325  1
  In  In73  1  -0.00283579  0.00605347  0.75526659  1
  In  In74  1  0.00396953  -0.00554328  0.25461819  1
  In  In75  1  0.49132000  0.83320080  0.50184890  1
  In  In76  1  0.33723775  -0.00342811  0.74847252  1
  In  In77  1  0.83502622  0.17857058  0.48922373  1
  In  In78  1  0.48836025  0.49536232  0.49690192  1
  In  In79  1  0.66741614  0.66722148  0.24890691  1
  In  In80  1  0.83672535  0.82849260  0.50345822  1
  In  In81  1  0.83290944  0.82801169  0.00656054  1
  In  In82  1  0.32815765  0.34159130  0.25092224  1
  In  In83  1  0.66582356  0.33504357  0.74982398  1
  In  In84  1  0.83694797  0.17152964  0.00369468  1
  In  In85  1  0.17737965  0.17893796  0.48825878  1
  Cu  Cu86  1  0.34246027  -0.00483120  0.49472294  1
  Cu  Cu87  1  0.67150963  0.33025389  0.01003152  1
  Cu  Cu88  1  0.50045414  0.49796730  0.24706154  1
  Cu  Cu89  1  0.66037784  0.00383878  0.00165382  1
  Cu  Cu90  1  0.50243076  0.82986970  0.75712273  1
  Cu  Cu91  1  0.66248389  0.66331979  0.00278103  1
  Cu  Cu92  1  0.16493545  0.17701179  0.75510589  1
  Cu  Cu93  1  0.00354809  0.66104964  0.00578453  1
  Cu  Cu94  1  0.32974896  0.33587733  0.00285367  1
  Cu  Cu95  1  0.50088756  0.16412559  0.75084185  1
  Cu  Cu96  1  0.66781987  0.33008539  0.49694061  1
  Cu  Cu97  1  0.17169225  0.82994677  0.24362555  1
  Cu  Cu98  1  0.67136521  0.65775805  0.50105571  1
  Cu  Cu99  1  0.33186414  0.66494950  0.00056823  1
  Cu  Cu100  1  0.83272079  0.83122035  0.25603701  1
  Cu  Cu101  1  0.81713561  0.83545161  0.75221574  1
  Cu  Cu102  1  0.01094514  0.65889964  0.49421792  1
  Cu  Cu103  1  0.17184617  0.16804319  0.24977108  1
  Cu  Cu104  1  0.83280304  0.50277632  0.74945830  1
  Cu  Cu105  1  0.16722859  0.49760172  0.75639749  1
  Cu  Cu106  1  0.66661031  0.01008215  0.48846383  1
  Cu  Cu107  1  0.00814044  -0.00120163  0.00662405  1
  Cu  Cu108  1  0.49650845  0.50280415  0.75718846  1
  Cu  Cu109  1  0.00806738  0.00152892  0.49281819  1
  Cu  Cu110  1  0.33516127  0.00251340  0.00377727  1
  Cu  Cu111  1  0.00266805  0.33535801  0.00394865  1
  Cu  Cu112  1  0.49087999  0.83762866  0.24536802  1
  Cu  Cu113  1  0.16625902  0.82725926  0.74602894  1
  Cu  Cu114  1  0.83202909  0.16969388  0.75068895  1
  Se  Se115  1  0.08719345  0.09095279  0.05378048  1
  Se  Se116  1  0.08751247  0.08175678  0.55443786  1
  Se  Se117  1  0.08757709  0.41890915  0.05583289  1
  Se  Se118  1  0.09961788  0.42441432  0.55231240  1
  Se  Se119  1  0.08713145  0.75048509  0.05161288  1
  Se  Se120  1  0.09003717  0.74452835  0.54976777  1
  Se  Se121  1  0.41804974  0.08917021  0.05409206  1
  Se  Se122  1  0.42170239  0.08319100  0.54645930  1
  Se  Se123  1  0.41432481  0.42021095  0.05447501  1
  Se  Se124  1  0.41151227  0.40808871  0.56621441  1
  Se  Se125  1  0.41755166  0.75049518  0.05040778  1
  Se  Se126  1  0.40465779  0.73348479  0.55371784  1
  Se  Se127  1  0.74086159  0.08517680  0.05962027  1
  Se  Se128  1  0.75003182  0.08198527  0.55323808  1
  Se  Se129  1  0.75635565  0.41355091  0.06139785  1
  Se  Se130  1  0.74815344  0.41666798  0.55000700  1
  Se  Se131  1  0.74417010  0.73745753  0.06772757  1
  Se  Se132  1  0.74221544  0.74347605  0.56403353  1
  Se  Se133  1  0.24802145  0.25150575  0.05702508  1
  Se  Se134  1  0.25018333  0.24952480  0.56962802  1
  Se  Se135  1  0.24912397  0.58133667  0.05487485  1
  Se  Se136  1  0.23997699  0.55863001  0.55109035  1
  Se  Se137  1  0.24889310  0.91683004  0.05259401  1
  Se  Se138  1  0.25784478  0.91399768  0.54874999  1
  Se  Se139  1  0.58715492  0.24616920  0.06133249  1
  Se  Se140  1  0.58402608  0.24546072  0.54755463  1
  Se  Se141  1  0.57848904  0.57746297  0.05370814  1
  Se  Se142  1  0.58300592  0.58408222  0.55987227  1
  Se  Se143  1  0.57717629  0.91569717  0.05002764  1
  Se  Se144  1  0.59205104  0.92672870  0.55205908  1
  Se  Se145  1  0.91738826  0.26398043  0.06688298  1
  Se  Se146  1  0.92580429  0.26129729  0.55536845  1
  Se  Se147  1  0.91682752  0.57766885  0.05494593  1
  Se  Se148  1  0.92191788  0.58270017  0.54970595  1
  Se  Se149  1  0.92047190  0.92472810  0.06482663  1
  Se  Se150  1  0.93109222  0.92501048  0.55853427  1
  Se  Se151  1  0.07413464  0.27015740  0.44501186  1
  Se  Se152  1  0.08352311  0.25154716  0.94802944  1
  Se  Se153  1  0.08847887  0.57912562  0.43437450  1
  Se  Se154  1  0.08835152  0.57959336  0.95145098  1
  Se  Se155  1  0.09476557  0.91266864  0.45147570  1
  Se  Se156  1  0.08782650  0.91256525  0.95307226  1
  Se  Se157  1  0.40975751  0.25731596  0.45103684  1
  Se  Se158  1  0.41753515  0.25117026  0.95300749  1
  Se  Se159  1  0.40266492  0.59273265  0.44075056  1
  Se  Se160  1  0.41490762  0.58134991  0.94529439  1
  Se  Se161  1  0.41828311  0.91885692  0.42838479  1
  Se  Se162  1  0.41440236  0.91544514  0.94930658  1
  Se  Se163  1  0.74534314  0.26182243  0.42821677  1
  Se  Se164  1  0.74412207  0.25744422  0.93846334  1
  Se  Se165  1  0.75586223  0.57679032  0.44852657  1
  Se  Se166  1  0.75025447  0.57961562  0.95367741  1
  Se  Se167  1  0.75208925  0.92294757  0.43962230  1
  Se  Se168  1  0.74512025  0.92108943  0.94427944  1
  Se  Se169  1  0.26160481  0.07675698  0.43493405  1
  Se  Se170  1  0.24937793  0.08732342  0.95248835  1
  Se  Se171  1  0.27267368  0.39197453  0.44370648  1
  Se  Se172  1  0.24847154  0.41895304  0.94623676  1
  Se  Se173  1  0.24295943  0.75722787  0.43889380  1
  Se  Se174  1  0.24820167  0.75161690  0.94885568  1
  Se  Se175  1  0.58287467  0.09141815  0.43638611  1
  Se  Se176  1  0.57898342  0.08848945  0.94743286  1
  Se  Se177  1  0.58754957  0.41309987  0.43739473  1
  Se  Se178  1  0.58692017  0.41277416  0.95459991  1
  Se  Se179  1  0.58939070  0.73958214  0.44549141  1
  Se  Se180  1  0.58121139  0.74728170  0.94791081  1
  Se  Se181  1  0.93416251  0.08644608  0.43481575  1
  Se  Se182  1  0.92741435  0.07606607  0.94346920  1
  Se  Se183  1  0.90967581  0.41682138  0.42910934  1
  Se  Se184  1  0.91500340  0.41694097  0.95139808  1
  Se  Se185  1  0.92539193  0.74336790  0.43880950  1
  Se  Se186  1  0.92322282  0.74007664  0.94214925  1
  Se  Se187  1  0.24152960  0.25106917  0.31536677  1
  Se  Se188  1  0.25404990  0.25422083  0.80761251  1
  Se  Se189  1  0.24922228  0.58095861  0.29660234  1
  Se  Se190  1  0.25181978  0.58530560  0.80378369  1
  Se  Se191  1  0.25185618  0.91932103  0.29433685  1
  Se  Se192  1  0.24449120  0.90814666  0.80792010  1
  Se  Se193  1  0.57471476  0.24973238  0.29559825  1
  Se  Se194  1  0.57473725  0.24980778  0.81244979  1
  Se  Se195  1  0.57808614  0.57808221  0.31214317  1
  Se  Se196  1  0.58414163  0.58391674  0.80769572  1
  Se  Se197  1  0.58034818  0.91372667  0.29938330  1
  Se  Se198  1  0.58135643  0.92175465  0.80574767  1
  Se  Se199  1  0.88427100  0.22407997  0.30090610  1
  Se  Se200  1  0.91772260  0.25414595  0.79868549  1
  Se  Se201  1  0.92488300  0.58782494  0.29269606  1
  Se  Se202  1  0.91120489  0.57755825  0.81596675  1
  Se  Se203  1  0.91243450  0.90829479  0.31897018  1
  Se  Se204  1  0.90267310  0.91107593  0.81169572  1
  Se  Se205  1  0.08987682  0.09152917  0.31425372  1
  Se  Se206  1  0.09327488  0.08806457  0.81561929  1
  Se  Se207  1  0.06404250  0.39855530  0.29775800  1
  Se  Se208  1  0.08029199  0.41449929  0.80647928  1
  Se  Se209  1  0.08601276  0.74964814  0.29724055  1
  Se  Se210  1  0.08742451  0.75347950  0.81184549  1
  Se  Se211  1  0.40365243  0.07919371  0.29595259  1
  Se  Se212  1  0.41777325  0.08826854  0.81340091  1
  Se  Se213  1  0.42123463  0.42642775  0.31440539  1
  Se  Se214  1  0.41540818  0.41421922  0.80636889  1
  Se  Se215  1  0.41266822  0.74711530  0.29568108  1
  Se  Se216  1  0.41399218  0.74670142  0.80439197  1
  Se  Se217  1  0.73000374  0.06558380  0.29681299  1
  Se  Se218  1  0.74603953  0.08452683  0.79786060  1
  Se  Se219  1  0.73730302  0.41392142  0.28913036  1
  Se  Se220  1  0.75242709  0.42451458  0.81251226  1
  Se  Se221  1  0.75478724  0.75082854  0.31836769  1
  Se  Se222  1  0.74148693  0.74678204  0.80570071  1
  Se  Se223  1  0.25425199  0.08441276  0.19830680  1
  Se  Se224  1  0.24130284  0.09145469  0.69503279  1
  Se  Se225  1  0.23337312  0.43213221  0.19733418  1
  Se  Se226  1  0.25259191  0.41378880  0.70452258  1
  Se  Se227  1  0.25400695  0.74653873  0.18950701  1
  Se  Se228  1  0.24582562  0.74110496  0.69336940  1
  Se  Se229  1  0.59737106  0.06690384  0.19542104  1
  Se  Se230  1  0.58290602  0.08007402  0.69738602  1
  Se  Se231  1  0.58174711  0.41463891  0.19411282  1
  Se  Se232  1  0.57393506  0.42512786  0.69071580  1
  Se  Se233  1  0.57248348  0.75174045  0.18822489  1
  Se  Se234  1  0.58229468  0.74582359  0.69922167  1
  Se  Se235  1  0.91722918  0.08011095  0.19050201  1
  Se  Se236  1  0.91194756  0.09218228  0.68594489  1
  Se  Se237  1  0.94084966  0.40317921  0.20319343  1
  Se  Se238  1  0.91964417  0.42461080  0.69516440  1
  Se  Se239  1  0.91839718  0.75331504  0.20221030  1
  Se  Se240  1  0.90449039  0.76120112  0.69292301  1
  Se  Se241  1  0.08648197  0.24933208  0.19834727  1
  Se  Se242  1  0.07955908  0.25661660  0.70132046  1
  Se  Se243  1  0.06246970  0.60222410  0.19125390  1
  Se  Se244  1  0.08812837  0.57749824  0.69237416  1
  Se  Se245  1  0.09161068  0.91513350  0.18580533  1
  Se  Se246  1  0.08710037  0.91445244  0.69117637  1
  Se  Se247  1  0.41832483  0.25000923  0.19375505  1
  Se  Se248  1  0.41778707  0.24578371  0.69711508  1
  Se  Se249  1  0.41427249  0.58052900  0.19693142  1
  Se  Se250  1  0.41296565  0.58224947  0.69892072  1
  Se  Se251  1  0.41437628  0.92188552  0.18812917  1
  Se  Se252  1  0.42554742  0.90395235  0.68743673  1
  Se  Se253  1  0.77498513  0.22985983  0.19874910  1
  Se  Se254  1  0.75547444  0.24776197  0.68493217  1
  Se  Se255  1  0.75667341  0.57368341  0.19368544  1
  Se  Se256  1  0.74840662  0.58653244  0.69802118  1
  Se  Se257  1  0.74689144  0.90652278  0.20014157  1
  Se  Se258  1  0.74011443  0.92289316  0.69797276  1
