# generated using pymatgen
data_In86Cu29Se144
_symmetry_space_group_name_H-M   'P 1'
_cell_length_a   17.58453480
_cell_length_b   17.58648576
_cell_length_c   23.44711445
_cell_angle_alpha   90.00016448
_cell_angle_beta   89.97394264
_cell_angle_gamma   89.99547235
_symmetry_Int_Tables_number   1
_chemical_formula_structural   In86Cu29Se144
_chemical_formula_sum   'In86 Cu29 Se144'
_cell_volume   7251.02337580
_cell_formula_units_Z   1
loop_
 _symmetry_equiv_pos_site_id
 _symmetry_equiv_pos_as_xyz
  1  'x, y, z'
loop_
 _atom_site_type_symbol
 _atom_site_label
 _atom_site_symmetry_multiplicity
 _atom_site_fract_x
 _atom_site_fract_y
 _atom_site_fract_z
 _atom_site_occupancy
  In  In0  1  0.00332269  0.16540835  0.11951469  1
  In  In1  1  0.00762331  0.17130822  0.62600703  1
  In  In2  1  -0.00362300  0.49487043  0.12011874  1
  In  In3  1  -0.00296146  0.49725652  0.63352342  1
  In  In4  1  0.02252354  0.86909041  0.09279300  1
  In  In5  1  -0.00938619  0.82370544  0.63064646  1
  In  In6  1  0.31503341  0.15923468  0.12069215  1
  In  In7  1  0.33887231  0.16058781  0.63412227  1
  In  In8  1  0.33363023  0.49899138  0.11581906  1
  In  In9  1  0.33207419  0.48909045  0.62711108  1
  In  In10  1  0.33907072  0.84078359  0.12257496  1
  In  In11  1  0.34931976  0.82984828  0.62629705  1
  In  In12  1  0.67984775  0.15569819  0.13381091  1
  In  In13  1  0.65571668  0.16213223  0.62304420  1
  In  In14  1  0.66357555  0.49604772  0.12112722  1
  In  In15  1  0.66591341  0.49820363  0.61670938  1
  In  In16  1  0.67116976  0.84201528  0.11983232  1
  In  In17  1  0.66381278  0.84534285  0.62560093  1
  In  In18  1  0.17270105  0.00352337  0.35784265  1
  In  In19  1  0.16972037  -0.00614824  0.88969165  1
  In  In20  1  0.15160334  0.33872925  0.36787088  1
  In  In21  1  0.16333382  0.33465930  0.87614768  1
  In  In22  1  0.16650763  0.66274046  0.37111236  1
  In  In23  1  0.15823844  0.67236228  0.88010160  1
  In  In24  1  0.50665888  0.00562233  0.37125507  1
  In  In25  1  0.49169590  -0.00419840  0.87142847  1
  In  In26  1  0.50610702  0.31981792  0.38359391  1
  In  In27  1  0.49920568  0.34582276  0.87313550  1
  In  In28  1  0.50284640  0.66621317  0.38286526  1
  In  In29  1  0.49634498  0.66792631  0.88213093  1
  In  In30  1  0.82903849  -0.00082803  0.36320587  1
  In  In31  1  0.82856800  0.00756205  0.88851406  1
  In  In32  1  0.84431743  0.34126794  0.36922227  1
  In  In33  1  0.84767259  0.32470187  0.88181506  1
  In  In34  1  0.82400161  0.66503633  0.37465341  1
  In  In35  1  0.84506574  0.65130834  0.88433192  1
  In  In36  1  0.00188982  0.16787398  0.36632283  1
  In  In37  1  -0.00927224  0.17021648  0.88940128  1
  In  In38  1  -0.00752447  0.47838835  0.36951719  1
  In  In39  1  0.00394366  0.49375368  0.87522652  1
  In  In40  1  -0.00997788  0.83350763  0.36513639  1
  In  In41  1  0.00775586  0.82977025  0.88851426  1
  In  In42  1  0.34602933  0.16562264  0.37621310  1
  In  In43  1  0.32397239  0.15916095  0.87038137  1
  In  In44  1  0.33574752  0.50710440  0.37644431  1
  In  In45  1  0.33378223  0.49564986  0.87618977  1
  In  In46  1  0.35031566  0.85533732  0.36087492  1
  In  In47  1  0.32561865  0.84229574  0.88294800  1
  In  In48  1  0.65654211  0.16157515  0.36298554  1
  In  In49  1  0.68370654  0.16361889  0.87603619  1
  In  In50  1  0.67715151  0.49068573  0.38025626  1
  In  In51  1  0.66516053  0.49796040  0.88367902  1
  In  In52  1  0.65466438  0.84066576  0.37142062  1
  In  In53  1  0.65316191  0.84178627  0.88305279  1
  In  In54  1  0.16627548  0.00020908  0.12581018  1
  In  In55  1  0.17230683  0.01316384  0.62739251  1
  In  In56  1  0.15936802  0.32600863  0.11712881  1
  In  In57  1  0.16399060  0.34483980  0.64232090  1
  In  In58  1  0.16414549  0.66509205  0.11408320  1
  In  In59  1  0.16126104  0.65591428  0.63410049  1
  In  In60  1  0.50802340  -0.01773002  0.14378798  1
  In  In61  1  0.50000318  0.00003540  0.62520865  1
  In  In62  1  0.50256237  0.34553011  0.12680512  1
  In  In63  1  0.49481674  0.32284479  0.61898269  1
  In  In64  1  0.49853700  0.66860503  0.11814171  1
  In  In65  1  0.50512664  0.67249151  0.61531459  1
  In  In66  1  0.83536882  0.00209570  0.11946005  1
  In  In67  1  0.82607797  -0.00910924  0.62756337  1
  In  In68  1  0.83525696  0.33183120  0.12434593  1
  In  In69  1  0.83251268  0.33904160  0.62527584  1
  In  In70  1  0.83730898  0.67426389  0.11404115  1
  In  In71  1  0.84743390  0.66076188  0.63322486  1
  In  In72  1  0.33018023  0.67016753  0.24882712  1
  In  In73  1  0.82464078  0.16981302  0.50456252  1
  In  In74  1  0.67258842  0.66809943  0.75553064  1
  In  In75  1  0.17145081  0.17277267  0.49502663  1
  In  In76  1  0.00105879  0.67386110  0.23604470  1
  In  In77  1  0.33173895  0.32886675  0.24840946  1
  In  In78  1  0.66919909  0.67291539  0.24403563  1
  In  In79  1  0.17021853  0.49884186  0.50617738  1
  In  In80  1  0.66780005  0.32478644  0.74535624  1
  In  In81  1  0.82213817  0.82918936  0.49277932  1
  In  In82  1  0.49899731  0.16885790  0.00552563  1
  In  In83  1  0.00578493  -0.00180362  0.76510753  1
  In  In84  1  0.32643999  0.66961871  0.75660564  1
  In  In85  1  0.17332579  0.83121658  0.49098561  1
  Cu  Cu86  1  0.83581352  0.17251940  0.24523921  1
  Cu  Cu87  1  0.00037792  0.33845060  0.00059327  1
  Cu  Cu88  1  0.33264341  0.33122131  0.50506050  1
  Cu  Cu89  1  0.66258793  0.00301194  0.00776570  1
  Cu  Cu90  1  0.33210502  0.33515946  -0.00070735  1
  Cu  Cu91  1  0.15999957  0.16466202  0.24242136  1
  Cu  Cu92  1  0.83921799  0.49804493  0.24787976  1
  Cu  Cu93  1  -0.00393425  0.66163191  -0.00098357  1
  Cu  Cu94  1  -0.00566228  -0.00341300  0.49189361  1
  Cu  Cu95  1  0.00119144  0.65570968  0.50690836  1
  Cu  Cu96  1  0.17062366  0.17276259  0.75402203  1
  Cu  Cu97  1  0.50607573  0.49861060  0.25145724  1
  Cu  Cu98  1  0.33070452  0.66575645  -0.00339131  1
  Cu  Cu99  1  0.49801824  0.16521306  0.74706662  1
  Cu  Cu100  1  0.49647553  0.16638855  0.25214300  1
  Cu  Cu101  1  0.34492951  -0.00312629  0.50094414  1
  Cu  Cu102  1  0.83941778  0.48979899  0.75646424  1
  Cu  Cu103  1  0.50002584  0.84695145  0.75063116  1
  Cu  Cu104  1  0.66133262  0.66489013  0.00033152  1
  Cu  Cu105  1  0.84097391  0.15569245  0.75776713  1
  Cu  Cu106  1  0.83472448  0.84914872  0.23926981  1
  Cu  Cu107  1  0.33765905  -0.00260337  0.00228673  1
  Cu  Cu108  1  0.83110790  0.82948677  0.75456390  1
  Cu  Cu109  1  0.49228698  0.50038391  0.74863375  1
  Cu  Cu110  1  0.67235156  0.33346492  0.00031676  1
  Cu  Cu111  1  0.67014974  0.66300591  0.49995892  1
  Cu  Cu112  1  0.34310625  0.67117531  0.49651487  1
  Cu  Cu113  1  0.66748945  0.33358492  0.49640642  1
  Cu  Cu114  1  0.16461868  0.84082200  0.76072176  1
  Se  Se115  1  0.10134552  0.09540841  0.05597902  1
  Se  Se116  1  0.07620992  0.07538825  0.55140921  1
  Se  Se117  1  0.08721005  0.42155991  0.05079571  1
  Se  Se118  1  0.07857054  0.40806443  0.56108218  1
  Se  Se119  1  0.08245186  0.74835263  0.04581431  1
  Se  Se120  1  0.08190486  0.74506554  0.55798130  1
  Se  Se121  1  0.41729900  0.07373626  0.06610497  1
  Se  Se122  1  0.41613842  0.08698975  0.55771328  1
  Se  Se123  1  0.42025250  0.41498919  0.05115545  1
  Se  Se124  1  0.41694140  0.41737375  0.55481717  1
  Se  Se125  1  0.41197673  0.74962018  0.05261199  1
  Se  Se126  1  0.42367811  0.75848584  0.54798836  1
  Se  Se127  1  0.75099517  0.08926641  0.05136713  1
  Se  Se128  1  0.73904007  0.06838164  0.55608708  1
  Se  Se129  1  0.75346413  0.41787512  0.05495714  1
  Se  Se130  1  0.75102367  0.41346590  0.55230137  1
  Se  Se131  1  0.74360199  0.75134069  0.05096342  1
  Se  Se132  1  0.74779377  0.73959482  0.56651291  1
  Se  Se133  1  0.24904628  0.24891694  0.04887021  1
  Se  Se134  1  0.25025904  0.25681147  0.56732475  1
  Se  Se135  1  0.24885287  0.58003913  0.04860269  1
  Se  Se136  1  0.26179898  0.59718380  0.56015601  1
  Se  Se137  1  0.24989554  0.91690584  0.05452191  1
  Se  Se138  1  0.25544641  0.92206134  0.55881566  1
  Se  Se139  1  0.59392865  0.25484971  0.06401502  1
  Se  Se140  1  0.58645776  0.24948676  0.55124499  1
  Se  Se141  1  0.57950876  0.57974106  0.05405615  1
  Se  Se142  1  0.58202321  0.58102489  0.55034394  1
  Se  Se143  1  0.57502661  0.91993900  0.05654410  1
  Se  Se144  1  0.57629105  0.91236834  0.55582599  1
  Se  Se145  1  0.91808360  0.25243335  0.05339513  1
  Se  Se146  1  0.92480075  0.25605235  0.55670599  1
  Se  Se147  1  0.91280274  0.57825482  0.05200921  1
  Se  Se148  1  0.91597358  0.57571224  0.55925748  1
  Se  Se149  1  0.89357421  0.90291957  0.04933340  1
  Se  Se150  1  0.92064763  0.91605926  0.55487870  1
  Se  Se151  1  0.07121290  0.25892967  0.44336898  1
  Se  Se152  1  0.08434546  0.25256730  0.94930924  1
  Se  Se153  1  0.07877021  0.58226563  0.44043117  1
  Se  Se154  1  0.08186360  0.58034573  0.94564896  1
  Se  Se155  1  0.07861024  0.92082500  0.43380766  1
  Se  Se156  1  0.07129529  0.92838258  0.95453559  1
  Se  Se157  1  0.41502239  0.24620752  0.45243704  1
  Se  Se158  1  0.41284700  0.25401068  0.93895576  1
  Se  Se159  1  0.42118965  0.57790729  0.44843353  1
  Se  Se160  1  0.41490181  0.57965279  0.94561107  1
  Se  Se161  1  0.42557823  0.91831894  0.44247435  1
  Se  Se162  1  0.42170222  0.91525068  0.94827830  1
  Se  Se163  1  0.74544289  0.25429851  0.43353503  1
  Se  Se164  1  0.75480331  0.24821712  0.94803627  1
  Se  Se165  1  0.75551683  0.58086793  0.44823500  1
  Se  Se166  1  0.74764150  0.58108968  0.94991196  1
  Se  Se167  1  0.73992782  0.93050081  0.44016339  1
  Se  Se168  1  0.74209831  0.91901102  0.95042777  1
  Se  Se169  1  0.25678210  0.07098588  0.44155483  1
  Se  Se170  1  0.25603570  0.08438257  0.95089280  1
  Se  Se171  1  0.25426190  0.40579836  0.43984753  1
  Se  Se172  1  0.24826087  0.41730784  0.94547217  1
  Se  Se173  1  0.26609084  0.74453553  0.43088363  1
  Se  Se174  1  0.24614092  0.75225262  0.94684188  1
  Se  Se175  1  0.57359253  0.10021998  0.44056723  1
  Se  Se176  1  0.58652353  0.08154947  0.94101013  1
  Se  Se177  1  0.58151162  0.41765599  0.44557088  1
  Se  Se178  1  0.58195999  0.41275062  0.94972094  1
  Se  Se179  1  0.59234429  0.74960001  0.44545717  1
  Se  Se180  1  0.57715393  0.75095909  0.94990889  1
  Se  Se181  1  0.91518282  0.08221595  0.43804869  1
  Se  Se182  1  0.92388129  0.07362591  0.95499282  1
  Se  Se183  1  0.90881464  0.42279025  0.44795080  1
  Se  Se184  1  0.91451215  0.42152121  0.94809455  1
  Se  Se185  1  0.92648027  0.73965252  0.44314576  1
  Se  Se186  1  0.91243108  0.74984108  0.94979014  1
  Se  Se187  1  0.23985989  0.23898489  0.31046385  1
  Se  Se188  1  0.25397548  0.25703420  0.80634204  1
  Se  Se189  1  0.24130200  0.56904407  0.30229382  1
  Se  Se190  1  0.23720356  0.57767758  0.81150494  1
  Se  Se191  1  0.24089443  0.90220354  0.29894985  1
  Se  Se192  1  0.24883888  0.92422683  0.81016542  1
  Se  Se193  1  0.57830519  0.25709650  0.29944381  1
  Se  Se194  1  0.57875600  0.24065583  0.81168081  1
  Se  Se195  1  0.58611005  0.58075128  0.30967001  1
  Se  Se196  1  0.57513687  0.57607123  0.80892170  1
  Se  Se197  1  0.58454051  0.92277347  0.29924337  1
  Se  Se198  1  0.58785130  0.92356739  0.80454947  1
  Se  Se199  1  0.92054001  0.25365243  0.30018749  1
  Se  Se200  1  0.92128066  0.24339013  0.80728711  1
  Se  Se201  1  0.91418763  0.58657323  0.30559886  1
  Se  Se202  1  0.91909082  0.57947370  0.80601177  1
  Se  Se203  1  0.92107609  0.92472176  0.29639760  1
  Se  Se204  1  0.90914956  0.90916406  0.81709192  1
  Se  Se205  1  0.07697977  0.08057163  0.29721182  1
  Se  Se206  1  0.09371947  0.09383941  0.81860625  1
  Se  Se207  1  0.08474471  0.42370390  0.29570938  1
  Se  Se208  1  0.07064213  0.40092213  0.80535944  1
  Se  Se209  1  0.09145144  0.75631090  0.30422961  1
  Se  Se210  1  0.07946794  0.75552150  0.80830029  1
  Se  Se211  1  0.41246710  0.08112872  0.30198604  1
  Se  Se212  1  0.41500608  0.08336195  0.80325963  1
  Se  Se213  1  0.42226332  0.41891064  0.31003575  1
  Se  Se214  1  0.41179489  0.41563763  0.80109012  1
  Se  Se215  1  0.43230517  0.75066214  0.30501549  1
  Se  Se216  1  0.42253840  0.76147267  0.80978175  1
  Se  Se217  1  0.75085354  0.08818312  0.29766897  1
  Se  Se218  1  0.75317727  0.07369762  0.80518325  1
  Se  Se219  1  0.75270402  0.41857916  0.30214749  1
  Se  Se220  1  0.75104230  0.41341258  0.81218668  1
  Se  Se221  1  0.76150058  0.76501897  0.30360818  1
  Se  Se222  1  0.75598803  0.75335043  0.82139802  1
  Se  Se223  1  0.25045112  0.07985896  0.19945243  1
  Se  Se224  1  0.25073337  0.08332078  0.70329320  1
  Se  Se225  1  0.24691988  0.41747437  0.18580486  1
  Se  Se226  1  0.24625488  0.43283729  0.70357782  1
  Se  Se227  1  0.24126518  0.75357555  0.18540513  1
  Se  Se228  1  0.24047054  0.76315909  0.69252661  1
  Se  Se229  1  0.58315125  0.08538025  0.19956730  1
  Se  Se230  1  0.58373988  0.08114163  0.69722176  1
  Se  Se231  1  0.59004435  0.41677207  0.19847975  1
  Se  Se232  1  0.57703064  0.42169276  0.69053243  1
  Se  Se233  1  0.57497828  0.75956667  0.18838331  1
  Se  Se234  1  0.57689698  0.75494513  0.69643683  1
  Se  Se235  1  0.91496509  0.08752991  0.18926281  1
  Se  Se236  1  0.91878402  0.07928662  0.69113247  1
  Se  Se237  1  0.92028150  0.41429104  0.19406845  1
  Se  Se238  1  0.91763149  0.40559123  0.70011569  1
  Se  Se239  1  0.91324674  0.76745703  0.18088642  1
  Se  Se240  1  0.91849951  0.74574116  0.70668914  1
  Se  Se241  1  0.07975327  0.25278463  0.19274394  1
  Se  Se242  1  0.08166738  0.24884420  0.70057973  1
  Se  Se243  1  0.09166319  0.57509157  0.18805412  1
  Se  Se244  1  0.07349198  0.58563498  0.70123621  1
  Se  Se245  1  0.07376690  0.91792581  0.18763788  1
  Se  Se246  1  0.08716173  0.91402677  0.69018385  1
  Se  Se247  1  0.41953204  0.24075256  0.18455999  1
  Se  Se248  1  0.41673146  0.25492180  0.69813367  1
  Se  Se249  1  0.42334896  0.57492251  0.19197160  1
  Se  Se250  1  0.42138162  0.58973837  0.68997661  1
  Se  Se251  1  0.40492207  0.91574188  0.20369616  1
  Se  Se252  1  0.41156673  0.92324130  0.69691717  1
  Se  Se253  1  0.74835777  0.25660344  0.19669136  1
  Se  Se254  1  0.76221471  0.23172924  0.69075609  1
  Se  Se255  1  0.76137268  0.58047397  0.18846340  1
  Se  Se256  1  0.75467347  0.56792595  0.69650769  1
  Se  Se257  1  0.74378838  0.92869557  0.19147136  1
  Se  Se258  1  0.74929051  0.91242508  0.70110006  1
