# generated using pymatgen
data_In86Cu29Se144
_symmetry_space_group_name_H-M   'P 1'
_cell_length_a   17.57696264
_cell_length_b   17.58039025
_cell_length_c   23.43967546
_cell_angle_alpha   90.00254965
_cell_angle_beta   90.00658895
_cell_angle_gamma   90.01417518
_symmetry_Int_Tables_number   1
_chemical_formula_structural   In86Cu29Se144
_chemical_formula_sum   'In86 Cu29 Se144'
_cell_volume   7243.09061568
_cell_formula_units_Z   1
loop_
 _symmetry_equiv_pos_site_id
 _symmetry_equiv_pos_as_xyz
  1  'x, y, z'
loop_
 _atom_site_type_symbol
 _atom_site_label
 _atom_site_symmetry_multiplicity
 _atom_site_fract_x
 _atom_site_fract_y
 _atom_site_fract_z
 _atom_site_occupancy
  In  In0  1  0.00589945  0.18229476  0.12067619  1
  In  In1  1  -0.00215755  0.16259558  0.63011839  1
  In  In2  1  -0.00209818  0.49949359  0.12186212  1
  In  In3  1  0.01367043  0.50768697  0.62123508  1
  In  In4  1  0.00705546  0.82030357  0.12549958  1
  In  In5  1  -0.01790016  0.83457181  0.62435294  1
  In  In6  1  0.34482110  0.16606888  0.12901243  1
  In  In7  1  0.36540475  0.14441711  0.65136712  1
  In  In8  1  0.32594866  0.49007425  0.11979114  1
  In  In9  1  0.33252858  0.50496374  0.61611551  1
  In  In10  1  0.33464705  0.85752671  0.11721822  1
  In  In11  1  0.35080471  0.81661499  0.62219142  1
  In  In12  1  0.65014245  0.16194971  0.11519699  1
  In  In13  1  0.62912847  0.19178108  0.65727294  1
  In  In14  1  0.66386302  0.49337671  0.11347167  1
  In  In15  1  0.66628204  0.50223283  0.62055585  1
  In  In16  1  0.66898890  0.83907622  0.12995082  1
  In  In17  1  0.66748792  0.82915229  0.62735459  1
  In  In18  1  0.18189011  -0.00985419  0.36951669  1
  In  In19  1  0.17155061  -0.01196420  0.87614999  1
  In  In20  1  0.17403365  0.34925082  0.35935676  1
  In  In21  1  0.18783522  0.33063979  0.87605884  1
  In  In22  1  0.15898685  0.65863236  0.37584641  1
  In  In23  1  0.15575906  0.67057127  0.87677755  1
  In  In24  1  0.50281458  0.00285146  0.38052545  1
  In  In25  1  0.50257048  0.00812453  0.86610253  1
  In  In26  1  0.48499213  0.34040230  0.38463698  1
  In  In27  1  0.50595225  0.33266833  0.86799503  1
  In  In28  1  0.48793841  0.67252408  0.40025528  1
  In  In29  1  0.49972397  0.65094439  0.87133048  1
  In  In30  1  0.81174750  0.00400566  0.37586430  1
  In  In31  1  0.82869722  0.00897146  0.88001893  1
  In  In32  1  0.83965236  0.34093577  0.37157799  1
  In  In33  1  0.82257477  0.34110727  0.87683684  1
  In  In34  1  0.82124796  0.67230738  0.39316058  1
  In  In35  1  0.82717268  0.65690504  0.86344891  1
  In  In36  1  -0.01247998  0.17990294  0.36769026  1
  In  In37  1  -0.00870272  0.15616027  0.88227296  1
  In  In38  1  -0.00007448  0.49829868  0.38048537  1
  In  In39  1  -0.00833813  0.50761780  0.87720364  1
  In  In40  1  0.00086413  0.82072707  0.37628760  1
  In  In41  1  0.01523940  0.82560751  0.86976027  1
  In  In42  1  0.33907585  0.17479323  0.37086485  1
  In  In43  1  0.34973494  0.17331312  0.86072638  1
  In  In44  1  0.33484391  0.49526774  0.38119450  1
  In  In45  1  0.34502445  0.48941405  0.88304861  1
  In  In46  1  0.34248675  0.84721186  0.37106800  1
  In  In47  1  0.31643468  0.83767916  0.87293425  1
  In  In48  1  0.66129725  0.15337391  0.37657229  1
  In  In49  1  0.65922940  0.16908485  0.87065955  1
  In  In50  1  0.65549208  0.51048261  0.39620492  1
  In  In51  1  0.66674395  0.49710681  0.86850877  1
  In  In52  1  0.63918485  0.85049708  0.40243687  1
  In  In53  1  0.66823861  0.83067674  0.86425039  1
  In  In54  1  0.19933119  0.00292891  0.11493499  1
  In  In55  1  0.17089663  0.00696727  0.62846070  1
  In  In56  1  0.16459277  0.34531558  0.13603604  1
  In  In57  1  0.18309505  0.34954760  0.62184237  1
  In  In58  1  0.16474780  0.66223785  0.11580499  1
  In  In59  1  0.17639652  0.65059387  0.62799196  1
  In  In60  1  0.47970419  0.01670757  0.13761410  1
  In  In61  1  0.50565633  -0.00466452  0.62736543  1
  In  In62  1  0.49288860  0.32588556  0.12004224  1
  In  In63  1  0.49505970  0.33738110  0.62567712  1
  In  In64  1  0.51095938  0.66477504  0.12291166  1
  In  In65  1  0.51677448  0.67975210  0.60378930  1
  In  In66  1  0.81255353  0.00276903  0.12491860  1
  In  In67  1  0.81718912  -0.01697207  0.62075779  1
  In  In68  1  0.84144789  0.34411575  0.11680774  1
  In  In69  1  0.81858879  0.32742512  0.62623971  1
  In  In70  1  0.84186014  0.66048517  0.12411404  1
  In  In71  1  0.83120006  0.66740397  0.62496251  1
  In  In72  1  0.00233831  0.33603028  0.75296798  1
  In  In73  1  0.83575923  0.82841284  0.00437733  1
  In  In74  1  0.00031011  0.66094251  0.24893105  1
  In  In75  1  0.17160262  0.82451867  0.50065371  1
  In  In76  1  0.82296298  0.16416660  0.50302963  1
  In  In77  1  0.49669302  0.83501352  -0.00238463  1
  In  In78  1  0.66421766  0.66978493  0.26178397  1
  In  In79  1  -0.00062443  -0.00493597  0.75640466  1
  In  In80  1  0.33635634  0.66807274  0.25795102  1
  In  In81  1  0.00622653  0.00643080  0.24677470  1
  In  In82  1  0.17458857  0.18043900  0.49596354  1
  In  In83  1  0.66739958  0.33282205  0.24924619  1
  In  In84  1  0.17054845  0.16792630  -0.00233685  1
  In  In85  1  0.33765555  0.66464470  0.74728481  1
  Cu  Cu86  1  0.49406569  0.49787866  0.25613230  1
  Cu  Cu87  1  0.83269674  0.49888255  0.74653263  1
  Cu  Cu88  1  0.66083171  0.00335055  0.50814087  1
  Cu  Cu89  1  0.82939870  0.17351220  0.24622077  1
  Cu  Cu90  1  0.66181667  0.32886956  0.50758725  1
  Cu  Cu91  1  0.83081263  0.50192693  0.25033637  1
  Cu  Cu92  1  0.65744500  0.00511292  -0.00231718  1
  Cu  Cu93  1  -0.00469859  0.66450935  0.50271525  1
  Cu  Cu94  1  0.66836965  0.65476989  -0.00745597  1
  Cu  Cu95  1  0.34411293  -0.00148918  0.50460187  1
  Cu  Cu96  1  0.50032440  0.83262552  0.74463230  1
  Cu  Cu97  1  -0.00130047  0.33768511  0.00170678  1
  Cu  Cu98  1  0.50485105  0.50192545  0.74434016  1
  Cu  Cu99  1  0.33293028  0.32549376  0.50190350  1
  Cu  Cu100  1  -0.00034623  0.00033217  0.49852106  1
  Cu  Cu101  1  0.16981663  0.16892170  0.24383132  1
  Cu  Cu102  1  0.50173192  0.16487919  0.25150502  1
  Cu  Cu103  1  0.18140349  0.83760013  0.24139074  1
  Cu  Cu104  1  -0.00026888  0.66057950  -0.00195148  1
  Cu  Cu105  1  -0.00187756  -0.00301348  -0.00146096  1
  Cu  Cu106  1  0.33768406  0.33346479  -0.00073266  1
  Cu  Cu107  1  0.33224032  0.66310648  -0.00532975  1
  Cu  Cu108  1  0.82712360  0.84430047  0.25773897  1
  Cu  Cu109  1  0.17498139  0.50037894  0.75004840  1
  Cu  Cu110  1  0.17370934  0.17230426  0.75150762  1
  Cu  Cu111  1  0.82480633  0.15966424  0.75393801  1
  Cu  Cu112  1  0.82914847  0.82707123  0.74679562  1
  Cu  Cu113  1  0.66636528  0.33125447  -0.00686179  1
  Cu  Cu114  1  -0.00016993  0.34053779  0.49937132  1
  Se  Se115  1  0.08178117  0.07535390  0.06020133  1
  Se  Se116  1  0.08015877  0.08326599  0.55402991  1
  Se  Se117  1  0.08496231  0.41428601  0.05750803  1
  Se  Se118  1  0.08898839  0.41628350  0.55335107  1
  Se  Se119  1  0.08227524  0.74817550  0.04860823  1
  Se  Se120  1  0.07744140  0.74372723  0.56357336  1
  Se  Se121  1  0.41118840  0.08041751  0.05430148  1
  Se  Se122  1  0.42234493  0.08375117  0.56029378  1
  Se  Se123  1  0.42066592  0.41905023  0.05253216  1
  Se  Se124  1  0.41438542  0.41468576  0.55191047  1
  Se  Se125  1  0.40887620  0.74275809  0.05952073  1
  Se  Se126  1  0.41441088  0.74546817  0.54065906  1
  Se  Se127  1  0.74527015  0.08613582  0.04971917  1
  Se  Se128  1  0.73362038  0.08850485  0.57076154  1
  Se  Se129  1  0.75090841  0.41579585  0.04662126  1
  Se  Se130  1  0.75084743  0.41279925  0.55346910  1
  Se  Se131  1  0.73857415  0.73711184  0.05980398  1
  Se  Se132  1  0.76576947  0.76641991  0.55946003  1
  Se  Se133  1  0.25483331  0.25721095  0.06217741  1
  Se  Se134  1  0.26512909  0.24373870  0.57006580  1
  Se  Se135  1  0.25057563  0.57914101  0.05077485  1
  Se  Se136  1  0.24806465  0.58570873  0.54743301  1
  Se  Se137  1  0.24242432  0.90624580  0.04006460  1
  Se  Se138  1  0.25661607  0.92055007  0.56043123  1
  Se  Se139  1  0.57783791  0.25245063  0.04724065  1
  Se  Se140  1  0.57971535  0.24555413  0.56143630  1
  Se  Se141  1  0.57999786  0.58015033  0.04892304  1
  Se  Se142  1  0.58038702  0.57241127  0.54720135  1
  Se  Se143  1  0.58464644  0.92281695  0.06101834  1
  Se  Se144  1  0.58210846  0.90973442  0.55608689  1
  Se  Se145  1  0.91535181  0.24959682  0.04991849  1
  Se  Se146  1  0.92435571  0.25366907  0.55818539  1
  Se  Se147  1  0.91360096  0.57915571  0.05066851  1
  Se  Se148  1  0.91632088  0.58001898  0.55832611  1
  Se  Se149  1  0.92192621  0.92199685  0.06629348  1
  Se  Se150  1  0.91347835  0.92059227  0.55045839  1
  Se  Se151  1  0.07568516  0.26058797  0.43651032  1
  Se  Se152  1  0.07708744  0.25902863  0.93779215  1
  Se  Se153  1  0.08086356  0.58298603  0.44966318  1
  Se  Se154  1  0.08523104  0.57761780  0.94594950  1
  Se  Se155  1  0.08246474  0.92217754  0.44006852  1
  Se  Se156  1  0.07908789  0.91528343  0.94414550  1
  Se  Se157  1  0.41749130  0.24082337  0.45073993  1
  Se  Se158  1  0.41689777  0.25457223  0.93889519  1
  Se  Se159  1  0.40851077  0.57562868  0.45485134  1
  Se  Se160  1  0.42281728  0.58099635  0.94924555  1
  Se  Se161  1  0.42289550  0.91350185  0.44944762  1
  Se  Se162  1  0.41127845  0.92320051  0.93509295  1
  Se  Se163  1  0.74152545  0.25792555  0.43808437  1
  Se  Se164  1  0.74861884  0.24557452  0.94090756  1
  Se  Se165  1  0.76511702  0.56619409  0.45464909  1
  Se  Se166  1  0.75448486  0.57675361  0.93906846  1
  Se  Se167  1  0.74941165  0.92327009  0.45453585  1
  Se  Se168  1  0.73947844  0.91541772  0.94567622  1
  Se  Se169  1  0.25902667  0.07450921  0.44381819  1
  Se  Se170  1  0.25817142  0.08671347  0.93217969  1
  Se  Se171  1  0.24838361  0.40570781  0.44522765  1
  Se  Se172  1  0.24981922  0.41815608  0.95137209  1
  Se  Se173  1  0.25751434  0.74605991  0.43121661  1
  Se  Se174  1  0.24826671  0.74664131  0.94352895  1
  Se  Se175  1  0.57977428  0.08805379  0.45372419  1
  Se  Se176  1  0.57672902  0.08706145  0.94231185  1
  Se  Se177  1  0.57756536  0.41084774  0.45295184  1
  Se  Se178  1  0.58437113  0.41692393  0.93975715  1
  Se  Se179  1  0.61154544  0.72059725  0.44705643  1
  Se  Se180  1  0.58993979  0.74348533  0.93884785  1
  Se  Se181  1  0.91993578  0.08118622  0.43879200  1
  Se  Se182  1  0.90916375  0.08248752  0.95550844  1
  Se  Se183  1  0.91082982  0.41955201  0.44836982  1
  Se  Se184  1  0.91562689  0.41552613  0.94295884  1
  Se  Se185  1  0.91782123  0.75512008  0.45157120  1
  Se  Se186  1  0.91910711  0.74204966  0.93769366  1
  Se  Se187  1  0.25160192  0.24997170  0.30160699  1
  Se  Se188  1  0.25983352  0.25894483  0.79732048  1
  Se  Se189  1  0.24166796  0.57306996  0.30764895  1
  Se  Se190  1  0.25349321  0.57810878  0.81461957  1
  Se  Se191  1  0.26370571  0.92116599  0.29427146  1
  Se  Se192  1  0.24385148  0.91643256  0.79824113  1
  Se  Se193  1  0.57648835  0.24934577  0.31312593  1
  Se  Se194  1  0.58144098  0.24723742  0.79680107  1
  Se  Se195  1  0.56902934  0.57940347  0.31734361  1
  Se  Se196  1  0.58781990  0.58497741  0.79859078  1
  Se  Se197  1  0.59323128  0.92366418  0.31502201  1
  Se  Se198  1  0.58127761  0.91439409  0.80185005  1
  Se  Se199  1  0.91190374  0.26050874  0.29497142  1
  Se  Se200  1  0.91177830  0.24026756  0.80923734  1
  Se  Se201  1  0.90294615  0.58682986  0.31330886  1
  Se  Se202  1  0.92030308  0.58085240  0.79736246  1
  Se  Se203  1  0.91816028  0.91907850  0.31297450  1
  Se  Se204  1  0.90420870  0.90549839  0.81461630  1
  Se  Se205  1  0.09417525  0.09368595  0.31251355  1
  Se  Se206  1  0.08991755  0.09418397  0.81069802  1
  Se  Se207  1  0.06680517  0.41671680  0.30436935  1
  Se  Se208  1  0.09531867  0.42212307  0.81310122  1
  Se  Se209  1  0.09731597  0.75988071  0.30083175  1
  Se  Se210  1  0.08507835  0.74302790  0.79712289  1
  Se  Se211  1  0.41937832  0.08231656  0.30799371  1
  Se  Se212  1  0.41759966  0.07966135  0.79265698  1
  Se  Se213  1  0.41019432  0.41340799  0.30632423  1
  Se  Se214  1  0.42202783  0.42328726  0.80288303  1
  Se  Se215  1  0.43479702  0.75431284  0.31270626  1
  Se  Se216  1  0.42312946  0.75697684  0.81180781  1
  Se  Se217  1  0.74821551  0.08978589  0.29988760  1
  Se  Se218  1  0.74319315  0.07572686  0.80663871  1
  Se  Se219  1  0.74391324  0.43126275  0.31220360  1
  Se  Se220  1  0.74950038  0.41394415  0.79816335  1
  Se  Se221  1  0.75238297  0.76270885  0.31904486  1
  Se  Se222  1  0.74411036  0.74161765  0.79714889  1
  Se  Se223  1  0.25576378  0.08405587  0.19621581  1
  Se  Se224  1  0.25061097  0.07912469  0.70289983  1
  Se  Se225  1  0.26262928  0.41376319  0.20012080  1
  Se  Se226  1  0.26241611  0.42466014  0.69577440  1
  Se  Se227  1  0.25340852  0.74956267  0.18352020  1
  Se  Se228  1  0.24500547  0.75623082  0.69049475  1
  Se  Se229  1  0.58624593  0.08453715  0.19662466  1
  Se  Se230  1  0.58406195  0.06936919  0.70417197  1
  Se  Se231  1  0.57610137  0.42481054  0.19161121  1
  Se  Se232  1  0.58733937  0.41721617  0.69131648  1
  Se  Se233  1  0.57680654  0.75755952  0.19643553  1
  Se  Se234  1  0.57871656  0.74410787  0.69217920  1
  Se  Se235  1  0.91079161  0.09159509  0.18661148  1
  Se  Se236  1  0.90490275  0.08039552  0.69288854  1
  Se  Se237  1  0.91345990  0.42252362  0.19422862  1
  Se  Se238  1  0.91447740  0.41832883  0.68639440  1
  Se  Se239  1  0.90413771  0.76073195  0.19789949  1
  Se  Se240  1  0.91755896  0.74612087  0.69780309  1
  Se  Se241  1  0.08122990  0.25295834  0.19826043  1
  Se  Se242  1  0.09337778  0.24858913  0.68901708  1
  Se  Se243  1  0.09450795  0.57415428  0.19257199  1
  Se  Se244  1  0.08713335  0.58152935  0.70021700  1
  Se  Se245  1  0.09458672  0.91647369  0.18456023  1
  Se  Se246  1  0.08393260  0.91184792  0.68840593  1
  Se  Se247  1  0.42050149  0.25284099  0.19967378  1
  Se  Se248  1  0.41270647  0.26432197  0.70076894  1
  Se  Se249  1  0.42270314  0.58075064  0.19120174  1
  Se  Se250  1  0.42937525  0.58517381  0.68256771  1
  Se  Se251  1  0.42428993  0.90492585  0.19520655  1
  Se  Se252  1  0.41399046  0.91137797  0.69173767  1
  Se  Se253  1  0.75112249  0.24878286  0.18088870  1
  Se  Se254  1  0.74885119  0.25256875  0.70463875  1
  Se  Se255  1  0.74764129  0.58041938  0.19132016  1
  Se  Se256  1  0.74901866  0.58176916  0.69280224  1
  Se  Se257  1  0.74384297  0.92316753  0.20225448  1
  Se  Se258  1  0.74364851  0.91521143  0.70129049  1
