# generated using pymatgen
data_In86Cu29Se144
_symmetry_space_group_name_H-M   'P 1'
_cell_length_a   17.69801748
_cell_length_b   17.70103483
_cell_length_c   23.54678644
_cell_angle_alpha   90.06734521
_cell_angle_beta   90.01267212
_cell_angle_gamma   89.97715734
_symmetry_Int_Tables_number   1
_chemical_formula_structural   In86Cu29Se144
_chemical_formula_sum   'In86 Cu29 Se144'
_cell_volume   7376.57183737
_cell_formula_units_Z   1
loop_
 _symmetry_equiv_pos_site_id
 _symmetry_equiv_pos_as_xyz
  1  'x, y, z'
loop_
 _atom_site_type_symbol
 _atom_site_label
 _atom_site_symmetry_multiplicity
 _atom_site_fract_x
 _atom_site_fract_y
 _atom_site_fract_z
 _atom_site_occupancy
  In  In0  1  -0.00229774  0.18083119  0.12168897  1
  In  In1  1  0.00250779  0.16581049  0.63365230  1
  In  In2  1  0.01481513  0.49196345  0.12880221  1
  In  In3  1  0.00227219  0.50332328  0.63254371  1
  In  In4  1  -0.01191962  0.83011076  0.11605240  1
  In  In5  1  0.00033764  0.83487958  0.63341722  1
  In  In6  1  0.33606649  0.16447419  0.12710721  1
  In  In7  1  0.33616482  0.16587217  0.62378871  1
  In  In8  1  0.29740128  0.52892979  0.15272911  1
  In  In9  1  0.31918468  0.49650649  0.62239177  1
  In  In10  1  0.33060861  0.83372362  0.11560658  1
  In  In11  1  0.33724166  0.84717947  0.62517558  1
  In  In12  1  0.66612122  0.17100140  0.11448505  1
  In  In13  1  0.66252282  0.17101327  0.62555477  1
  In  In14  1  0.66122084  0.49871334  0.12147925  1
  In  In15  1  0.66325132  0.49925250  0.63022246  1
  In  In16  1  0.66725816  0.83609943  0.11045480  1
  In  In17  1  0.68231482  0.84377013  0.64383979  1
  In  In18  1  0.16386427  0.00213491  0.38661284  1
  In  In19  1  0.16256391  -0.00722208  0.87023542  1
  In  In20  1  0.15283723  0.31772796  0.36032222  1
  In  In21  1  0.16247397  0.32984352  0.87590043  1
  In  In22  1  0.17019297  0.66626857  0.36197441  1
  In  In23  1  0.15368685  0.67305787  0.88547092  1
  In  In24  1  0.50870618  0.00137914  0.37957011  1
  In  In25  1  0.50083044  -0.00071712  0.87241774  1
  In  In26  1  0.49221955  0.33112291  0.37991068  1
  In  In27  1  0.49467316  0.32350681  0.87149467  1
  In  In28  1  0.48166866  0.67374553  0.37312950  1
  In  In29  1  0.51191242  0.66629003  0.87636206  1
  In  In30  1  0.84102067  0.00486769  0.38420314  1
  In  In31  1  0.82908059  -0.00852799  0.86873809  1
  In  In32  1  0.83799038  0.32030330  0.38198470  1
  In  In33  1  0.82290481  0.31558136  0.85419439  1
  In  In34  1  0.83606582  0.65526735  0.37457445  1
  In  In35  1  0.85040481  0.68521186  0.85709688  1
  In  In36  1  -0.00534408  0.16936866  0.38581076  1
  In  In37  1  -0.03083908  0.13708305  0.83488372  1
  In  In38  1  0.00451661  0.49697249  0.36471839  1
  In  In39  1  0.00181248  0.49990445  0.87367620  1
  In  In40  1  0.01155295  0.83579795  0.37478371  1
  In  In41  1  -0.00038739  0.83891603  0.87169782  1
  In  In42  1  0.32504289  0.17353945  0.38579133  1
  In  In43  1  0.34259388  0.17493906  0.87184451  1
  In  In44  1  0.31420763  0.48288109  0.35219348  1
  In  In45  1  0.32752566  0.48289868  0.87856631  1
  In  In46  1  0.32701517  0.81972119  0.36682607  1
  In  In47  1  0.32376351  0.83739647  0.88357335  1
  In  In48  1  0.66927678  0.16868249  0.40032703  1
  In  In49  1  0.66550437  0.16017057  0.86751863  1
  In  In50  1  0.67098217  0.49873616  0.38000103  1
  In  In51  1  0.67388973  0.50588514  0.86359736  1
  In  In52  1  0.65911836  0.83542678  0.37713087  1
  In  In53  1  0.67001971  0.83235909  0.87302758  1
  In  In54  1  0.17568009  0.00202973  0.11990916  1
  In  In55  1  0.16752776  0.00005703  0.62727744  1
  In  In56  1  0.15587658  0.34351131  0.13511090  1
  In  In57  1  0.18050832  0.33006221  0.62970005  1
  In  In58  1  0.16007572  0.67406671  0.11788258  1
  In  In59  1  0.15038545  0.67615446  0.62512787  1
  In  In60  1  0.50038365  0.00541433  0.11472511  1
  In  In61  1  0.48768151  0.00593719  0.63351882  1
  In  In62  1  0.49272628  0.32625970  0.11762128  1
  In  In63  1  0.51500813  0.31264776  0.63324252  1
  In  In64  1  0.48981594  0.66822843  0.12077967  1
  In  In65  1  0.50626354  0.68020466  0.62736828  1
  In  In66  1  0.83072952  0.00326628  0.11314685  1
  In  In67  1  0.80134971  0.04114190  0.68336992  1
  In  In68  1  0.84587613  0.33631216  0.12253876  1
  In  In69  1  0.83553235  0.32386638  0.63184320  1
  In  In70  1  0.83512445  0.67920797  0.12015369  1
  In  In71  1  0.83077921  0.67649584  0.63718001  1
  In  In72  1  0.16482000  0.49883791  0.48832390  1
  In  In73  1  0.67036847  -0.00101917  0.25850545  1
  In  In74  1  0.33158608  0.00360261  0.24292079  1
  In  In75  1  0.83824740  0.84026361  0.51771735  1
  In  In76  1  0.00030767  0.00188342  0.25352746  1
  In  In77  1  0.83531686  0.49758330  -0.00252887  1
  In  In78  1  0.49730368  0.49891470  0.49741571  1
  In  In79  1  0.33805572  0.66313379  0.75182754  1
  In  In80  1  0.49848717  0.83721573  0.49906137  1
  In  In81  1  0.66424119  0.66363999  0.24298769  1
  In  In82  1  0.16087677  0.16578860  -0.00331071  1
  In  In83  1  0.67110333  0.32881238  0.26184614  1
  In  In84  1  0.49485344  0.49420521  -0.00179081  1
  In  In85  1  0.83243904  0.49889315  0.50853652  1
  Cu  Cu86  1  0.83912738  0.17215212  0.25477243  1
  Cu  Cu87  1  0.33090094  0.00116004  0.50555598  1
  Cu  Cu88  1  0.83153772  0.49755713  0.74703844  1
  Cu  Cu89  1  0.83155000  0.82853116  0.24431710  1
  Cu  Cu90  1  0.67226470  0.67341347  -0.00849993  1
  Cu  Cu91  1  0.17106637  0.83416777  0.75409481  1
  Cu  Cu92  1  0.16456647  0.83312808  0.24499426  1
  Cu  Cu93  1  0.33972246  0.32641903  0.50284439  1
  Cu  Cu94  1  -0.00247973  0.66739922  -0.00551089  1
  Cu  Cu95  1  0.17251771  0.49816512  0.75306165  1
  Cu  Cu96  1  0.00262282  0.33203901  0.50470510  1
  Cu  Cu97  1  0.17802818  0.16979287  0.74634513  1
  Cu  Cu98  1  0.32573822  0.33517110  0.00109283  1
  Cu  Cu99  1  0.50353774  0.49485138  0.25046352  1
  Cu  Cu100  1  0.50110316  0.16168762  0.24974771  1
  Cu  Cu101  1  0.49441436  0.49318819  0.75152171  1
  Cu  Cu102  1  -0.00104392  0.67880272  0.50173361  1
  Cu  Cu103  1  0.67269109  -0.00176263  0.51750780  1
  Cu  Cu104  1  0.49775176  0.16509304  0.75116655  1
  Cu  Cu105  1  0.32927079  0.66450106  0.00418562  1
  Cu  Cu106  1  0.66542023  0.00486444  -0.00946643  1
  Cu  Cu107  1  0.84702758  0.50079521  0.24736618  1
  Cu  Cu108  1  -0.00541830  0.00082651  -0.01223989  1
  Cu  Cu109  1  0.66803656  0.32450280  -0.01274314  1
  Cu  Cu110  1  -0.00149053  0.00750627  0.50926262  1
  Cu  Cu111  1  0.50539889  0.83692495  0.75277108  1
  Cu  Cu112  1  -0.00603694  0.32542150  -0.00306179  1
  Cu  Cu113  1  0.32587609  0.66761472  0.48974864  1
  Cu  Cu114  1  0.33912063  0.00268628  -0.00211512  1
  Se  Se115  1  0.06951223  0.07445366  0.05748589  1
  Se  Se116  1  0.08546680  0.08755070  0.56128021  1
  Se  Se117  1  0.07769539  0.40499738  0.05291922  1
  Se  Se118  1  0.08363881  0.41626514  0.55988744  1
  Se  Se119  1  0.07717728  0.75475649  0.04841218  1
  Se  Se120  1  0.08025177  0.76241885  0.55391168  1
  Se  Se121  1  0.41515625  0.09083908  0.05191943  1
  Se  Se122  1  0.41920906  0.08172153  0.55450341  1
  Se  Se123  1  0.40220291  0.41827997  0.06239943  1
  Se  Se124  1  0.41287879  0.41191443  0.56244133  1
  Se  Se125  1  0.41672659  0.75040338  0.04881090  1
  Se  Se126  1  0.40516860  0.74229552  0.55497399  1
  Se  Se127  1  0.74717971  0.08671673  0.04809985  1
  Se  Se128  1  0.75491525  0.06988287  0.57927395  1
  Se  Se129  1  0.73923749  0.40503476  0.05470922  1
  Se  Se130  1  0.74283720  0.40758297  0.56279074  1
  Se  Se131  1  0.75543259  0.75356287  0.04723712  1
  Se  Se132  1  0.73919958  0.74827598  0.56413270  1
  Se  Se133  1  0.24812910  0.25167144  0.06065887  1
  Se  Se134  1  0.25125546  0.24850365  0.55495305  1
  Se  Se135  1  0.24751561  0.58168090  0.05762645  1
  Se  Se136  1  0.24699137  0.59309640  0.55441735  1
  Se  Se137  1  0.25113546  0.92145764  0.04857499  1
  Se  Se138  1  0.24815938  0.91557486  0.55524948  1
  Se  Se139  1  0.58208269  0.25368997  0.04861606  1
  Se  Se140  1  0.57932646  0.24270621  0.55164102  1
  Se  Se141  1  0.59176352  0.59146395  0.05085779  1
  Se  Se142  1  0.58482382  0.58995242  0.55821485  1
  Se  Se143  1  0.58401942  0.92342954  0.04807020  1
  Se  Se144  1  0.58695803  0.91541603  0.56935799  1
  Se  Se145  1  0.90731141  0.24528426  0.04919546  1
  Se  Se146  1  0.92425532  0.25087947  0.56172965  1
  Se  Se147  1  0.92301840  0.58639156  0.05914384  1
  Se  Se148  1  0.92446086  0.59415117  0.56049923  1
  Se  Se149  1  0.91462724  0.92035439  0.04802980  1
  Se  Se150  1  0.92023624  0.93439682  0.57385747  1
  Se  Se151  1  0.08566634  0.25502717  0.44607851  1
  Se  Se152  1  0.06757191  0.24340752  0.93447761  1
  Se  Se153  1  0.07196846  0.59597435  0.43816610  1
  Se  Se154  1  0.07990641  0.57692567  0.94853911  1
  Se  Se155  1  0.07359225  0.92255236  0.44997897  1
  Se  Se156  1  0.08371324  0.91638058  0.94339813  1
  Se  Se157  1  0.42338974  0.24295198  0.45069665  1
  Se  Se158  1  0.41318835  0.25598431  0.94880020  1
  Se  Se159  1  0.40080505  0.57879681  0.43480161  1
  Se  Se160  1  0.40693270  0.58824139  0.93861559  1
  Se  Se161  1  0.40426409  0.92149779  0.43799262  1
  Se  Se162  1  0.41848659  0.91760885  0.94360529  1
  Se  Se163  1  0.75936196  0.25241670  0.45678876  1
  Se  Se164  1  0.75205641  0.24422690  0.93487338  1
  Se  Se165  1  0.74279128  0.59362848  0.44880619  1
  Se  Se166  1  0.75259205  0.59005571  0.93612137  1
  Se  Se167  1  0.74323122  0.92144578  0.44753076  1
  Se  Se168  1  0.74895354  0.91666278  0.94362547  1
  Se  Se169  1  0.24816159  0.08467123  0.45198950  1
  Se  Se170  1  0.25596115  0.08007204  0.93768447  1
  Se  Se171  1  0.26121147  0.40629626  0.44030014  1
  Se  Se172  1  0.23916986  0.41399889  0.94923172  1
  Se  Se173  1  0.24101306  0.74944913  0.43851358  1
  Se  Se174  1  0.24697779  0.74835843  0.94993477  1
  Se  Se175  1  0.58853699  0.07104316  0.45572332  1
  Se  Se176  1  0.57985121  0.08757099  0.94050877  1
  Se  Se177  1  0.59374540  0.40595591  0.44432602  1
  Se  Se178  1  0.59152287  0.41533709  0.93511474  1
  Se  Se179  1  0.58494604  0.73900584  0.44216764  1
  Se  Se180  1  0.58240553  0.75538648  0.94535403  1
  Se  Se181  1  0.91293309  0.08799091  0.45563355  1
  Se  Se182  1  0.91645968  0.08134170  0.92979132  1
  Se  Se183  1  0.92756545  0.41720142  0.44448274  1
  Se  Se184  1  0.91419991  0.40433159  0.93496770  1
  Se  Se185  1  0.91415506  0.75279891  0.44111247  1
  Se  Se186  1  0.91752184  0.75203186  0.94063729  1
  Se  Se187  1  0.26190865  0.25137223  0.30750554  1
  Se  Se188  1  0.25168145  0.25335687  0.80753667  1
  Se  Se189  1  0.26575364  0.59736842  0.29664715  1
  Se  Se190  1  0.24621399  0.58150917  0.81497137  1
  Se  Se191  1  0.23870098  0.91714118  0.30636434  1
  Se  Se192  1  0.25636059  0.91586138  0.80522699  1
  Se  Se193  1  0.58256139  0.23268183  0.31627098  1
  Se  Se194  1  0.58209844  0.24889275  0.80294391  1
  Se  Se195  1  0.57954364  0.57673244  0.31109119  1
  Se  Se196  1  0.57613001  0.58013173  0.80161257  1
  Se  Se197  1  0.57021472  0.90574047  0.30384571  1
  Se  Se198  1  0.58878989  0.91962467  0.80533974  1
  Se  Se199  1  0.92288272  0.25169018  0.30877196  1
  Se  Se200  1  0.94057510  0.27178598  0.79925200  1
  Se  Se201  1  0.92218083  0.58797546  0.30227557  1
  Se  Se202  1  0.91677839  0.57604535  0.80275276  1
  Se  Se203  1  0.90464191  0.90941990  0.30952013  1
  Se  Se204  1  0.90343753  0.89976066  0.80037413  1
  Se  Se205  1  0.08701164  0.08944375  0.31467836  1
  Se  Se206  1  0.09806445  0.08417235  0.79892601  1
  Se  Se207  1  0.11318825  0.43885909  0.30794381  1
  Se  Se208  1  0.08692942  0.41841993  0.80611360  1
  Se  Se209  1  0.08080305  0.75330897  0.30063844  1
  Se  Se210  1  0.08768925  0.75233930  0.80746485  1
  Se  Se211  1  0.42115158  0.08454200  0.31150820  1
  Se  Se212  1  0.41526769  0.08253502  0.80516333  1
  Se  Se213  1  0.42400058  0.40917586  0.30287287  1
  Se  Se214  1  0.41348561  0.41319586  0.80677080  1
  Se  Se215  1  0.42225299  0.75904386  0.29845885  1
  Se  Se216  1  0.42324622  0.75592837  0.81172270  1
  Se  Se217  1  0.75743070  0.09506728  0.31591721  1
  Se  Se218  1  0.74740308  0.07592261  0.79914549  1
  Se  Se219  1  0.76665715  0.42588677  0.31118427  1
  Se  Se220  1  0.74497588  0.41402952  0.79620311  1
  Se  Se221  1  0.75196490  0.75392280  0.30855854  1
  Se  Se222  1  0.72872744  0.72809384  0.80801641  1
  Se  Se223  1  0.23384125  0.09661722  0.19481284  1
  Se  Se224  1  0.25604282  0.08205680  0.69284756  1
  Se  Se225  1  0.26879401  0.39737938  0.19166704  1
  Se  Se226  1  0.25667928  0.41664662  0.70067546  1
  Se  Se227  1  0.24708263  0.75731711  0.18605318  1
  Se  Se228  1  0.24951981  0.75419578  0.69125588  1
  Se  Se229  1  0.58559306  0.08705209  0.19107237  1
  Se  Se230  1  0.58013991  0.08477068  0.69496257  1
  Se  Se231  1  0.58409737  0.41322563  0.19303664  1
  Se  Se232  1  0.57989063  0.41538237  0.69584994  1
  Se  Se233  1  0.58115965  0.75758385  0.18398565  1
  Se  Se234  1  0.58768739  0.75530792  0.69858080  1
  Se  Se235  1  0.90726802  0.08633090  0.19134095  1
  Se  Se236  1  0.93262253  0.09219556  0.71621378  1
  Se  Se237  1  0.92388479  0.41248752  0.19508424  1
  Se  Se238  1  0.91639955  0.41758716  0.69375217  1
  Se  Se239  1  0.91903833  0.74954308  0.19390916  1
  Se  Se240  1  0.94246757  0.72690433  0.69422713  1
  Se  Se241  1  0.07841535  0.24775587  0.19534829  1
  Se  Se242  1  0.09212360  0.25282268  0.69549761  1
  Se  Se243  1  0.08757221  0.58769270  0.18896129  1
  Se  Se244  1  0.09285551  0.58189136  0.69721590  1
  Se  Se245  1  0.08544707  0.91592374  0.18640035  1
  Se  Se246  1  0.08933634  0.91652538  0.69854643  1
  Se  Se247  1  0.42346508  0.24473714  0.19379155  1
  Se  Se248  1  0.41421307  0.24847165  0.69688405  1
  Se  Se249  1  0.42682995  0.57803983  0.19274757  1
  Se  Se250  1  0.42341191  0.57571914  0.68556138  1
  Se  Se251  1  0.42278606  0.91590770  0.18487836  1
  Se  Se252  1  0.41543241  0.91519895  0.70227731  1
  Se  Se253  1  0.75545645  0.24549564  0.19214487  1
  Se  Se254  1  0.74840237  0.24479358  0.69692668  1
  Se  Se255  1  0.76038071  0.57246850  0.18697896  1
  Se  Se256  1  0.74846409  0.58234405  0.69550920  1
  Se  Se257  1  0.75379779  0.91332486  0.18867694  1
  Se  Se258  1  0.79002491  0.89645111  0.70713579  1
