# generated using pymatgen
data_In86Cu29Se144
_symmetry_space_group_name_H-M   'P 1'
_cell_length_a   17.58592793
_cell_length_b   17.58804988
_cell_length_c   23.44613148
_cell_angle_alpha   90.02977884
_cell_angle_beta   89.98595835
_cell_angle_gamma   89.99522200
_symmetry_Int_Tables_number   1
_chemical_formula_structural   In86Cu29Se144
_chemical_formula_sum   'In86 Cu29 Se144'
_cell_volume   7251.93830156
_cell_formula_units_Z   1
loop_
 _symmetry_equiv_pos_site_id
 _symmetry_equiv_pos_as_xyz
  1  'x, y, z'
loop_
 _atom_site_type_symbol
 _atom_site_label
 _atom_site_symmetry_multiplicity
 _atom_site_fract_x
 _atom_site_fract_y
 _atom_site_fract_z
 _atom_site_occupancy
  In  In0  1  0.00400035  0.17976127  0.12702206  1
  In  In1  1  -0.00183196  0.16557057  0.61898200  1
  In  In2  1  -0.00989670  0.49621277  0.12598791  1
  In  In3  1  0.00690329  0.49394068  0.63025796  1
  In  In4  1  -0.00141592  0.81938496  0.11633516  1
  In  In5  1  -0.00748854  0.83145729  0.64303877  1
  In  In6  1  0.33019087  0.16797148  0.12613545  1
  In  In7  1  0.30898536  0.18574029  0.65232353  1
  In  In8  1  0.33801105  0.48618662  0.12588118  1
  In  In9  1  0.33237236  0.50052537  0.62585923  1
  In  In10  1  0.34538091  0.84163877  0.11263556  1
  In  In11  1  0.32668209  0.83992037  0.63443261  1
  In  In12  1  0.67615592  0.18055617  0.11143353  1
  In  In13  1  0.66764754  0.16167303  0.62795245  1
  In  In14  1  0.66471708  0.49832914  0.12521837  1
  In  In15  1  0.66133514  0.51022577  0.63310178  1
  In  In16  1  0.64952991  0.83206494  0.11986937  1
  In  In17  1  0.67217104  0.83283385  0.64296318  1
  In  In18  1  0.18599438  0.00029743  0.37344019  1
  In  In19  1  0.15389512  -0.00244492  0.86159102  1
  In  In20  1  0.17039124  0.33231994  0.37605906  1
  In  In21  1  0.18145603  0.32552198  0.86958360  1
  In  In22  1  0.15566329  0.66007703  0.38018590  1
  In  In23  1  0.18107690  0.67557595  0.86821629  1
  In  In24  1  0.49615165  0.01583475  0.37313107  1
  In  In25  1  0.50004450  -0.00172242  0.87642021  1
  In  In26  1  0.50493968  0.33800999  0.36890025  1
  In  In27  1  0.49185398  0.33941012  0.88090740  1
  In  In28  1  0.49546450  0.65247726  0.37666639  1
  In  In29  1  0.51028647  0.66611778  0.88138225  1
  In  In30  1  0.84737255  -0.00188231  0.37618210  1
  In  In31  1  0.83959196  -0.00051218  0.86498158  1
  In  In32  1  0.81987999  0.32565812  0.36597031  1
  In  In33  1  0.82284918  0.34551726  0.89060202  1
  In  In34  1  0.82567639  0.66315249  0.37216095  1
  In  In35  1  0.81277199  0.64864042  0.85146182  1
  In  In36  1  -0.00815340  0.17663068  0.38566437  1
  In  In37  1  0.00336235  0.15464056  0.86925983  1
  In  In38  1  0.01451163  0.49808609  0.38126752  1
  In  In39  1  -0.01793919  0.50381790  0.87526069  1
  In  In40  1  -0.00353138  0.81861761  0.37674114  1
  In  In41  1  0.00318203  0.83946209  0.86450156  1
  In  In42  1  0.33428707  0.16354299  0.37097192  1
  In  In43  1  0.33784903  0.17523031  0.86043154  1
  In  In44  1  0.34840082  0.48239853  0.39327155  1
  In  In45  1  0.37260048  0.52441931  0.84019403  1
  In  In46  1  0.32631974  0.84528862  0.37304463  1
  In  In47  1  0.33598666  0.83356569  0.87732217  1
  In  In48  1  0.66035860  0.17902842  0.37519610  1
  In  In49  1  0.67663585  0.15802088  0.88419165  1
  In  In50  1  0.65413370  0.48394770  0.36001209  1
  In  In51  1  0.66066588  0.51386969  0.88486612  1
  In  In52  1  0.67462019  0.82606069  0.37042757  1
  In  In53  1  0.65225480  0.81176783  0.86763886  1
  In  In54  1  0.18062261  0.00726429  0.11879055  1
  In  In55  1  0.15494689  0.01885483  0.63873035  1
  In  In56  1  0.16714446  0.33050888  0.13743983  1
  In  In57  1  0.17840907  0.34273243  0.60768191  1
  In  In58  1  0.15496776  0.67053305  0.11334028  1
  In  In59  1  0.17644920  0.65994934  0.63781330  1
  In  In60  1  0.49024278  0.00134929  0.11554998  1
  In  In61  1  0.50496926  0.00152160  0.63831510  1
  In  In62  1  0.49926266  0.33603642  0.12007381  1
  In  In63  1  0.48358040  0.33938341  0.62421770  1
  In  In64  1  0.51424740  0.67122350  0.10974688  1
  In  In65  1  0.50285105  0.65243270  0.63656376  1
  In  In66  1  0.81741123  -0.00072315  0.11962066  1
  In  In67  1  0.82856231  0.00959113  0.64075750  1
  In  In68  1  0.83580145  0.33338233  0.12742972  1
  In  In69  1  0.84702496  0.33219478  0.62440177  1
  In  In70  1  0.81471680  0.63803336  0.10583441  1
  In  In71  1  0.82586790  0.66648548  0.65195791  1
  In  In72  1  0.83196617  0.83635755  0.52340732  1
  In  In73  1  0.65490378  0.00392530  0.24376448  1
  In  In74  1  0.17389096  0.49828473  -0.00313112  1
  In  In75  1  0.33100112  0.66661042  0.25016267  1
  In  In76  1  0.00253731  0.00004953  0.24977584  1
  In  In77  1  0.65719525  0.34377267  0.75564188  1
  In  In78  1  0.49751164  0.17221918  0.50457923  1
  In  In79  1  0.00049723  0.33778158  0.74986259  1
  In  In80  1  0.16430764  0.83016517  0.49907509  1
  In  In81  1  0.50192735  0.83192653  0.51618194  1
  In  In82  1  -0.00159339  0.65914235  0.25262871  1
  In  In83  1  0.16544489  0.16557775  -0.00688848  1
  In  In84  1  0.83408648  0.49814957  0.50403202  1
  In  In85  1  0.83331197  0.83257547  -0.01584800  1
  Cu  Cu86  1  0.82642542  0.81278803  0.24607359  1
  Cu  Cu87  1  0.66870086  0.33718084  0.49287050  1
  Cu  Cu88  1  -0.00468733  0.33487854  0.00245368  1
  Cu  Cu89  1  0.83528905  0.17522024  0.75502985  1
  Cu  Cu90  1  0.68276621  0.00449657  0.50678752  1
  Cu  Cu91  1  0.66555841  0.33207071  0.00216049  1
  Cu  Cu92  1  0.82588291  0.16500237  0.24862310  1
  Cu  Cu93  1  0.34121202  0.66434300  -0.00820353  1
  Cu  Cu94  1  0.32971918  -0.00110275  -0.00615268  1
  Cu  Cu95  1  0.00087825  0.32639785  0.49892439  1
  Cu  Cu96  1  0.49804739  0.82683376  0.75751036  1
  Cu  Cu97  1  0.33678443  0.00550899  0.50426679  1
  Cu  Cu98  1  0.00708326  0.00919368  0.50201183  1
  Cu  Cu99  1  0.17147220  0.83314464  0.75197930  1
  Cu  Cu100  1  0.50076598  0.50100228  0.24750154  1
  Cu  Cu101  1  0.49692718  0.83331331  0.23972270  1
  Cu  Cu102  1  0.65653752  0.65746769  0.50443401  1
  Cu  Cu103  1  0.49356727  0.17465283  0.24517598  1
  Cu  Cu104  1  0.17613793  0.84133329  0.24150795  1
  Cu  Cu105  1  0.66278772  0.00215386  -0.00387346  1
  Cu  Cu106  1  0.51064472  0.15990768  0.75330663  1
  Cu  Cu107  1  0.00426816  0.67484717  -0.01111102  1
  Cu  Cu108  1  0.16465281  0.49750218  0.74527875  1
  Cu  Cu109  1  -0.00599566  0.66896605  0.51213793  1
  Cu  Cu110  1  0.32994884  0.65636300  0.50760569  1
  Cu  Cu111  1  -0.00248992  -0.00225764  -0.01105771  1
  Cu  Cu112  1  0.17051068  0.49404447  0.25500469  1
  Cu  Cu113  1  0.33613326  0.33481281  -0.00594491  1
  Cu  Cu114  1  0.16860756  0.16734840  0.25260309  1
  Se  Se115  1  0.07304927  0.07674760  0.05589785  1
  Se  Se116  1  0.09365644  0.08986329  0.55312841  1
  Se  Se117  1  0.08537022  0.40854098  0.05935660  1
  Se  Se118  1  0.07522248  0.41890334  0.55114750  1
  Se  Se119  1  0.08762091  0.75887046  0.04047211  1
  Se  Se120  1  0.07765063  0.74908068  0.56865159  1
  Se  Se121  1  0.40415970  0.08687150  0.05143471  1
  Se  Se122  1  0.41809482  0.07876650  0.56641712  1
  Se  Se123  1  0.41765404  0.41915056  0.04825541  1
  Se  Se124  1  0.40583080  0.41548201  0.55218609  1
  Se  Se125  1  0.42074148  0.75021709  0.04722971  1
  Se  Se126  1  0.40522379  0.74137807  0.56705536  1
  Se  Se127  1  0.75030929  0.08400464  0.04634958  1
  Se  Se128  1  0.76134932  0.08888839  0.56068099  1
  Se  Se129  1  0.74999840  0.41187271  0.05781665  1
  Se  Se130  1  0.74100659  0.41054428  0.56453531  1
  Se  Se131  1  0.74610248  0.75251931  0.05413477  1
  Se  Se132  1  0.73769861  0.73500300  0.56689990  1
  Se  Se133  1  0.24908459  0.26108523  0.05437594  1
  Se  Se134  1  0.25906897  0.23900942  0.55805634  1
  Se  Se135  1  0.26234991  0.59072682  0.05968777  1
  Se  Se136  1  0.23918363  0.57981571  0.55793772  1
  Se  Se137  1  0.24762854  0.91621322  0.04890500  1
  Se  Se138  1  0.25081830  0.92276414  0.55847992  1
  Se  Se139  1  0.57528071  0.24839639  0.04897405  1
  Se  Se140  1  0.59317124  0.26232370  0.56218892  1
  Se  Se141  1  0.57980730  0.56877398  0.05071936  1
  Se  Se142  1  0.57424809  0.57513573  0.55735613  1
  Se  Se143  1  0.57894180  0.92016326  0.05003527  1
  Se  Se144  1  0.60137904  0.92494727  0.56544626  1
  Se  Se145  1  0.91639867  0.24723604  0.05523915  1
  Se  Se146  1  0.91223799  0.24675832  0.54984450  1
  Se  Se147  1  0.93500081  0.59139547  0.05196330  1
  Se  Se148  1  0.91146486  0.59183380  0.57141503  1
  Se  Se149  1  0.91876023  0.92207530  0.05547274  1
  Se  Se150  1  0.93107201  0.93111717  0.56772265  1
  Se  Se151  1  0.09107883  0.24713034  0.44802340  1
  Se  Se152  1  0.07390115  0.26090730  0.93741046  1
  Se  Se153  1  0.07722567  0.58828097  0.45640239  1
  Se  Se154  1  0.08565890  0.58746626  0.93452677  1
  Se  Se155  1  0.07436642  0.92215355  0.43686191  1
  Se  Se156  1  0.08489611  0.91687322  0.93970082  1
  Se  Se157  1  0.41368725  0.25770995  0.43846834  1
  Se  Se158  1  0.41166440  0.24251852  0.94267554  1
  Se  Se159  1  0.42142854  0.58166821  0.45530628  1
  Se  Se160  1  0.41647758  0.57496100  0.93869206  1
  Se  Se161  1  0.41802923  0.92285603  0.44611992  1
  Se  Se162  1  0.41915163  0.91527727  0.94745820  1
  Se  Se163  1  0.75073764  0.24812834  0.44589553  1
  Se  Se164  1  0.75274761  0.24677098  0.95318395  1
  Se  Se165  1  0.74054178  0.58328447  0.44288644  1
  Se  Se166  1  0.76190537  0.58841943  0.94289394  1
  Se  Se167  1  0.75058046  0.91657605  0.44430114  1
  Se  Se168  1  0.74000570  0.92418188  0.93149347  1
  Se  Se169  1  0.25525608  0.08513584  0.44666896  1
  Se  Se170  1  0.25320816  0.07857316  0.93129207  1
  Se  Se171  1  0.22821333  0.43578243  0.44316999  1
  Se  Se172  1  0.26309584  0.41761437  0.93235147  1
  Se  Se173  1  0.26119480  0.74032648  0.44118391  1
  Se  Se174  1  0.25289249  0.74911724  0.94731121  1
  Se  Se175  1  0.59394420  0.07680303  0.44716571  1
  Se  Se176  1  0.57680289  0.08661556  0.94685004  1
  Se  Se177  1  0.58211055  0.41924382  0.44310365  1
  Se  Se178  1  0.58533870  0.41475885  0.94560836  1
  Se  Se179  1  0.58647553  0.74789431  0.44455482  1
  Se  Se180  1  0.59160512  0.74561832  0.95295012  1
  Se  Se181  1  0.91360154  0.08316137  0.45000984  1
  Se  Se182  1  0.91447763  0.08409027  0.94038279  1
  Se  Se183  1  0.91840604  0.40829326  0.43965753  1
  Se  Se184  1  0.91437129  0.42609180  0.95492045  1
  Se  Se185  1  0.91035146  0.74310722  0.45108050  1
  Se  Se186  1  0.92036779  0.74156204  0.92535075  1
  Se  Se187  1  0.25253508  0.25050242  0.30500396  1
  Se  Se188  1  0.23508438  0.23511101  0.79408288  1
  Se  Se189  1  0.24635082  0.57884023  0.31471447  1
  Se  Se190  1  0.24748000  0.58026211  0.79897859  1
  Se  Se191  1  0.25868115  0.92385561  0.29480407  1
  Se  Se192  1  0.25387931  0.91562477  0.80654047  1
  Se  Se193  1  0.58257440  0.25071646  0.29922840  1
  Se  Se194  1  0.58289175  0.24288224  0.81680269  1
  Se  Se195  1  0.58041979  0.58764493  0.30154967  1
  Se  Se196  1  0.57924688  0.57815660  0.80736560  1
  Se  Se197  1  0.57332396  0.91017516  0.30980557  1
  Se  Se198  1  0.58278103  0.91428579  0.80705492  1
  Se  Se199  1  0.91251329  0.24074621  0.30567869  1
  Se  Se200  1  0.90840914  0.25761340  0.81759402  1
  Se  Se201  1  0.91185227  0.56886831  0.31326500  1
  Se  Se202  1  0.92549907  0.58783535  0.79724369  1
  Se  Se203  1  0.90931056  0.89706878  0.30295564  1
  Se  Se204  1  0.94324183  0.94309280  0.79991119  1
  Se  Se205  1  0.08796530  0.08678632  0.31423104  1
  Se  Se206  1  0.09962338  0.10475498  0.79648896  1
  Se  Se207  1  0.08267303  0.41378642  0.30645467  1
  Se  Se208  1  0.09020503  0.42500692  0.81472583  1
  Se  Se209  1  0.09660067  0.75951711  0.30274403  1
  Se  Se210  1  0.08686066  0.74812336  0.80187745  1
  Se  Se211  1  0.41622608  0.08449112  0.29743917  1
  Se  Se212  1  0.42101094  0.07928819  0.80274623  1
  Se  Se213  1  0.41572354  0.42323181  0.30531377  1
  Se  Se214  1  0.40330486  0.39118435  0.80174673  1
  Se  Se215  1  0.42278305  0.75965425  0.31102838  1
  Se  Se216  1  0.41866246  0.74431176  0.81321530  1
  Se  Se217  1  0.75156340  0.08072392  0.31057326  1
  Se  Se218  1  0.75121332  0.08873333  0.80395550  1
  Se  Se219  1  0.75490843  0.41983961  0.29857312  1
  Se  Se220  1  0.75335950  0.42705506  0.81316461  1
  Se  Se221  1  0.73973488  0.73507522  0.29905040  1
  Se  Se222  1  0.76644925  0.77192550  0.80324046  1
  Se  Se223  1  0.24867264  0.08476000  0.19648555  1
  Se  Se224  1  0.27873493  0.05302982  0.69088382  1
  Se  Se225  1  0.25520654  0.41425926  0.20026956  1
  Se  Se226  1  0.24558331  0.41392276  0.69116547  1
  Se  Se227  1  0.24641020  0.75323157  0.18203843  1
  Se  Se228  1  0.25713122  0.74743445  0.70328700  1
  Se  Se229  1  0.57449098  0.09711062  0.18134861  1
  Se  Se230  1  0.59849297  0.07863816  0.70288094  1
  Se  Se231  1  0.57987633  0.41413403  0.19372346  1
  Se  Se232  1  0.56360736  0.42736938  0.69573099  1
  Se  Se233  1  0.58031485  0.74598152  0.19302665  1
  Se  Se234  1  0.58053709  0.74641124  0.70030988  1
  Se  Se235  1  0.90613873  0.08398297  0.18854544  1
  Se  Se236  1  0.92124027  0.09664846  0.69896718  1
  Se  Se237  1  0.93237062  0.40153128  0.19514265  1
  Se  Se238  1  0.90212280  0.43037788  0.69781072  1
  Se  Se239  1  0.90979466  0.74061033  0.18486276  1
  Se  Se240  1  0.90870592  0.75598952  0.71223692  1
  Se  Se241  1  0.08046803  0.25005382  0.20450644  1
  Se  Se242  1  0.08469617  0.26001813  0.67973135  1
  Se  Se243  1  0.09563647  0.57600290  0.19159417  1
  Se  Se244  1  0.07760187  0.58464593  0.69941486  1
  Se  Se245  1  0.08550485  0.91083896  0.18302047  1
  Se  Se246  1  0.08658645  0.91666938  0.69990980  1
  Se  Se247  1  0.41145900  0.25697552  0.19045116  1
  Se  Se248  1  0.43033274  0.24293254  0.69781153  1
  Se  Se249  1  0.42198592  0.58288441  0.18746531  1
  Se  Se250  1  0.40297683  0.58632480  0.70033393  1
  Se  Se251  1  0.41488065  0.92015602  0.19124054  1
  Se  Se252  1  0.42210059  0.91169445  0.70011361  1
  Se  Se253  1  0.74641978  0.24873126  0.19365199  1
  Se  Se254  1  0.75394094  0.25448057  0.69512218  1
  Se  Se255  1  0.75675163  0.57527291  0.19249463  1
  Se  Se256  1  0.73365610  0.58409115  0.70982122  1
  Se  Se257  1  0.75046227  0.90521945  0.19277877  1
  Se  Se258  1  0.76117475  0.91290837  0.70561865  1
