# generated using pymatgen
data_In86Cu29Se144
_symmetry_space_group_name_H-M   'P 1'
_cell_length_a   17.57430778
_cell_length_b   17.57468065
_cell_length_c   23.43188897
_cell_angle_alpha   89.98653987
_cell_angle_beta   89.98764128
_cell_angle_gamma   89.99602984
_symmetry_Int_Tables_number   1
_chemical_formula_structural   In86Cu29Se144
_chemical_formula_sum   'In86 Cu29 Se144'
_cell_volume   7237.23955089
_cell_formula_units_Z   1
loop_
 _symmetry_equiv_pos_site_id
 _symmetry_equiv_pos_as_xyz
  1  'x, y, z'
loop_
 _atom_site_type_symbol
 _atom_site_label
 _atom_site_symmetry_multiplicity
 _atom_site_fract_x
 _atom_site_fract_y
 _atom_site_fract_z
 _atom_site_occupancy
  In  In0  1  -0.00425089  0.16222025  0.12841358  1
  In  In1  1  -0.00131250  0.15123064  0.62252353  1
  In  In2  1  0.02135180  0.50036229  0.11867463  1
  In  In3  1  0.02495782  0.50475194  0.62628631  1
  In  In4  1  0.00046658  0.83217942  0.12299609  1
  In  In5  1  0.00292605  0.83251114  0.62609769  1
  In  In6  1  0.32910851  0.16033941  0.14358574  1
  In  In7  1  0.34153338  0.17435453  0.61619023  1
  In  In8  1  0.32446317  0.51444840  0.13235730  1
  In  In9  1  0.32297068  0.49947549  0.62755710  1
  In  In10  1  0.32487402  0.83395086  0.12504064  1
  In  In11  1  0.31627152  0.83733264  0.62114430  1
  In  In12  1  0.65357142  0.16039229  0.12940692  1
  In  In13  1  0.64805136  0.16019552  0.62100790  1
  In  In14  1  0.67753253  0.51297802  0.12502289  1
  In  In15  1  0.65822184  0.50456381  0.61599777  1
  In  In16  1  0.66360397  0.83512228  0.12737298  1
  In  In17  1  0.67892274  0.82927448  0.62197792  1
  In  In18  1  0.16231522  -0.00055137  0.36854505  1
  In  In19  1  0.16019775  0.00110389  0.87543871  1
  In  In20  1  0.18436543  0.32212484  0.38703708  1
  In  In21  1  0.17633783  0.33062126  0.87460897  1
  In  In22  1  0.16711685  0.66863688  0.37665370  1
  In  In23  1  0.17018576  0.66878788  0.87805154  1
  In  In24  1  0.50671461  0.00429794  0.36666149  1
  In  In25  1  0.50066198  -0.01750085  0.87612922  1
  In  In26  1  0.48758248  0.34831381  0.38597067  1
  In  In27  1  0.49341069  0.34573459  0.87575376  1
  In  In28  1  0.48501655  0.66700023  0.35961672  1
  In  In29  1  0.49500444  0.67796697  0.87837657  1
  In  In30  1  0.82540521  -0.01131050  0.36926431  1
  In  In31  1  0.82727423  -0.01101464  0.87216222  1
  In  In32  1  0.82857143  0.32585542  0.37738646  1
  In  In33  1  0.83629583  0.33347050  0.87540550  1
  In  In34  1  0.84919982  0.68075802  0.36977556  1
  In  In35  1  0.84794209  0.66882730  0.87608598  1
  In  In36  1  0.02206231  0.16265138  0.37111737  1
  In  In37  1  0.01835372  0.15666789  0.87055230  1
  In  In38  1  0.00667782  0.51769614  0.37516217  1
  In  In39  1  0.00379918  0.51859741  0.87181115  1
  In  In40  1  0.00169336  0.83439810  0.37510029  1
  In  In41  1  0.00235297  0.83379215  0.87916905  1
  In  In42  1  0.32532342  0.17074365  0.36944017  1
  In  In43  1  0.32000167  0.16940504  0.87068633  1
  In  In44  1  0.33227941  0.50281845  0.37409115  1
  In  In45  1  0.31936734  0.49267333  0.86336898  1
  In  In46  1  0.32607290  0.82367597  0.36525544  1
  In  In47  1  0.34607774  0.82478456  0.88639067  1
  In  In48  1  0.66551350  0.15351294  0.37655316  1
  In  In49  1  0.67890274  0.16079933  0.87557780  1
  In  In50  1  0.64733776  0.50049125  0.37753568  1
  In  In51  1  0.66198947  0.50471685  0.87611719  1
  In  In52  1  0.67239013  0.84435132  0.36612911  1
  In  In53  1  0.65535412  0.84082242  0.88439876  1
  In  In54  1  0.18497310  -0.02138490  0.14444472  1
  In  In55  1  0.15621802  -0.01221214  0.61360968  1
  In  In56  1  0.16744282  0.34986515  0.12460330  1
  In  In57  1  0.18420954  0.34935257  0.61250656  1
  In  In58  1  0.16301941  0.66759341  0.12484041  1
  In  In59  1  0.16695380  0.66723894  0.62791379  1
  In  In60  1  0.49901027  -0.01221098  0.14019414  1
  In  In61  1  0.49513335  0.01206271  0.62254188  1
  In  In62  1  0.49533551  0.32277849  0.12734866  1
  In  In63  1  0.48558049  0.32257428  0.61643614  1
  In  In64  1  0.48004327  0.69477984  0.14733406  1
  In  In65  1  0.49342654  0.65147620  0.61872816  1
  In  In66  1  0.84628813  -0.01441450  0.13370981  1
  In  In67  1  0.84175864  -0.01590367  0.63071637  1
  In  In68  1  0.83892276  0.33541122  0.12166628  1
  In  In69  1  0.83227428  0.33827492  0.62660071  1
  In  In70  1  0.81964040  0.67978980  0.13327968  1
  In  In71  1  0.83385568  0.68438178  0.62246085  1
  In  In72  1  0.17046737  0.16026713  0.00194987  1
  In  In73  1  0.66604732  0.66853891  0.75034475  1
  In  In74  1  0.83195488  0.15927101  0.49468779  1
  In  In75  1  0.49639037  0.15990912  0.01446402  1
  In  In76  1  0.00805621  0.33643074  0.24866320  1
  In  In77  1  0.32965703  -0.00242174  0.74888092  1
  In  In78  1  0.66288103  0.32562594  0.74430836  1
  In  In79  1  0.83729158  0.16447493  0.00440124  1
  In  In80  1  0.00868434  0.32705813  0.75496147  1
  In  In81  1  0.49944700  0.83416438  0.48585685  1
  In  In82  1  0.84027273  0.50533395  -0.00211336  1
  In  In83  1  0.83255554  0.50170037  0.50310427  1
  In  In84  1  0.66234940  0.33366156  0.25039488  1
  In  In85  1  0.50076009  0.50589704  -0.00019999  1
  Cu  Cu86  1  0.32725254  0.00913875  0.49396708  1
  Cu  Cu87  1  0.66263368  0.67751550  0.00775699  1
  Cu  Cu88  1  0.83746706  0.50358776  0.75021820  1
  Cu  Cu89  1  0.33169937  0.33702760  0.49814743  1
  Cu  Cu90  1  0.66727080  0.66578693  0.49551118  1
  Cu  Cu91  1  0.00269693  0.67221294  0.00110469  1
  Cu  Cu92  1  0.32810561  0.66842091  0.00672415  1
  Cu  Cu93  1  0.00411224  -0.00585870  0.49801744  1
  Cu  Cu94  1  0.66471335  -0.00248389  0.49480962  1
  Cu  Cu95  1  0.16326715  0.82854493  0.75100450  1
  Cu  Cu96  1  0.49518223  0.16723221  0.25449277  1
  Cu  Cu97  1  0.00318953  -0.00406393  0.00250509  1
  Cu  Cu98  1  0.49406200  0.49860723  0.25269853  1
  Cu  Cu99  1  0.15862551  0.82644914  0.25043978  1
  Cu  Cu100  1  0.83320037  0.15923771  0.25229430  1
  Cu  Cu101  1  0.33413130  0.33418568  -0.00014407  1
  Cu  Cu102  1  0.16790543  0.16476132  0.74102658  1
  Cu  Cu103  1  0.00723496  0.67378411  0.50016448  1
  Cu  Cu104  1  0.33327781  0.66468430  0.49531053  1
  Cu  Cu105  1  0.66516059  -0.00412918  0.00519889  1
  Cu  Cu106  1  0.50083141  0.83038785  0.75384174  1
  Cu  Cu107  1  0.49748661  0.16583579  0.74494452  1
  Cu  Cu108  1  0.83341227  0.14908410  0.74895673  1
  Cu  Cu109  1  0.00312810  0.33416831  0.49960091  1
  Cu  Cu110  1  0.17188263  0.50367556  0.25262585  1
  Cu  Cu111  1  0.83695157  0.50753273  0.25362792  1
  Cu  Cu112  1  0.48507788  0.49658762  0.74476259  1
  Cu  Cu113  1  0.83670760  0.83446247  0.24807124  1
  Cu  Cu114  1  0.83752072  0.83652078  0.75142137  1
  Se  Se115  1  0.08184610  0.07355585  0.06438841  1
  Se  Se116  1  0.08384925  0.08449620  0.54762360  1
  Se  Se117  1  0.08659100  0.41278314  0.04673065  1
  Se  Se118  1  0.08649186  0.42156543  0.54799100  1
  Se  Se119  1  0.08759895  0.75455377  0.05369003  1
  Se  Se120  1  0.08977110  0.75436902  0.55702935  1
  Se  Se121  1  0.40516120  0.07130493  0.07091849  1
  Se  Se122  1  0.41755702  0.08511407  0.54697569  1
  Se  Se123  1  0.41152927  0.41502733  0.06186350  1
  Se  Se124  1  0.41027798  0.42120360  0.55648955  1
  Se  Se125  1  0.41459341  0.75070909  0.05810720  1
  Se  Se126  1  0.41202603  0.75049562  0.55497328  1
  Se  Se127  1  0.74606053  0.07607716  0.06487799  1
  Se  Se128  1  0.74662638  0.07148167  0.56076209  1
  Se  Se129  1  0.74528998  0.41357984  0.05555974  1
  Se  Se130  1  0.73905140  0.40476469  0.55494926  1
  Se  Se131  1  0.75278704  0.75908310  0.05477658  1
  Se  Se132  1  0.75123962  0.75090648  0.54537837  1
  Se  Se133  1  0.26043934  0.25112391  0.06294077  1
  Se  Se134  1  0.24869388  0.24735468  0.54852949  1
  Se  Se135  1  0.24423173  0.58079452  0.05460075  1
  Se  Se136  1  0.25028957  0.58792809  0.55546871  1
  Se  Se137  1  0.24434517  0.91862594  0.05636323  1
  Se  Se138  1  0.24893011  0.91790195  0.54420373  1
  Se  Se139  1  0.59538782  0.26021529  0.05663628  1
  Se  Se140  1  0.58155471  0.25059619  0.55306760  1
  Se  Se141  1  0.58161742  0.59580250  0.06510511  1
  Se  Se142  1  0.57946363  0.58354447  0.54394884  1
  Se  Se143  1  0.57812495  0.91906761  0.06043380  1
  Se  Se144  1  0.58454666  0.91748916  0.55760982  1
  Se  Se145  1  0.93265194  0.26069743  0.05428568  1
  Se  Se146  1  0.91923196  0.25537702  0.55720142  1
  Se  Se147  1  0.92112949  0.59370336  0.06442691  1
  Se  Se148  1  0.92561489  0.59134345  0.56078983  1
  Se  Se149  1  0.91486402  0.91395795  0.05243537  1
  Se  Se150  1  0.91973842  0.91362943  0.55361986  1
  Se  Se151  1  0.08424491  0.24782298  0.44821561  1
  Se  Se152  1  0.07989609  0.25297536  0.94216531  1
  Se  Se153  1  0.08896470  0.58542745  0.45090280  1
  Se  Se154  1  0.08455073  0.58674652  0.94851877  1
  Se  Se155  1  0.08903946  0.91410905  0.44313480  1
  Se  Se156  1  0.08833289  0.91595498  0.94782158  1
  Se  Se157  1  0.40914601  0.24911118  0.44310775  1
  Se  Se158  1  0.41296174  0.24972190  0.94304243  1
  Se  Se159  1  0.42014888  0.58781381  0.44004842  1
  Se  Se160  1  0.40472065  0.58845681  0.94107578  1
  Se  Se161  1  0.40502527  0.92585699  0.43323379  1
  Se  Se162  1  0.41852238  0.91958795  0.95142898  1
  Se  Se163  1  0.73532736  0.25449782  0.44593208  1
  Se  Se164  1  0.74543543  0.25861113  0.94572813  1
  Se  Se165  1  0.75146320  0.58804961  0.43453032  1
  Se  Se166  1  0.73993234  0.59762153  0.94350961  1
  Se  Se167  1  0.75030805  0.91284834  0.44622945  1
  Se  Se168  1  0.74973118  0.91669110  0.94929166  1
  Se  Se169  1  0.24171370  0.08709212  0.43862242  1
  Se  Se170  1  0.26327258  0.07107661  0.94294950  1
  Se  Se171  1  0.24955243  0.42641371  0.44842253  1
  Se  Se172  1  0.25261699  0.41649956  0.94508508  1
  Se  Se173  1  0.25146305  0.75267062  0.44494163  1
  Se  Se174  1  0.24847099  0.75302730  0.95027733  1
  Se  Se175  1  0.57748647  0.08081323  0.44722180  1
  Se  Se176  1  0.58837130  0.07992014  0.94497932  1
  Se  Se177  1  0.58513168  0.41510599  0.45167794  1
  Se  Se178  1  0.59419284  0.40828868  0.94563305  1
  Se  Se179  1  0.58966125  0.74172234  0.43009185  1
  Se  Se180  1  0.57547569  0.75367650  0.95140378  1
  Se  Se181  1  0.92517951  0.07427373  0.43483708  1
  Se  Se182  1  0.92598519  0.07696634  0.94021946  1
  Se  Se183  1  0.92235684  0.41250993  0.43892689  1
  Se  Se184  1  0.92907156  0.41386817  0.93804818  1
  Se  Se185  1  0.91937278  0.75481194  0.44925930  1
  Se  Se186  1  0.91546474  0.75387593  0.94992188  1
  Se  Se187  1  0.24601175  0.25812742  0.30157151  1
  Se  Se188  1  0.24614462  0.24945005  0.79706301  1
  Se  Se189  1  0.25320085  0.59059253  0.30562347  1
  Se  Se190  1  0.26168761  0.60162440  0.80639107  1
  Se  Se191  1  0.24361004  0.91173493  0.30076261  1
  Se  Se192  1  0.24704617  0.90676968  0.81220397  1
  Se  Se193  1  0.57610884  0.24804005  0.31482815  1
  Se  Se194  1  0.57498169  0.24197700  0.81288295  1
  Se  Se195  1  0.58114280  0.58238739  0.30130936  1
  Se  Se196  1  0.56826148  0.57550224  0.80521634  1
  Se  Se197  1  0.58200860  0.91642744  0.29917476  1
  Se  Se198  1  0.58689234  0.91438107  0.80205587  1
  Se  Se199  1  0.91331123  0.24396812  0.30813155  1
  Se  Se200  1  0.90954543  0.23388274  0.80894180  1
  Se  Se201  1  0.92497453  0.59008944  0.30149601  1
  Se  Se202  1  0.91909271  0.59117494  0.79882175  1
  Se  Se203  1  0.91988133  0.91696424  0.30353379  1
  Se  Se204  1  0.92226047  0.91740310  0.80655514  1
  Se  Se205  1  0.08623220  0.08246548  0.29461729  1
  Se  Se206  1  0.08973784  0.07747463  0.79519065  1
  Se  Se207  1  0.09295287  0.42277094  0.31437199  1
  Se  Se208  1  0.09254101  0.42527447  0.80978936  1
  Se  Se209  1  0.07780842  0.74375657  0.30678137  1
  Se  Se210  1  0.08169751  0.74917605  0.80937899  1
  Se  Se211  1  0.41073523  0.08201137  0.30459686  1
  Se  Se212  1  0.42192727  0.08652705  0.81065319  1
  Se  Se213  1  0.41200394  0.41413837  0.30511842  1
  Se  Se214  1  0.40940614  0.40851136  0.79977829  1
  Se  Se215  1  0.43182749  0.77581000  0.29516750  1
  Se  Se216  1  0.41326527  0.75024613  0.80375413  1
  Se  Se217  1  0.74550259  0.07901594  0.30293535  1
  Se  Se218  1  0.74489060  0.07333936  0.80291060  1
  Se  Se219  1  0.75626854  0.42360336  0.31020791  1
  Se  Se220  1  0.75323481  0.42329569  0.80540430  1
  Se  Se221  1  0.75434927  0.75171193  0.30348475  1
  Se  Se222  1  0.75405499  0.75671732  0.81249254  1
  Se  Se223  1  0.24179912  0.08288509  0.20921981  1
  Se  Se224  1  0.24740382  0.08354896  0.68061409  1
  Se  Se225  1  0.25277637  0.41820669  0.19882384  1
  Se  Se226  1  0.24531434  0.41413870  0.69784646  1
  Se  Se227  1  0.24582247  0.74707996  0.19551237  1
  Se  Se228  1  0.25181474  0.75265270  0.69647781  1
  Se  Se229  1  0.58005139  0.08215563  0.20324268  1
  Se  Se230  1  0.58174483  0.07795615  0.69849962  1
  Se  Se231  1  0.57662363  0.42658673  0.18748780  1
  Se  Se232  1  0.57507125  0.42117832  0.68825469  1
  Se  Se233  1  0.60774495  0.72907310  0.19277644  1
  Se  Se234  1  0.57474535  0.75224657  0.68564836  1
  Se  Se235  1  0.92001765  0.07973201  0.19982974  1
  Se  Se236  1  0.92284708  0.07285345  0.69660578  1
  Se  Se237  1  0.91345847  0.42776171  0.19056822  1
  Se  Se238  1  0.91858260  0.42107193  0.69331138  1
  Se  Se239  1  0.91981352  0.74971216  0.19526004  1
  Se  Se240  1  0.91779213  0.75123019  0.69727145  1
  Se  Se241  1  0.09420422  0.24571104  0.18825054  1
  Se  Se242  1  0.08803211  0.24659590  0.68135582  1
  Se  Se243  1  0.08449419  0.58143201  0.19714058  1
  Se  Se244  1  0.08548087  0.58946441  0.70096588  1
  Se  Se245  1  0.07480362  0.91292519  0.19899229  1
  Se  Se246  1  0.08664472  0.91637828  0.69530291  1
  Se  Se247  1  0.41432097  0.25391566  0.20239692  1
  Se  Se248  1  0.41194118  0.25005102  0.69611063  1
  Se  Se249  1  0.41119761  0.58748994  0.20336538  1
  Se  Se250  1  0.40869317  0.58740489  0.69417227  1
  Se  Se251  1  0.41990655  0.89263154  0.20156257  1
  Se  Se252  1  0.42262357  0.90842914  0.68832835  1
  Se  Se253  1  0.75817772  0.24367269  0.19074475  1
  Se  Se254  1  0.75850360  0.23409426  0.68838930  1
  Se  Se255  1  0.74835366  0.58734126  0.20312507  1
  Se  Se256  1  0.75432395  0.57741530  0.68728841  1
  Se  Se257  1  0.74761831  0.91770914  0.19809116  1
  Se  Se258  1  0.74669642  0.91251936  0.69800741  1
