# generated using pymatgen
data_In86Cu29Se144
_symmetry_space_group_name_H-M   'P 1'
_cell_length_a   17.70113096
_cell_length_b   17.70347629
_cell_length_c   23.57124382
_cell_angle_alpha   89.99805252
_cell_angle_beta   89.98501409
_cell_angle_gamma   89.95480737
_symmetry_Int_Tables_number   1
_chemical_formula_structural   In86Cu29Se144
_chemical_formula_sum   'In86 Cu29 Se144'
_cell_volume   7386.55471007
_cell_formula_units_Z   1
loop_
 _symmetry_equiv_pos_site_id
 _symmetry_equiv_pos_as_xyz
  1  'x, y, z'
loop_
 _atom_site_type_symbol
 _atom_site_label
 _atom_site_symmetry_multiplicity
 _atom_site_fract_x
 _atom_site_fract_y
 _atom_site_fract_z
 _atom_site_occupancy
  In  In0  1  0.01626339  0.16897819  0.12493453  1
  In  In1  1  -0.00756354  0.17910587  0.63244545  1
  In  In2  1  -0.00866594  0.48930586  0.11670794  1
  In  In3  1  -0.01363744  0.48785068  0.63156044  1
  In  In4  1  -0.00374154  0.82871993  0.11498272  1
  In  In5  1  -0.01076211  0.84752317  0.62740989  1
  In  In6  1  0.33392848  0.16260492  0.13300419  1
  In  In7  1  0.33966778  0.16141077  0.62504071  1
  In  In8  1  0.32813469  0.50760214  0.12704982  1
  In  In9  1  0.33006873  0.48963014  0.62392787  1
  In  In10  1  0.33897404  0.83665813  0.12751913  1
  In  In11  1  0.34992995  0.83744127  0.62139426  1
  In  In12  1  0.65355168  0.16849470  0.12142542  1
  In  In13  1  0.65354597  0.21016179  0.63056737  1
  In  In14  1  0.67751001  0.50787049  0.12472840  1
  In  In15  1  0.65620913  0.50518816  0.62272604  1
  In  In16  1  0.66449595  0.82960334  0.13079584  1
  In  In17  1  0.65475253  0.83178885  0.61865196  1
  In  In18  1  0.17501193  -0.01308628  0.36648693  1
  In  In19  1  0.18097926  -0.01077049  0.88667996  1
  In  In20  1  0.15929371  0.32959536  0.36170312  1
  In  In21  1  0.17218871  0.32844546  0.88092061  1
  In  In22  1  0.17261867  0.66274689  0.36968986  1
  In  In23  1  0.16692331  0.67010453  0.88970353  1
  In  In24  1  0.50797268  0.00939393  0.37780853  1
  In  In25  1  0.49456972  0.00881168  0.88018056  1
  In  In26  1  0.49458784  0.33984212  0.38797229  1
  In  In27  1  0.48977290  0.32691826  0.86578568  1
  In  In28  1  0.50019866  0.66734339  0.37011585  1
  In  In29  1  0.51823973  0.66212345  0.87225763  1
  In  In30  1  0.79248514  -0.00211090  0.36418781  1
  In  In31  1  0.82175237  -0.00061634  0.88068218  1
  In  In32  1  0.83523211  0.31750554  0.36824971  1
  In  In33  1  0.85219442  0.33889769  0.86074271  1
  In  In34  1  0.83111701  0.67831560  0.37954949  1
  In  In35  1  0.82640281  0.66480544  0.87908379  1
  In  In36  1  -0.01717428  0.16444258  0.36747211  1
  In  In37  1  0.00399292  0.18156877  0.87706304  1
  In  In38  1  0.00640728  0.49964732  0.37642571  1
  In  In39  1  0.00696486  0.49302572  0.88233449  1
  In  In40  1  -0.00401171  0.82621623  0.37567986  1
  In  In41  1  -0.00019680  0.83282861  0.88562755  1
  In  In42  1  0.33896735  0.18428384  0.35852594  1
  In  In43  1  0.33689869  0.16395993  0.87747984  1
  In  In44  1  0.34226388  0.50773660  0.36485167  1
  In  In45  1  0.33609374  0.48507537  0.87999849  1
  In  In46  1  0.39014989  0.86561713  0.31987471  1
  In  In47  1  0.33411895  0.84139177  0.88321278  1
  In  In48  1  0.66766414  0.16139091  0.37710250  1
  In  In49  1  0.65380305  0.16828494  0.87289223  1
  In  In50  1  0.65107288  0.48702035  0.38005648  1
  In  In51  1  0.67240421  0.50190432  0.86786903  1
  In  In52  1  0.66132291  0.83699256  0.37584179  1
  In  In53  1  0.67241913  0.82540956  0.87932756  1
  In  In54  1  0.18350097  0.01134549  0.11754090  1
  In  In55  1  0.16856644  0.01529042  0.62363511  1
  In  In56  1  0.16746516  0.33162675  0.12190976  1
  In  In57  1  0.16563101  0.33403556  0.63701072  1
  In  In58  1  0.17307356  0.67430614  0.11443425  1
  In  In59  1  0.17176072  0.66033011  0.62864741  1
  In  In60  1  0.50158138  -0.00092117  0.13362515  1
  In  In61  1  0.49526488  -0.00146459  0.61763362  1
  In  In62  1  0.50133344  0.31871057  0.12265791  1
  In  In63  1  0.49022488  0.33258933  0.61962818  1
  In  In64  1  0.48894651  0.68141186  0.14454186  1
  In  In65  1  0.50444613  0.68219501  0.61459124  1
  In  In66  1  0.83349722  -0.01423342  0.12418952  1
  In  In67  1  0.82470186  -0.00175679  0.62063494  1
  In  In68  1  0.83169774  0.35396586  0.12221227  1
  In  In69  1  0.79457453  0.38026960  0.68607672  1
  In  In70  1  0.82106940  0.65929683  0.12251593  1
  In  In71  1  0.80859107  0.66530455  0.63059467  1
  In  In72  1  0.17054283  0.50052564  0.49713243  1
  In  In73  1  -0.00120966  0.66498319  0.76435728  1
  In  In74  1  0.50335057  0.50293967  -0.00009881  1
  In  In75  1  0.82739180  0.16654427  0.50315661  1
  In  In76  1  0.67018640  0.33428751  0.24878610  1
  In  In77  1  0.16584053  0.16270886  0.49191721  1
  In  In78  1  0.00770651  0.00135151  0.75755381  1
  In  In79  1  0.33938959  0.66248148  0.75419493  1
  In  In80  1  -0.00114982  -0.00024828  0.24350703  1
  In  In81  1  -0.00390211  0.65863865  0.24545553  1
  In  In82  1  0.82732184  0.49768457  0.51151346  1
  In  In83  1  0.17299667  0.82370043  0.49335871  1
  In  In84  1  0.66195420  0.00597221  0.75030541  1
  In  In85  1  0.83102295  0.17037587  -0.00510491  1
  Cu  Cu86  1  0.33552442  0.32461304  0.00067116  1
  Cu  Cu87  1  0.34134723  0.67091676  0.00700000  1
  Cu  Cu88  1  -0.00691043  0.33146752  0.50238240  1
  Cu  Cu89  1  0.66330561  -0.00978292  0.00297040  1
  Cu  Cu90  1  0.34300573  0.66959452  0.48532685  1
  Cu  Cu91  1  0.50390945  0.16771862  0.24950676  1
  Cu  Cu92  1  -0.01118176  -0.00208855  0.49867998  1
  Cu  Cu93  1  0.50083592  0.49132709  0.25598201  1
  Cu  Cu94  1  0.18051534  0.16316389  0.75403330  1
  Cu  Cu95  1  0.82894942  0.82703701  0.75525832  1
  Cu  Cu96  1  0.50546775  0.83393225  0.74517777  1
  Cu  Cu97  1  0.66389669  0.33299600  -0.00105043  1
  Cu  Cu98  1  0.17020152  0.83108089  0.23843730  1
  Cu  Cu99  1  0.82701894  0.83476947  0.25233199  1
  Cu  Cu100  1  0.00332608  -0.00069807  0.00579025  1
  Cu  Cu101  1  0.16382441  0.49326745  0.24239468  1
  Cu  Cu102  1  0.00315896  0.33338935  -0.00057734  1
  Cu  Cu103  1  0.50123220  0.49999940  0.74778963  1
  Cu  Cu104  1  0.33801401  -0.00907790  0.48951244  1
  Cu  Cu105  1  -0.00525423  0.66127093  0.00105493  1
  Cu  Cu106  1  0.66171655  0.00139472  0.49911423  1
  Cu  Cu107  1  0.18064700  0.84052829  0.75629170  1
  Cu  Cu108  1  -0.00688164  0.67805339  0.50509108  1
  Cu  Cu109  1  0.49334218  0.17048389  0.74781106  1
  Cu  Cu110  1  0.66322697  0.67057174  0.49839666  1
  Cu  Cu111  1  0.34444435  0.00020031  0.00722619  1
  Cu  Cu112  1  0.16444320  0.49538625  0.75881066  1
  Cu  Cu113  1  0.32736541  0.33171333  0.49708075  1
  Cu  Cu114  1  0.66469966  0.67147703  0.00218391  1
  Se  Se115  1  0.08774887  0.08460061  0.05292928  1
  Se  Se116  1  0.06775309  0.08192290  0.55604096  1
  Se  Se117  1  0.08608873  0.41655830  0.05251668  1
  Se  Se118  1  0.07919160  0.41126298  0.55845178  1
  Se  Se119  1  0.08071895  0.74797815  0.04836389  1
  Se  Se120  1  0.07911678  0.74957745  0.56637095  1
  Se  Se121  1  0.42198363  0.08379193  0.06416913  1
  Se  Se122  1  0.40834982  0.07764052  0.54983142  1
  Se  Se123  1  0.41436761  0.41076815  0.05836637  1
  Se  Se124  1  0.40847583  0.41758240  0.54948726  1
  Se  Se125  1  0.42400762  0.75123263  0.06054093  1
  Se  Se126  1  0.41562366  0.75599527  0.54517257  1
  Se  Se127  1  0.74541778  0.07744556  0.05714899  1
  Se  Se128  1  0.73059113  0.08457777  0.56425189  1
  Se  Se129  1  0.74292008  0.42038671  0.04964431  1
  Se  Se130  1  0.75090088  0.40383836  0.57468340  1
  Se  Se131  1  0.74804886  0.75258572  0.05707576  1
  Se  Se132  1  0.74616515  0.75052755  0.55509622  1
  Se  Se133  1  0.25608502  0.24527064  0.05970754  1
  Se  Se134  1  0.24571177  0.25532376  0.55833642  1
  Se  Se135  1  0.25455262  0.58352796  0.05040375  1
  Se  Se136  1  0.26281567  0.59633359  0.55207287  1
  Se  Se137  1  0.25719033  0.91512569  0.05504116  1
  Se  Se138  1  0.25229989  0.92334167  0.55516655  1
  Se  Se139  1  0.58016773  0.24713375  0.04625654  1
  Se  Se140  1  0.56371698  0.24297678  0.55059188  1
  Se  Se141  1  0.58331868  0.59401141  0.06324527  1
  Se  Se142  1  0.57995738  0.58750566  0.55156292  1
  Se  Se143  1  0.58271226  0.91551012  0.06335001  1
  Se  Se144  1  0.57685414  0.91546670  0.54940471  1
  Se  Se145  1  0.91872848  0.25586100  0.05895447  1
  Se  Se146  1  0.91103886  0.25931441  0.56319900  1
  Se  Se147  1  0.91051111  0.58217922  0.05515980  1
  Se  Se148  1  0.92133590  0.59296659  0.56670814  1
  Se  Se149  1  0.91400764  0.91493809  0.04926788  1
  Se  Se150  1  0.90707529  0.91555440  0.55257233  1
  Se  Se151  1  0.07021466  0.25486300  0.43934038  1
  Se  Se152  1  0.08828327  0.24789774  0.95149061  1
  Se  Se153  1  0.07521782  0.59924768  0.44654345  1
  Se  Se154  1  0.08307815  0.58138320  0.95005320  1
  Se  Se155  1  0.07742676  0.92186026  0.44204256  1
  Se  Se156  1  0.08503087  0.91557570  0.95013711  1
  Se  Se157  1  0.40706494  0.24540192  0.44444846  1
  Se  Se158  1  0.42165475  0.24915941  0.94409483  1
  Se  Se159  1  0.42304690  0.57721965  0.44036278  1
  Se  Se160  1  0.41254869  0.59257340  0.93830718  1
  Se  Se161  1  0.41263496  0.91320166  0.42491042  1
  Se  Se162  1  0.42389872  0.91811596  0.94935731  1
  Se  Se163  1  0.74157961  0.26184669  0.44386839  1
  Se  Se164  1  0.74471366  0.25974404  0.93407258  1
  Se  Se165  1  0.74493175  0.58576198  0.44383988  1
  Se  Se166  1  0.73993862  0.58337802  0.94553208  1
  Se  Se167  1  0.74602473  0.91779893  0.44787787  1
  Se  Se168  1  0.74946030  0.91212316  0.94887564  1
  Se  Se169  1  0.25703358  0.07438265  0.43391847  1
  Se  Se170  1  0.26071474  0.07985398  0.94972796  1
  Se  Se171  1  0.25095022  0.40968033  0.43325178  1
  Se  Se172  1  0.25296944  0.41249920  0.95120253  1
  Se  Se173  1  0.26388828  0.75031803  0.42712855  1
  Se  Se174  1  0.25776044  0.75211176  0.95022843  1
  Se  Se175  1  0.58266504  0.09250897  0.45106463  1
  Se  Se176  1  0.58995199  0.07930460  0.94640511  1
  Se  Se177  1  0.58688865  0.40792424  0.45645903  1
  Se  Se178  1  0.58466613  0.41140208  0.93576914  1
  Se  Se179  1  0.58037502  0.74905517  0.44118239  1
  Se  Se180  1  0.58107660  0.75013278  0.94625345  1
  Se  Se181  1  0.90862803  0.07393897  0.43744514  1
  Se  Se182  1  0.92617264  0.07668748  0.94056783  1
  Se  Se183  1  0.91661004  0.41494348  0.44278703  1
  Se  Se184  1  0.91530722  0.41025155  0.94474821  1
  Se  Se185  1  0.91234763  0.75830328  0.45044378  1
  Se  Se186  1  0.91399588  0.74467563  0.94529726  1
  Se  Se187  1  0.23241799  0.23851654  0.29737898  1
  Se  Se188  1  0.25587823  0.25029560  0.80964892  1
  Se  Se189  1  0.24324942  0.57528132  0.30008020  1
  Se  Se190  1  0.24348718  0.58001412  0.81531187  1
  Se  Se191  1  0.25215507  0.91312450  0.29202073  1
  Se  Se192  1  0.26206853  0.92294640  0.80807350  1
  Se  Se193  1  0.57870550  0.25051355  0.31171693  1
  Se  Se194  1  0.58085237  0.25052464  0.79921838  1
  Se  Se195  1  0.58386307  0.57396308  0.30815223  1
  Se  Se196  1  0.58826389  0.58114723  0.79759647  1
  Se  Se197  1  0.61008766  0.94645865  0.31280719  1
  Se  Se198  1  0.57979631  0.91174725  0.81138062  1
  Se  Se199  1  0.93179531  0.26337610  0.29806969  1
  Se  Se200  1  0.91365995  0.23244086  0.80181138  1
  Se  Se201  1  0.90964561  0.58077228  0.31499461  1
  Se  Se202  1  0.90933940  0.56962626  0.81403534  1
  Se  Se203  1  0.90957486  0.91487670  0.31082608  1
  Se  Se204  1  0.90928921  0.90946548  0.81145819  1
  Se  Se205  1  0.08543267  0.08250057  0.31008360  1
  Se  Se206  1  0.09898167  0.08762152  0.81700309  1
  Se  Se207  1  0.07786952  0.42199157  0.30110132  1
  Se  Se208  1  0.08628478  0.41043989  0.81258046  1
  Se  Se209  1  0.08811367  0.75645023  0.30194516  1
  Se  Se210  1  0.09650129  0.76125189  0.81235803  1
  Se  Se211  1  0.42238706  0.08640422  0.30526068  1
  Se  Se212  1  0.41901054  0.08424078  0.80487308  1
  Se  Se213  1  0.41803981  0.40663918  0.30733880  1
  Se  Se214  1  0.41515633  0.42149350  0.80106241  1
  Se  Se215  1  0.40422447  0.72476311  0.29803483  1
  Se  Se216  1  0.42728318  0.75671485  0.81036380  1
  Se  Se217  1  0.77327095  0.11860249  0.30751254  1
  Se  Se218  1  0.75589016  0.09155160  0.80886703  1
  Se  Se219  1  0.75527053  0.42170745  0.31315653  1
  Se  Se220  1  0.74297506  0.40331779  0.80326799  1
  Se  Se221  1  0.74806303  0.75289722  0.30873262  1
  Se  Se222  1  0.74607152  0.74292966  0.80552297  1
  Se  Se223  1  0.25190644  0.07661893  0.19894293  1
  Se  Se224  1  0.25608911  0.08052657  0.69535066  1
  Se  Se225  1  0.25186630  0.41491990  0.19101108  1
  Se  Se226  1  0.24949137  0.42089643  0.70021669  1
  Se  Se227  1  0.25328308  0.74543899  0.18945367  1
  Se  Se228  1  0.25129615  0.75687373  0.69246168  1
  Se  Se229  1  0.58888917  0.08571627  0.19786146  1
  Se  Se230  1  0.57583949  0.09288759  0.68637100  1
  Se  Se231  1  0.57785009  0.42072350  0.18656901  1
  Se  Se232  1  0.57425499  0.41637810  0.68779436  1
  Se  Se233  1  0.59883688  0.73777232  0.20151143  1
  Se  Se234  1  0.58488061  0.74781826  0.69332997  1
  Se  Se235  1  0.91163991  0.08884346  0.18256577  1
  Se  Se236  1  0.91388558  0.07630227  0.69157474  1
  Se  Se237  1  0.91260690  0.42518866  0.19512601  1
  Se  Se238  1  0.93820497  0.39701827  0.70602609  1
  Se  Se239  1  0.90976848  0.75785815  0.19184911  1
  Se  Se240  1  0.91332838  0.75155213  0.69484529  1
  Se  Se241  1  0.08426420  0.25614718  0.19438897  1
  Se  Se242  1  0.09135637  0.23965802  0.69999173  1
  Se  Se243  1  0.08945344  0.57929314  0.18218298  1
  Se  Se244  1  0.08717489  0.57687295  0.69691147  1
  Se  Se245  1  0.08668810  0.91078324  0.18192604  1
  Se  Se246  1  0.09620506  0.91179467  0.69271298  1
  Se  Se247  1  0.41981475  0.25090325  0.19769438  1
  Se  Se248  1  0.41002109  0.25296505  0.69329262  1
  Se  Se249  1  0.42059521  0.57258063  0.19799902  1
  Se  Se250  1  0.42243144  0.58074789  0.68482649  1
  Se  Se251  1  0.42278250  0.91079569  0.20145878  1
  Se  Se252  1  0.42188802  0.91853856  0.69462499  1
  Se  Se253  1  0.75327385  0.24946374  0.18102665  1
  Se  Se254  1  0.77008992  0.23504459  0.68906376  1
  Se  Se255  1  0.75505898  0.57922543  0.19925238  1
  Se  Se256  1  0.75888289  0.55897362  0.69336213  1
  Se  Se257  1  0.74792841  0.91886801  0.19736180  1
  Se  Se258  1  0.75099265  0.90770818  0.69413545  1
