# generated using pymatgen
data_In86Cu29Se144
_symmetry_space_group_name_H-M   'P 1'
_cell_length_a   17.58727147
_cell_length_b   17.59324729
_cell_length_c   23.45045298
_cell_angle_alpha   89.95321048
_cell_angle_beta   89.98979097
_cell_angle_gamma   89.96935647
_symmetry_Int_Tables_number   1
_chemical_formula_structural   In86Cu29Se144
_chemical_formula_sum   'In86 Cu29 Se144'
_cell_volume   7255.97030973
_cell_formula_units_Z   1
loop_
 _symmetry_equiv_pos_site_id
 _symmetry_equiv_pos_as_xyz
  1  'x, y, z'
loop_
 _atom_site_type_symbol
 _atom_site_label
 _atom_site_symmetry_multiplicity
 _atom_site_fract_x
 _atom_site_fract_y
 _atom_site_fract_z
 _atom_site_occupancy
  In  In0  1  0.00847834  0.16235635  0.12698943  1
  In  In1  1  0.01258992  0.17282357  0.62811125  1
  In  In2  1  -0.01132755  0.49448635  0.13014516  1
  In  In3  1  -0.00405091  0.49989175  0.62249077  1
  In  In4  1  0.00102374  0.83878273  0.12177722  1
  In  In5  1  -0.02982651  0.82233769  0.62434842  1
  In  In6  1  0.33265827  0.16451261  0.12701590  1
  In  In7  1  0.35818661  0.17573358  0.61272972  1
  In  In8  1  0.35697368  0.48840319  0.15011918  1
  In  In9  1  0.33027476  0.48098260  0.60218007  1
  In  In10  1  0.34623441  0.82489372  0.13632351  1
  In  In11  1  0.33739998  0.82378061  0.62228614  1
  In  In12  1  0.65437260  0.17675021  0.13007077  1
  In  In13  1  0.65826215  0.17431829  0.63417348  1
  In  In14  1  0.66157185  0.48289348  0.13210979  1
  In  In15  1  0.65683309  0.48039541  0.60740937  1
  In  In16  1  0.67531785  0.84595621  0.12209798  1
  In  In17  1  0.67673175  0.84019979  0.62147827  1
  In  In18  1  0.17096102  0.00717685  0.36267087  1
  In  In19  1  0.17888182  0.00458261  0.88160300  1
  In  In20  1  0.17772034  0.35049904  0.37273930  1
  In  In21  1  0.16506015  0.33035301  0.87339951  1
  In  In22  1  0.16528259  0.64235689  0.38420771  1
  In  In23  1  0.15373536  0.67398811  0.87161172  1
  In  In24  1  0.50498110  0.00053011  0.37091788  1
  In  In25  1  0.50585900  0.00175786  0.88496179  1
  In  In26  1  0.49206338  0.32808722  0.38314808  1
  In  In27  1  0.49482183  0.32932628  0.86821238  1
  In  In28  1  0.49750937  0.67068813  0.37689727  1
  In  In29  1  0.51086401  0.66972557  0.87495551  1
  In  In30  1  0.82443634  -0.00634795  0.36622525  1
  In  In31  1  0.81780066  -0.00145551  0.87371008  1
  In  In32  1  0.82879169  0.33171878  0.37436366  1
  In  In33  1  0.83291961  0.33164301  0.86267088  1
  In  In34  1  0.84316460  0.66585299  0.39109476  1
  In  In35  1  0.84240475  0.67012719  0.87338217  1
  In  In36  1  0.00355484  0.17193905  0.36420151  1
  In  In37  1  0.00331057  0.17914036  0.87552995  1
  In  In38  1  0.00724583  0.49496697  0.38918491  1
  In  In39  1  0.00019807  0.49942823  0.86548495  1
  In  In40  1  -0.01379728  0.82698071  0.37558380  1
  In  In41  1  -0.01075920  0.81916299  0.87065026  1
  In  In42  1  0.35478836  0.18774652  0.36307673  1
  In  In43  1  0.32918640  0.17363463  0.88502040  1
  In  In44  1  0.33400999  0.49507853  0.38009037  1
  In  In45  1  0.34765215  0.49172295  0.87031021  1
  In  In46  1  0.34309240  0.84412159  0.36408676  1
  In  In47  1  0.33413507  0.84548526  0.87958805  1
  In  In48  1  0.66224846  0.16597002  0.37157292  1
  In  In49  1  0.66181076  0.16484431  0.87174785  1
  In  In50  1  0.66144656  0.48718237  0.38659973  1
  In  In51  1  0.67360328  0.49978001  0.86740075  1
  In  In52  1  0.66437864  0.83688600  0.37850012  1
  In  In53  1  0.65775500  0.84379930  0.88351937  1
  In  In54  1  0.15672569  0.00459412  0.13055334  1
  In  In55  1  0.16732146  0.00223513  0.62543872  1
  In  In56  1  0.18010084  0.32752507  0.13143950  1
  In  In57  1  0.16241295  0.34182546  0.62852241  1
  In  In58  1  0.17651475  0.67514718  0.12525876  1
  In  In59  1  0.16409883  0.64598630  0.62153080  1
  In  In60  1  0.50268847  0.00449232  0.12847501  1
  In  In61  1  0.51646460  0.00830574  0.61777845  1
  In  In62  1  0.51266802  0.31548270  0.13928860  1
  In  In63  1  0.50233848  0.32768018  0.62065240  1
  In  In64  1  0.48789944  0.66172111  0.12994820  1
  In  In65  1  0.50051741  0.66824005  0.61416313  1
  In  In66  1  0.84271672  -0.00211754  0.13036788  1
  In  In67  1  0.82055965  -0.01901855  0.62501071  1
  In  In68  1  0.83072365  0.33448289  0.13177770  1
  In  In69  1  0.82484900  0.34383145  0.62460330  1
  In  In70  1  0.82452901  0.66856514  0.12264866  1
  In  In71  1  0.84185918  0.66706812  0.61495379  1
  In  In72  1  0.83058871  0.16612062  -0.00652856  1
  In  In73  1  0.67450583  0.66455539  0.74134108  1
  In  In74  1  0.17463379  0.17114756  0.49679089  1
  In  In75  1  -0.00558065  0.00718598  0.75526067  1
  In  In76  1  0.50418815  0.50217543  0.00267022  1
  In  In77  1  0.16727309  0.50304629  -0.00033997  1
  In  In78  1  0.16612881  0.83284671  0.49859500  1
  In  In79  1  0.33225654  0.00318425  0.75025762  1
  In  In80  1  0.33073506  0.65705701  0.74661388  1
  In  In81  1  0.83182885  0.50467203  0.00359280  1
  In  In82  1  0.82635647  0.16891505  0.49422159  1
  In  In83  1  0.16845113  0.84114967  0.00591487  1
  In  In84  1  0.66314435  0.66304812  0.25977546  1
  In  In85  1  0.00751032  0.66163905  0.25673474  1
  Cu  Cu86  1  0.33225976  0.66910860  0.00889893  1
  Cu  Cu87  1  0.17863648  0.17900756  0.75016616  1
  Cu  Cu88  1  0.14954522  0.82993070  0.74537441  1
  Cu  Cu89  1  0.83275986  0.49604118  0.74224530  1
  Cu  Cu90  1  0.83046245  0.49051236  0.25834849  1
  Cu  Cu91  1  0.49853293  0.16331647  0.25311672  1
  Cu  Cu92  1  0.50085048  0.83781514  0.75342308  1
  Cu  Cu93  1  0.83486636  0.16769227  0.74908158  1
  Cu  Cu94  1  0.49977765  0.49113791  0.73632429  1
  Cu  Cu95  1  0.83493178  0.83503207  0.25043426  1
  Cu  Cu96  1  0.66302138  0.68038531  0.00242625  1
  Cu  Cu97  1  0.34362188  -0.00300948  0.48979561  1
  Cu  Cu98  1  0.16201831  0.16779390  0.24750794  1
  Cu  Cu99  1  -0.00716274  -0.00376314  0.49534078  1
  Cu  Cu100  1  0.33944495  0.32590031  0.00435789  1
  Cu  Cu101  1  0.82986613  0.17039995  0.24885139  1
  Cu  Cu102  1  -0.00053011  0.33841268  0.50162552  1
  Cu  Cu103  1  0.66794671  -0.00469077  0.49572234  1
  Cu  Cu104  1  0.16893969  0.49583210  0.25712091  1
  Cu  Cu105  1  0.00001675  -0.00205142  0.00480326  1
  Cu  Cu106  1  0.66484300  0.00475384  0.00345626  1
  Cu  Cu107  1  0.66820154  0.66572978  0.49794968  1
  Cu  Cu108  1  0.00259324  0.33254548  -0.00294319  1
  Cu  Cu109  1  0.50173312  0.16819224  0.74720521  1
  Cu  Cu110  1  0.34187265  0.00478974  0.00620477  1
  Cu  Cu111  1  0.51039270  0.83829525  0.25113136  1
  Cu  Cu112  1  0.16661582  0.49279267  0.74454826  1
  Cu  Cu113  1  0.17038316  0.83271037  0.24859532  1
  Cu  Cu114  1  0.33658619  0.66994747  0.49664708  1
  Se  Se115  1  0.08531791  0.08305487  0.05231881  1
  Se  Se116  1  0.07640847  0.07592189  0.55246524  1
  Se  Se117  1  0.07862507  0.41191244  0.06092220  1
  Se  Se118  1  0.08545076  0.41943803  0.55422400  1
  Se  Se119  1  0.07835016  0.74053951  0.05562906  1
  Se  Se120  1  0.08163460  0.75082925  0.56639870  1
  Se  Se121  1  0.42365393  0.09025583  0.05822239  1
  Se  Se122  1  0.42360261  0.07736022  0.54805562  1
  Se  Se123  1  0.41367523  0.41333685  0.06188447  1
  Se  Se124  1  0.44320283  0.42377099  0.54545515  1
  Se  Se125  1  0.42035721  0.75133283  0.05690629  1
  Se  Se126  1  0.41933876  0.75596196  0.54725348  1
  Se  Se127  1  0.74747134  0.08333402  0.06350769  1
  Se  Se128  1  0.74338122  0.07771297  0.55883961  1
  Se  Se129  1  0.74191879  0.40690843  0.05505080  1
  Se  Se130  1  0.75660877  0.41319646  0.54334510  1
  Se  Se131  1  0.75348127  0.75716400  0.05349333  1
  Se  Se132  1  0.74924757  0.74919698  0.55318223  1
  Se  Se133  1  0.24991105  0.24703305  0.05520737  1
  Se  Se134  1  0.25785519  0.26245380  0.55817884  1
  Se  Se135  1  0.26242232  0.57869343  0.06594468  1
  Se  Se136  1  0.25231010  0.58414203  0.54708797  1
  Se  Se137  1  0.26176381  0.92298621  0.06737281  1
  Se  Se138  1  0.26110194  0.92708785  0.55580902  1
  Se  Se139  1  0.58460653  0.25849756  0.05491165  1
  Se  Se140  1  0.57269666  0.22899142  0.55626427  1
  Se  Se141  1  0.59492057  0.59187570  0.06482874  1
  Se  Se142  1  0.58307838  0.58325151  0.54921396  1
  Se  Se143  1  0.58162969  0.91995814  0.05662197  1
  Se  Se144  1  0.58531074  0.91143000  0.55138680  1
  Se  Se145  1  0.91886232  0.25514539  0.05759145  1
  Se  Se146  1  0.92333461  0.25027704  0.55815815  1
  Se  Se147  1  0.92727492  0.59363519  0.05910084  1
  Se  Se148  1  0.91655160  0.57689686  0.54898108  1
  Se  Se149  1  0.91328996  0.91576963  0.05359716  1
  Se  Se150  1  0.91134716  0.91695043  0.55148323  1
  Se  Se151  1  0.07791263  0.25751320  0.43983769  1
  Se  Se152  1  0.08976541  0.24897494  0.94827220  1
  Se  Se153  1  0.05871664  0.60415640  0.45272308  1
  Se  Se154  1  0.07137685  0.58940323  0.94215121  1
  Se  Se155  1  0.08181082  0.92551379  0.43583900  1
  Se  Se156  1  0.07656004  0.92036130  0.93721549  1
  Se  Se157  1  0.41590616  0.23897526  0.45319414  1
  Se  Se158  1  0.42543311  0.25034408  0.94703980  1
  Se  Se159  1  0.41777548  0.58449940  0.44469468  1
  Se  Se160  1  0.40953086  0.59326288  0.94166386  1
  Se  Se161  1  0.42626424  0.91097883  0.44034821  1
  Se  Se162  1  0.41815336  0.91776073  0.95044810  1
  Se  Se163  1  0.73110959  0.26154617  0.44505793  1
  Se  Se164  1  0.74451996  0.26187796  0.93772800  1
  Se  Se165  1  0.74855723  0.57931203  0.44584135  1
  Se  Se166  1  0.73811112  0.59396426  0.94244972  1
  Se  Se167  1  0.75639227  0.91445152  0.44487491  1
  Se  Se168  1  0.74874510  0.92019015  0.95145249  1
  Se  Se169  1  0.25982005  0.07932619  0.43575960  1
  Se  Se170  1  0.25306864  0.08453033  0.95424317  1
  Se  Se171  1  0.23951218  0.42931189  0.45167951  1
  Se  Se172  1  0.26297697  0.41168560  0.94416143  1
  Se  Se173  1  0.25669224  0.74919407  0.43472552  1
  Se  Se174  1  0.25341612  0.74346708  0.94237477  1
  Se  Se175  1  0.58652308  0.08039828  0.44290867  1
  Se  Se176  1  0.58534728  0.09171706  0.95006069  1
  Se  Se177  1  0.56074402  0.42331141  0.45394164  1
  Se  Se178  1  0.58790004  0.41662077  0.93582156  1
  Se  Se179  1  0.58487355  0.74994285  0.44474807  1
  Se  Se180  1  0.57386564  0.75642573  0.94945273  1
  Se  Se181  1  0.92062870  0.08175336  0.43479593  1
  Se  Se182  1  0.92529789  0.07464197  0.93655120  1
  Se  Se183  1  0.91024959  0.41211902  0.44614200  1
  Se  Se184  1  0.91960092  0.41185351  0.93980602  1
  Se  Se185  1  0.91793285  0.75751132  0.45605065  1
  Se  Se186  1  0.91213410  0.75175253  0.94793094  1
  Se  Se187  1  0.23999466  0.24642278  0.30896916  1
  Se  Se188  1  0.26091548  0.25645923  0.80821355  1
  Se  Se189  1  0.25132984  0.58116067  0.30861106  1
  Se  Se190  1  0.24000384  0.57201331  0.81271446  1
  Se  Se191  1  0.25358597  0.92090818  0.29710561  1
  Se  Se192  1  0.23546023  0.90638982  0.80400570  1
  Se  Se193  1  0.57592431  0.25164738  0.30795457  1
  Se  Se194  1  0.58510833  0.25161978  0.80157732  1
  Se  Se195  1  0.57429293  0.56951049  0.31326011  1
  Se  Se196  1  0.57325540  0.57536997  0.79925192  1
  Se  Se197  1  0.59501961  0.92035696  0.30309029  1
  Se  Se198  1  0.57900202  0.92130699  0.80905042  1
  Se  Se199  1  0.91249764  0.25396704  0.30294020  1
  Se  Se200  1  0.92285622  0.24899318  0.79974224  1
  Se  Se201  1  0.91053690  0.57569002  0.31318691  1
  Se  Se202  1  0.90887922  0.57913028  0.80196726  1
  Se  Se203  1  0.92109113  0.91677716  0.30257680  1
  Se  Se204  1  0.90378882  0.91075264  0.80573504  1
  Se  Se205  1  0.07722327  0.08058073  0.29693066  1
  Se  Se206  1  0.10005447  0.09215716  0.80806591  1
  Se  Se207  1  0.07673908  0.42001286  0.30861864  1
  Se  Se208  1  0.08475346  0.41232464  0.80318157  1
  Se  Se209  1  0.09576672  0.75435645  0.31549445  1
  Se  Se210  1  0.07067675  0.74295184  0.79687015  1
  Se  Se211  1  0.41375299  0.07770190  0.30330305  1
  Se  Se212  1  0.42161753  0.09012678  0.81147337  1
  Se  Se213  1  0.39581877  0.39426532  0.31413994  1
  Se  Se214  1  0.41695536  0.41236237  0.79491160  1
  Se  Se215  1  0.42535758  0.75322230  0.30128112  1
  Se  Se216  1  0.41621308  0.75520092  0.80798421  1
  Se  Se217  1  0.74772603  0.08627699  0.30240138  1
  Se  Se218  1  0.74957960  0.08713296  0.80259024  1
  Se  Se219  1  0.73919028  0.41337293  0.30837994  1
  Se  Se220  1  0.74768205  0.41538705  0.79672129  1
  Se  Se221  1  0.76332006  0.74990564  0.31236965  1
  Se  Se222  1  0.74322551  0.75333492  0.81472270  1
  Se  Se223  1  0.24621987  0.08353609  0.19563743  1
  Se  Se224  1  0.25085659  0.09776418  0.68574489  1
  Se  Se225  1  0.25292652  0.41234042  0.20385607  1
  Se  Se226  1  0.25856342  0.42153868  0.68966619  1
  Se  Se227  1  0.25465616  0.74529304  0.20137999  1
  Se  Se228  1  0.23881887  0.75290353  0.69006671  1
  Se  Se229  1  0.58630676  0.08368913  0.19969096  1
  Se  Se230  1  0.58497330  0.07795909  0.70037751  1
  Se  Se231  1  0.55308989  0.43610739  0.19467861  1
  Se  Se232  1  0.58919354  0.40865162  0.68997786  1
  Se  Se233  1  0.58620984  0.75405961  0.18990286  1
  Se  Se234  1  0.57404274  0.75507567  0.69081439  1
  Se  Se235  1  0.91784646  0.08938434  0.19608447  1
  Se  Se236  1  0.90968061  0.08857241  0.68419731  1
  Se  Se237  1  0.91618032  0.41195808  0.20234413  1
  Se  Se238  1  0.92007430  0.41166943  0.69296984  1
  Se  Se239  1  0.91438765  0.74892062  0.19373383  1
  Se  Se240  1  0.90026465  0.74348638  0.69900188  1
  Se  Se241  1  0.08141776  0.25476900  0.19447370  1
  Se  Se242  1  0.08632101  0.25549714  0.69996132  1
  Se  Se243  1  0.09430324  0.57408678  0.19003568  1
  Se  Se244  1  0.08087707  0.57831556  0.69632113  1
  Se  Se245  1  0.08112404  0.91088144  0.19630977  1
  Se  Se246  1  0.07624320  0.91569567  0.68651273  1
  Se  Se247  1  0.41147111  0.24573232  0.20020533  1
  Se  Se248  1  0.41763234  0.25146010  0.69517942  1
  Se  Se249  1  0.41346342  0.59681909  0.20963135  1
  Se  Se250  1  0.41790232  0.57446488  0.68076863  1
  Se  Se251  1  0.42234383  0.91941386  0.19884212  1
  Se  Se252  1  0.42105407  0.91376213  0.68909736  1
  Se  Se253  1  0.74393782  0.25467643  0.19797372  1
  Se  Se254  1  0.75360046  0.25247640  0.69470568  1
  Se  Se255  1  0.75592922  0.57288955  0.19478207  1
  Se  Se256  1  0.75041442  0.56862972  0.67834941  1
  Se  Se257  1  0.75302346  0.91982006  0.19824861  1
  Se  Se258  1  0.74204502  0.91493660  0.70235606  1
