# generated using pymatgen
data_In86Cu29Se144
_symmetry_space_group_name_H-M   'P 1'
_cell_length_a   17.59052821
_cell_length_b   17.59848733
_cell_length_c   23.46203748
_cell_angle_alpha   90.00743838
_cell_angle_beta   89.98936306
_cell_angle_gamma   90.02216868
_symmetry_Int_Tables_number   1
_chemical_formula_structural   In86Cu29Se144
_chemical_formula_sum   'In86 Cu29 Se144'
_cell_volume   7263.06450147
_cell_formula_units_Z   1
loop_
 _symmetry_equiv_pos_site_id
 _symmetry_equiv_pos_as_xyz
  1  'x, y, z'
loop_
 _atom_site_type_symbol
 _atom_site_label
 _atom_site_symmetry_multiplicity
 _atom_site_fract_x
 _atom_site_fract_y
 _atom_site_fract_z
 _atom_site_occupancy
  In  In0  1  -0.00437018  0.17581039  0.12263380  1
  In  In1  1  0.00931771  0.17226302  0.62977930  1
  In  In2  1  0.00337343  0.50469360  0.11592340  1
  In  In3  1  -0.01120542  0.50020564  0.62664381  1
  In  In4  1  -0.02003037  0.82930486  0.12632768  1
  In  In5  1  -0.00407835  0.82118849  0.60958951  1
  In  In6  1  0.34570688  0.15068595  0.13290365  1
  In  In7  1  0.34153881  0.16074801  0.62862551  1
  In  In8  1  0.32303639  0.50612988  0.11565579  1
  In  In9  1  0.34967236  0.48619032  0.63575168  1
  In  In10  1  0.35408244  0.83662487  0.12195837  1
  In  In11  1  0.33850974  0.83460337  0.62297205  1
  In  In12  1  0.65536634  0.16724449  0.12383578  1
  In  In13  1  0.65585361  0.17809664  0.63200069  1
  In  In14  1  0.68729904  0.48967173  0.13958595  1
  In  In15  1  0.66494732  0.50635057  0.63392436  1
  In  In16  1  0.66351001  0.83227811  0.13113490  1
  In  In17  1  0.66512158  0.83447491  0.62549019  1
  In  In18  1  0.17039054  -0.01642474  0.37493682  1
  In  In19  1  0.17972325  -0.00923355  0.87361438  1
  In  In20  1  0.17207314  0.33974708  0.37543832  1
  In  In21  1  0.17282409  0.33938557  0.87271168  1
  In  In22  1  0.16934465  0.67448253  0.37516415  1
  In  In23  1  0.16381018  0.65833509  0.87142007  1
  In  In24  1  0.49679956  -0.00447526  0.37695925  1
  In  In25  1  0.50474811  0.00199527  0.87666224  1
  In  In26  1  0.51503317  0.32638584  0.39365773  1
  In  In27  1  0.49619939  0.32595750  0.87192062  1
  In  In28  1  0.51068233  0.66196621  0.38532940  1
  In  In29  1  0.51202354  0.67564758  0.86523356  1
  In  In30  1  0.81561585  -0.00088843  0.37316053  1
  In  In31  1  0.80469034  0.00307314  0.88283119  1
  In  In32  1  0.81438336  0.34953621  0.37628335  1
  In  In33  1  0.83803880  0.34046239  0.87187684  1
  In  In34  1  0.83657830  0.66517383  0.36448227  1
  In  In35  1  0.82357890  0.67474600  0.88373242  1
  In  In36  1  0.00536463  0.17595063  0.37415026  1
  In  In37  1  -0.00519517  0.17869877  0.87451716  1
  In  In38  1  -0.01749819  0.51505477  0.37424135  1
  In  In39  1  0.00267609  0.49139610  0.89010739  1
  In  In40  1  0.00738100  0.81316247  0.38298874  1
  In  In41  1  -0.00949209  0.82417396  0.87592331  1
  In  In42  1  0.38336672  0.16001819  0.38361012  1
  In  In43  1  0.34684729  0.17580971  0.86837896  1
  In  In44  1  0.33511100  0.51025768  0.38089456  1
  In  In45  1  0.32812981  0.49212970  0.86587481  1
  In  In46  1  0.32894110  0.84187655  0.37936005  1
  In  In47  1  0.35303378  0.85121094  0.85610672  1
  In  In48  1  0.62945255  0.14367430  0.34642428  1
  In  In49  1  0.65221876  0.15590996  0.87011565  1
  In  In50  1  0.66193449  0.49165300  0.35888293  1
  In  In51  1  0.67345341  0.50407200  0.87303722  1
  In  In52  1  0.66578602  0.83284950  0.38124024  1
  In  In53  1  0.66377043  0.83056579  0.87834914  1
  In  In54  1  0.17667668  0.00900231  0.12712678  1
  In  In55  1  0.17836417  -0.00543575  0.62654682  1
  In  In56  1  0.15819736  0.34018029  0.11718903  1
  In  In57  1  0.17211713  0.32799263  0.63674046  1
  In  In58  1  0.16772571  0.65045354  0.12286978  1
  In  In59  1  0.17024891  0.68523808  0.61966894  1
  In  In60  1  0.50758407  -0.00035857  0.13016183  1
  In  In61  1  0.50203009  -0.00016619  0.62319064  1
  In  In62  1  0.51956184  0.32312848  0.12027154  1
  In  In63  1  0.50095522  0.33575574  0.62306804  1
  In  In64  1  0.50285654  0.68356013  0.12128096  1
  In  In65  1  0.50237538  0.66511949  0.62686925  1
  In  In66  1  0.82449274  -0.01531279  0.12220289  1
  In  In67  1  0.82853005  -0.01433700  0.62351265  1
  In  In68  1  0.81874324  0.33740977  0.11221430  1
  In  In69  1  0.83170163  0.33883615  0.63979201  1
  In  In70  1  0.82761776  0.66757595  0.13118329  1
  In  In71  1  0.82638927  0.66473187  0.62472016  1
  In  In72  1  0.50180837  0.50347966  -0.00170958  1
  In  In73  1  -0.00143524  0.66303765  0.74656438  1
  In  In74  1  -0.00255285  0.00472740  0.75080310  1
  In  In75  1  0.17419451  0.50154860  0.50024630  1
  In  In76  1  0.33885058  0.33040338  0.25377566  1
  In  In77  1  0.82356305  0.17083943  0.00388790  1
  In  In78  1  0.33595563  0.67160202  0.25335258  1
  In  In79  1  0.16658728  0.82737864  -0.00772901  1
  In  In80  1  -0.00881925  0.32842172  0.24315491  1
  In  In81  1  -0.00328882  -0.00880457  0.24627302  1
  In  In82  1  0.17352862  0.17445486  -0.00521361  1
  In  In83  1  0.17935743  0.15435244  0.51116005  1
  In  In84  1  0.82947332  0.50973772  0.50189566  1
  In  In85  1  0.82967965  0.16662014  0.49543298  1
  Cu  Cu86  1  -0.00553645  0.00445318  0.00156505  1
  Cu  Cu87  1  0.49761720  0.50097191  0.24605376  1
  Cu  Cu88  1  0.00252978  0.33047111  0.50442091  1
  Cu  Cu89  1  0.33519638  0.33158148  -0.00379478  1
  Cu  Cu90  1  0.82262854  0.83717691  0.75453815  1
  Cu  Cu91  1  0.50324244  0.83459925  0.74516043  1
  Cu  Cu92  1  0.82661812  0.82997474  0.25288727  1
  Cu  Cu93  1  0.16765385  0.49916506  0.75287445  1
  Cu  Cu94  1  0.82733025  0.16780195  0.75546270  1
  Cu  Cu95  1  0.34053816  0.66814163  0.50430857  1
  Cu  Cu96  1  -0.00476634  -0.01111726  0.49648850  1
  Cu  Cu97  1  0.34646550  -0.00350958  -0.00006611  1
  Cu  Cu98  1  0.66763411  0.67038884  0.50318874  1
  Cu  Cu99  1  0.50299820  0.49582557  0.75176762  1
  Cu  Cu100  1  0.66583399  0.66940174  0.00484566  1
  Cu  Cu101  1  0.16732623  0.17306578  0.75176827  1
  Cu  Cu102  1  0.17940654  0.16077851  0.25426028  1
  Cu  Cu103  1  0.66407899  0.33285992  0.49957373  1
  Cu  Cu104  1  0.66067777  0.00348646  0.49952175  1
  Cu  Cu105  1  0.50387900  0.84040102  0.25247060  1
  Cu  Cu106  1  0.17112396  0.84016288  0.74367113  1
  Cu  Cu107  1  0.82427430  0.16993260  0.24428338  1
  Cu  Cu108  1  0.49877257  0.16222667  0.74785018  1
  Cu  Cu109  1  0.33039061  0.66695901  -0.00984554  1
  Cu  Cu110  1  0.33711177  -0.00119156  0.50189967  1
  Cu  Cu111  1  -0.00783009  0.66751373  0.00282722  1
  Cu  Cu112  1  0.15314054  0.49588770  0.24648227  1
  Cu  Cu113  1  0.16723573  0.82576354  0.25025994  1
  Cu  Cu114  1  0.83728773  0.50082262  0.75542426  1
  Se  Se115  1  0.07958879  0.08161273  0.05695688  1
  Se  Se116  1  0.07113999  0.06918352  0.55992922  1
  Se  Se117  1  0.09031789  0.42693402  0.04771697  1
  Se  Se118  1  0.08134377  0.41226054  0.56327566  1
  Se  Se119  1  0.07881065  0.74674980  0.06105016  1
  Se  Se120  1  0.08728421  0.74892216  0.54414137  1
  Se  Se121  1  0.42374856  0.08038401  0.05662581  1
  Se  Se122  1  0.41880433  0.08435645  0.55368960  1
  Se  Se123  1  0.41278804  0.41002865  0.06109580  1
  Se  Se124  1  0.42546643  0.42521574  0.55463440  1
  Se  Se125  1  0.41260209  0.74637286  0.04682868  1
  Se  Se126  1  0.42345543  0.75089892  0.55679888  1
  Se  Se127  1  0.73902594  0.07124432  0.05701499  1
  Se  Se128  1  0.74321686  0.08147782  0.56102538  1
  Se  Se129  1  0.73582731  0.42278955  0.04865180  1
  Se  Se130  1  0.74718452  0.40969221  0.56108618  1
  Se  Se131  1  0.74812373  0.75252452  0.06020934  1
  Se  Se132  1  0.75186980  0.75233649  0.55639032  1
  Se  Se133  1  0.26297032  0.25208383  0.06531753  1
  Se  Se134  1  0.25926368  0.25922697  0.56188523  1
  Se  Se135  1  0.24606354  0.58496609  0.04235974  1
  Se  Se136  1  0.26100093  0.58707060  0.56498352  1
  Se  Se137  1  0.25484927  0.92060498  0.05479915  1
  Se  Se138  1  0.25083771  0.91494217  0.55229132  1
  Se  Se139  1  0.58960477  0.24640010  0.04442665  1
  Se  Se140  1  0.58180713  0.24874540  0.55282470  1
  Se  Se141  1  0.58822730  0.58565881  0.06476486  1
  Se  Se142  1  0.58967025  0.58336230  0.55834760  1
  Se  Se143  1  0.55972029  0.89148411  0.06567032  1
  Se  Se144  1  0.58369034  0.91629072  0.55400619  1
  Se  Se145  1  0.92593249  0.26426584  0.05087113  1
  Se  Se146  1  0.91698837  0.25549452  0.56227593  1
  Se  Se147  1  0.90864401  0.58761177  0.05756430  1
  Se  Se148  1  0.92885142  0.59822910  0.55519349  1
  Se  Se149  1  0.91452012  0.91522385  0.05126361  1
  Se  Se150  1  0.90901281  0.91100071  0.55023801  1
  Se  Se151  1  0.08839710  0.25281862  0.44934004  1
  Se  Se152  1  0.07620292  0.26353969  0.94433130  1
  Se  Se153  1  0.07920332  0.58679595  0.44135249  1
  Se  Se154  1  0.07969609  0.59323211  0.94693582  1
  Se  Se155  1  0.08455934  0.91053601  0.44475773  1
  Se  Se156  1  0.07345687  0.92646590  0.93891033  1
  Se  Se157  1  0.41404211  0.26140901  0.45637002  1
  Se  Se158  1  0.42027072  0.24639846  0.94827367  1
  Se  Se159  1  0.42093938  0.58239492  0.45145984  1
  Se  Se160  1  0.41324904  0.58678303  0.93165582  1
  Se  Se161  1  0.41882234  0.91290210  0.44962673  1
  Se  Se162  1  0.42098362  0.91130620  0.94249795  1
  Se  Se163  1  0.73657469  0.25054786  0.43584798  1
  Se  Se164  1  0.74397412  0.24967001  0.93164443  1
  Se  Se165  1  0.73799533  0.58755287  0.43712783  1
  Se  Se166  1  0.74538487  0.58466120  0.94971609  1
  Se  Se167  1  0.74814411  0.91994834  0.45038843  1
  Se  Se168  1  0.75435284  0.90106069  0.94954059  1
  Se  Se169  1  0.25984914  0.07823481  0.43569115  1
  Se  Se170  1  0.26327993  0.07676011  0.94163798  1
  Se  Se171  1  0.26532811  0.40620405  0.44669881  1
  Se  Se172  1  0.25391501  0.41767231  0.94546441  1
  Se  Se173  1  0.25705117  0.74540125  0.44546459  1
  Se  Se174  1  0.26061528  0.75189012  0.92624581  1
  Se  Se175  1  0.58201956  0.08628700  0.44173853  1
  Se  Se176  1  0.58545871  0.08000785  0.94902071  1
  Se  Se177  1  0.59355798  0.42986488  0.44676024  1
  Se  Se178  1  0.58632182  0.41192172  0.93770371  1
  Se  Se179  1  0.58178591  0.75489720  0.45335062  1
  Se  Se180  1  0.58008521  0.74581368  0.94758440  1
  Se  Se181  1  0.92560824  0.07682982  0.43616784  1
  Se  Se182  1  0.91683043  0.08216524  0.93947249  1
  Se  Se183  1  0.92167900  0.41051158  0.44542586  1
  Se  Se184  1  0.90016592  0.42416253  0.94969918  1
  Se  Se185  1  0.90660787  0.74284404  0.44221237  1
  Se  Se186  1  0.91175571  0.75485918  0.95193384  1
  Se  Se187  1  0.25297716  0.24067564  0.31749786  1
  Se  Se188  1  0.25275221  0.25321762  0.80526657  1
  Se  Se189  1  0.23970626  0.57360166  0.30490303  1
  Se  Se190  1  0.25098505  0.58661056  0.80078033  1
  Se  Se191  1  0.25075539  0.91140153  0.29973763  1
  Se  Se192  1  0.25469259  0.92625130  0.79323650  1
  Se  Se193  1  0.58487558  0.27159335  0.30661675  1
  Se  Se194  1  0.58051641  0.24726717  0.80133961  1
  Se  Se195  1  0.57482511  0.58641032  0.30294031  1
  Se  Se196  1  0.58791185  0.58077989  0.80197476  1
  Se  Se197  1  0.58817482  0.91839122  0.30965624  1
  Se  Se198  1  0.58216247  0.91250703  0.80746556  1
  Se  Se199  1  0.90195905  0.24470591  0.31104843  1
  Se  Se200  1  0.91539187  0.25227910  0.80118405  1
  Se  Se201  1  0.90370912  0.57201770  0.29482304  1
  Se  Se202  1  0.91489913  0.58254745  0.81674648  1
  Se  Se203  1  0.91219685  0.90914207  0.31400348  1
  Se  Se204  1  0.90741697  0.91694222  0.81219782  1
  Se  Se205  1  0.08704664  0.08459759  0.30769771  1
  Se  Se206  1  0.09154918  0.09022403  0.81342953  1
  Se  Se207  1  0.07788648  0.41751229  0.30987444  1
  Se  Se208  1  0.08236036  0.42394050  0.81053189  1
  Se  Se209  1  0.08279166  0.74412735  0.30157493  1
  Se  Se210  1  0.08961959  0.76080614  0.80343680  1
  Se  Se211  1  0.41991372  0.07596736  0.30155260  1
  Se  Se212  1  0.41792307  0.07888789  0.80427466  1
  Se  Se213  1  0.42077333  0.42779456  0.31192739  1
  Se  Se214  1  0.41733451  0.41114204  0.80213240  1
  Se  Se215  1  0.42587778  0.75781331  0.31432806  1
  Se  Se216  1  0.41928319  0.74665198  0.79608964  1
  Se  Se217  1  0.74766595  0.08221156  0.29821820  1
  Se  Se218  1  0.74330854  0.07898243  0.80109775  1
  Se  Se219  1  0.76067562  0.42537847  0.29388139  1
  Se  Se220  1  0.74955258  0.41649109  0.80241005  1
  Se  Se221  1  0.74199998  0.75010331  0.30752155  1
  Se  Se222  1  0.74624213  0.74703895  0.80658767  1
  Se  Se223  1  0.25938867  0.07432597  0.20329561  1
  Se  Se224  1  0.24448847  0.08892202  0.69465136  1
  Se  Se225  1  0.24390819  0.42051448  0.19179230  1
  Se  Se226  1  0.25322708  0.41507347  0.70164081  1
  Se  Se227  1  0.24787051  0.75328400  0.18393836  1
  Se  Se228  1  0.25360770  0.75333067  0.69434233  1
  Se  Se229  1  0.58730229  0.08402591  0.19967294  1
  Se  Se230  1  0.58438278  0.08007174  0.69526814  1
  Se  Se231  1  0.57879397  0.41727927  0.19233355  1
  Se  Se232  1  0.58555458  0.41326724  0.69605430  1
  Se  Se233  1  0.57981538  0.74850182  0.20166910  1
  Se  Se234  1  0.58735812  0.74845165  0.69536378  1
  Se  Se235  1  0.90923295  0.08873853  0.18814473  1
  Se  Se236  1  0.90502889  0.09193179  0.68856190  1
  Se  Se237  1  0.91019662  0.41953690  0.18151347  1
  Se  Se238  1  0.92329685  0.41834882  0.70338436  1
  Se  Se239  1  0.91473590  0.74794224  0.20270524  1
  Se  Se240  1  0.90884327  0.76172491  0.69400243  1
  Se  Se241  1  0.09823987  0.24028023  0.19371505  1
  Se  Se242  1  0.07820282  0.25552304  0.70371354  1
  Se  Se243  1  0.07717592  0.58409217  0.19425409  1
  Se  Se244  1  0.09399480  0.57841684  0.68661537  1
  Se  Se245  1  0.09188144  0.90592172  0.18397139  1
  Se  Se246  1  0.07803059  0.91007289  0.68670263  1
  Se  Se247  1  0.43083502  0.24446052  0.19405927  1
  Se  Se248  1  0.42027097  0.25022142  0.69383721  1
  Se  Se249  1  0.41618057  0.58010883  0.18679894  1
  Se  Se250  1  0.42139871  0.58324298  0.69942257  1
  Se  Se251  1  0.41639356  0.91898992  0.19931981  1
  Se  Se252  1  0.41814725  0.91818097  0.69325819  1
  Se  Se253  1  0.74851309  0.25174129  0.18556395  1
  Se  Se254  1  0.74591694  0.25233359  0.70070846  1
  Se  Se255  1  0.73027529  0.60369632  0.19932830  1
  Se  Se256  1  0.75659504  0.58451864  0.69999340  1
  Se  Se257  1  0.74700631  0.91740239  0.20075140  1
  Se  Se258  1  0.74371387  0.92011268  0.69840633  1
