# generated using pymatgen
data_In86Cu29Se144
_symmetry_space_group_name_H-M   'P 1'
_cell_length_a   17.56941553
_cell_length_b   17.56790071
_cell_length_c   23.43155771
_cell_angle_alpha   90.00485747
_cell_angle_beta   89.98477780
_cell_angle_gamma   90.01294008
_symmetry_Int_Tables_number   1
_chemical_formula_structural   In86Cu29Se144
_chemical_formula_sum   'In86 Cu29 Se144'
_cell_volume   7232.33136112
_cell_formula_units_Z   1
loop_
 _symmetry_equiv_pos_site_id
 _symmetry_equiv_pos_as_xyz
  1  'x, y, z'
loop_
 _atom_site_type_symbol
 _atom_site_label
 _atom_site_symmetry_multiplicity
 _atom_site_fract_x
 _atom_site_fract_y
 _atom_site_fract_z
 _atom_site_occupancy
  In  In0  1  0.01781108  0.18226494  0.10707112  1
  In  In1  1  -0.00505476  0.17528575  0.63563596  1
  In  In2  1  -0.00967396  0.48626102  0.11361381  1
  In  In3  1  -0.00848451  0.51241824  0.63824058  1
  In  In4  1  -0.00810743  0.84476632  0.11845016  1
  In  In5  1  -0.00392751  0.83453157  0.62925884  1
  In  In6  1  0.31516182  0.18557210  0.14360407  1
  In  In7  1  0.33902393  0.16243834  0.62735289  1
  In  In8  1  0.33133459  0.49780940  0.12220993  1
  In  In9  1  0.32927946  0.48427992  0.62460084  1
  In  In10  1  0.32445890  0.83468450  0.13377430  1
  In  In11  1  0.34265256  0.85065171  0.62681209  1
  In  In12  1  0.68311456  0.16053265  0.12062023  1
  In  In13  1  0.67105667  0.18059638  0.61042022  1
  In  In14  1  0.66490440  0.49620256  0.10672074  1
  In  In15  1  0.67786480  0.50203825  0.61582721  1
  In  In16  1  0.67822500  0.83951429  0.12111844  1
  In  In17  1  0.67127524  0.81220521  0.63986730  1
  In  In18  1  0.16027846  -0.00971695  0.37554163  1
  In  In19  1  0.16810180  0.00558679  0.87226186  1
  In  In20  1  0.16603693  0.32927300  0.35935548  1
  In  In21  1  0.16571900  0.32709381  0.87752531  1
  In  In22  1  0.17468333  0.66740404  0.37661024  1
  In  In23  1  0.15311915  0.66827371  0.87238355  1
  In  In24  1  0.50386812  0.00939197  0.37743269  1
  In  In25  1  0.49835702  0.00801499  0.86827614  1
  In  In26  1  0.49088318  0.34317532  0.38321235  1
  In  In27  1  0.50747048  0.34425570  0.87604196  1
  In  In28  1  0.48966339  0.66142489  0.37928725  1
  In  In29  1  0.50449664  0.65737868  0.87269194  1
  In  In30  1  0.83327137  0.00760722  0.38689539  1
  In  In31  1  0.84834056  -0.01610513  0.89320622  1
  In  In32  1  0.84201080  0.32636597  0.38279034  1
  In  In33  1  0.83827152  0.32387588  0.88328812  1
  In  In34  1  0.83191320  0.66899153  0.38160137  1
  In  In35  1  0.83062500  0.66195410  0.86739102  1
  In  In36  1  -0.00400171  0.16586906  0.37369115  1
  In  In37  1  -0.00195664  0.16459329  0.87506246  1
  In  In38  1  0.00434761  0.49037016  0.37390258  1
  In  In39  1  0.00126396  0.49830834  0.87440962  1
  In  In40  1  -0.00524021  0.84170389  0.38913045  1
  In  In41  1  -0.01660613  0.82509863  0.85919543  1
  In  In42  1  0.33716064  0.17590059  0.36275323  1
  In  In43  1  0.32387486  0.15665249  0.87125032  1
  In  In44  1  0.33113742  0.50579647  0.37092236  1
  In  In45  1  0.34571811  0.48549044  0.88238406  1
  In  In46  1  0.32736021  0.82573755  0.37380207  1
  In  In47  1  0.32256332  0.84349165  0.87217292  1
  In  In48  1  0.66574773  0.17686952  0.39606255  1
  In  In49  1  0.67802804  0.16569594  0.88371680  1
  In  In50  1  0.66801587  0.49243311  0.38756962  1
  In  In51  1  0.65686906  0.49928787  0.88169236  1
  In  In52  1  0.67409333  0.84441186  0.38069882  1
  In  In53  1  0.70396257  0.83946077  0.85887298  1
  In  In54  1  0.16606523  0.02923459  0.11832371  1
  In  In55  1  0.17547496  -0.00749888  0.62969066  1
  In  In56  1  0.16227678  0.32967908  0.12325760  1
  In  In57  1  0.16820238  0.33200023  0.63487678  1
  In  In58  1  0.18135124  0.66917169  0.12205282  1
  In  In59  1  0.14810857  0.67069064  0.62840891  1
  In  In60  1  0.48920294  -0.00481711  0.12689372  1
  In  In61  1  0.48942551  0.00089435  0.62901774  1
  In  In62  1  0.48664838  0.33428378  0.12552723  1
  In  In63  1  0.49589607  0.32623945  0.61423171  1
  In  In64  1  0.49665536  0.65486623  0.12444078  1
  In  In65  1  0.52145473  0.66503411  0.62995579  1
  In  In66  1  0.87335511  0.02861733  0.08529150  1
  In  In67  1  0.84054170  0.00914657  0.62767516  1
  In  In68  1  0.84001624  0.34253606  0.11605274  1
  In  In69  1  0.83820432  0.34192696  0.61984178  1
  In  In70  1  0.83698397  0.66516871  0.11480006  1
  In  In71  1  0.83656223  0.66606731  0.63082168  1
  In  In72  1  0.50240454  0.17383555  0.00181532  1
  In  In73  1  0.16335678  0.50494567  0.49892885  1
  In  In74  1  0.66345201  0.66298767  0.24466183  1
  In  In75  1  0.00760045  0.66174034  0.24893186  1
  In  In76  1  0.50805831  0.82947152  0.50860624  1
  In  In77  1  0.16590724  0.16385632  0.49210720  1
  In  In78  1  0.66439400  -0.00027998  0.74524422  1
  In  In79  1  0.65948175  0.33504711  0.25323179  1
  In  In80  1  0.66981323  0.00165353  0.24950625  1
  In  In81  1  0.15733839  0.83088084  -0.00461513  1
  In  In82  1  0.66618842  0.33481859  0.75124076  1
  In  In83  1  0.33209395  0.66844992  0.75205863  1
  In  In84  1  0.00620612  0.00694065  0.24274824  1
  In  In85  1  0.50712582  0.83203580  -0.00118196  1
  Cu  Cu86  1  0.83798157  0.16611954  0.75484351  1
  Cu  Cu87  1  0.16335123  0.84135974  0.75065967  1
  Cu  Cu88  1  0.49280768  0.17163947  0.74648701  1
  Cu  Cu89  1  0.17010254  0.49313633  0.75549680  1
  Cu  Cu90  1  -0.00278085  0.65975860  -0.00937537  1
  Cu  Cu91  1  0.33803077  0.65714010  -0.00086971  1
  Cu  Cu92  1  0.33513499  0.33001189  0.49593326  1
  Cu  Cu93  1  0.33352943  0.66566736  0.49800926  1
  Cu  Cu94  1  0.83533160  0.84113142  0.24945262  1
  Cu  Cu95  1  0.48966049  0.50089696  0.25112765  1
  Cu  Cu96  1  0.32965147  0.00926917  0.00174707  1
  Cu  Cu97  1  -0.00457842  0.34270836  0.50468350  1
  Cu  Cu98  1  -0.01246020  0.67241903  0.50940666  1
  Cu  Cu99  1  0.00153148  0.00252525  0.50626072  1
  Cu  Cu100  1  0.50017508  0.49650456  0.75087089  1
  Cu  Cu101  1  0.83811694  0.49175014  0.24293567  1
  Cu  Cu102  1  0.67175804  0.67049754  -0.00700537  1
  Cu  Cu103  1  0.32816355  0.33116931  0.00288398  1
  Cu  Cu104  1  0.33673256  -0.00085762  0.50392948  1
  Cu  Cu105  1  0.16359263  0.16854067  0.75223541  1
  Cu  Cu106  1  0.83681467  0.17004268  0.25391036  1
  Cu  Cu107  1  0.67234603  0.66093274  0.50705543  1
  Cu  Cu108  1  0.67515951  -0.00381823  0.50813936  1
  Cu  Cu109  1  0.00532479  0.33113111  -0.00598223  1
  Cu  Cu110  1  0.16890641  0.49530678  0.24384808  1
  Cu  Cu111  1  0.49527229  0.16491157  0.25320280  1
  Cu  Cu112  1  0.16846265  0.83433879  0.25224018  1
  Cu  Cu113  1  0.49005367  0.82722318  0.25072689  1
  Cu  Cu114  1  0.83455079  0.49973080  0.74886061  1
  Se  Se115  1  0.04769516  0.05316275  0.05673802  1
  Se  Se116  1  0.08333823  0.08420790  0.56424876  1
  Se  Se117  1  0.08754212  0.41423879  0.04985633  1
  Se  Se118  1  0.07989453  0.41728398  0.56510288  1
  Se  Se119  1  0.07149712  0.73776410  0.05900025  1
  Se  Se120  1  0.07907284  0.75464334  0.55458697  1
  Se  Se121  1  0.40786301  0.08889063  0.06323495  1
  Se  Se122  1  0.41989220  0.08475973  0.55359370  1
  Se  Se123  1  0.41529061  0.41646154  0.05132692  1
  Se  Se124  1  0.41349676  0.41770658  0.54941332  1
  Se  Se125  1  0.40723823  0.74895754  0.05899092  1
  Se  Se126  1  0.41279945  0.73989601  0.56500702  1
  Se  Se127  1  0.74952914  0.08335763  0.04341520  1
  Se  Se128  1  0.75772632  0.08615065  0.55521834  1
  Se  Se129  1  0.75622064  0.41851075  0.04606789  1
  Se  Se130  1  0.74016048  0.40116578  0.55143159  1
  Se  Se131  1  0.75092436  0.75102752  0.05180304  1
  Se  Se132  1  0.75078937  0.74762027  0.56036379  1
  Se  Se133  1  0.24855255  0.24371168  0.05548706  1
  Se  Se134  1  0.25096011  0.25474103  0.55653148  1
  Se  Se135  1  0.24844652  0.57951087  0.05062784  1
  Se  Se136  1  0.25234114  0.59149623  0.56358939  1
  Se  Se137  1  0.24969706  0.92037815  0.05674190  1
  Se  Se138  1  0.25218689  0.91463165  0.55332489  1
  Se  Se139  1  0.59167006  0.25866736  0.06617474  1
  Se  Se140  1  0.57426514  0.24428764  0.54456557  1
  Se  Se141  1  0.58372595  0.59298971  0.04873935  1
  Se  Se142  1  0.58035869  0.57933367  0.55230869  1
  Se  Se143  1  0.58925957  0.93072398  0.05841101  1
  Se  Se144  1  0.59551142  0.91899410  0.57073705  1
  Se  Se145  1  0.91519816  0.25148001  0.04769215  1
  Se  Se146  1  0.92190548  0.24996627  0.55725951  1
  Se  Se147  1  0.91418858  0.57810924  0.04751795  1
  Se  Se148  1  0.91279779  0.57792976  0.55831831  1
  Se  Se149  1  0.90500274  0.89809657  0.04131031  1
  Se  Se150  1  0.91643607  0.91969682  0.55847811  1
  Se  Se151  1  0.07656469  0.26548300  0.44140275  1
  Se  Se152  1  0.08660395  0.23997071  0.94678265  1
  Se  Se153  1  0.06873322  0.59770070  0.44236026  1
  Se  Se154  1  0.08841653  0.57862597  0.94509934  1
  Se  Se155  1  0.08636504  0.91868198  0.45462263  1
  Se  Se156  1  0.07258829  0.91423172  0.93003105  1
  Se  Se157  1  0.41423064  0.24224273  0.44288979  1
  Se  Se158  1  0.40847198  0.25437552  0.93787181  1
  Se  Se159  1  0.41285756  0.57587418  0.44868209  1
  Se  Se160  1  0.42494715  0.57950087  0.94556511  1
  Se  Se161  1  0.41877478  0.91527852  0.44401703  1
  Se  Se162  1  0.40980560  0.92643325  0.94396739  1
  Se  Se163  1  0.76191175  0.25071727  0.45529199  1
  Se  Se164  1  0.72333089  0.27745753  0.94419445  1
  Se  Se165  1  0.75411707  0.58115602  0.44844717  1
  Se  Se166  1  0.75119662  0.58205720  0.94144783  1
  Se  Se167  1  0.75819934  0.91429654  0.45336269  1
  Se  Se168  1  0.73781603  0.91810244  0.94669397  1
  Se  Se169  1  0.26088307  0.07484343  0.43690109  1
  Se  Se170  1  0.24215200  0.08677740  0.94818906  1
  Se  Se171  1  0.24789048  0.40833216  0.43853798  1
  Se  Se172  1  0.24784871  0.41422202  0.94610223  1
  Se  Se173  1  0.24809024  0.75093375  0.44985939  1
  Se  Se174  1  0.25766993  0.74088984  0.94092062  1
  Se  Se175  1  0.58894591  0.07447386  0.45249565  1
  Se  Se176  1  0.58612649  0.07483105  0.94381512  1
  Se  Se177  1  0.58668970  0.40654125  0.45077884  1
  Se  Se178  1  0.58128172  0.41484753  0.95324036  1
  Se  Se179  1  0.59463210  0.74045422  0.44130583  1
  Se  Se180  1  0.59463973  0.75197852  0.93164856  1
  Se  Se181  1  0.92303753  0.08906613  0.45050495  1
  Se  Se182  1  0.89468002  0.10558407  0.94252455  1
  Se  Se183  1  0.91608392  0.42491597  0.44709968  1
  Se  Se184  1  0.91965342  0.41648162  0.94531612  1
  Se  Se185  1  0.90787934  0.75573830  0.45090726  1
  Se  Se186  1  0.91572590  0.74426284  0.93744458  1
  Se  Se187  1  0.24876893  0.24745014  0.29403792  1
  Se  Se188  1  0.25054572  0.24973859  0.80494607  1
  Se  Se189  1  0.24250973  0.58237621  0.30220835  1
  Se  Se190  1  0.25009977  0.57518372  0.81562401  1
  Se  Se191  1  0.25068616  0.91659509  0.30717571  1
  Se  Se192  1  0.24989252  0.92539988  0.79936236  1
  Se  Se193  1  0.57747183  0.24093970  0.31542601  1
  Se  Se194  1  0.57836190  0.23895372  0.81057134  1
  Se  Se195  1  0.57885052  0.57392250  0.31028582  1
  Se  Se196  1  0.58661737  0.57721617  0.80212832  1
  Se  Se197  1  0.57645571  0.90638092  0.30734573  1
  Se  Se198  1  0.58129592  0.90916302  0.81082254  1
  Se  Se199  1  0.92054702  0.25479173  0.30485082  1
  Se  Se200  1  0.91827311  0.25408884  0.80617112  1
  Se  Se201  1  0.90788064  0.57889908  0.30656698  1
  Se  Se202  1  0.92165297  0.58030498  0.80233190  1
  Se  Se203  1  0.91418522  0.92149194  0.31026220  1
  Se  Se204  1  0.90643880  0.92551276  0.80315363  1
  Se  Se205  1  0.09512949  0.09275628  0.30705825  1
  Se  Se206  1  0.08049637  0.08356845  0.80421538  1
  Se  Se207  1  0.08005520  0.41763600  0.29720977  1
  Se  Se208  1  0.08394654  0.41132257  0.80769293  1
  Se  Se209  1  0.08233261  0.76167237  0.31294787  1
  Se  Se210  1  0.08287078  0.74980058  0.79789544  1
  Se  Se211  1  0.41672404  0.07557985  0.30423086  1
  Se  Se212  1  0.41289489  0.08371987  0.79917029  1
  Se  Se213  1  0.41162261  0.41469477  0.30620589  1
  Se  Se214  1  0.41845754  0.41116772  0.80258827  1
  Se  Se215  1  0.41340441  0.74230243  0.30703299  1
  Se  Se216  1  0.41919203  0.75751037  0.81368929  1
  Se  Se217  1  0.75201278  0.09555343  0.31456250  1
  Se  Se218  1  0.75386058  0.08489318  0.80931205  1
  Se  Se219  1  0.75680933  0.42151178  0.30967752  1
  Se  Se220  1  0.75615340  0.42184498  0.81211320  1
  Se  Se221  1  0.75329148  0.75801003  0.30512868  1
  Se  Se222  1  0.74546581  0.73304066  0.79270099  1
  Se  Se223  1  0.26302740  0.06586174  0.19397915  1
  Se  Se224  1  0.24802020  0.08836641  0.69481659  1
  Se  Se225  1  0.25098213  0.41190207  0.19027127  1
  Se  Se226  1  0.25508569  0.41177646  0.70272344  1
  Se  Se227  1  0.24933300  0.74451218  0.20233748  1
  Se  Se228  1  0.24446465  0.75918800  0.68956584  1
  Se  Se229  1  0.57797537  0.09304244  0.18976333  1
  Se  Se230  1  0.58138225  0.09979560  0.68614169  1
  Se  Se231  1  0.57775752  0.42998386  0.18987013  1
  Se  Se232  1  0.57852207  0.41943326  0.68563443  1
  Se  Se233  1  0.57592919  0.75964965  0.18645742  1
  Se  Se234  1  0.57067281  0.75491990  0.70682273  1
  Se  Se235  1  0.90816224  0.09009602  0.18670689  1
  Se  Se236  1  0.92214933  0.08192548  0.70290052  1
  Se  Se237  1  0.92302852  0.40823655  0.19393990  1
  Se  Se238  1  0.91638302  0.41170990  0.69802003  1
  Se  Se239  1  0.91323171  0.75488523  0.19236223  1
  Se  Se240  1  0.93309321  0.73503458  0.69622738  1
  Se  Se241  1  0.08795385  0.23800400  0.19165549  1
  Se  Se242  1  0.08048131  0.25614872  0.70304239  1
  Se  Se243  1  0.08857779  0.57411207  0.18204354  1
  Se  Se244  1  0.08941351  0.58082231  0.70407071  1
  Se  Se245  1  0.09503355  0.91059694  0.18529994  1
  Se  Se246  1  0.07952599  0.92284099  0.69595049  1
  Se  Se247  1  0.41769986  0.25687087  0.20368840  1
  Se  Se248  1  0.41414000  0.25778996  0.69214182  1
  Se  Se249  1  0.40927639  0.58396458  0.19528761  1
  Se  Se250  1  0.41859729  0.57617277  0.68976016  1
  Se  Se251  1  0.41156717  0.91671375  0.19962362  1
  Se  Se252  1  0.42088504  0.91832987  0.70336945  1
  Se  Se253  1  0.75611309  0.25020469  0.19367533  1
  Se  Se254  1  0.75684615  0.24365962  0.69244092  1
  Se  Se255  1  0.75603470  0.57335992  0.18630764  1
  Se  Se256  1  0.74756659  0.57876703  0.69426531  1
  Se  Se257  1  0.76506040  0.92415836  0.18678291  1
  Se  Se258  1  0.76219106  0.90997735  0.69337372  1
