# generated using pymatgen
data_In86Cu29Se144
_symmetry_space_group_name_H-M   'P 1'
_cell_length_a   17.58283810
_cell_length_b   17.57519319
_cell_length_c   23.44459571
_cell_angle_alpha   90.02405996
_cell_angle_beta   90.00897085
_cell_angle_gamma   90.00115681
_symmetry_Int_Tables_number   1
_chemical_formula_structural   In86Cu29Se144
_chemical_formula_sum   'In86 Cu29 Se144'
_cell_volume   7244.88988537
_cell_formula_units_Z   1
loop_
 _symmetry_equiv_pos_site_id
 _symmetry_equiv_pos_as_xyz
  1  'x, y, z'
loop_
 _atom_site_type_symbol
 _atom_site_label
 _atom_site_symmetry_multiplicity
 _atom_site_fract_x
 _atom_site_fract_y
 _atom_site_fract_z
 _atom_site_occupancy
  In  In0  1  0.00900606  0.16665624  0.12671955  1
  In  In1  1  -0.00246926  0.16593516  0.61511786  1
  In  In2  1  -0.00028791  0.50151360  0.12907928  1
  In  In3  1  -0.00622461  0.50740106  0.63091941  1
  In  In4  1  -0.03855976  0.82253565  0.11384524  1
  In  In5  1  -0.01747285  0.82423809  0.62572055  1
  In  In6  1  0.33028230  0.16596857  0.13721378  1
  In  In7  1  0.32067911  0.17322609  0.63050122  1
  In  In8  1  0.32592701  0.50184863  0.12658274  1
  In  In9  1  0.33808554  0.49440292  0.62898911  1
  In  In10  1  0.34443892  0.82604340  0.13076616  1
  In  In11  1  0.34355711  0.82302613  0.63298695  1
  In  In12  1  0.65312308  0.16585792  0.12907490  1
  In  In13  1  0.68080820  0.16092418  0.62071492  1
  In  In14  1  0.68267001  0.51601622  0.11795757  1
  In  In15  1  0.65006039  0.52236343  0.64003055  1
  In  In16  1  0.66733113  0.82690948  0.13028857  1
  In  In17  1  0.66487021  0.82295120  0.61673656  1
  In  In18  1  0.17961200  0.00174464  0.37458486  1
  In  In19  1  0.17403718  -0.00699453  0.87172422  1
  In  In20  1  0.15899130  0.32866437  0.37369477  1
  In  In21  1  0.18028276  0.33701557  0.87076832  1
  In  In22  1  0.16454568  0.66004083  0.36550953  1
  In  In23  1  0.15716678  0.65850950  0.87311330  1
  In  In24  1  0.49143130  -0.01368859  0.37173661  1
  In  In25  1  0.49203096  -0.00477726  0.87404225  1
  In  In26  1  0.50110333  0.35289535  0.37570910  1
  In  In27  1  0.50146629  0.33819746  0.86566697  1
  In  In28  1  0.50455599  0.67067278  0.37497637  1
  In  In29  1  0.51045185  0.67323759  0.87115297  1
  In  In30  1  0.82351323  0.00627472  0.37713443  1
  In  In31  1  0.82463995  -0.01181915  0.87662548  1
  In  In32  1  0.83192774  0.33098107  0.37290538  1
  In  In33  1  0.84088441  0.36498530  0.86780165  1
  In  In34  1  0.83500504  0.66852917  0.37152168  1
  In  In35  1  0.83593901  0.66684034  0.87074863  1
  In  In36  1  -0.00761399  0.17526440  0.38009445  1
  In  In37  1  0.00340153  0.16637652  0.87190360  1
  In  In38  1  -0.00516633  0.50008291  0.36211271  1
  In  In39  1  -0.01505566  0.51905930  0.89286707  1
  In  In40  1  -0.00539155  0.81658978  0.37009559  1
  In  In41  1  -0.00398348  0.82180247  0.87495134  1
  In  In42  1  0.32528175  0.16008718  0.37648480  1
  In  In43  1  0.33034007  0.17041810  0.85994977  1
  In  In44  1  0.34338453  0.50969578  0.36886364  1
  In  In45  1  0.32739412  0.49462431  0.87169531  1
  In  In46  1  0.34251541  0.83705975  0.37000091  1
  In  In47  1  0.34534417  0.83903963  0.87238390  1
  In  In48  1  0.68209508  0.17042660  0.37531853  1
  In  In49  1  0.65602110  0.16794207  0.86980806  1
  In  In50  1  0.65708911  0.50170138  0.37571130  1
  In  In51  1  0.70163924  0.52879466  0.84183686  1
  In  In52  1  0.66234544  0.83055161  0.37473231  1
  In  In53  1  0.68780936  0.80375211  0.89721812  1
  In  In54  1  0.16584646  0.00608990  0.12734646  1
  In  In55  1  0.16864846  0.01211505  0.62556276  1
  In  In56  1  0.15492706  0.34037116  0.13331871  1
  In  In57  1  0.17477227  0.32779651  0.62812309  1
  In  In58  1  0.17740464  0.65782527  0.12829518  1
  In  In59  1  0.16662436  0.66773745  0.63361692  1
  In  In60  1  0.51055649  -0.00907890  0.13739108  1
  In  In61  1  0.50087716  -0.01967484  0.62150590  1
  In  In62  1  0.49832992  0.32380760  0.12892544  1
  In  In63  1  0.49189243  0.34457796  0.62525119  1
  In  In64  1  0.49906383  0.66909955  0.12479557  1
  In  In65  1  0.50263743  0.66550742  0.62210326  1
  In  In66  1  0.83037146  -0.03226629  0.12251279  1
  In  In67  1  0.82857277  -0.00473198  0.61450933  1
  In  In68  1  0.83428378  0.35728549  0.12776169  1
  In  In69  1  0.83449233  0.32963156  0.62465030  1
  In  In70  1  0.83289060  0.66520974  0.13616944  1
  In  In71  1  0.81282208  0.68712554  0.65713671  1
  In  In72  1  0.83089920  0.16523448  -0.00174766  1
  In  In73  1  0.16669525  0.17124133  0.00034356  1
  In  In74  1  0.16707923  0.83525383  0.49240156  1
  In  In75  1  0.50073615  0.16340664  0.49860362  1
  In  In76  1  0.66809798  0.34139436  0.25229017  1
  In  In77  1  0.49717283  0.16411553  -0.00065116  1
  In  In78  1  0.16209908  0.83045337  -0.00498160  1
  In  In79  1  0.65970011  -0.00613085  0.74609587  1
  In  In80  1  0.16705334  0.49550243  0.50734396  1
  In  In81  1  0.82429118  0.50684957  0.50056281  1
  In  In82  1  0.00060922  -0.00346441  0.24093471  1
  In  In83  1  0.00510522  -0.00808434  0.75443253  1
  In  In84  1  0.00377844  0.33886171  0.74536230  1
  In  In85  1  0.51184441  0.50773166  0.00013329  1
  Cu  Cu86  1  -0.00282062  0.32653656  0.49862620  1
  Cu  Cu87  1  0.67230268  0.34221821  -0.01071336  1
  Cu  Cu88  1  0.49344050  0.16467063  0.25641568  1
  Cu  Cu89  1  0.50361057  0.82803445  0.75178213  1
  Cu  Cu90  1  0.83561820  0.16659605  0.74372014  1
  Cu  Cu91  1  0.33162795  0.33535170  0.50410909  1
  Cu  Cu92  1  0.34555943  0.66768685  0.49834252  1
  Cu  Cu93  1  0.49819132  0.50471583  0.24756359  1
  Cu  Cu94  1  0.16319702  0.50195249  0.75383935  1
  Cu  Cu95  1  0.17102261  0.49501795  0.24863231  1
  Cu  Cu96  1  -0.00498920  0.66292229  0.00385136  1
  Cu  Cu97  1  0.67099669  -0.00589582  0.49659001  1
  Cu  Cu98  1  0.17479106  0.83521980  0.75097344  1
  Cu  Cu99  1  0.33079693  -0.00079693  0.49903273  1
  Cu  Cu100  1  0.16781762  0.83148716  0.24702272  1
  Cu  Cu101  1  0.33621558  -0.00317103  0.00191138  1
  Cu  Cu102  1  -0.00411364  -0.00014598  0.49838431  1
  Cu  Cu103  1  0.33509763  0.66524983  0.00361839  1
  Cu  Cu104  1  0.66606810  -0.01214195  0.00851744  1
  Cu  Cu105  1  0.66886871  0.33716385  0.49859022  1
  Cu  Cu106  1  0.49351976  0.50074761  0.74926585  1
  Cu  Cu107  1  -0.00008317  0.34301371  0.00589188  1
  Cu  Cu108  1  0.83582086  0.16710773  0.25110841  1
  Cu  Cu109  1  -0.00435276  0.66508105  0.49652460  1
  Cu  Cu110  1  0.49392636  0.17020762  0.74414130  1
  Cu  Cu111  1  0.50007239  0.82945578  0.25178252  1
  Cu  Cu112  1  0.17052839  0.16535537  0.25359081  1
  Cu  Cu113  1  0.82565457  0.83038911  0.25085974  1
  Cu  Cu114  1  0.33133757  0.33861497  -0.00183333  1
  Se  Se115  1  0.07500323  0.07413876  0.05147572  1
  Se  Se116  1  0.08259977  0.07974384  0.55102219  1
  Se  Se117  1  0.08717390  0.42266468  0.05741645  1
  Se  Se118  1  0.07045513  0.40643886  0.56423239  1
  Se  Se119  1  0.07752276  0.74487634  0.06280911  1
  Se  Se120  1  0.08159759  0.74330109  0.55537632  1
  Se  Se121  1  0.41200062  0.07769590  0.06526000  1
  Se  Se122  1  0.41181726  0.07721747  0.56167809  1
  Se  Se123  1  0.41912696  0.41139837  0.05709042  1
  Se  Se124  1  0.41554079  0.42316994  0.55039821  1
  Se  Se125  1  0.41783200  0.75059693  0.05323270  1
  Se  Se126  1  0.42108000  0.75471523  0.55421542  1
  Se  Se127  1  0.74234798  0.07838445  0.06405237  1
  Se  Se128  1  0.75354375  0.08343812  0.54469136  1
  Se  Se129  1  0.75031361  0.42023560  0.05010090  1
  Se  Se130  1  0.74014548  0.41765061  0.56502517  1
  Se  Se131  1  0.77751377  0.77068702  0.06891445  1
  Se  Se132  1  0.76568047  0.74337072  0.56302401  1
  Se  Se133  1  0.25742265  0.25702022  0.06234808  1
  Se  Se134  1  0.24721098  0.24880133  0.55162401  1
  Se  Se135  1  0.25002748  0.57964850  0.05077702  1
  Se  Se136  1  0.25791686  0.59418724  0.55843180  1
  Se  Se137  1  0.25266399  0.91767678  0.05956539  1
  Se  Se138  1  0.25464118  0.91536919  0.56108003  1
  Se  Se139  1  0.59354033  0.26161738  0.05105084  1
  Se  Se140  1  0.58898596  0.25460807  0.55944853  1
  Se  Se141  1  0.60051334  0.60626133  0.05198421  1
  Se  Se142  1  0.58960088  0.58642420  0.55400978  1
  Se  Se143  1  0.57959753  0.90940622  0.06151677  1
  Se  Se144  1  0.58662069  0.91183709  0.54878721  1
  Se  Se145  1  0.92071999  0.25521291  0.06058503  1
  Se  Se146  1  0.90866996  0.24747448  0.55094437  1
  Se  Se147  1  0.91309821  0.58378848  0.06242547  1
  Se  Se148  1  0.91570477  0.59307258  0.56111544  1
  Se  Se149  1  0.92944701  0.93325135  0.04700790  1
  Se  Se150  1  0.91782124  0.91230649  0.55117262  1
  Se  Se151  1  0.08643631  0.24648004  0.44857798  1
  Se  Se152  1  0.07482117  0.26299182  0.94147290  1
  Se  Se153  1  0.07873192  0.58264284  0.44206945  1
  Se  Se154  1  0.08850765  0.58533403  0.95475730  1
  Se  Se155  1  0.07256299  0.92295865  0.43310045  1
  Se  Se156  1  0.07412377  0.92537239  0.93756415  1
  Se  Se157  1  0.41303494  0.25844304  0.44053928  1
  Se  Se158  1  0.40890337  0.25545990  0.93864905  1
  Se  Se159  1  0.42375502  0.58132333  0.44414107  1
  Se  Se160  1  0.41281986  0.58654739  0.93912221  1
  Se  Se161  1  0.41379966  0.91368208  0.44910627  1
  Se  Se162  1  0.42065238  0.91464468  0.95024628  1
  Se  Se163  1  0.75439448  0.25444692  0.44835938  1
  Se  Se164  1  0.74885596  0.25471930  0.93226489  1
  Se  Se165  1  0.73642249  0.59740888  0.44114880  1
  Se  Se166  1  0.74966188  0.58186634  0.93632655  1
  Se  Se167  1  0.75338123  0.91029975  0.44267533  1
  Se  Se168  1  0.75551340  0.91170678  0.95490890  1
  Se  Se169  1  0.24548028  0.08479974  0.45187679  1
  Se  Se170  1  0.26107564  0.08044863  0.94161905  1
  Se  Se171  1  0.25528502  0.41544218  0.43913369  1
  Se  Se172  1  0.24610811  0.42058714  0.94767676  1
  Se  Se173  1  0.25645973  0.73848901  0.43764281  1
  Se  Se174  1  0.25780502  0.74391823  0.93795315  1
  Se  Se175  1  0.59065917  0.07656583  0.43609886  1
  Se  Se176  1  0.59334865  0.07122329  0.94503746  1
  Se  Se177  1  0.58274414  0.42198247  0.45134881  1
  Se  Se178  1  0.59040845  0.42051564  0.93148848  1
  Se  Se179  1  0.56881108  0.76526606  0.44526744  1
  Se  Se180  1  0.56884346  0.75769666  0.94981962  1
  Se  Se181  1  0.91301064  0.08454998  0.44408901  1
  Se  Se182  1  0.92135334  0.07678863  0.93702219  1
  Se  Se183  1  0.92254097  0.41620001  0.44245758  1
  Se  Se184  1  0.90971777  0.42180736  0.95522805  1
  Se  Se185  1  0.91225832  0.75036992  0.44642641  1
  Se  Se186  1  0.91519212  0.74662606  0.94762995  1
  Se  Se187  1  0.25105433  0.25051025  0.30792422  1
  Se  Se188  1  0.24637890  0.25393858  0.79632778  1
  Se  Se189  1  0.25355147  0.58229423  0.29952175  1
  Se  Se190  1  0.24920648  0.58501756  0.80526674  1
  Se  Se191  1  0.24877540  0.91323065  0.30373724  1
  Se  Se192  1  0.25923385  0.91865524  0.80223758  1
  Se  Se193  1  0.57764614  0.24777537  0.31299025  1
  Se  Se194  1  0.58005936  0.24891489  0.79826535  1
  Se  Se195  1  0.58190862  0.58396063  0.30315274  1
  Se  Se196  1  0.57939623  0.58647924  0.79732461  1
  Se  Se197  1  0.58352411  0.91638345  0.30293185  1
  Se  Se198  1  0.58377712  0.90541460  0.81506786  1
  Se  Se199  1  0.91714791  0.25189159  0.30330766  1
  Se  Se200  1  0.91023600  0.24743549  0.80757493  1
  Se  Se201  1  0.92429859  0.59716160  0.30147820  1
  Se  Se202  1  0.92362708  0.58112730  0.80679155  1
  Se  Se203  1  0.91033351  0.91447985  0.30746553  1
  Se  Se204  1  0.90468240  0.90417052  0.80445751  1
  Se  Se205  1  0.08314838  0.08511761  0.30975049  1
  Se  Se206  1  0.09672738  0.09126678  0.80486550  1
  Se  Se207  1  0.08481953  0.41439204  0.30251972  1
  Se  Se208  1  0.08117673  0.42598588  0.81589921  1
  Se  Se209  1  0.08418485  0.74808773  0.29964768  1
  Se  Se210  1  0.08917264  0.75522287  0.80539164  1
  Se  Se211  1  0.41122164  0.07946843  0.30902540  1
  Se  Se212  1  0.42171592  0.08329531  0.80251790  1
  Se  Se213  1  0.41705857  0.41752441  0.29930241  1
  Se  Se214  1  0.40988513  0.41514201  0.80061841  1
  Se  Se215  1  0.41506704  0.74461940  0.30301160  1
  Se  Se216  1  0.41649551  0.74657893  0.80404551  1
  Se  Se217  1  0.74889288  0.08473150  0.30036162  1
  Se  Se218  1  0.75557688  0.08669095  0.80506787  1
  Se  Se219  1  0.76038578  0.43225818  0.30846911  1
  Se  Se220  1  0.72924925  0.39405649  0.80244235  1
  Se  Se221  1  0.74453565  0.74707142  0.30505847  1
  Se  Se222  1  0.74611467  0.75084288  0.80638345  1
  Se  Se223  1  0.24928544  0.07641300  0.20171555  1
  Se  Se224  1  0.25819279  0.07466379  0.69773256  1
  Se  Se225  1  0.25507472  0.41024590  0.19627354  1
  Se  Se226  1  0.24362445  0.42134399  0.69547869  1
  Se  Se227  1  0.25383557  0.74760623  0.19582351  1
  Se  Se228  1  0.25475838  0.74584919  0.70027433  1
  Se  Se229  1  0.58229183  0.08583682  0.20437696  1
  Se  Se230  1  0.57413374  0.08906106  0.68399405  1
  Se  Se231  1  0.58031286  0.42619764  0.18512840  1
  Se  Se232  1  0.57893952  0.41631015  0.69678049  1
  Se  Se233  1  0.58223585  0.74496527  0.19799423  1
  Se  Se234  1  0.58480502  0.74981252  0.69265433  1
  Se  Se235  1  0.90440109  0.08515691  0.18354626  1
  Se  Se236  1  0.91445689  0.08065332  0.68905815  1
  Se  Se237  1  0.92935094  0.40948088  0.19928950  1
  Se  Se238  1  0.90133422  0.42645559  0.69695514  1
  Se  Se239  1  0.91959804  0.75100484  0.20399003  1
  Se  Se240  1  0.93524645  0.73680391  0.70524437  1
  Se  Se241  1  0.08342601  0.24569372  0.20054510  1
  Se  Se242  1  0.08580733  0.23679096  0.69140009  1
  Se  Se243  1  0.08883041  0.58214738  0.19656237  1
  Se  Se244  1  0.08121485  0.58396702  0.69869137  1
  Se  Se245  1  0.08461413  0.90121914  0.18159362  1
  Se  Se246  1  0.09059946  0.90568660  0.68573862  1
  Se  Se247  1  0.41556998  0.25136710  0.20191633  1
  Se  Se248  1  0.41230972  0.25588116  0.69178199  1
  Se  Se249  1  0.41440700  0.58438584  0.19077554  1
  Se  Se250  1  0.41544553  0.58681072  0.69274968  1
  Se  Se251  1  0.41484890  0.91690718  0.20116047  1
  Se  Se252  1  0.42100802  0.91480752  0.70008144  1
  Se  Se253  1  0.75486844  0.24824550  0.18850205  1
  Se  Se254  1  0.74907356  0.24827603  0.69355615  1
  Se  Se255  1  0.74746721  0.58113369  0.20178427  1
  Se  Se256  1  0.75369005  0.57298001  0.70874269  1
  Se  Se257  1  0.74246070  0.91856975  0.20165925  1
  Se  Se258  1  0.75514551  0.90961563  0.68858007  1
