# generated using pymatgen
data_In86Cu29Se144
_symmetry_space_group_name_H-M   'P 1'
_cell_length_a   17.57587722
_cell_length_b   17.57892702
_cell_length_c   23.43506748
_cell_angle_alpha   90.00603827
_cell_angle_beta   90.01102320
_cell_angle_gamma   89.99090681
_symmetry_Int_Tables_number   1
_chemical_formula_structural   In86Cu29Se144
_chemical_formula_sum   'In86 Cu29 Se144'
_cell_volume   7240.61683303
_cell_formula_units_Z   1
loop_
 _symmetry_equiv_pos_site_id
 _symmetry_equiv_pos_as_xyz
  1  'x, y, z'
loop_
 _atom_site_type_symbol
 _atom_site_label
 _atom_site_symmetry_multiplicity
 _atom_site_fract_x
 _atom_site_fract_y
 _atom_site_fract_z
 _atom_site_occupancy
  In  In0  1  0.01674937  0.15189825  0.13244275  1
  In  In1  1  0.00704757  0.18081216  0.62322181  1
  In  In2  1  -0.00934996  0.48867169  0.12159307  1
  In  In3  1  -0.00254531  0.49442845  0.61654927  1
  In  In4  1  0.01755967  0.85866303  0.10118699  1
  In  In5  1  0.00419114  0.82183308  0.62365742  1
  In  In6  1  0.33170839  0.16736810  0.12591183  1
  In  In7  1  0.33978028  0.16825454  0.63503304  1
  In  In8  1  0.31665452  0.50717887  0.12532037  1
  In  In9  1  0.32041991  0.48588435  0.61931983  1
  In  In10  1  0.34340085  0.84778117  0.11604150  1
  In  In11  1  0.33006753  0.84651349  0.62742201  1
  In  In12  1  0.64575830  0.16608503  0.12075077  1
  In  In13  1  0.65820066  0.15972533  0.61862018  1
  In  In14  1  0.67954948  0.49609615  0.12632961  1
  In  In15  1  0.66916778  0.49863081  0.61344408  1
  In  In16  1  0.67095613  0.84226105  0.12451149  1
  In  In17  1  0.67539269  0.84646445  0.62887603  1
  In  In18  1  0.16286621  -0.00710520  0.36541883  1
  In  In19  1  0.17600055  -0.00814123  0.88442557  1
  In  In20  1  0.17407537  0.33798612  0.37073894  1
  In  In21  1  0.16532507  0.33199951  0.87691826  1
  In  In22  1  0.16298360  0.66461197  0.38637027  1
  In  In23  1  0.16586436  0.66080321  0.88213892  1
  In  In24  1  0.50908713  0.00667997  0.36263121  1
  In  In25  1  0.49608554  0.00505691  0.87933100  1
  In  In26  1  0.48985347  0.33510526  0.38417987  1
  In  In27  1  0.48512023  0.32493652  0.87003045  1
  In  In28  1  0.48962631  0.66307444  0.37457642  1
  In  In29  1  0.50954238  0.67121083  0.87823513  1
  In  In30  1  0.83687352  0.00443933  0.36598301  1
  In  In31  1  0.82639858  -0.00486756  0.87956486  1
  In  In32  1  0.83648351  0.32915003  0.37456282  1
  In  In33  1  0.84984606  0.33000149  0.87416320  1
  In  In34  1  0.83610048  0.65994296  0.37869041  1
  In  In35  1  0.85458516  0.65651064  0.89676127  1
  In  In36  1  -0.00903811  0.15746382  0.36644766  1
  In  In37  1  -0.00158545  0.18137240  0.87477455  1
  In  In38  1  0.00990159  0.49418167  0.37850215  1
  In  In39  1  0.01866624  0.47874017  0.89302423  1
  In  In40  1  0.00162215  0.83976442  0.37083682  1
  In  In41  1  0.01567637  0.82186235  0.90406412  1
  In  In42  1  0.33818667  0.17414271  0.37115889  1
  In  In43  1  0.33740942  0.16327736  0.87829940  1
  In  In44  1  0.33366015  0.49403627  0.38227057  1
  In  In45  1  0.32109958  0.48519698  0.86951221  1
  In  In46  1  0.32352032  0.83370207  0.36811905  1
  In  In47  1  0.32553528  0.84888298  0.88191282  1
  In  In48  1  0.66850556  0.16066149  0.37997252  1
  In  In49  1  0.66573477  0.14927522  0.87289875  1
  In  In50  1  0.67130897  0.49127937  0.38199355  1
  In  In51  1  0.67339914  0.51199330  0.87456518  1
  In  In52  1  0.66237261  0.84792897  0.36622333  1
  In  In53  1  0.65715699  0.83781894  0.88496365  1
  In  In54  1  0.16942040  0.00747128  0.12033507  1
  In  In55  1  0.17975084  0.00163817  0.62414492  1
  In  In56  1  0.16798353  0.33118794  0.12716379  1
  In  In57  1  0.16119992  0.34516695  0.64042191  1
  In  In58  1  0.15132835  0.66561982  0.10895775  1
  In  In59  1  0.15380201  0.66254145  0.60964160  1
  In  In60  1  0.49411468  -0.00093135  0.13085548  1
  In  In61  1  0.48744889  0.02100145  0.64249535  1
  In  In62  1  0.49684775  0.32118924  0.12387891  1
  In  In63  1  0.48593246  0.31837576  0.61618028  1
  In  In64  1  0.48912583  0.67064625  0.12222005  1
  In  In65  1  0.51158342  0.66520213  0.62245715  1
  In  In66  1  0.84442972  -0.00929994  0.13302311  1
  In  In67  1  0.81629270  -0.00051037  0.62768364  1
  In  In68  1  0.84033933  0.34650476  0.12589374  1
  In  In69  1  0.84312852  0.34009694  0.61610146  1
  In  In70  1  0.84498325  0.66867590  0.11753856  1
  In  In71  1  0.84828668  0.65232344  0.62120794  1
  In  In72  1  0.32863022  0.67189492  0.24819206  1
  In  In73  1  0.32791956  0.66774435  0.75420311  1
  In  In74  1  -0.00008103  0.66988385  0.24920580  1
  In  In75  1  -0.00300662  0.00228355  0.75922714  1
  In  In76  1  0.00099621  0.66225869  0.75105069  1
  In  In77  1  0.50121195  0.83305745  0.49622507  1
  In  In78  1  0.67042676  0.67066662  0.24174819  1
  In  In79  1  0.83339914  0.16565226  -0.00105174  1
  In  In80  1  0.16975590  0.16695171  0.49993724  1
  In  In81  1  0.67001880  0.67620278  0.74987260  1
  In  In82  1  0.66149571  0.32721494  0.74532632  1
  In  In83  1  0.66849245  0.32710714  0.25353984  1
  In  In84  1  0.49555410  0.49914195  -0.00885865  1
  In  In85  1  0.83805128  0.82891911  0.50058520  1
  Cu  Cu86  1  0.16732154  0.16619382  0.24871886  1
  Cu  Cu87  1  0.17591360  0.17131506  0.75417933  1
  Cu  Cu88  1  0.33748449  0.00517870  0.00280203  1
  Cu  Cu89  1  0.50002747  0.49245450  0.25909201  1
  Cu  Cu90  1  0.66163194  0.00495691  0.50001812  1
  Cu  Cu91  1  -0.00007185  0.33073393  0.49766099  1
  Cu  Cu92  1  0.66821364  0.66593303  0.00238618  1
  Cu  Cu93  1  0.17046341  0.83810133  0.23766351  1
  Cu  Cu94  1  0.82903201  0.83411445  0.76186346  1
  Cu  Cu95  1  0.16586780  0.49278709  0.25051799  1
  Cu  Cu96  1  -0.00353089  -0.00082968  0.49074628  1
  Cu  Cu97  1  0.33018645  0.33232956  0.50120492  1
  Cu  Cu98  1  0.84082054  0.49296159  0.74771988  1
  Cu  Cu99  1  0.65996035  0.00141017  0.00365682  1
  Cu  Cu100  1  0.33637744  0.00043675  0.50305427  1
  Cu  Cu101  1  0.32691898  0.67127057  0.00017959  1
  Cu  Cu102  1  0.00515506  0.33047023  0.00388336  1
  Cu  Cu103  1  0.66894881  0.66156586  0.49826473  1
  Cu  Cu104  1  0.83885324  0.83747920  0.24485996  1
  Cu  Cu105  1  0.32742861  0.33265592  -0.00081240  1
  Cu  Cu106  1  0.82877262  0.16720912  0.24952089  1
  Cu  Cu107  1  0.49159120  0.16477621  0.24740384  1
  Cu  Cu108  1  0.66736489  0.33523496  0.00218070  1
  Cu  Cu109  1  0.33440697  0.66206705  0.49879213  1
  Cu  Cu110  1  0.66805838  0.33064578  0.49876185  1
  Cu  Cu111  1  0.83599036  0.16945456  0.74992807  1
  Cu  Cu112  1  0.49812862  0.84851590  0.75922583  1
  Cu  Cu113  1  0.16840855  0.83566914  0.75333361  1
  Cu  Cu114  1  0.49304278  0.49630725  0.74229392  1
  Se  Se115  1  0.08285822  0.08423600  0.04993252  1
  Se  Se116  1  0.07625131  0.07412306  0.55724549  1
  Se  Se117  1  0.08741509  0.41636402  0.05686419  1
  Se  Se118  1  0.08645796  0.40562043  0.55582835  1
  Se  Se119  1  0.07813987  0.75301494  0.04034191  1
  Se  Se120  1  0.08881306  0.76378014  0.54718022  1
  Se  Se121  1  0.42006254  0.08677217  0.05893804  1
  Se  Se122  1  0.41384602  0.08497674  0.55948535  1
  Se  Se123  1  0.40877741  0.41616343  0.05892941  1
  Se  Se124  1  0.41686998  0.41772708  0.55188722  1
  Se  Se125  1  0.41566678  0.75160959  0.04910223  1
  Se  Se126  1  0.41032453  0.74568467  0.56067698  1
  Se  Se127  1  0.74443994  0.07984478  0.06317674  1
  Se  Se128  1  0.75152206  0.08378345  0.55139396  1
  Se  Se129  1  0.75349861  0.41682954  0.05172491  1
  Se  Se130  1  0.75425132  0.41666438  0.54793403  1
  Se  Se131  1  0.74681406  0.74842169  0.05963029  1
  Se  Se132  1  0.74386273  0.74096491  0.56305256  1
  Se  Se133  1  0.24787933  0.24839899  0.05566502  1
  Se  Se134  1  0.25171458  0.25505118  0.56559456  1
  Se  Se135  1  0.24458000  0.58217292  0.04777200  1
  Se  Se136  1  0.24945928  0.58019249  0.55183472  1
  Se  Se137  1  0.24924953  0.91969252  0.05065470  1
  Se  Se138  1  0.24908621  0.91536440  0.55015172  1
  Se  Se139  1  0.57727791  0.25246552  0.04674435  1
  Se  Se140  1  0.58221237  0.24770641  0.55036029  1
  Se  Se141  1  0.58580437  0.58217297  0.06056548  1
  Se  Se142  1  0.58043396  0.58103713  0.54866617  1
  Se  Se143  1  0.57820921  0.91818947  0.05919922  1
  Se  Se144  1  0.58332208  0.92380304  0.56129525  1
  Se  Se145  1  0.92295206  0.24986511  0.06352305  1
  Se  Se146  1  0.91759565  0.24511292  0.54992444  1
  Se  Se147  1  0.92630172  0.58394992  0.05276910  1
  Se  Se148  1  0.93111982  0.58860230  0.54692519  1
  Se  Se149  1  0.90330012  0.91956125  0.04846703  1
  Se  Se150  1  0.92160865  0.92526190  0.56164723  1
  Se  Se151  1  0.07824068  0.24927805  0.43597890  1
  Se  Se152  1  0.08574474  0.24737046  0.94864209  1
  Se  Se153  1  0.08455494  0.57738969  0.45057024  1
  Se  Se154  1  0.06063658  0.60093601  0.94382851  1
  Se  Se155  1  0.08457163  0.91787743  0.44204429  1
  Se  Se156  1  0.08077289  0.93183760  0.95555000  1
  Se  Se157  1  0.41276595  0.24428196  0.45140292  1
  Se  Se158  1  0.41631541  0.25099265  0.94981587  1
  Se  Se159  1  0.42003365  0.57941496  0.44776689  1
  Se  Se160  1  0.40269772  0.59109650  0.93396774  1
  Se  Se161  1  0.41178326  0.92246530  0.43657561  1
  Se  Se162  1  0.41947830  0.91752733  0.95026755  1
  Se  Se163  1  0.75119493  0.24889370  0.44345637  1
  Se  Se164  1  0.74319642  0.25536663  0.93616354  1
  Se  Se165  1  0.75447948  0.57875964  0.44733112  1
  Se  Se166  1  0.75128134  0.57885569  0.95238923  1
  Se  Se167  1  0.74493612  0.92149852  0.44318658  1
  Se  Se168  1  0.74478340  0.91822211  0.95188434  1
  Se  Se169  1  0.25493926  0.07549937  0.43812021  1
  Se  Se170  1  0.25192406  0.08616981  0.94922030  1
  Se  Se171  1  0.24478704  0.41511453  0.44934017  1
  Se  Se172  1  0.24407681  0.41917012  0.94903225  1
  Se  Se173  1  0.25713081  0.74947229  0.44397331  1
  Se  Se174  1  0.24588280  0.75438998  0.94382759  1
  Se  Se175  1  0.57496472  0.08214476  0.44446236  1
  Se  Se176  1  0.58081750  0.08729694  0.94994485  1
  Se  Se177  1  0.58152609  0.41505107  0.44808271  1
  Se  Se178  1  0.58991793  0.40959934  0.93350285  1
  Se  Se179  1  0.59528817  0.74378891  0.43581650  1
  Se  Se180  1  0.58009924  0.74921529  0.95442400  1
  Se  Se181  1  0.91092223  0.08323538  0.44245437  1
  Se  Se182  1  0.92468494  0.07902343  0.93900581  1
  Se  Se183  1  0.91746922  0.41393833  0.44327231  1
  Se  Se184  1  0.91359923  0.41065752  0.95311153  1
  Se  Se185  1  0.93086236  0.74254848  0.44122377  1
  Se  Se186  1  0.89614905  0.77261489  0.95464324  1
  Se  Se187  1  0.25051862  0.25027514  0.30221531  1
  Se  Se188  1  0.25602520  0.25270769  0.81100830  1
  Se  Se189  1  0.24333373  0.57869092  0.31016858  1
  Se  Se190  1  0.23258098  0.57395021  0.80394252  1
  Se  Se191  1  0.25217580  0.91875951  0.29511899  1
  Se  Se192  1  0.25057068  0.92181373  0.80345127  1
  Se  Se193  1  0.57157607  0.24369407  0.31144433  1
  Se  Se194  1  0.57650940  0.23662692  0.80671006  1
  Se  Se195  1  0.58428882  0.57865501  0.30919400  1
  Se  Se196  1  0.57459791  0.57706277  0.80119216  1
  Se  Se197  1  0.57946437  0.91534334  0.29365458  1
  Se  Se198  1  0.58748068  0.92378483  0.81178371  1
  Se  Se199  1  0.91416375  0.24983509  0.30069274  1
  Se  Se200  1  0.92233600  0.25474569  0.79650573  1
  Se  Se201  1  0.91499627  0.57581912  0.30791106  1
  Se  Se202  1  0.91260629  0.57410633  0.81227326  1
  Se  Se203  1  0.92207453  0.91992376  0.30028828  1
  Se  Se204  1  0.92026134  0.90282788  0.81972781  1
  Se  Se205  1  0.08222850  0.08136479  0.30026585  1
  Se  Se206  1  0.09369151  0.09076061  0.81390632  1
  Se  Se207  1  0.08088347  0.41143571  0.30313935  1
  Se  Se208  1  0.08040884  0.41382118  0.80837368  1
  Se  Se209  1  0.09943818  0.75712449  0.30515552  1
  Se  Se210  1  0.08603501  0.75859658  0.81240214  1
  Se  Se211  1  0.40927919  0.08164810  0.30230501  1
  Se  Se212  1  0.41006792  0.07616021  0.80700910  1
  Se  Se213  1  0.41184758  0.41294066  0.30912152  1
  Se  Se214  1  0.41502140  0.41674426  0.80110494  1
  Se  Se215  1  0.42650695  0.75953803  0.30358325  1
  Se  Se216  1  0.42173246  0.75785376  0.81239977  1
  Se  Se217  1  0.74419548  0.08463009  0.30290807  1
  Se  Se218  1  0.75989421  0.08196945  0.80403807  1
  Se  Se219  1  0.75756470  0.42482369  0.30455320  1
  Se  Se220  1  0.75359386  0.41858182  0.80702261  1
  Se  Se221  1  0.76222832  0.75746885  0.30834070  1
  Se  Se222  1  0.75677801  0.74741403  0.82242515  1
  Se  Se223  1  0.25087920  0.08261350  0.19511505  1
  Se  Se224  1  0.25042154  0.08320531  0.69821139  1
  Se  Se225  1  0.25360350  0.41484207  0.19678818  1
  Se  Se226  1  0.26002837  0.41486519  0.70301029  1
  Se  Se227  1  0.24208204  0.75075347  0.17826055  1
  Se  Se228  1  0.23881631  0.75265249  0.68833300  1
  Se  Se229  1  0.58129570  0.08427865  0.19827630  1
  Se  Se230  1  0.60199780  0.07406574  0.69715940  1
  Se  Se231  1  0.57823283  0.42043482  0.19139193  1
  Se  Se232  1  0.57829586  0.42149518  0.68350527  1
  Se  Se233  1  0.57248992  0.75716831  0.18961126  1
  Se  Se234  1  0.57297864  0.76811434  0.69417150  1
  Se  Se235  1  0.91693156  0.08491563  0.19827466  1
  Se  Se236  1  0.91518931  0.08754889  0.68813431  1
  Se  Se237  1  0.92131246  0.41480553  0.20080221  1
  Se  Se238  1  0.92302456  0.41333231  0.69201836  1
  Se  Se239  1  0.92268278  0.76401377  0.18431092  1
  Se  Se240  1  0.90356953  0.75613042  0.69517934  1
  Se  Se241  1  0.08326978  0.25168556  0.19751809  1
  Se  Se242  1  0.08496491  0.24732992  0.70168915  1
  Se  Se243  1  0.09084692  0.57873329  0.19054167  1
  Se  Se244  1  0.08909596  0.57606324  0.68848462  1
  Se  Se245  1  0.08309621  0.92094099  0.18797439  1
  Se  Se246  1  0.08506040  0.91403064  0.69282440  1
  Se  Se247  1  0.41157126  0.25403503  0.19757336  1
  Se  Se248  1  0.42476004  0.25120166  0.70078372  1
  Se  Se249  1  0.42307479  0.57338119  0.19540906  1
  Se  Se250  1  0.41745753  0.58464533  0.68663289  1
  Se  Se251  1  0.40926939  0.91629135  0.19819306  1
  Se  Se252  1  0.41062015  0.92068881  0.70098466  1
  Se  Se253  1  0.75189731  0.24303059  0.18390483  1
  Se  Se254  1  0.75841348  0.24625551  0.68486056  1
  Se  Se255  1  0.76781987  0.57834188  0.19334336  1
  Se  Se256  1  0.75646042  0.57533451  0.69236516  1
  Se  Se257  1  0.74756450  0.92076474  0.19964347  1
  Se  Se258  1  0.74995998  0.91886530  0.70702259  1
