# generated using pymatgen
data_In86Cu29Se144
_symmetry_space_group_name_H-M   'P 1'
_cell_length_a   17.57492602
_cell_length_b   17.57583842
_cell_length_c   23.43875634
_cell_angle_alpha   89.98419268
_cell_angle_beta   89.96555231
_cell_angle_gamma   89.98922581
_symmetry_Int_Tables_number   1
_chemical_formula_structural   In86Cu29Se144
_chemical_formula_sum   'In86 Cu29 Se144'
_cell_volume   7240.09089134
_cell_formula_units_Z   1
loop_
 _symmetry_equiv_pos_site_id
 _symmetry_equiv_pos_as_xyz
  1  'x, y, z'
loop_
 _atom_site_type_symbol
 _atom_site_label
 _atom_site_symmetry_multiplicity
 _atom_site_fract_x
 _atom_site_fract_y
 _atom_site_fract_z
 _atom_site_occupancy
  In  In0  1  -0.00422837  0.17409992  0.11890541  1
  In  In1  1  0.00054316  0.16701540  0.62308202  1
  In  In2  1  0.00396220  0.50940394  0.12053101  1
  In  In3  1  -0.00383137  0.49610514  0.62518718  1
  In  In4  1  -0.00949821  0.82255453  0.12630705  1
  In  In5  1  -0.00633655  0.83884550  0.63047595  1
  In  In6  1  0.34238259  0.15847345  0.13223237  1
  In  In7  1  0.32206855  0.16634849  0.62568474  1
  In  In8  1  0.35074061  0.48861902  0.13816756  1
  In  In9  1  0.33128909  0.50907030  0.61921475  1
  In  In10  1  0.35679340  0.81510469  0.15218100  1
  In  In11  1  0.35029270  0.83588100  0.61911002  1
  In  In12  1  0.66585644  0.16891727  0.12287446  1
  In  In13  1  0.66477419  0.15515370  0.62471362  1
  In  In14  1  0.65784111  0.48762187  0.11832223  1
  In  In15  1  0.70557295  0.49323154  0.63311317  1
  In  In16  1  0.66140280  0.85234212  0.13186220  1
  In  In17  1  0.66008760  0.83580748  0.63003849  1
  In  In18  1  0.17401362  0.00614293  0.38026127  1
  In  In19  1  0.16725805  0.00112901  0.86458461  1
  In  In20  1  0.17373873  0.32384270  0.38192647  1
  In  In21  1  0.16293499  0.34406749  0.87197787  1
  In  In22  1  0.15847314  0.66562327  0.36594328  1
  In  In23  1  0.16433678  0.67327892  0.87231747  1
  In  In24  1  0.49943555  -0.01469115  0.36418173  1
  In  In25  1  0.49819752  0.00178191  0.87620243  1
  In  In26  1  0.50395989  0.33444205  0.36320607  1
  In  In27  1  0.50692025  0.32624461  0.89053397  1
  In  In28  1  0.49635365  0.68696540  0.37382767  1
  In  In29  1  0.50934305  0.65979089  0.88777623  1
  In  In30  1  0.83008100  0.01770504  0.37738357  1
  In  In31  1  0.83318238  0.00739083  0.86632697  1
  In  In32  1  0.82697893  0.33297680  0.38237479  1
  In  In33  1  0.83024534  0.32876466  0.87421263  1
  In  In34  1  0.83686325  0.64776133  0.37796964  1
  In  In35  1  0.82398020  0.65724098  0.86278049  1
  In  In36  1  -0.01112459  0.17025563  0.39168521  1
  In  In37  1  -0.01060246  0.16067743  0.86547341  1
  In  In38  1  -0.00457767  0.50432758  0.38037461  1
  In  In39  1  -0.01932881  0.48385658  0.85393280  1
  In  In40  1  0.01345341  0.82873529  0.37561045  1
  In  In41  1  -0.00403705  0.83105156  0.86184048  1
  In  In42  1  0.33619646  0.16129556  0.37030131  1
  In  In43  1  0.35394892  0.16133876  0.87859494  1
  In  In44  1  0.32487780  0.49156221  0.36781721  1
  In  In45  1  0.33644543  0.50544273  0.88215689  1
  In  In46  1  0.33645439  0.85090037  0.35764991  1
  In  In47  1  0.33430599  0.84614693  0.87849342  1
  In  In48  1  0.67182944  0.16883111  0.36814989  1
  In  In49  1  0.66569382  0.16240697  0.87518678  1
  In  In50  1  0.68077565  0.49387912  0.37810029  1
  In  In51  1  0.66675645  0.50296782  0.87975835  1
  In  In52  1  0.64976860  0.83142264  0.37533883  1
  In  In53  1  0.65398511  0.82728154  0.87379114  1
  In  In54  1  0.17776264  0.00633194  0.12958691  1
  In  In55  1  0.15608071  0.01179538  0.62713053  1
  In  In56  1  0.17086950  0.34479092  0.12775735  1
  In  In57  1  0.15363603  0.31912820  0.61314001  1
  In  In58  1  0.16887471  0.67492079  0.13612311  1
  In  In59  1  0.16394480  0.65234221  0.61713962  1
  In  In60  1  0.49768192  0.00054514  0.12384005  1
  In  In61  1  0.51394348  -0.00551559  0.63776751  1
  In  In62  1  0.50133219  0.33517168  0.12563129  1
  In  In63  1  0.50630202  0.31978435  0.62922516  1
  In  In64  1  0.49882533  0.65786311  0.12264192  1
  In  In65  1  0.50021489  0.67576190  0.62466198  1
  In  In66  1  0.82064782  0.00181229  0.12376171  1
  In  In67  1  0.82894913  0.00420221  0.62757356  1
  In  In68  1  0.82414949  0.32374717  0.11415200  1
  In  In69  1  0.84241495  0.34992488  0.61717493  1
  In  In70  1  0.84414864  0.65940779  0.12415882  1
  In  In71  1  0.84568873  0.65149194  0.63927827  1
  In  In72  1  0.17042610  0.50526488  0.00160017  1
  In  In73  1  0.66720904  0.33042313  0.75522621  1
  In  In74  1  0.82373848  0.83155545  -0.00166967  1
  In  In75  1  0.17101012  0.16843490  0.00557183  1
  In  In76  1  0.32800167  0.33175200  0.75222605  1
  In  In77  1  0.00510566  -0.00543646  0.25719783  1
  In  In78  1  0.16930943  0.83757850  0.49111453  1
  In  In79  1  0.66690104  0.66083801  0.25337849  1
  In  In80  1  0.50333742  0.16262581  0.50249953  1
  In  In81  1  0.50717243  0.50149625  0.49616925  1
  In  In82  1  0.17156064  0.83449040  0.00483182  1
  In  In83  1  0.82984283  0.83476930  0.51060750  1
  In  In84  1  0.00158828  0.33668750  0.25271661  1
  In  In85  1  0.33028748  0.67106829  0.74946943  1
  Cu  Cu86  1  0.50009435  0.50242129  0.24743523  1
  Cu  Cu87  1  0.82762999  0.16415983  0.24695773  1
  Cu  Cu88  1  0.66687084  0.66221481  0.50157662  1
  Cu  Cu89  1  0.00074600  0.33947552  0.50165835  1
  Cu  Cu90  1  0.83399724  0.17107515  0.74670868  1
  Cu  Cu91  1  0.66883888  0.66968913  -0.00113377  1
  Cu  Cu92  1  0.16180050  0.16708926  0.74668007  1
  Cu  Cu93  1  0.49878486  0.83647621  0.75293578  1
  Cu  Cu94  1  0.34404809  0.00065946  0.00344483  1
  Cu  Cu95  1  0.33499357  0.33810429  0.49756449  1
  Cu  Cu96  1  0.66773510  0.33614367  -0.00068710  1
  Cu  Cu97  1  0.66147518  0.00897963  0.00097793  1
  Cu  Cu98  1  0.33061487  0.66868472  0.49604935  1
  Cu  Cu99  1  0.50628297  0.16497608  0.24591127  1
  Cu  Cu100  1  0.17403847  0.16883314  0.25624396  1
  Cu  Cu101  1  -0.00547955  0.00050742  -0.01105043  1
  Cu  Cu102  1  -0.00098284  0.66280880  0.50102357  1
  Cu  Cu103  1  0.50710106  0.49810032  0.75811755  1
  Cu  Cu104  1  0.17000383  0.50711619  0.24930306  1
  Cu  Cu105  1  -0.01017931  0.32974335  -0.00915570  1
  Cu  Cu106  1  0.34189021  0.66515864  0.01117555  1
  Cu  Cu107  1  0.33794152  0.00086445  0.49421801  1
  Cu  Cu108  1  0.82784175  0.83968098  0.74831202  1
  Cu  Cu109  1  0.83405338  0.82774711  0.24999955  1
  Cu  Cu110  1  0.83662690  0.49190290  0.25279868  1
  Cu  Cu111  1  -0.00647895  0.65671556  -0.00718044  1
  Cu  Cu112  1  0.66051657  -0.00588322  0.50379172  1
  Cu  Cu113  1  0.15955702  0.49616263  0.74160621  1
  Cu  Cu114  1  0.16699822  0.83461825  0.74447190  1
  Se  Se115  1  0.07526618  0.07047969  0.05705745  1
  Se  Se116  1  0.09418466  0.09888540  0.55301138  1
  Se  Se117  1  0.07362336  0.40551352  0.05253829  1
  Se  Se118  1  0.08542278  0.42383563  0.55352405  1
  Se  Se119  1  0.07436728  0.73691360  0.05370410  1
  Se  Se120  1  0.07750508  0.75064925  0.55671812  1
  Se  Se121  1  0.42210478  0.09151891  0.05346852  1
  Se  Se122  1  0.41355094  0.07450006  0.56287843  1
  Se  Se123  1  0.42245296  0.42371833  0.05770932  1
  Se  Se124  1  0.41798373  0.40868542  0.56106462  1
  Se  Se125  1  0.41861758  0.75595560  0.06225517  1
  Se  Se126  1  0.41930930  0.74643807  0.54797256  1
  Se  Se127  1  0.75163317  0.08790364  0.05152783  1
  Se  Se128  1  0.74644022  0.07825019  0.55266068  1
  Se  Se129  1  0.75393259  0.42109290  0.04933571  1
  Se  Se130  1  0.74209576  0.41104101  0.54881765  1
  Se  Se131  1  0.74133363  0.74608395  0.06806553  1
  Se  Se132  1  0.74503480  0.73845122  0.56692051  1
  Se  Se133  1  0.25886880  0.25773056  0.06498543  1
  Se  Se134  1  0.25490328  0.25031456  0.55021487  1
  Se  Se135  1  0.25669360  0.58835950  0.06911491  1
  Se  Se136  1  0.24921020  0.58040180  0.54449817  1
  Se  Se137  1  0.26331610  0.92050255  0.06345027  1
  Se  Se138  1  0.25607363  0.92316578  0.55755438  1
  Se  Se139  1  0.58471094  0.25397513  0.05464079  1
  Se  Se140  1  0.59728202  0.25719956  0.55407682  1
  Se  Se141  1  0.58656060  0.58411140  0.05297584  1
  Se  Se142  1  0.59095171  0.58160739  0.56654691  1
  Se  Se143  1  0.58343883  0.91959896  0.05336145  1
  Se  Se144  1  0.57641494  0.91315204  0.55726687  1
  Se  Se145  1  0.91149196  0.24336962  0.04582828  1
  Se  Se146  1  0.91860647  0.25434841  0.55483097  1
  Se  Se147  1  0.91229482  0.57509851  0.04820303  1
  Se  Se148  1  0.91391116  0.58279231  0.55561355  1
  Se  Se149  1  0.92068973  0.92092240  0.05571687  1
  Se  Se150  1  0.92631465  0.92994148  0.55675613  1
  Se  Se151  1  0.08302840  0.25219698  0.45062908  1
  Se  Se152  1  0.07951280  0.25049144  0.93810065  1
  Se  Se153  1  0.08543834  0.58739575  0.44393596  1
  Se  Se154  1  0.07827264  0.58058449  0.93347364  1
  Se  Se155  1  0.07087578  0.93253703  0.44469507  1
  Se  Se156  1  0.07884027  0.91657537  0.93757997  1
  Se  Se157  1  0.41786712  0.25729136  0.44016093  1
  Se  Se158  1  0.40617797  0.25636426  0.95057999  1
  Se  Se159  1  0.41258742  0.58702701  0.43610617  1
  Se  Se160  1  0.41902092  0.58050566  0.95355350  1
  Se  Se161  1  0.41512620  0.91428642  0.43933245  1
  Se  Se162  1  0.42308445  0.91362777  0.94974526  1
  Se  Se163  1  0.76423640  0.22654810  0.44187977  1
  Se  Se164  1  0.74569806  0.24985098  0.94287234  1
  Se  Se165  1  0.75219547  0.57819107  0.45211248  1
  Se  Se166  1  0.75326342  0.58865775  0.94549227  1
  Se  Se167  1  0.74278807  0.91726232  0.44136688  1
  Se  Se168  1  0.74042056  0.92683412  0.93870030  1
  Se  Se169  1  0.25549519  0.09072930  0.44767670  1
  Se  Se170  1  0.25234889  0.07161665  0.94426229  1
  Se  Se171  1  0.24903381  0.42003402  0.44652292  1
  Se  Se172  1  0.25739157  0.40704470  0.94605724  1
  Se  Se173  1  0.25739034  0.74811704  0.43133072  1
  Se  Se174  1  0.26122013  0.73862847  0.94543887  1
  Se  Se175  1  0.58565712  0.07268259  0.43718341  1
  Se  Se176  1  0.57692036  0.08910093  0.94576061  1
  Se  Se177  1  0.59169985  0.40244713  0.44109064  1
  Se  Se178  1  0.58350118  0.42351298  0.94987593  1
  Se  Se179  1  0.58293099  0.74749425  0.45188308  1
  Se  Se180  1  0.58090941  0.75569489  0.95392161  1
  Se  Se181  1  0.90840100  0.08248482  0.45509908  1
  Se  Se182  1  0.91058038  0.08596690  0.94153938  1
  Se  Se183  1  0.91410496  0.41796550  0.44621760  1
  Se  Se184  1  0.91279166  0.41981920  0.93938819  1
  Se  Se185  1  0.91870494  0.74688924  0.44355562  1
  Se  Se186  1  0.91862559  0.74737818  0.93810624  1
  Se  Se187  1  0.25704902  0.25523688  0.30608033  1
  Se  Se188  1  0.24193561  0.23883246  0.81406626  1
  Se  Se189  1  0.25443728  0.58889445  0.30259681  1
  Se  Se190  1  0.24163513  0.57107695  0.80549545  1
  Se  Se191  1  0.22512019  0.91516226  0.30480310  1
  Se  Se192  1  0.25082258  0.91153299  0.80185148  1
  Se  Se193  1  0.58891409  0.24974023  0.29891351  1
  Se  Se194  1  0.56863875  0.24335952  0.80852940  1
  Se  Se195  1  0.57667999  0.57471746  0.31741888  1
  Se  Se196  1  0.58481458  0.58686696  0.80975905  1
  Se  Se197  1  0.58930943  0.91100596  0.29642382  1
  Se  Se198  1  0.58329344  0.92043040  0.80572304  1
  Se  Se199  1  0.91197542  0.24140804  0.30719780  1
  Se  Se200  1  0.91515540  0.25553595  0.80085695  1
  Se  Se201  1  0.91957172  0.57900832  0.30190435  1
  Se  Se202  1  0.93514908  0.60420835  0.80305709  1
  Se  Se203  1  0.90746279  0.90920500  0.31579144  1
  Se  Se204  1  0.91549850  0.92207394  0.79924307  1
  Se  Se205  1  0.08271597  0.09900780  0.31446249  1
  Se  Se206  1  0.07847604  0.08088539  0.79973900  1
  Se  Se207  1  0.09324078  0.42399110  0.31213747  1
  Se  Se208  1  0.08094522  0.40833376  0.79461866  1
  Se  Se209  1  0.07485991  0.74797301  0.29827990  1
  Se  Se210  1  0.08678279  0.74914064  0.79838513  1
  Se  Se211  1  0.42341179  0.08384957  0.30322959  1
  Se  Se212  1  0.40006360  0.06430995  0.80630257  1
  Se  Se213  1  0.41591063  0.41696099  0.29987780  1
  Se  Se214  1  0.42223289  0.41878100  0.81349737  1
  Se  Se215  1  0.42005512  0.75804329  0.29815213  1
  Se  Se216  1  0.42147159  0.75220342  0.81414006  1
  Se  Se217  1  0.74633679  0.07750502  0.29841470  1
  Se  Se218  1  0.74717510  0.08974133  0.79955925  1
  Se  Se219  1  0.75221871  0.40948505  0.30425204  1
  Se  Se220  1  0.75665631  0.42832086  0.80626553  1
  Se  Se221  1  0.75730261  0.74969609  0.31554246  1
  Se  Se222  1  0.74724447  0.75723397  0.80511153  1
  Se  Se223  1  0.25449199  0.08325161  0.20342318  1
  Se  Se224  1  0.24818034  0.08241340  0.69787439  1
  Se  Se225  1  0.25139204  0.41667153  0.20168632  1
  Se  Se226  1  0.24501346  0.41834982  0.68368748  1
  Se  Se227  1  0.23977597  0.76276750  0.20458892  1
  Se  Se228  1  0.24454939  0.75524248  0.68112128  1
  Se  Se229  1  0.58750475  0.08132204  0.19096819  1
  Se  Se230  1  0.57981892  0.09450217  0.70075852  1
  Se  Se231  1  0.58514050  0.41659950  0.19797186  1
  Se  Se232  1  0.58108323  0.42347908  0.68992684  1
  Se  Se233  1  0.58202672  0.75095037  0.19159100  1
  Se  Se234  1  0.57906502  0.74999353  0.69958969  1
  Se  Se235  1  0.91704374  0.08582571  0.19174408  1
  Se  Se236  1  0.91675807  0.08577104  0.69347981  1
  Se  Se237  1  0.91383602  0.41778335  0.18504429  1
  Se  Se238  1  0.90461484  0.42848192  0.69637869  1
  Se  Se239  1  0.91569380  0.74163167  0.19975269  1
  Se  Se240  1  0.91498422  0.75511532  0.69900372  1
  Se  Se241  1  0.09152172  0.24176347  0.19229158  1
  Se  Se242  1  0.08018787  0.25306239  0.69482758  1
  Se  Se243  1  0.08143817  0.58349987  0.19530619  1
  Se  Se244  1  0.08018046  0.58586223  0.69205961  1
  Se  Se245  1  0.08422924  0.91091254  0.18567019  1
  Se  Se246  1  0.08228960  0.92014189  0.69488489  1
  Se  Se247  1  0.42074106  0.25098868  0.19636925  1
  Se  Se248  1  0.41996200  0.23810496  0.69686163  1
  Se  Se249  1  0.41663426  0.59160775  0.20128345  1
  Se  Se250  1  0.42346351  0.57433891  0.69578727  1
  Se  Se251  1  0.40523418  0.93842619  0.19723339  1
  Se  Se252  1  0.41447936  0.91618312  0.69777650  1
  Se  Se253  1  0.75050805  0.25198474  0.19301520  1
  Se  Se254  1  0.75446872  0.25028202  0.68561036  1
  Se  Se255  1  0.75506129  0.57161801  0.19074206  1
  Se  Se256  1  0.73589539  0.59982597  0.70241142  1
  Se  Se257  1  0.75579711  0.91828479  0.20105954  1
  Se  Se258  1  0.74382276  0.92214634  0.69496191  1
