# generated using pymatgen
data_In86Cu29Se144
_symmetry_space_group_name_H-M   'P 1'
_cell_length_a   17.58521652
_cell_length_b   17.58158268
_cell_length_c   23.44701803
_cell_angle_alpha   90.00941426
_cell_angle_beta   90.00326107
_cell_angle_gamma   89.98234934
_symmetry_Int_Tables_number   1
_chemical_formula_structural   In86Cu29Se144
_chemical_formula_sum   'In86 Cu29 Se144'
_cell_volume   7249.25334282
_cell_formula_units_Z   1
loop_
 _symmetry_equiv_pos_site_id
 _symmetry_equiv_pos_as_xyz
  1  'x, y, z'
loop_
 _atom_site_type_symbol
 _atom_site_label
 _atom_site_symmetry_multiplicity
 _atom_site_fract_x
 _atom_site_fract_y
 _atom_site_fract_z
 _atom_site_occupancy
  In  In0  1  -0.00691967  0.16047322  0.11457409  1
  In  In1  1  -0.00969865  0.16847117  0.62987361  1
  In  In2  1  0.00607000  0.50684473  0.12284044  1
  In  In3  1  0.00653689  0.49275999  0.62506080  1
  In  In4  1  -0.01300170  0.84018810  0.13337305  1
  In  In5  1  0.00799525  0.84304200  0.61708631  1
  In  In6  1  0.33514621  0.16330247  0.12449918  1
  In  In7  1  0.34468116  0.15583345  0.61915897  1
  In  In8  1  0.33073298  0.49731979  0.12247904  1
  In  In9  1  0.33603988  0.49702513  0.61282029  1
  In  In10  1  0.35033003  0.84324859  0.13263518  1
  In  In11  1  0.34106631  0.85566114  0.59947870  1
  In  In12  1  0.66380406  0.16131204  0.12792584  1
  In  In13  1  0.65838873  0.17039693  0.63251579  1
  In  In14  1  0.65430169  0.48830770  0.11794404  1
  In  In15  1  0.65839991  0.49678900  0.62697190  1
  In  In16  1  0.67090332  0.84035275  0.12247190  1
  In  In17  1  0.67752437  0.83921427  0.61537740  1
  In  In18  1  0.15703574  -0.00554704  0.36616589  1
  In  In19  1  0.16149300  0.01616170  0.87596043  1
  In  In20  1  0.18631628  0.33691379  0.37901039  1
  In  In21  1  0.16914654  0.33014620  0.88429386  1
  In  In22  1  0.16534809  0.67048980  0.37585884  1
  In  In23  1  0.15753902  0.66355690  0.87851596  1
  In  In24  1  0.49660459  -0.00944842  0.37073519  1
  In  In25  1  0.51159188  -0.00529386  0.88294299  1
  In  In26  1  0.50576293  0.32397304  0.38553894  1
  In  In27  1  0.51364955  0.31978583  0.88548661  1
  In  In28  1  0.49383899  0.67537096  0.37788053  1
  In  In29  1  0.50351008  0.66441122  0.88574698  1
  In  In30  1  0.82459735  -0.01003755  0.36792595  1
  In  In31  1  0.83233780  0.00032076  0.87838438  1
  In  In32  1  0.81551379  0.33570069  0.37392539  1
  In  In33  1  0.81800037  0.34303777  0.88067244  1
  In  In34  1  0.84466261  0.66932194  0.37117607  1
  In  In35  1  0.83480733  0.66403122  0.88466319  1
  In  In36  1  0.00841785  0.15726291  0.37131194  1
  In  In37  1  0.00741420  0.15478434  0.88193779  1
  In  In38  1  0.00563330  0.51472144  0.36615724  1
  In  In39  1  -0.00281817  0.50198755  0.88524702  1
  In  In40  1  -0.00064650  0.83190380  0.37350189  1
  In  In41  1  -0.01394842  0.83345387  0.87679269  1
  In  In42  1  0.35951703  0.15766240  0.37540467  1
  In  In43  1  0.33260653  0.17023560  0.88379426  1
  In  In44  1  0.33307879  0.50022759  0.38507525  1
  In  In45  1  0.33383954  0.50068269  0.88541020  1
  In  In46  1  0.33165615  0.84407499  0.37852240  1
  In  In47  1  0.34371619  0.84712652  0.87606443  1
  In  In48  1  0.62524320  0.13339151  0.33631221  1
  In  In49  1  0.66820973  0.16431065  0.87851613  1
  In  In50  1  0.66047047  0.48560575  0.36841831  1
  In  In51  1  0.67695469  0.48423911  0.88209115  1
  In  In52  1  0.65339934  0.85290828  0.38316676  1
  In  In53  1  0.66203058  0.84059139  0.88293379  1
  In  In54  1  0.15750579  0.00348705  0.13000618  1
  In  In55  1  0.17159607  -0.00506401  0.62323404  1
  In  In56  1  0.17143931  0.33565188  0.11856418  1
  In  In57  1  0.15871759  0.33843562  0.62105693  1
  In  In58  1  0.16179675  0.64757151  0.13308895  1
  In  In59  1  0.16899968  0.67500686  0.61756785  1
  In  In60  1  0.50506878  0.00425834  0.13159090  1
  In  In61  1  0.50784073  0.00845001  0.61614159  1
  In  In62  1  0.50032204  0.33180639  0.12625924  1
  In  In63  1  0.50567455  0.33893552  0.61799582  1
  In  In64  1  0.50547900  0.67433431  0.12120704  1
  In  In65  1  0.49750126  0.66345005  0.61666110  1
  In  In66  1  0.83279701  0.00062229  0.12293271  1
  In  In67  1  0.83620037  -0.00594570  0.63201737  1
  In  In68  1  0.81908428  0.31953175  0.11395978  1
  In  In69  1  0.83102789  0.32493868  0.63286282  1
  In  In70  1  0.83917907  0.67476598  0.11981833  1
  In  In71  1  0.82218937  0.67300867  0.62404524  1
  In  In72  1  0.67078073  0.67391134  0.24169632  1
  In  In73  1  0.32997723  0.67460746  0.25935980  1
  In  In74  1  -0.00654581  0.32737292  0.75663137  1
  In  In75  1  0.17095862  0.82709154  0.00448916  1
  In  In76  1  -0.00277124  0.33134048  0.24782460  1
  In  In77  1  0.33427254  0.67065224  0.73703201  1
  In  In78  1  0.33458442  0.32879988  0.75595490  1
  In  In79  1  0.83112963  0.50572207  0.50171502  1
  In  In80  1  0.17555558  0.16724253  0.50023503  1
  In  In81  1  0.82839452  0.17093390  0.50261320  1
  In  In82  1  -0.00591411  0.67029876  0.75884788  1
  In  In83  1  0.33634265  0.00442736  0.74119215  1
  In  In84  1  0.66849224  0.66268713  0.74906710  1
  In  In85  1  0.33941514  0.32813795  0.24762470  1
  Cu  Cu86  1  0.66607591  0.66843172  0.49728456  1
  Cu  Cu87  1  0.50659483  0.83240319  0.75180475  1
  Cu  Cu88  1  0.83064665  0.83976998  0.75149130  1
  Cu  Cu89  1  0.16270526  0.82962985  0.25245503  1
  Cu  Cu90  1  0.00628694  0.34852301  0.49444494  1
  Cu  Cu91  1  0.66264082  0.33055396  0.00231226  1
  Cu  Cu92  1  0.50481800  0.16342763  0.75373552  1
  Cu  Cu93  1  0.00314799  0.67088865  0.49403426  1
  Cu  Cu94  1  0.16708357  0.50137550  0.75139269  1
  Cu  Cu95  1  0.50828278  0.48752982  0.75139164  1
  Cu  Cu96  1  0.33676896  0.33337709  0.00363467  1
  Cu  Cu97  1  0.00104810  0.66290794  0.00357266  1
  Cu  Cu98  1  -0.00265327  -0.00486926  0.49869947  1
  Cu  Cu99  1  0.82681114  0.15906294  0.75602258  1
  Cu  Cu100  1  0.49702300  0.50188982  0.24746103  1
  Cu  Cu101  1  -0.00087046  -0.00248055  0.00459641  1
  Cu  Cu102  1  0.83594855  0.16710444  0.24009966  1
  Cu  Cu103  1  0.66573648  0.66692020  0.00365903  1
  Cu  Cu104  1  0.34236938  0.00290261  0.00219426  1
  Cu  Cu105  1  -0.00200482  0.33241004  0.00097170  1
  Cu  Cu106  1  0.83223039  0.49599350  0.24460430  1
  Cu  Cu107  1  0.16544469  0.84479574  0.74074057  1
  Cu  Cu108  1  0.83632575  0.83217680  0.24927254  1
  Cu  Cu109  1  0.33493856  0.66730051  0.00871972  1
  Cu  Cu110  1  0.66401662  0.00349814  0.49276482  1
  Cu  Cu111  1  0.33381856  0.66981902  0.49560959  1
  Cu  Cu112  1  0.66759526  0.00379916  0.00380445  1
  Cu  Cu113  1  0.65741496  0.32559938  0.49923871  1
  Cu  Cu114  1  0.16749810  0.16250962  0.24729326  1
  Se  Se115  1  0.08795892  0.08174864  0.05133353  1
  Se  Se116  1  0.07184757  0.08430365  0.55731029  1
  Se  Se117  1  0.08156286  0.41624355  0.05457300  1
  Se  Se118  1  0.09025405  0.42802460  0.54872966  1
  Se  Se119  1  0.07818219  0.74385243  0.06625416  1
  Se  Se120  1  0.08501134  0.75518495  0.54945568  1
  Se  Se121  1  0.42445275  0.08485360  0.05751488  1
  Se  Se122  1  0.40262705  0.06135203  0.54941549  1
  Se  Se123  1  0.41880106  0.41688113  0.05776935  1
  Se  Se124  1  0.42407626  0.41815714  0.54984354  1
  Se  Se125  1  0.41588160  0.75633331  0.05713448  1
  Se  Se126  1  0.42011003  0.75086457  0.54884815  1
  Se  Se127  1  0.75198862  0.08754752  0.05566753  1
  Se  Se128  1  0.74236251  0.07665157  0.56156583  1
  Se  Se129  1  0.74886835  0.41868457  0.05002204  1
  Se  Se130  1  0.74604083  0.40333031  0.55697876  1
  Se  Se131  1  0.74963395  0.75286733  0.05401939  1
  Se  Se132  1  0.75432027  0.75061073  0.54639679  1
  Se  Se133  1  0.25329588  0.24740551  0.05488438  1
  Se  Se134  1  0.26048130  0.25931768  0.56244772  1
  Se  Se135  1  0.24737581  0.58354597  0.05629089  1
  Se  Se136  1  0.25179929  0.58864795  0.55314497  1
  Se  Se137  1  0.25810919  0.92260326  0.06073993  1
  Se  Se138  1  0.23529986  0.92129149  0.54277676  1
  Se  Se139  1  0.58272706  0.24735419  0.05853146  1
  Se  Se140  1  0.57850783  0.23933927  0.55471467  1
  Se  Se141  1  0.57906181  0.58384470  0.05383963  1
  Se  Se142  1  0.58942850  0.58251327  0.55375889  1
  Se  Se143  1  0.58234350  0.92136079  0.05714151  1
  Se  Se144  1  0.58614373  0.91721345  0.55057015  1
  Se  Se145  1  0.91231460  0.24563825  0.04774750  1
  Se  Se146  1  0.92729472  0.26676704  0.55484644  1
  Se  Se147  1  0.91428012  0.58010116  0.05447159  1
  Se  Se148  1  0.92683956  0.59392983  0.56108353  1
  Se  Se149  1  0.91430981  0.91259796  0.05408634  1
  Se  Se150  1  0.91062498  0.91764047  0.55447270  1
  Se  Se151  1  0.07894650  0.25660100  0.43946620  1
  Se  Se152  1  0.08237138  0.24789599  0.94859422  1
  Se  Se153  1  0.08423839  0.58288340  0.44430135  1
  Se  Se154  1  0.08734909  0.58042445  0.95177598  1
  Se  Se155  1  0.08162365  0.91693569  0.44251473  1
  Se  Se156  1  0.08101921  0.91671175  0.94315254  1
  Se  Se157  1  0.39878332  0.26240616  0.44520618  1
  Se  Se158  1  0.41943033  0.24729839  0.95149747  1
  Se  Se159  1  0.42131495  0.58576286  0.44690976  1
  Se  Se160  1  0.41703301  0.58388385  0.95213354  1
  Se  Se161  1  0.42571559  0.91094749  0.44699888  1
  Se  Se162  1  0.42419733  0.91485550  0.95179912  1
  Se  Se163  1  0.73416790  0.24583567  0.43790773  1
  Se  Se164  1  0.74825762  0.24913445  0.94865824  1
  Se  Se165  1  0.74223793  0.58678471  0.43399084  1
  Se  Se166  1  0.74616706  0.58264417  0.94806157  1
  Se  Se167  1  0.75464519  0.91788909  0.44921348  1
  Se  Se168  1  0.75061055  0.91835770  0.94967541  1
  Se  Se169  1  0.25141307  0.07864772  0.43182938  1
  Se  Se170  1  0.25288776  0.07953333  0.94837487  1
  Se  Se171  1  0.24898757  0.42100109  0.45383527  1
  Se  Se172  1  0.25003252  0.41624304  0.95074049  1
  Se  Se173  1  0.25049111  0.75240897  0.44215767  1
  Se  Se174  1  0.26257598  0.74265629  0.93779188  1
  Se  Se175  1  0.58163961  0.08333119  0.43565058  1
  Se  Se176  1  0.58278312  0.08727514  0.95027305  1
  Se  Se177  1  0.58311632  0.42072803  0.44866733  1
  Se  Se178  1  0.58009294  0.41935462  0.95093196  1
  Se  Se179  1  0.58283546  0.75260396  0.44532687  1
  Se  Se180  1  0.58290339  0.75290850  0.95030182  1
  Se  Se181  1  0.91820067  0.07985147  0.44142297  1
  Se  Se182  1  0.91629979  0.08028973  0.94922878  1
  Se  Se183  1  0.91765858  0.41853279  0.43486054  1
  Se  Se184  1  0.91333705  0.41541328  0.94795890  1
  Se  Se185  1  0.91479616  0.75238358  0.44553751  1
  Se  Se186  1  0.91851328  0.74855830  0.95105934  1
  Se  Se187  1  0.24869175  0.23709272  0.30902677  1
  Se  Se188  1  0.23914106  0.23911162  0.80919459  1
  Se  Se189  1  0.24496431  0.57293230  0.30931211  1
  Se  Se190  1  0.24987884  0.58343851  0.80764033  1
  Se  Se191  1  0.24825193  0.91345580  0.30248881  1
  Se  Se192  1  0.24679057  0.91598422  0.80667173  1
  Se  Se193  1  0.58895384  0.26851730  0.30534146  1
  Se  Se194  1  0.58682787  0.24826240  0.80647708  1
  Se  Se195  1  0.57800653  0.58564078  0.30554540  1
  Se  Se196  1  0.57868971  0.57627990  0.81178102  1
  Se  Se197  1  0.59865905  0.93041565  0.30108724  1
  Se  Se198  1  0.58566286  0.91667167  0.80618211  1
  Se  Se199  1  0.90774837  0.24300667  0.31123412  1
  Se  Se200  1  0.90503458  0.24008263  0.81804643  1
  Se  Se201  1  0.91178595  0.58170913  0.29723947  1
  Se  Se202  1  0.90592466  0.57196753  0.80996943  1
  Se  Se203  1  0.91965109  0.91663934  0.30291752  1
  Se  Se204  1  0.91631429  0.91993159  0.80534757  1
  Se  Se205  1  0.07793040  0.07912155  0.29483326  1
  Se  Se206  1  0.07782431  0.08193254  0.80197033  1
  Se  Se207  1  0.09128066  0.41362064  0.30964290  1
  Se  Se208  1  0.08879126  0.42261506  0.81183393  1
  Se  Se209  1  0.08003864  0.74530943  0.30420519  1
  Se  Se210  1  0.09450997  0.76404660  0.80734611  1
  Se  Se211  1  0.41577035  0.07242200  0.29789731  1
  Se  Se212  1  0.42064339  0.08594909  0.81252385  1
  Se  Se213  1  0.42106151  0.42272586  0.31107178  1
  Se  Se214  1  0.42403135  0.41886411  0.81576817  1
  Se  Se215  1  0.42757367  0.76808363  0.30512322  1
  Se  Se216  1  0.42272761  0.75214446  0.80729983  1
  Se  Se217  1  0.75829165  0.08793442  0.30188489  1
  Se  Se218  1  0.74332414  0.07551043  0.80839705  1
  Se  Se219  1  0.74685579  0.41461876  0.29604168  1
  Se  Se220  1  0.74607487  0.41441431  0.80129956  1
  Se  Se221  1  0.75133307  0.75885747  0.31170423  1
  Se  Se222  1  0.75574538  0.75378075  0.81143957  1
  Se  Se223  1  0.25128995  0.08139516  0.19327912  1
  Se  Se224  1  0.24115577  0.09740227  0.68984974  1
  Se  Se225  1  0.24298308  0.42120437  0.19618096  1
  Se  Se226  1  0.24811343  0.42272179  0.69227385  1
  Se  Se227  1  0.24352701  0.75634320  0.18771615  1
  Se  Se228  1  0.25113612  0.77144132  0.68180893  1
  Se  Se229  1  0.59959979  0.07173383  0.20235368  1
  Se  Se230  1  0.58169170  0.07659724  0.69767375  1
  Se  Se231  1  0.58021393  0.41633091  0.19708550  1
  Se  Se232  1  0.58853133  0.40497124  0.69655694  1
  Se  Se233  1  0.57338614  0.76672398  0.19394335  1
  Se  Se234  1  0.58003287  0.75210070  0.68748048  1
  Se  Se235  1  0.92079112  0.08239357  0.19125868  1
  Se  Se236  1  0.91373648  0.08432422  0.69893054  1
  Se  Se237  1  0.90783049  0.41365015  0.18262599  1
  Se  Se238  1  0.91141854  0.42470012  0.69478595  1
  Se  Se239  1  0.91717114  0.74269038  0.19952815  1
  Se  Se240  1  0.91117903  0.75844614  0.69141420  1
  Se  Se241  1  0.08875697  0.24344387  0.18711079  1
  Se  Se242  1  0.08941464  0.24690242  0.69372054  1
  Se  Se243  1  0.07659001  0.57673447  0.20401023  1
  Se  Se244  1  0.08935386  0.58605368  0.69370721  1
  Se  Se245  1  0.08091145  0.91489482  0.19781942  1
  Se  Se246  1  0.07728660  0.92665178  0.69289789  1
  Se  Se247  1  0.43175948  0.23352884  0.19698820  1
  Se  Se248  1  0.42382260  0.24212737  0.69281301  1
  Se  Se249  1  0.41752245  0.58571519  0.19152317  1
  Se  Se250  1  0.42756148  0.56845644  0.69187141  1
  Se  Se251  1  0.40925956  0.93821765  0.20276517  1
  Se  Se252  1  0.42542495  0.90747740  0.68735760  1
  Se  Se253  1  0.74699098  0.25095316  0.19475799  1
  Se  Se254  1  0.74858492  0.24578187  0.70081840  1
  Se  Se255  1  0.75212150  0.57548793  0.18292763  1
  Se  Se256  1  0.76069441  0.57113230  0.69165592  1
  Se  Se257  1  0.75492723  0.91558374  0.19458061  1
  Se  Se258  1  0.74255364  0.91602270  0.69672634  1
