# generated using pymatgen
data_In86Cu29Se144
_symmetry_space_group_name_H-M   'P 1'
_cell_length_a   17.57901560
_cell_length_b   17.58001285
_cell_length_c   23.44604093
_cell_angle_alpha   89.96365381
_cell_angle_beta   89.98254220
_cell_angle_gamma   89.98384685
_symmetry_Int_Tables_number   1
_chemical_formula_structural   In86Cu29Se144
_chemical_formula_sum   'In86 Cu29 Se144'
_cell_volume   7245.74646688
_cell_formula_units_Z   1
loop_
 _symmetry_equiv_pos_site_id
 _symmetry_equiv_pos_as_xyz
  1  'x, y, z'
loop_
 _atom_site_type_symbol
 _atom_site_label
 _atom_site_symmetry_multiplicity
 _atom_site_fract_x
 _atom_site_fract_y
 _atom_site_fract_z
 _atom_site_occupancy
  In  In0  1  -0.00875369  0.17143498  0.13132429  1
  In  In1  1  0.01325738  0.16931664  0.62422522  1
  In  In2  1  0.00240256  0.49876354  0.12371347  1
  In  In3  1  -0.00822130  0.49995880  0.63620263  1
  In  In4  1  0.00618556  0.81968244  0.13548138  1
  In  In5  1  -0.00204319  0.82944296  0.61480157  1
  In  In6  1  0.34713129  0.16626371  0.12073411  1
  In  In7  1  0.32727373  0.16799761  0.62672150  1
  In  In8  1  0.29815950  0.49009792  0.11432920  1
  In  In9  1  0.33785318  0.49695111  0.63625585  1
  In  In10  1  0.32398648  0.83722731  0.12104090  1
  In  In11  1  0.33061392  0.83540517  0.62222578  1
  In  In12  1  0.66735376  0.16691488  0.12195765  1
  In  In13  1  0.66499849  0.18457801  0.62551029  1
  In  In14  1  0.68070780  0.48287462  0.11744312  1
  In  In15  1  0.67106622  0.48644591  0.63087501  1
  In  In16  1  0.68237338  0.83426491  0.13129865  1
  In  In17  1  0.67277473  0.83544453  0.61831148  1
  In  In18  1  0.16424363  0.00498552  0.37574346  1
  In  In19  1  0.15536901  -0.01303498  0.87621384  1
  In  In20  1  0.15750211  0.32421537  0.37502893  1
  In  In21  1  0.16864980  0.33691626  0.87306202  1
  In  In22  1  0.16579990  0.67882760  0.37813902  1
  In  In23  1  0.16313267  0.66648778  0.87063968  1
  In  In24  1  0.50277000  0.00278955  0.38163378  1
  In  In25  1  0.49790612  0.01889259  0.87770186  1
  In  In26  1  0.48329436  0.33197495  0.37766672  1
  In  In27  1  0.49064952  0.32530359  0.86964729  1
  In  In28  1  0.50802528  0.67082459  0.38182878  1
  In  In29  1  0.49284719  0.67197380  0.86623118  1
  In  In30  1  0.82745627  -0.00177977  0.36801654  1
  In  In31  1  0.84695950  0.01892170  0.87706154  1
  In  In32  1  0.85665674  0.33654343  0.38296960  1
  In  In33  1  0.83522878  0.33730977  0.86386428  1
  In  In34  1  0.84747437  0.65356397  0.38186638  1
  In  In35  1  0.84630317  0.63363498  0.87330184  1
  In  In36  1  0.01485979  0.17652279  0.36656755  1
  In  In37  1  -0.03139706  0.18211869  0.89592692  1
  In  In38  1  -0.00996453  0.48606908  0.36772095  1
  In  In39  1  -0.00470216  0.50169382  0.86577408  1
  In  In40  1  0.00085153  0.83180373  0.37425330  1
  In  In41  1  0.02465693  0.83539987  0.87658752  1
  In  In42  1  0.32444776  0.18105707  0.38906462  1
  In  In43  1  0.33897991  0.17454191  0.86814095  1
  In  In44  1  0.33104284  0.48675688  0.37409120  1
  In  In45  1  0.32499281  0.49716862  0.86962358  1
  In  In46  1  0.33205328  0.84041410  0.38679716  1
  In  In47  1  0.31244443  0.82211738  0.85868595  1
  In  In48  1  0.66888319  0.15524791  0.37674634  1
  In  In49  1  0.65876750  0.18576882  0.89099955  1
  In  In50  1  0.67410950  0.51027940  0.37583654  1
  In  In51  1  0.69477710  0.47625115  0.88376375  1
  In  In52  1  0.65972810  0.84428608  0.38314683  1
  In  In53  1  0.67075661  0.82969792  0.87315456  1
  In  In54  1  0.16676018  -0.01603051  0.12430704  1
  In  In55  1  0.17756166  0.01398505  0.61718815  1
  In  In56  1  0.15586147  0.33729723  0.12898043  1
  In  In57  1  0.17308560  0.32514253  0.63164560  1
  In  In58  1  0.14687294  0.63964950  0.10325932  1
  In  In59  1  0.15740328  0.67044524  0.62792330  1
  In  In60  1  0.50302079  0.01420265  0.12511406  1
  In  In61  1  0.49053221  -0.00855241  0.61868632  1
  In  In62  1  0.50390447  0.31739979  0.12273986  1
  In  In63  1  0.49702432  0.32791580  0.62593728  1
  In  In64  1  0.49124963  0.67056776  0.12386871  1
  In  In65  1  0.48992862  0.66793464  0.62707530  1
  In  In66  1  0.82611586  0.00618201  0.13829379  1
  In  In67  1  0.84866503  -0.00628246  0.62172630  1
  In  In68  1  0.85409491  0.34977687  0.10058787  1
  In  In69  1  0.83038669  0.34220670  0.63422825  1
  In  In70  1  0.85070529  0.66807601  0.12364482  1
  In  In71  1  0.84160156  0.67060898  0.62237956  1
  In  In72  1  0.67164980  0.66780303  0.25802852  1
  In  In73  1  0.00906412  0.00574102  0.75370193  1
  In  In74  1  0.49455609  0.49863869  -0.01101674  1
  In  In75  1  0.16300199  0.49613551  0.50609374  1
  In  In76  1  0.50283578  0.50020186  0.51114075  1
  In  In77  1  0.16076369  0.17082717  -0.00591191  1
  In  In78  1  0.66258724  0.66146271  0.75229327  1
  In  In79  1  0.67366597  0.32716184  0.24535305  1
  In  In80  1  0.32791353  0.66606282  0.24896686  1
  In  In81  1  0.66301124  0.00066848  0.75323219  1
  In  In82  1  0.48999027  0.84065319  0.00280688  1
  In  In83  1  0.83447399  0.16426015  0.49961835  1
  In  In84  1  0.83864432  0.83558759  0.00093394  1
  In  In85  1  0.33385971  0.00370096  0.24843198  1
  Cu  Cu86  1  0.83838723  0.49719669  0.24611362  1
  Cu  Cu87  1  0.48709708  0.49427032  0.24598191  1
  Cu  Cu88  1  -0.00001499  0.66333939  -0.00497849  1
  Cu  Cu89  1  0.33605693  0.00166424  0.50205866  1
  Cu  Cu90  1  0.48682542  0.83897619  0.74604428  1
  Cu  Cu91  1  0.83669155  0.83584738  0.25459977  1
  Cu  Cu92  1  0.67593354  0.67142960  0.49946533  1
  Cu  Cu93  1  0.16015888  0.82714291  0.24866910  1
  Cu  Cu94  1  0.83788056  0.17102865  0.25000526  1
  Cu  Cu95  1  0.66502988  0.00147280  0.50025735  1
  Cu  Cu96  1  0.16582031  0.16735922  0.75337288  1
  Cu  Cu97  1  0.32900786  -0.00302962  -0.00191640  1
  Cu  Cu98  1  0.84346196  0.82778076  0.74967042  1
  Cu  Cu99  1  0.66046507  0.65853768  -0.00254750  1
  Cu  Cu100  1  0.83273150  0.17648511  0.75343524  1
  Cu  Cu101  1  0.66694630  0.33886442  0.50403799  1
  Cu  Cu102  1  0.50030235  0.16617261  0.24888830  1
  Cu  Cu103  1  0.00139350  -0.00473888  0.49424190  1
  Cu  Cu104  1  0.33629844  0.66961228  0.50290558  1
  Cu  Cu105  1  0.16668861  0.49984783  0.75068937  1
  Cu  Cu106  1  0.67187167  0.00597368  0.00311416  1
  Cu  Cu107  1  0.00331117  0.66643164  0.50117822  1
  Cu  Cu108  1  0.50283069  0.49703023  0.75451020  1
  Cu  Cu109  1  0.50423880  0.83949503  0.25826706  1
  Cu  Cu110  1  0.33557242  0.33168169  -0.00605355  1
  Cu  Cu111  1  0.49841684  0.16853590  0.74938120  1
  Cu  Cu112  1  0.16837761  0.83496987  0.74457142  1
  Cu  Cu113  1  0.16600318  0.16904107  0.25113707  1
  Cu  Cu114  1  0.16000059  0.49591140  0.24579136  1
  Se  Se115  1  0.08605685  0.08450809  0.06638738  1
  Se  Se116  1  0.07840899  0.08069004  0.55074974  1
  Se  Se117  1  0.10246654  0.43426544  0.05729826  1
  Se  Se118  1  0.07636582  0.40968528  0.56830836  1
  Se  Se119  1  0.07586640  0.75067656  0.05207777  1
  Se  Se120  1  0.09002757  0.75091594  0.54949081  1
  Se  Se121  1  0.41701791  0.07748155  0.04876997  1
  Se  Se122  1  0.41488227  0.08761960  0.55685913  1
  Se  Se123  1  0.41182836  0.41190151  0.05951399  1
  Se  Se124  1  0.40335509  0.40920216  0.55733897  1
  Se  Se125  1  0.40020899  0.74055664  0.05218159  1
  Se  Se126  1  0.42041781  0.75377806  0.55434570  1
  Se  Se127  1  0.75729118  0.08265438  0.05853812  1
  Se  Se128  1  0.74414100  0.07731509  0.56501979  1
  Se  Se129  1  0.74391283  0.40463538  0.04001016  1
  Se  Se130  1  0.75403807  0.41773004  0.55532164  1
  Se  Se131  1  0.74347260  0.73920329  0.05671387  1
  Se  Se132  1  0.75951886  0.75457204  0.55309053  1
  Se  Se133  1  0.25536275  0.25418119  0.05820652  1
  Se  Se134  1  0.23433201  0.23599200  0.55691278  1
  Se  Se135  1  0.25997435  0.59307390  0.04361636  1
  Se  Se136  1  0.25929507  0.58649439  0.56258315  1
  Se  Se137  1  0.24459345  0.91215289  0.04676526  1
  Se  Se138  1  0.24890907  0.91750729  0.55174803  1
  Se  Se139  1  0.58859271  0.24904434  0.05127482  1
  Se  Se140  1  0.58068235  0.25390731  0.55118049  1
  Se  Se141  1  0.58365721  0.58253849  0.06175080  1
  Se  Se142  1  0.59690322  0.59377711  0.56502997  1
  Se  Se143  1  0.59463131  0.91898603  0.06105444  1
  Se  Se144  1  0.58406299  0.91545271  0.55369636  1
  Se  Se145  1  0.92184463  0.24036386  0.04924017  1
  Se  Se146  1  0.91615329  0.25354799  0.56384616  1
  Se  Se147  1  0.91814662  0.58095394  0.05174204  1
  Se  Se148  1  0.92385715  0.58254744  0.55728024  1
  Se  Se149  1  0.91634983  0.91452682  0.07402079  1
  Se  Se150  1  0.91512641  0.91293213  0.54518757  1
  Se  Se151  1  0.07250349  0.25460798  0.44810622  1
  Se  Se152  1  0.07002655  0.27153367  0.94727706  1
  Se  Se153  1  0.07993760  0.58422596  0.43912510  1
  Se  Se154  1  0.08033782  0.58122565  0.93786700  1
  Se  Se155  1  0.08801955  0.91311305  0.44205937  1
  Se  Se156  1  0.06353321  0.93272044  0.95334136  1
  Se  Se157  1  0.42461891  0.24639978  0.45336166  1
  Se  Se158  1  0.41858947  0.24396638  0.94632997  1
  Se  Se159  1  0.41029051  0.58484441  0.44184759  1
  Se  Se160  1  0.40551121  0.59605848  0.93737923  1
  Se  Se161  1  0.42268586  0.91781186  0.45066903  1
  Se  Se162  1  0.40662169  0.91975733  0.93168859  1
  Se  Se163  1  0.74501039  0.25941076  0.43938542  1
  Se  Se164  1  0.78489534  0.22944817  0.93412164  1
  Se  Se165  1  0.75486503  0.58064794  0.45057796  1
  Se  Se166  1  0.75237383  0.58085307  0.94906166  1
  Se  Se167  1  0.75275858  0.92315955  0.44658416  1
  Se  Se168  1  0.74618023  0.92664500  0.93908733  1
  Se  Se169  1  0.24941795  0.08003436  0.44649405  1
  Se  Se170  1  0.25339154  0.07919475  0.93563410  1
  Se  Se171  1  0.25233253  0.40541397  0.44595757  1
  Se  Se172  1  0.25125732  0.41645897  0.94488654  1
  Se  Se173  1  0.25051254  0.75096373  0.45030473  1
  Se  Se174  1  0.22737084  0.76828709  0.93701206  1
  Se  Se175  1  0.58265384  0.08904345  0.45112336  1
  Se  Se176  1  0.58371946  0.08585195  0.95151946  1
  Se  Se177  1  0.58814797  0.41702256  0.43975808  1
  Se  Se178  1  0.58667227  0.40230113  0.94014195  1
  Se  Se179  1  0.58513162  0.75251436  0.45164617  1
  Se  Se180  1  0.58450291  0.74648195  0.94320520  1
  Se  Se181  1  0.92331983  0.08041674  0.43477778  1
  Se  Se182  1  0.94262402  0.05868548  0.95379151  1
  Se  Se183  1  0.91812136  0.42878978  0.45349247  1
  Se  Se184  1  0.90210586  0.43118803  0.93409750  1
  Se  Se185  1  0.91965137  0.74952967  0.44613721  1
  Se  Se186  1  0.92022016  0.74526753  0.93424983  1
  Se  Se187  1  0.24985880  0.24807841  0.30746498  1
  Se  Se188  1  0.25076930  0.25450559  0.80317371  1
  Se  Se189  1  0.23894157  0.57401348  0.31048603  1
  Se  Se190  1  0.25006620  0.58691043  0.80123036  1
  Se  Se191  1  0.24783572  0.90556336  0.30536625  1
  Se  Se192  1  0.24279503  0.92613678  0.79845353  1
  Se  Se193  1  0.57916917  0.24739692  0.31066863  1
  Se  Se194  1  0.58451520  0.24586849  0.80578755  1
  Se  Se195  1  0.56886596  0.57306808  0.30577874  1
  Se  Se196  1  0.58370086  0.56946788  0.81917231  1
  Se  Se197  1  0.58526289  0.92530344  0.30828046  1
  Se  Se198  1  0.57025384  0.90813744  0.81146572  1
  Se  Se199  1  0.91902004  0.25549553  0.30395501  1
  Se  Se200  1  0.92826634  0.24967170  0.80271278  1
  Se  Se201  1  0.91850854  0.58205635  0.30079514  1
  Se  Se202  1  0.92644553  0.58840940  0.78982658  1
  Se  Se203  1  0.92170914  0.91955345  0.30542646  1
  Se  Se204  1  0.91500636  0.91294300  0.81187910  1
  Se  Se205  1  0.08534744  0.07948102  0.30057047  1
  Se  Se206  1  0.08306908  0.09956833  0.82063093  1
  Se  Se207  1  0.08252345  0.41085059  0.30295443  1
  Se  Se208  1  0.08421916  0.41483744  0.80275136  1
  Se  Se209  1  0.07928070  0.74379821  0.30357565  1
  Se  Se210  1  0.08359080  0.75254243  0.79778656  1
  Se  Se211  1  0.41777907  0.09203998  0.31254348  1
  Se  Se212  1  0.41530570  0.08260619  0.80017079  1
  Se  Se213  1  0.40965892  0.40903182  0.30064641  1
  Se  Se214  1  0.41329657  0.41545650  0.80399930  1
  Se  Se215  1  0.42064598  0.75574138  0.31149098  1
  Se  Se216  1  0.40924852  0.74720828  0.79544407  1
  Se  Se217  1  0.74991136  0.08844272  0.29998131  1
  Se  Se218  1  0.75139927  0.09358480  0.81070767  1
  Se  Se219  1  0.75735943  0.42057418  0.30889267  1
  Se  Se220  1  0.74797954  0.41486603  0.79423486  1
  Se  Se221  1  0.75790959  0.75668986  0.31910224  1
  Se  Se222  1  0.76263041  0.74836470  0.81024521  1
  Se  Se223  1  0.24410592  0.09163720  0.18655734  1
  Se  Se224  1  0.24759432  0.08355672  0.69917742  1
  Se  Se225  1  0.24833887  0.41126197  0.19882744  1
  Se  Se226  1  0.25085138  0.41391790  0.69979403  1
  Se  Se227  1  0.23810850  0.74922760  0.18552751  1
  Se  Se228  1  0.25055351  0.74961066  0.69140160  1
  Se  Se229  1  0.58779080  0.08657418  0.19688165  1
  Se  Se230  1  0.57794087  0.08804957  0.68796793  1
  Se  Se231  1  0.57901785  0.42183388  0.18974607  1
  Se  Se232  1  0.57796692  0.41321230  0.69531423  1
  Se  Se233  1  0.57728842  0.75528915  0.19512907  1
  Se  Se234  1  0.57968926  0.76200196  0.69263918  1
  Se  Se235  1  0.92103070  0.08108009  0.20281818  1
  Se  Se236  1  0.91009831  0.09171219  0.69359635  1
  Se  Se237  1  0.91579002  0.41327121  0.18911827  1
  Se  Se238  1  0.91610035  0.41322141  0.70589141  1
  Se  Se239  1  0.91464720  0.74492528  0.20384744  1
  Se  Se240  1  0.92580952  0.75102520  0.69234603  1
  Se  Se241  1  0.07962835  0.25115998  0.19867438  1
  Se  Se242  1  0.08114811  0.25004409  0.70098470  1
  Se  Se243  1  0.08245493  0.58596261  0.19371590  1
  Se  Se244  1  0.08373305  0.58346077  0.69745786  1
  Se  Se245  1  0.08106304  0.91755302  0.19926004  1
  Se  Se246  1  0.08744667  0.91712014  0.68407903  1
  Se  Se247  1  0.41638043  0.24952220  0.19667555  1
  Se  Se248  1  0.41262220  0.25011454  0.69619009  1
  Se  Se249  1  0.40994395  0.57295834  0.18447814  1
  Se  Se250  1  0.42170524  0.58343216  0.70141401  1
  Se  Se251  1  0.42513685  0.90945282  0.18950050  1
  Se  Se252  1  0.40632748  0.92376684  0.69403466  1
  Se  Se253  1  0.76794527  0.25051946  0.18215255  1
  Se  Se254  1  0.74545844  0.25513111  0.70013789  1
  Se  Se255  1  0.75335757  0.57798728  0.18967108  1
  Se  Se256  1  0.75688009  0.58057871  0.69173902  1
  Se  Se257  1  0.74662444  0.91740327  0.20698970  1
  Se  Se258  1  0.76102514  0.91187592  0.69525969  1
