# generated using pymatgen
data_In86Cu29Se144
_symmetry_space_group_name_H-M   'P 1'
_cell_length_a   17.61946619
_cell_length_b   17.62477210
_cell_length_c   23.47677759
_cell_angle_alpha   89.98743732
_cell_angle_beta   90.00560657
_cell_angle_gamma   89.98332830
_symmetry_Int_Tables_number   1
_chemical_formula_structural   In86Cu29Se144
_chemical_formula_sum   'In86 Cu29 Se144'
_cell_volume   7290.45630517
_cell_formula_units_Z   1
loop_
 _symmetry_equiv_pos_site_id
 _symmetry_equiv_pos_as_xyz
  1  'x, y, z'
loop_
 _atom_site_type_symbol
 _atom_site_label
 _atom_site_symmetry_multiplicity
 _atom_site_fract_x
 _atom_site_fract_y
 _atom_site_fract_z
 _atom_site_occupancy
  In  In0  1  -0.00626322  0.16632535  0.12480131  1
  In  In1  1  -0.00732369  0.15987236  0.62635641  1
  In  In2  1  0.01435691  0.51048997  0.12191845  1
  In  In3  1  0.00759330  0.51109930  0.61799718  1
  In  In4  1  -0.00250646  0.81702590  0.12371573  1
  In  In5  1  -0.01146525  0.84031621  0.63112547  1
  In  In6  1  0.34148550  0.15931267  0.12178664  1
  In  In7  1  0.36267243  0.15056886  0.64658416  1
  In  In8  1  0.33996785  0.51045572  0.11796287  1
  In  In9  1  0.33597119  0.49864300  0.62766784  1
  In  In10  1  0.32667845  0.82848589  0.11037425  1
  In  In11  1  0.35942532  0.81521912  0.65237404  1
  In  In12  1  0.65729933  0.16036671  0.11741384  1
  In  In13  1  0.63022013  0.19045094  0.66392615  1
  In  In14  1  0.66788356  0.51052374  0.12537583  1
  In  In15  1  0.66618237  0.50458211  0.62105680  1
  In  In16  1  0.65109899  0.81838743  0.11376172  1
  In  In17  1  0.65968818  0.82780340  0.63709935  1
  In  In18  1  0.17197842  0.00322522  0.37463572  1
  In  In19  1  0.16825765  -0.00700038  0.87091665  1
  In  In20  1  0.17948322  0.34838991  0.37599523  1
  In  In21  1  0.18891511  0.33469351  0.87530246  1
  In  In22  1  0.16289102  0.65735439  0.36343292  1
  In  In23  1  0.16862058  0.66706490  0.87484936  1
  In  In24  1  0.50397977  -0.00269873  0.38619193  1
  In  In25  1  0.49345196  -0.00808094  0.86579516  1
  In  In26  1  0.50143322  0.33006204  0.38827996  1
  In  In27  1  0.50525081  0.33491132  0.86851961  1
  In  In28  1  0.49984110  0.66876891  0.37531768  1
  In  In29  1  0.50271310  0.67133047  0.87091473  1
  In  In30  1  0.81122629  0.00497226  0.38480446  1
  In  In31  1  0.82396420  -0.01209015  0.86513664  1
  In  In32  1  0.83934824  0.34273769  0.38303273  1
  In  In33  1  0.81843320  0.33384879  0.87009655  1
  In  In34  1  0.83044976  0.66921079  0.38001077  1
  In  In35  1  0.82745655  0.65716201  0.86481866  1
  In  In36  1  -0.00811042  0.17397744  0.37793349  1
  In  In37  1  0.00871160  0.15703038  0.87557326  1
  In  In38  1  -0.00216114  0.51199192  0.38336443  1
  In  In39  1  0.00166095  0.51500438  0.87177315  1
  In  In40  1  0.00458607  0.81779524  0.37800602  1
  In  In41  1  0.00938812  0.83785615  0.86954021  1
  In  In42  1  0.33436509  0.16967882  0.37868892  1
  In  In43  1  0.36448738  0.18070719  0.84593141  1
  In  In44  1  0.33134530  0.50804836  0.39010492  1
  In  In45  1  0.33617278  0.50546369  0.87472828  1
  In  In46  1  0.35091855  0.82598907  0.37996910  1
  In  In47  1  0.33969419  0.82436410  0.86680565  1
  In  In48  1  0.66199583  0.16342558  0.37875867  1
  In  In49  1  0.61825300  0.13570014  0.83135496  1
  In  In50  1  0.64400704  0.51489473  0.39672877  1
  In  In51  1  0.66118491  0.49334112  0.86786750  1
  In  In52  1  0.67406983  0.83224873  0.38764849  1
  In  In53  1  0.65280948  0.82789804  0.85925787  1
  In  In54  1  0.18644120  0.00136753  0.11380378  1
  In  In55  1  0.16902354  -0.00924830  0.63186491  1
  In  In56  1  0.17031551  0.34826477  0.11995408  1
  In  In57  1  0.17483564  0.34835192  0.62217774  1
  In  In58  1  0.16836318  0.66647393  0.12030589  1
  In  In59  1  0.17698047  0.65558394  0.63161932  1
  In  In60  1  0.49713485  -0.00613874  0.10921618  1
  In  In61  1  0.50443459  -0.00442553  0.63681258  1
  In  In62  1  0.49848310  0.33237725  0.11831492  1
  In  In63  1  0.49996894  0.33489762  0.63005900  1
  In  In64  1  0.49992023  0.66208922  0.12453079  1
  In  In65  1  0.49971264  0.66523559  0.62889104  1
  In  In66  1  0.82789663  0.00604263  0.11910249  1
  In  In67  1  0.82988552  -0.00481026  0.62986943  1
  In  In68  1  0.82890893  0.33154267  0.12732687  1
  In  In69  1  0.80472196  0.33900319  0.61687115  1
  In  In70  1  0.83872218  0.66858298  0.13595770  1
  In  In71  1  0.83245411  0.66744854  0.62392770  1
  In  In72  1  0.33523183  -0.00657371  0.25187189  1
  In  In73  1  0.66170166  0.34064696  0.26837731  1
  In  In74  1  0.81986140  0.16697084  -0.00268327  1
  In  In75  1  0.82746143  0.49750478  -0.00742038  1
  In  In76  1  -0.00110662  0.33818473  0.74213759  1
  In  In77  1  0.00349321  -0.02294358  0.25569289  1
  In  In78  1  0.17870862  0.15931295  -0.00720856  1
  In  In79  1  0.82290498  0.16266051  0.51190135  1
  In  In80  1  0.65590598  -0.01700472  0.23266914  1
  In  In81  1  0.17768570  0.17265476  0.49933948  1
  In  In82  1  0.82346086  0.83019447  -0.01007500  1
  In  In83  1  0.33822635  0.34533737  0.24101419  1
  In  In84  1  0.17441616  0.82947671  0.50669614  1
  In  In85  1  -0.00330201  0.34602695  0.26112835  1
  Cu  Cu86  1  -0.00033700  0.67216718  0.50127082  1
  Cu  Cu87  1  0.66092106  0.67661596  0.50609694  1
  Cu  Cu88  1  -0.00130696  -0.00530157  0.50600177  1
  Cu  Cu89  1  0.15750536  0.82499400  0.74996667  1
  Cu  Cu90  1  0.83878357  0.50778442  0.25604368  1
  Cu  Cu91  1  0.66133503  0.00034473  0.51392012  1
  Cu  Cu92  1  0.33914303  0.66898329  -0.00471667  1
  Cu  Cu93  1  0.83216746  0.50384170  0.74313756  1
  Cu  Cu94  1  0.33911828  0.00020289  -0.01494858  1
  Cu  Cu95  1  0.82780671  0.82923538  0.25662788  1
  Cu  Cu96  1  0.49979485  0.82340905  0.24777715  1
  Cu  Cu97  1  0.34896229  -0.00499701  0.51635905  1
  Cu  Cu98  1  0.00496191  0.66906229  -0.00280500  1
  Cu  Cu99  1  0.82078579  0.16058812  0.24470196  1
  Cu  Cu100  1  0.50064763  0.50284389  0.25418144  1
  Cu  Cu101  1  0.65352811  0.32807706  -0.00595381  1
  Cu  Cu102  1  0.34413127  0.32711605  0.50708045  1
  Cu  Cu103  1  0.16236934  0.16519348  0.75467137  1
  Cu  Cu104  1  0.16963877  0.82666336  0.24178945  1
  Cu  Cu105  1  -0.00061344  -0.00652697  -0.00547283  1
  Cu  Cu106  1  0.49816764  0.50266440  0.74986864  1
  Cu  Cu107  1  0.83858959  0.82562069  0.74981182  1
  Cu  Cu108  1  0.00114998  0.34270774  0.50304046  1
  Cu  Cu109  1  0.33969466  0.66684683  0.50903590  1
  Cu  Cu110  1  0.15743036  0.17633740  0.24886944  1
  Cu  Cu111  1  0.34162529  0.33637273  -0.00922625  1
  Cu  Cu112  1  0.17065176  0.50094546  0.75092113  1
  Cu  Cu113  1  0.00531533  0.34096347  -0.00069172  1
  Cu  Cu114  1  0.84347468  0.16467066  0.74474153  1
  Se  Se115  1  0.07631797  0.07883347  0.05543935  1
  Se  Se116  1  0.08411269  0.07912560  0.55611399  1
  Se  Se117  1  0.08703535  0.42494618  0.04962460  1
  Se  Se118  1  0.08995095  0.42293228  0.55225942  1
  Se  Se119  1  0.08571707  0.75360502  0.05097997  1
  Se  Se120  1  0.07975387  0.74607955  0.56637227  1
  Se  Se121  1  0.41448457  0.08413381  0.04572560  1
  Se  Se122  1  0.43067876  0.08414767  0.56271909  1
  Se  Se123  1  0.41683709  0.41730249  0.05301263  1
  Se  Se124  1  0.42094088  0.41856220  0.55825913  1
  Se  Se125  1  0.42294065  0.74846350  0.05262613  1
  Se  Se126  1  0.41683047  0.75493255  0.56204700  1
  Se  Se127  1  0.73037200  0.06608510  0.04734158  1
  Se  Se128  1  0.73163926  0.08524422  0.57597747  1
  Se  Se129  1  0.74046392  0.40260443  0.05462741  1
  Se  Se130  1  0.74843867  0.43146767  0.54522561  1
  Se  Se131  1  0.75141246  0.73328772  0.05637751  1
  Se  Se132  1  0.74517385  0.75611579  0.56240100  1
  Se  Se133  1  0.26002350  0.25742607  0.05599747  1
  Se  Se134  1  0.26481401  0.24811453  0.56859977  1
  Se  Se135  1  0.25240007  0.58761986  0.04948665  1
  Se  Se136  1  0.25307408  0.58072386  0.55577824  1
  Se  Se137  1  0.25342039  0.91881444  0.03971353  1
  Se  Se138  1  0.26600733  0.91160163  0.56963354  1
  Se  Se139  1  0.57607745  0.24385666  0.05065367  1
  Se  Se140  1  0.58739360  0.24615099  0.56895240  1
  Se  Se141  1  0.57843146  0.57488975  0.05624396  1
  Se  Se142  1  0.57811670  0.58745138  0.55463174  1
  Se  Se143  1  0.58762669  0.91445855  0.04818591  1
  Se  Se144  1  0.58027050  0.91246204  0.56468688  1
  Se  Se145  1  0.92193781  0.25876335  0.05307877  1
  Se  Se146  1  0.92173567  0.25983054  0.56049939  1
  Se  Se147  1  0.91794211  0.58913390  0.05416711  1
  Se  Se148  1  0.91585650  0.58663999  0.55231342  1
  Se  Se149  1  0.91808135  0.91781228  0.05655638  1
  Se  Se150  1  0.91082785  0.91619346  0.55568672  1
  Se  Se151  1  0.07909703  0.26243808  0.44115171  1
  Se  Se152  1  0.08350513  0.25673859  0.94134916  1
  Se  Se153  1  0.08819438  0.59376492  0.44709473  1
  Se  Se154  1  0.08655075  0.58194036  0.94583417  1
  Se  Se155  1  0.08227948  0.92215482  0.44312085  1
  Se  Se156  1  0.08737959  0.91453852  0.94458469  1
  Se  Se157  1  0.41824602  0.23959652  0.45128774  1
  Se  Se158  1  0.41776672  0.25033040  0.93507757  1
  Se  Se159  1  0.42435349  0.58742989  0.45149304  1
  Se  Se160  1  0.42280753  0.58623989  0.94147118  1
  Se  Se161  1  0.42052473  0.91285786  0.45207411  1
  Se  Se162  1  0.41952936  0.90829134  0.93873312  1
  Se  Se163  1  0.74668066  0.25411287  0.44332812  1
  Se  Se164  1  0.73192234  0.24888003  0.93370864  1
  Se  Se165  1  0.74527622  0.59307201  0.45181242  1
  Se  Se166  1  0.73688808  0.59043053  0.93967502  1
  Se  Se167  1  0.74774014  0.91993013  0.45941907  1
  Se  Se168  1  0.73253166  0.92240024  0.93738821  1
  Se  Se169  1  0.26594305  0.06619862  0.44985182  1
  Se  Se170  1  0.26824166  0.08581204  0.92400058  1
  Se  Se171  1  0.25796066  0.41105103  0.45508306  1
  Se  Se172  1  0.25391096  0.42328202  0.94757781  1
  Se  Se173  1  0.25798786  0.74063164  0.44301889  1
  Se  Se174  1  0.25409472  0.75063418  0.94064799  1
  Se  Se175  1  0.58700940  0.08268922  0.45165606  1
  Se  Se176  1  0.56730492  0.09116618  0.92754168  1
  Se  Se177  1  0.59182341  0.40318554  0.45396373  1
  Se  Se178  1  0.57899829  0.42021119  0.94263802  1
  Se  Se179  1  0.57739570  0.75477720  0.44724421  1
  Se  Se180  1  0.58172382  0.75860197  0.93959201  1
  Se  Se181  1  0.92081764  0.07863256  0.44626222  1
  Se  Se182  1  0.91602487  0.07543258  0.94116846  1
  Se  Se183  1  0.91759959  0.42607645  0.45121466  1
  Se  Se184  1  0.92300929  0.40869334  0.93359083  1
  Se  Se185  1  0.91422152  0.75441560  0.44940536  1
  Se  Se186  1  0.92018442  0.74024208  0.93483445  1
  Se  Se187  1  0.24598791  0.24933071  0.30560340  1
  Se  Se188  1  0.25044018  0.25148382  0.79852004  1
  Se  Se189  1  0.26664882  0.58428309  0.31012413  1
  Se  Se190  1  0.25224442  0.58629183  0.80471790  1
  Se  Se191  1  0.24295666  0.90215728  0.31063264  1
  Se  Se192  1  0.24456608  0.90504945  0.80369994  1
  Se  Se193  1  0.56920904  0.23831780  0.31007458  1
  Se  Se194  1  0.59193454  0.26894491  0.79131523  1
  Se  Se195  1  0.58601659  0.58246652  0.30919958  1
  Se  Se196  1  0.58436280  0.58448677  0.80226288  1
  Se  Se197  1  0.57640534  0.90715254  0.30906618  1
  Se  Se198  1  0.59922261  0.93736384  0.79662726  1
  Se  Se199  1  0.89816564  0.24307808  0.30493121  1
  Se  Se200  1  0.91874231  0.24623446  0.80987647  1
  Se  Se201  1  0.91950026  0.59139233  0.31054913  1
  Se  Se202  1  0.91837786  0.58247635  0.79684269  1
  Se  Se203  1  0.90074863  0.91243518  0.32004207  1
  Se  Se204  1  0.91934970  0.91432068  0.80210071  1
  Se  Se205  1  0.08246083  0.09209485  0.30778457  1
  Se  Se206  1  0.08212101  0.07650966  0.80283847  1
  Se  Se207  1  0.09475530  0.43481341  0.31011859  1
  Se  Se208  1  0.08961755  0.41761745  0.80983697  1
  Se  Se209  1  0.08417339  0.75170664  0.30001281  1
  Se  Se210  1  0.07705671  0.74001740  0.80442745  1
  Se  Se211  1  0.42242694  0.08431374  0.31188659  1
  Se  Se212  1  0.39861477  0.05682446  0.79233763  1
  Se  Se213  1  0.42449681  0.41906044  0.31433404  1
  Se  Se214  1  0.41530035  0.41981926  0.80507350  1
  Se  Se215  1  0.41405021  0.74441623  0.30184262  1
  Se  Se216  1  0.43956738  0.76454409  0.79588019  1
  Se  Se217  1  0.74075715  0.07843576  0.30113728  1
  Se  Se218  1  0.76071652  0.09864554  0.81069921  1
  Se  Se219  1  0.75764912  0.43278790  0.31781206  1
  Se  Se220  1  0.75113491  0.41945470  0.79710523  1
  Se  Se221  1  0.74323603  0.75042074  0.31117055  1
  Se  Se222  1  0.74851483  0.74632945  0.79970218  1
  Se  Se223  1  0.24154605  0.09293734  0.19458346  1
  Se  Se224  1  0.24184393  0.09002217  0.69206604  1
  Se  Se225  1  0.24064976  0.43588350  0.19247164  1
  Se  Se226  1  0.25361070  0.41587091  0.69964052  1
  Se  Se227  1  0.25632927  0.74990497  0.18756725  1
  Se  Se228  1  0.24883704  0.74404144  0.70216003  1
  Se  Se229  1  0.56631087  0.08535159  0.18780302  1
  Se  Se230  1  0.59391439  0.06325333  0.71267061  1
  Se  Se231  1  0.57904952  0.41884463  0.19461740  1
  Se  Se232  1  0.58388891  0.42575680  0.69339397  1
  Se  Se233  1  0.58649825  0.74362163  0.19487461  1
  Se  Se234  1  0.55530501  0.76479425  0.70218670  1
  Se  Se235  1  0.91327214  0.08054771  0.19713576  1
  Se  Se236  1  0.92162336  0.07435357  0.69724711  1
  Se  Se237  1  0.90971364  0.42589334  0.19035391  1
  Se  Se238  1  0.90804131  0.42262684  0.68008711  1
  Se  Se239  1  0.91989938  0.75337234  0.20401892  1
  Se  Se240  1  0.92071920  0.74225194  0.69580350  1
  Se  Se241  1  0.08001092  0.25632798  0.18969921  1
  Se  Se242  1  0.09094770  0.24534076  0.68625712  1
  Se  Se243  1  0.07981024  0.59667578  0.19301265  1
  Se  Se244  1  0.08333231  0.58048782  0.69791357  1
  Se  Se245  1  0.09772992  0.91492732  0.18249586  1
  Se  Se246  1  0.07976066  0.91508380  0.69846821  1
  Se  Se247  1  0.42432394  0.24148740  0.19328727  1
  Se  Se248  1  0.42423582  0.25490648  0.70653714  1
  Se  Se249  1  0.41756871  0.58068238  0.19619981  1
  Se  Se250  1  0.41270746  0.58531158  0.69739276  1
  Se  Se251  1  0.42233230  0.90769294  0.18727763  1
  Se  Se252  1  0.39471974  0.94238862  0.70141077  1
  Se  Se253  1  0.74078394  0.24647401  0.19179416  1
  Se  Se254  1  0.75867281  0.25007660  0.69702129  1
  Se  Se255  1  0.75254450  0.58148613  0.19791251  1
  Se  Se256  1  0.74597842  0.58807492  0.69281372  1
  Se  Se257  1  0.76069393  0.89955573  0.18220179  1
  Se  Se258  1  0.75293605  0.91020074  0.70001483  1
