# generated using pymatgen
data_In86Cu29Se144
_symmetry_space_group_name_H-M   'P 1'
_cell_length_a   17.58809602
_cell_length_b   17.58944977
_cell_length_c   23.44844729
_cell_angle_alpha   89.97997236
_cell_angle_beta   89.98201900
_cell_angle_gamma   90.01932020
_symmetry_Int_Tables_number   1
_chemical_formula_structural   In86Cu29Se144
_chemical_formula_sum   'In86 Cu29 Se144'
_cell_volume   7254.12607632
_cell_formula_units_Z   1
loop_
 _symmetry_equiv_pos_site_id
 _symmetry_equiv_pos_as_xyz
  1  'x, y, z'
loop_
 _atom_site_type_symbol
 _atom_site_label
 _atom_site_symmetry_multiplicity
 _atom_site_fract_x
 _atom_site_fract_y
 _atom_site_fract_z
 _atom_site_occupancy
  In  In0  1  0.00618822  0.16521640  0.11859704  1
  In  In1  1  0.02198221  0.15849087  0.64715269  1
  In  In2  1  -0.00547775  0.50726173  0.12170999  1
  In  In3  1  -0.00082025  0.50130310  0.62669369  1
  In  In4  1  -0.00703334  0.84219335  0.12479383  1
  In  In5  1  -0.00107810  0.83231191  0.62322324  1
  In  In6  1  0.33732226  0.16647327  0.12379969  1
  In  In7  1  0.31757601  0.17983353  0.62397279  1
  In  In8  1  0.33163053  0.48193883  0.13003457  1
  In  In9  1  0.34835758  0.50177143  0.61232534  1
  In  In10  1  0.35061171  0.83633659  0.13164616  1
  In  In11  1  0.32791925  0.83154007  0.61880848  1
  In  In12  1  0.64836747  0.18489305  0.13612276  1
  In  In13  1  0.67786506  0.16845437  0.63171517  1
  In  In14  1  0.66394375  0.49954180  0.12168807  1
  In  In15  1  0.65839432  0.49202797  0.61833484  1
  In  In16  1  0.67015537  0.82313942  0.13285585  1
  In  In17  1  0.66538448  0.82622998  0.61503476  1
  In  In18  1  0.17220116  -0.00380525  0.38318191  1
  In  In19  1  0.16444277  0.01511534  0.87104650  1
  In  In20  1  0.18934579  0.31704220  0.39969446  1
  In  In21  1  0.15941091  0.32806190  0.87015881  1
  In  In22  1  0.16431195  0.66620166  0.38743924  1
  In  In23  1  0.16695853  0.66556657  0.85714791  1
  In  In24  1  0.49464808  -0.00112715  0.37258599  1
  In  In25  1  0.50675703  0.00390465  0.87717022  1
  In  In26  1  0.50682355  0.33903711  0.36729022  1
  In  In27  1  0.51436672  0.32035833  0.88668504  1
  In  In28  1  0.51215277  0.65532301  0.38043462  1
  In  In29  1  0.48624088  0.65793912  0.86949527  1
  In  In30  1  0.82358256  -0.00021848  0.37427939  1
  In  In31  1  0.83270373  -0.01019542  0.87636616  1
  In  In32  1  0.82901625  0.34314341  0.37401822  1
  In  In33  1  0.83677285  0.33990579  0.87318938  1
  In  In34  1  0.82751711  0.67099350  0.37920744  1
  In  In35  1  0.83565062  0.66182789  0.87302459  1
  In  In36  1  0.01050461  0.16449898  0.38185127  1
  In  In37  1  0.01227476  0.17588743  0.86289715  1
  In  In38  1  -0.00624500  0.49936646  0.38890261  1
  In  In39  1  -0.00740828  0.49474299  0.86409587  1
  In  In40  1  0.00317284  0.83696109  0.39139156  1
  In  In41  1  -0.00795607  0.82645034  0.86132401  1
  In  In42  1  0.32519172  0.16487906  0.36615821  1
  In  In43  1  0.33166865  0.16824258  0.88094318  1
  In  In44  1  0.34928051  0.48383303  0.39215332  1
  In  In45  1  0.33436280  0.50606375  0.87016607  1
  In  In46  1  0.32749773  0.84273124  0.38611451  1
  In  In47  1  0.34191037  0.82061395  0.86669826  1
  In  In48  1  0.66182567  0.16299507  0.36108457  1
  In  In49  1  0.65173138  0.17778224  0.88079574  1
  In  In50  1  0.66536798  0.49884802  0.37148047  1
  In  In51  1  0.67399983  0.48870689  0.88569188  1
  In  In52  1  0.66781870  0.82917949  0.37623563  1
  In  In53  1  0.67072399  0.84653995  0.87712895  1
  In  In54  1  0.17008957  0.01872265  0.12843846  1
  In  In55  1  0.15599143  -0.00227886  0.61306366  1
  In  In56  1  0.18114599  0.32612605  0.13130936  1
  In  In57  1  0.15881763  0.32192732  0.61433443  1
  In  In58  1  0.16240787  0.66421854  0.12923583  1
  In  In59  1  0.16998057  0.66712092  0.62541497  1
  In  In60  1  0.48903474  0.01106562  0.13407910  1
  In  In61  1  0.51185548  -0.00379526  0.62331665  1
  In  In62  1  0.50356347  0.33272814  0.11960515  1
  In  In63  1  0.49123814  0.34367557  0.62479630  1
  In  In64  1  0.51266272  0.67216897  0.12499920  1
  In  In65  1  0.49494530  0.66422694  0.62120245  1
  In  In66  1  0.83310634  -0.01479196  0.12294436  1
  In  In67  1  0.85545205  -0.00037024  0.62335287  1
  In  In68  1  0.80769623  0.33500596  0.11880139  1
  In  In69  1  0.82907564  0.34203480  0.63048385  1
  In  In70  1  0.82087757  0.65150751  0.11197215  1
  In  In71  1  0.84370893  0.67681254  0.61923545  1
  In  In72  1  -0.00434955  0.66893700  0.25890920  1
  In  In73  1  0.82898096  0.16367971  -0.00125194  1
  In  In74  1  0.50496451  0.83432289  -0.00162087  1
  In  In75  1  0.33144143  0.00006932  0.74718400  1
  In  In76  1  -0.00024011  0.33268585  0.25286221  1
  In  In77  1  0.16391441  0.83462955  0.00133355  1
  In  In78  1  0.49572841  0.16633781  0.49996504  1
  In  In79  1  0.66780697  0.00484993  0.75625365  1
  In  In80  1  0.16228621  0.49216244  -0.00770031  1
  In  In81  1  0.32998048  0.33460878  0.74636286  1
  In  In82  1  0.33914562  0.66737868  0.26112690  1
  In  In83  1  0.00144207  -0.00167943  0.25971961  1
  In  In84  1  0.66583818  0.66320505  0.74097953  1
  In  In85  1  0.84082925  0.16700258  0.50093410  1
  Cu  Cu86  1  0.67125831  -0.01020147  0.49742280  1
  Cu  Cu87  1  0.83280257  0.83694795  0.74397491  1
  Cu  Cu88  1  0.83359472  0.16259530  0.24811828  1
  Cu  Cu89  1  -0.00049921  0.66457625  0.50825295  1
  Cu  Cu90  1  0.33129558  0.00509359  0.00249146  1
  Cu  Cu91  1  0.32884236  0.65674417  -0.00426366  1
  Cu  Cu92  1  0.17061938  0.50202026  0.74162551  1
  Cu  Cu93  1  0.33404100  0.00194903  0.49733730  1
  Cu  Cu94  1  -0.00983507  0.66945690  -0.01061005  1
  Cu  Cu95  1  0.50213441  0.49671151  0.74493486  1
  Cu  Cu96  1  0.66450013  0.00366581  0.00451626  1
  Cu  Cu97  1  -0.00667364  0.33419275  0.50623483  1
  Cu  Cu98  1  0.66361599  0.33382334  0.49698811  1
  Cu  Cu99  1  0.82059685  0.49762988  0.24535997  1
  Cu  Cu100  1  0.00030344  -0.00096835  -0.00043125  1
  Cu  Cu101  1  0.66843651  0.66716220  0.00109161  1
  Cu  Cu102  1  0.33420393  0.67190076  0.50097687  1
  Cu  Cu103  1  0.17705376  0.84173726  0.25790617  1
  Cu  Cu104  1  0.00057063  0.33351289  -0.00791578  1
  Cu  Cu105  1  0.83703841  0.50173171  0.75058862  1
  Cu  Cu106  1  0.16781624  0.49201436  0.26222202  1
  Cu  Cu107  1  0.66911524  0.65993744  0.49827692  1
  Cu  Cu108  1  0.16535141  0.83722145  0.73905633  1
  Cu  Cu109  1  0.33834366  0.32752468  0.00577204  1
  Cu  Cu110  1  0.82567437  0.82308862  0.24940950  1
  Cu  Cu111  1  0.83471963  0.17750192  0.75261568  1
  Cu  Cu112  1  0.49987182  0.49812079  0.24951310  1
  Cu  Cu113  1  0.50643769  0.84033322  0.25624606  1
  Cu  Cu114  1  0.49745619  0.17397181  0.24733922  1
  Se  Se115  1  0.08614394  0.08133408  0.05003496  1
  Se  Se116  1  0.07647796  0.09692370  0.55693994  1
  Se  Se117  1  0.07883079  0.40646442  0.06209217  1
  Se  Se118  1  0.07979685  0.41916842  0.55509557  1
  Se  Se119  1  0.07011482  0.73879618  0.05772404  1
  Se  Se120  1  0.08584025  0.74970156  0.55667281  1
  Se  Se121  1  0.42099290  0.08407732  0.05305504  1
  Se  Se122  1  0.40827878  0.07843332  0.56441371  1
  Se  Se123  1  0.41581389  0.41970082  0.05394437  1
  Se  Se124  1  0.41877258  0.40867763  0.54449486  1
  Se  Se125  1  0.40811973  0.74103478  0.05442622  1
  Se  Se126  1  0.41999379  0.75461646  0.55264823  1
  Se  Se127  1  0.74309142  0.08225016  0.06759303  1
  Se  Se128  1  0.74598303  0.07420294  0.55886394  1
  Se  Se129  1  0.75796872  0.43485101  0.05015260  1
  Se  Se130  1  0.74910913  0.41267404  0.55250105  1
  Se  Se131  1  0.74851108  0.75537230  0.05330176  1
  Se  Se132  1  0.75219354  0.74688513  0.54906706  1
  Se  Se133  1  0.24839106  0.24619291  0.05406104  1
  Se  Se134  1  0.25728891  0.25972908  0.54574719  1
  Se  Se135  1  0.24821801  0.58283223  0.05963318  1
  Se  Se136  1  0.25343016  0.58643177  0.55463694  1
  Se  Se137  1  0.25913948  0.91805462  0.06271760  1
  Se  Se138  1  0.24945069  0.91857583  0.55077745  1
  Se  Se139  1  0.58887207  0.25224117  0.05139301  1
  Se  Se140  1  0.59112845  0.25123509  0.56044352  1
  Se  Se141  1  0.58116970  0.58677058  0.05256244  1
  Se  Se142  1  0.58113777  0.58310152  0.55349181  1
  Se  Se143  1  0.58531215  0.92193599  0.06616811  1
  Se  Se144  1  0.58165213  0.91260044  0.54931971  1
  Se  Se145  1  0.91963187  0.25932832  0.05843295  1
  Se  Se146  1  0.92162523  0.25065987  0.56980303  1
  Se  Se147  1  0.91688810  0.58026364  0.04608539  1
  Se  Se148  1  0.91261625  0.57791294  0.55484294  1
  Se  Se149  1  0.91558567  0.91332563  0.04788624  1
  Se  Se150  1  0.91000489  0.90505813  0.55234450  1
  Se  Se151  1  0.07830687  0.25105833  0.45420730  1
  Se  Se152  1  0.08477087  0.24709974  0.94462808  1
  Se  Se153  1  0.08110978  0.58166058  0.45319819  1
  Se  Se154  1  0.08000846  0.59191854  0.93464544  1
  Se  Se155  1  0.08728267  0.92142781  0.45298970  1
  Se  Se156  1  0.07725941  0.91860444  0.93596926  1
  Se  Se157  1  0.41579970  0.25286803  0.43326771  1
  Se  Se158  1  0.41887949  0.24396447  0.94952464  1
  Se  Se159  1  0.41962005  0.58698353  0.45034075  1
  Se  Se160  1  0.41664744  0.57674256  0.94630576  1
  Se  Se161  1  0.42332294  0.91954302  0.44959088  1
  Se  Se162  1  0.40569579  0.92064891  0.94037429  1
  Se  Se163  1  0.74118595  0.24771991  0.43906299  1
  Se  Se164  1  0.74428078  0.26254265  0.94491040  1
  Se  Se165  1  0.75043182  0.57685569  0.44268383  1
  Se  Se166  1  0.75212066  0.58689115  0.94468593  1
  Se  Se167  1  0.75663332  0.90892057  0.44513472  1
  Se  Se168  1  0.74883988  0.92056547  0.95240739  1
  Se  Se169  1  0.25349052  0.08941443  0.44589648  1
  Se  Se170  1  0.24658115  0.08376832  0.94725825  1
  Se  Se171  1  0.23134224  0.44037279  0.44813546  1
  Se  Se172  1  0.26038911  0.40321439  0.93830055  1
  Se  Se173  1  0.24666142  0.75453637  0.45113890  1
  Se  Se174  1  0.25050147  0.74113881  0.93900125  1
  Se  Se175  1  0.59400597  0.07979485  0.44237385  1
  Se  Se176  1  0.58164721  0.08444771  0.95017097  1
  Se  Se177  1  0.58205705  0.41748421  0.44286895  1
  Se  Se178  1  0.56592747  0.43184872  0.94600597  1
  Se  Se179  1  0.58611940  0.74768727  0.44728879  1
  Se  Se180  1  0.58909755  0.74230229  0.93522352  1
  Se  Se181  1  0.92436036  0.06996325  0.44189548  1
  Se  Se182  1  0.92425657  0.08170250  0.93746719  1
  Se  Se183  1  0.90694036  0.41258842  0.45183893  1
  Se  Se184  1  0.91968461  0.42168990  0.94353125  1
  Se  Se185  1  0.91849212  0.74331149  0.44803162  1
  Se  Se186  1  0.91088915  0.75757971  0.93874957  1
  Se  Se187  1  0.24555192  0.26237005  0.30796329  1
  Se  Se188  1  0.24346759  0.23740170  0.80392711  1
  Se  Se189  1  0.24627037  0.57867892  0.31753924  1
  Se  Se190  1  0.25675816  0.58260646  0.79556834  1
  Se  Se191  1  0.25887415  0.92505244  0.30906635  1
  Se  Se192  1  0.24148524  0.90785229  0.81003153  1
  Se  Se193  1  0.58619113  0.25581080  0.29707705  1
  Se  Se194  1  0.58366809  0.25506746  0.80345637  1
  Se  Se195  1  0.58377419  0.58266875  0.30078829  1
  Se  Se196  1  0.58357245  0.57407135  0.80725429  1
  Se  Se197  1  0.59058594  0.92212700  0.30959047  1
  Se  Se198  1  0.57157148  0.90645117  0.80531366  1
  Se  Se199  1  0.91011256  0.23806270  0.31334138  1
  Se  Se200  1  0.92066745  0.26053848  0.80358503  1
  Se  Se201  1  0.90572625  0.56972423  0.30837055  1
  Se  Se202  1  0.91946830  0.59073604  0.79892869  1
  Se  Se203  1  0.91028141  0.89950475  0.30999997  1
  Se  Se204  1  0.91327123  0.92209393  0.79888515  1
  Se  Se205  1  0.09697250  0.09093057  0.30848632  1
  Se  Se206  1  0.07540856  0.07542517  0.79777827  1
  Se  Se207  1  0.08191290  0.41776793  0.32014417  1
  Se  Se208  1  0.09216981  0.42261731  0.80240483  1
  Se  Se209  1  0.09161909  0.76084294  0.31214017  1
  Se  Se210  1  0.08296525  0.75217789  0.79427155  1
  Se  Se211  1  0.42058292  0.08831841  0.30407199  1
  Se  Se212  1  0.42129386  0.08886353  0.80907246  1
  Se  Se213  1  0.41296240  0.42035221  0.30425299  1
  Se  Se214  1  0.42363674  0.41705425  0.80826156  1
  Se  Se215  1  0.42636479  0.76030177  0.31881474  1
  Se  Se216  1  0.41897513  0.74236203  0.79594882  1
  Se  Se217  1  0.74990640  0.07701917  0.29860259  1
  Se  Se218  1  0.75702637  0.09699704  0.81663685  1
  Se  Se219  1  0.74308658  0.41085216  0.30031201  1
  Se  Se220  1  0.75112206  0.42195694  0.80513158  1
  Se  Se221  1  0.74404231  0.74119639  0.30437978  1
  Se  Se222  1  0.75077004  0.75860871  0.80475708  1
  Se  Se223  1  0.26313356  0.08068715  0.19637304  1
  Se  Se224  1  0.23891386  0.08569865  0.68836251  1
  Se  Se225  1  0.24938086  0.41271363  0.20528542  1
  Se  Se226  1  0.24861648  0.42308277  0.68035453  1
  Se  Se227  1  0.24664392  0.75529100  0.19477605  1
  Se  Se228  1  0.25362266  0.75185716  0.69420881  1
  Se  Se229  1  0.58315199  0.08357269  0.20034876  1
  Se  Se230  1  0.57630531  0.09291997  0.69538282  1
  Se  Se231  1  0.58161093  0.41815388  0.19152768  1
  Se  Se232  1  0.58514049  0.41157254  0.69434843  1
  Se  Se233  1  0.58106926  0.74964728  0.20284439  1
  Se  Se234  1  0.57513176  0.75918653  0.69022116  1
  Se  Se235  1  0.91615289  0.08429774  0.18944993  1
  Se  Se236  1  0.91215462  0.08809377  0.70056212  1
  Se  Se237  1  0.90914102  0.41975048  0.18871103  1
  Se  Se238  1  0.92019217  0.41683485  0.69827150  1
  Se  Se239  1  0.90913325  0.74781249  0.18760435  1
  Se  Se240  1  0.91825431  0.75029637  0.69671808  1
  Se  Se241  1  0.08845140  0.23874221  0.19514976  1
  Se  Se242  1  0.08799938  0.26627075  0.70158797  1
  Se  Se243  1  0.08847961  0.57151453  0.20059151  1
  Se  Se244  1  0.08318228  0.58664552  0.69392482  1
  Se  Se245  1  0.09192861  0.91070173  0.19286207  1
  Se  Se246  1  0.08061355  0.92102521  0.69006187  1
  Se  Se247  1  0.41698037  0.25587398  0.19042114  1
  Se  Se248  1  0.42269234  0.24027763  0.69094459  1
  Se  Se249  1  0.41921598  0.58180742  0.19011057  1
  Se  Se250  1  0.41801087  0.57880108  0.69226279  1
  Se  Se251  1  0.41774694  0.92012745  0.20543994  1
  Se  Se252  1  0.42289311  0.91166994  0.68904418  1
  Se  Se253  1  0.75185143  0.25141487  0.19916505  1
  Se  Se254  1  0.74806189  0.25772946  0.70111329  1
  Se  Se255  1  0.74400128  0.58688374  0.19252497  1
  Se  Se256  1  0.75865486  0.57525132  0.68376623  1
  Se  Se257  1  0.75014237  0.91517236  0.19761239  1
  Se  Se258  1  0.74899431  0.91657155  0.68670777  1
