# generated using pymatgen
data_In86Cu29Se144
_symmetry_space_group_name_H-M   'P 1'
_cell_length_a   17.58315770
_cell_length_b   17.57822003
_cell_length_c   23.43704308
_cell_angle_alpha   90.01966971
_cell_angle_beta   89.99121079
_cell_angle_gamma   90.03485539
_symmetry_Int_Tables_number   1
_chemical_formula_structural   In86Cu29Se144
_chemical_formula_sum   'In86 Cu29 Se144'
_cell_volume   7243.93383230
_cell_formula_units_Z   1
loop_
 _symmetry_equiv_pos_site_id
 _symmetry_equiv_pos_as_xyz
  1  'x, y, z'
loop_
 _atom_site_type_symbol
 _atom_site_label
 _atom_site_symmetry_multiplicity
 _atom_site_fract_x
 _atom_site_fract_y
 _atom_site_fract_z
 _atom_site_occupancy
  In  In0  1  0.00858079  0.15840127  0.12957100  1
  In  In1  1  -0.00027014  0.18246500  0.62430350  1
  In  In2  1  0.00214830  0.50230301  0.12684900  1
  In  In3  1  0.00448516  0.49093932  0.62911215  1
  In  In4  1  0.02565337  0.80810704  0.15125918  1
  In  In5  1  -0.00207183  0.82840085  0.63040377  1
  In  In6  1  0.32982348  0.18296734  0.12690618  1
  In  In7  1  0.31438823  0.16554690  0.63048184  1
  In  In8  1  0.32878772  0.50951104  0.11678375  1
  In  In9  1  0.32754658  0.51228274  0.62294926  1
  In  In10  1  0.32361685  0.79384901  0.10463795  1
  In  In11  1  0.34844989  0.82644424  0.62829817  1
  In  In12  1  0.66616249  0.16585719  0.13143004  1
  In  In13  1  0.67976209  0.16564327  0.62060112  1
  In  In14  1  0.66136159  0.50463667  0.11989731  1
  In  In15  1  0.67168781  0.49693634  0.63872533  1
  In  In16  1  0.66602756  0.83260012  0.12574127  1
  In  In17  1  0.65527146  0.83534736  0.62815204  1
  In  In18  1  0.16334666  0.00382149  0.36750699  1
  In  In19  1  0.18485606  -0.01690252  0.88799969  1
  In  In20  1  0.16518427  0.34288255  0.35995806  1
  In  In21  1  0.15500980  0.34651758  0.88595633  1
  In  In22  1  0.14329656  0.64529988  0.33841544  1
  In  In23  1  0.15816555  0.67187789  0.88501394  1
  In  In24  1  0.49460156  -0.02115857  0.37467772  1
  In  In25  1  0.48018146  0.00032614  0.87284643  1
  In  In26  1  0.50049264  0.34062778  0.36481631  1
  In  In27  1  0.51125282  0.33377563  0.87322205  1
  In  In28  1  0.50124748  0.66736225  0.37041540  1
  In  In29  1  0.51393733  0.65513574  0.89650592  1
  In  In30  1  0.83854150  0.01144169  0.36924094  1
  In  In31  1  0.83552868  0.00221863  0.87313449  1
  In  In32  1  0.83249824  0.33253058  0.36954838  1
  In  In33  1  0.84259655  0.34045766  0.87026142  1
  In  In34  1  0.83229334  0.66690444  0.36536412  1
  In  In35  1  0.82421008  0.65239309  0.87450939  1
  In  In36  1  -0.00624792  0.16575554  0.36914525  1
  In  In37  1  -0.00151116  0.18105051  0.87556067  1
  In  In38  1  0.00433503  0.49949669  0.36309402  1
  In  In39  1  -0.00311012  0.49907719  0.87794922  1
  In  In40  1  0.00192521  0.83039117  0.35792217  1
  In  In41  1  0.02739506  0.82189173  0.88045613  1
  In  In42  1  0.32164776  0.17064618  0.37015802  1
  In  In43  1  0.33497057  0.15083406  0.87495621  1
  In  In44  1  0.30922050  0.49443735  0.34556584  1
  In  In45  1  0.33012246  0.51523775  0.89821855  1
  In  In46  1  0.33652235  0.83084738  0.37527063  1
  In  In47  1  0.32672563  0.82760500  0.89159825  1
  In  In48  1  0.67684229  0.17842776  0.36823618  1
  In  In49  1  0.64774736  0.18307901  0.87143066  1
  In  In50  1  0.66791480  0.50263740  0.36376222  1
  In  In51  1  0.67014252  0.50136802  0.88363229  1
  In  In52  1  0.65037861  0.82175937  0.36693540  1
  In  In53  1  0.67004709  0.81324193  0.88632612  1
  In  In54  1  0.16104021  -0.01525383  0.12164308  1
  In  In55  1  0.16715333  0.00925743  0.63450510  1
  In  In56  1  0.16876745  0.33887208  0.12601913  1
  In  In57  1  0.15158705  0.33742582  0.62695461  1
  In  In58  1  0.16825768  0.66203384  0.12470610  1
  In  In59  1  0.16968611  0.65060777  0.62512426  1
  In  In60  1  0.50728791  -0.00415127  0.13036656  1
  In  In61  1  0.50549199  -0.01653978  0.62774945  1
  In  In62  1  0.48586981  0.34789884  0.13305300  1
  In  In63  1  0.50078905  0.34988081  0.62990676  1
  In  In64  1  0.50540307  0.66497961  0.11909563  1
  In  In65  1  0.49524851  0.67803254  0.62896158  1
  In  In66  1  0.83632450  -0.00331886  0.13277075  1
  In  In67  1  0.82021766  0.00419896  0.61978303  1
  In  In68  1  0.82471766  0.34734488  0.13047574  1
  In  In69  1  0.84284602  0.32614728  0.62627985  1
  In  In70  1  0.83497390  0.65865117  0.12574584  1
  In  In71  1  0.84092113  0.65724849  0.63461226  1
  In  In72  1  0.33030719  0.67239471  0.76181028  1
  In  In73  1  0.84159630  0.17186410  -0.00499587  1
  In  In74  1  0.66520239  0.00117086  0.74985133  1
  In  In75  1  0.82698060  0.83445949  0.49539502  1
  In  In76  1  0.16308382  0.16879899  0.49225325  1
  In  In77  1  0.34058580  0.33046861  0.75710327  1
  In  In78  1  0.84235101  0.82353761  0.01250611  1
  In  In79  1  0.33346252  -0.00727476  0.24921213  1
  In  In80  1  0.00377541  -0.00002623  0.75252144  1
  In  In81  1  0.83631400  0.50094819  0.49011908  1
  In  In82  1  0.17218296  0.83128210  0.49323637  1
  In  In83  1  0.49693990  0.17126910  -0.00278183  1
  In  In84  1  0.49719049  0.51093753  0.49736892  1
  In  In85  1  0.50096575  0.16285049  0.50152452  1
  Cu  Cu86  1  0.49959725  0.83025767  0.24242737  1
  Cu  Cu87  1  0.16783507  0.16350172  0.75669290  1
  Cu  Cu88  1  0.32991673  0.00076369  0.00470720  1
  Cu  Cu89  1  0.83125668  0.17667532  0.74677881  1
  Cu  Cu90  1  0.67192395  0.00017256  0.00063003  1
  Cu  Cu91  1  0.65870613  0.67541263  0.50155491  1
  Cu  Cu92  1  0.32435153  0.33481979  0.00428948  1
  Cu  Cu93  1  0.50464273  0.50550303  0.76225605  1
  Cu  Cu94  1  0.50406919  0.16613959  0.24923815  1
  Cu  Cu95  1  0.84000313  0.82217047  0.75560284  1
  Cu  Cu96  1  0.67365962  0.33345856  0.49674385  1
  Cu  Cu97  1  0.00182775  0.66248907  0.00664882  1
  Cu  Cu98  1  0.15932252  0.49463957  0.75313540  1
  Cu  Cu99  1  0.82127998  0.83701602  0.24970124  1
  Cu  Cu100  1  0.83411744  0.17187600  0.24775638  1
  Cu  Cu101  1  0.83301801  0.49808113  0.24611122  1
  Cu  Cu102  1  0.50189893  0.83079900  0.75661832  1
  Cu  Cu103  1  0.50140121  0.50343392  0.24155811  1
  Cu  Cu104  1  -0.00648076  0.00544044  0.49395598  1
  Cu  Cu105  1  0.33961074  -0.01006277  0.50406041  1
  Cu  Cu106  1  0.32630499  0.66081698  0.49305214  1
  Cu  Cu107  1  0.82950722  0.50269111  0.75582266  1
  Cu  Cu108  1  0.00819210  0.66286459  0.49040776  1
  Cu  Cu109  1  0.66428528  0.33889986  0.00455763  1
  Cu  Cu110  1  0.32598962  0.34003108  0.48759119  1
  Cu  Cu111  1  0.16411313  0.17123761  0.24763025  1
  Cu  Cu112  1  0.66301771  -0.00016763  0.49673766  1
  Cu  Cu113  1  0.00024011  0.33846487  0.00390509  1
  Cu  Cu114  1  0.01368130  -0.00582271  0.00735915  1
  Se  Se115  1  0.09261564  0.08536816  0.05629208  1
  Se  Se116  1  0.07797067  0.07662351  0.55771270  1
  Se  Se117  1  0.08561429  0.42131219  0.05584187  1
  Se  Se118  1  0.08662558  0.42235470  0.55370005  1
  Se  Se119  1  0.08163334  0.75021913  0.05914113  1
  Se  Se120  1  0.07951963  0.74452774  0.55615546  1
  Se  Se121  1  0.41258765  0.08170431  0.06362029  1
  Se  Se122  1  0.40885199  0.07783777  0.56479963  1
  Se  Se123  1  0.41335385  0.41629995  0.05266443  1
  Se  Se124  1  0.40574185  0.41308048  0.55401398  1
  Se  Se125  1  0.45018225  0.77074434  0.05035974  1
  Se  Se126  1  0.40993464  0.73988590  0.55098870  1
  Se  Se127  1  0.75151255  0.08280504  0.05720520  1
  Se  Se128  1  0.74983679  0.08469316  0.54419830  1
  Se  Se129  1  0.75125894  0.42222679  0.05304229  1
  Se  Se130  1  0.74648248  0.41871290  0.55820065  1
  Se  Se131  1  0.73856612  0.73525556  0.05644188  1
  Se  Se132  1  0.74742415  0.74405817  0.56335362  1
  Se  Se133  1  0.24235437  0.24776563  0.05330443  1
  Se  Se134  1  0.25287131  0.25977357  0.55405566  1
  Se  Se135  1  0.26087548  0.60555553  0.04685384  1
  Se  Se136  1  0.24399422  0.57721055  0.54673388  1
  Se  Se137  1  0.25328090  0.90899858  0.05608810  1
  Se  Se138  1  0.25154136  0.91943655  0.56464288  1
  Se  Se139  1  0.58393763  0.25675623  0.06269507  1
  Se  Se140  1  0.58621467  0.26287456  0.55843050  1
  Se  Se141  1  0.56682565  0.56827708  0.04707289  1
  Se  Se142  1  0.59018224  0.58845183  0.56488448  1
  Se  Se143  1  0.58906319  0.92181560  0.05648889  1
  Se  Se144  1  0.58433142  0.91337669  0.55047757  1
  Se  Se145  1  0.92092438  0.25676051  0.06454544  1
  Se  Se146  1  0.91696328  0.24975273  0.55095426  1
  Se  Se147  1  0.91523641  0.57851581  0.05465681  1
  Se  Se148  1  0.92405857  0.59008127  0.55357649  1
  Se  Se149  1  0.93008460  0.91850797  0.06694954  1
  Se  Se150  1  0.92185535  0.92187217  0.55787391  1
  Se  Se151  1  0.07908954  0.26044430  0.43344476  1
  Se  Se152  1  0.08019138  0.25020990  0.95122788  1
  Se  Se153  1  0.08799377  0.58545902  0.43108799  1
  Se  Se154  1  0.08096315  0.57859651  0.94876095  1
  Se  Se155  1  0.07297103  0.92166560  0.43778823  1
  Se  Se156  1  0.09404996  0.90668273  0.95545573  1
  Se  Se157  1  0.41259365  0.25550596  0.43838842  1
  Se  Se158  1  0.40462269  0.26067945  0.93838363  1
  Se  Se159  1  0.40263425  0.57967954  0.42975439  1
  Se  Se160  1  0.43190874  0.57434811  0.96563802  1
  Se  Se161  1  0.41842245  0.90440297  0.45120475  1
  Se  Se162  1  0.41441358  0.92019516  0.95049152  1
  Se  Se163  1  0.75592613  0.25097263  0.44447378  1
  Se  Se164  1  0.74117584  0.25796114  0.94147634  1
  Se  Se165  1  0.73792303  0.59591145  0.44081358  1
  Se  Se166  1  0.75066347  0.58461662  0.95320258  1
  Se  Se167  1  0.73960071  0.92042506  0.43237247  1
  Se  Se168  1  0.75571842  0.91859092  0.94495598  1
  Se  Se169  1  0.26008442  0.06926972  0.44311289  1
  Se  Se170  1  0.24963060  0.08669399  0.95148220  1
  Se  Se171  1  0.24822743  0.42242427  0.43189508  1
  Se  Se172  1  0.24210592  0.42313729  0.95456673  1
  Se  Se173  1  0.24459527  0.73446988  0.42990085  1
  Se  Se174  1  0.26402458  0.72214087  0.95412975  1
  Se  Se175  1  0.58466004  0.07865252  0.43374107  1
  Se  Se176  1  0.58977062  0.07708046  0.93985750  1
  Se  Se177  1  0.59027881  0.41545854  0.44113035  1
  Se  Se178  1  0.57949014  0.41671119  0.94775722  1
  Se  Se179  1  0.57345132  0.75192243  0.44642401  1
  Se  Se180  1  0.56851712  0.76718411  0.95778984  1
  Se  Se181  1  0.91208979  0.09128280  0.44480513  1
  Se  Se182  1  0.93245367  0.06972784  0.94406696  1
  Se  Se183  1  0.92877668  0.41075797  0.43695600  1
  Se  Se184  1  0.91335201  0.41622995  0.94846298  1
  Se  Se185  1  0.92443953  0.74682329  0.43758468  1
  Se  Se186  1  0.92491617  0.74151609  0.94073036  1
  Se  Se187  1  0.25185329  0.25350479  0.29743569  1
  Se  Se188  1  0.24228484  0.24983639  0.81740949  1
  Se  Se189  1  0.27279253  0.61671499  0.29025377  1
  Se  Se190  1  0.24287127  0.57199646  0.81365944  1
  Se  Se191  1  0.23860895  0.90377303  0.30618617  1
  Se  Se192  1  0.25616694  0.90449076  0.81334609  1
  Se  Se193  1  0.58509617  0.25347569  0.30187566  1
  Se  Se194  1  0.57333405  0.25296652  0.79456361  1
  Se  Se195  1  0.58219316  0.58586865  0.29961673  1
  Se  Se196  1  0.58779462  0.58876299  0.81455351  1
  Se  Se197  1  0.57958497  0.91614548  0.29800531  1
  Se  Se198  1  0.58447343  0.91127903  0.81688003  1
  Se  Se199  1  0.91919450  0.25492312  0.29994904  1
  Se  Se200  1  0.91979329  0.25371270  0.79992718  1
  Se  Se201  1  0.91495729  0.58364109  0.29959806  1
  Se  Se202  1  0.91862572  0.58344731  0.80647568  1
  Se  Se203  1  0.90927620  0.91754910  0.30198135  1
  Se  Se204  1  0.91833750  0.90455031  0.81452000  1
  Se  Se205  1  0.08175390  0.08629159  0.30104584  1
  Se  Se206  1  0.09023900  0.08315346  0.81976380  1
  Se  Se207  1  0.09640589  0.43497754  0.29085269  1
  Se  Se208  1  0.07592977  0.41186112  0.80632353  1
  Se  Se209  1  0.07851465  0.75548769  0.28431683  1
  Se  Se210  1  0.09426162  0.74510033  0.80265240  1
  Se  Se211  1  0.42280014  0.08715825  0.31128149  1
  Se  Se212  1  0.42713332  0.09593360  0.80093469  1
  Se  Se213  1  0.41765450  0.41880149  0.29505808  1
  Se  Se214  1  0.41412494  0.43287168  0.81950294  1
  Se  Se215  1  0.41943114  0.75407653  0.30361189  1
  Se  Se216  1  0.42875782  0.75014982  0.82169896  1
  Se  Se217  1  0.74962810  0.08649366  0.30031904  1
  Se  Se218  1  0.75426773  0.09766865  0.80965652  1
  Se  Se219  1  0.74936676  0.41443177  0.30047309  1
  Se  Se220  1  0.74684379  0.41815477  0.80929764  1
  Se  Se221  1  0.74283474  0.74684700  0.30122701  1
  Se  Se222  1  0.74899031  0.74703649  0.80776610  1
  Se  Se223  1  0.24580382  0.08665910  0.19013997  1
  Se  Se224  1  0.25332700  0.07884333  0.70767141  1
  Se  Se225  1  0.26226529  0.41733603  0.18824218  1
  Se  Se226  1  0.24919634  0.42085712  0.69443110  1
  Se  Se227  1  0.25460297  0.74530813  0.19359596  1
  Se  Se228  1  0.24638860  0.75134562  0.68929673  1
  Se  Se229  1  0.58638550  0.07992589  0.19957657  1
  Se  Se230  1  0.57975473  0.08985190  0.68606405  1
  Se  Se231  1  0.58832342  0.41676465  0.19384192  1
  Se  Se232  1  0.58155229  0.41952903  0.70536759  1
  Se  Se233  1  0.58585729  0.74548290  0.19318927  1
  Se  Se234  1  0.58385830  0.74889230  0.70059848  1
  Se  Se235  1  0.91697038  0.08494388  0.19751271  1
  Se  Se236  1  0.90841893  0.08627882  0.69082712  1
  Se  Se237  1  0.92124551  0.41571543  0.19667340  1
  Se  Se238  1  0.90886392  0.42140409  0.69546989  1
  Se  Se239  1  0.90310511  0.75261745  0.19598231  1
  Se  Se240  1  0.92460470  0.74273207  0.70054403  1
  Se  Se241  1  0.08229245  0.25461426  0.19360640  1
  Se  Se242  1  0.08742723  0.24547354  0.69970307  1
  Se  Se243  1  0.08348947  0.58513714  0.19560296  1
  Se  Se244  1  0.08225249  0.58076977  0.69672232  1
  Se  Se245  1  0.07268756  0.93121689  0.19945246  1
  Se  Se246  1  0.09414409  0.90597154  0.69592108  1
  Se  Se247  1  0.41776265  0.24979522  0.19996335  1
  Se  Se248  1  0.41980825  0.24524360  0.68557192  1
  Se  Se249  1  0.41865460  0.58578904  0.18727246  1
  Se  Se250  1  0.42147914  0.57827040  0.69796957  1
  Se  Se251  1  0.41200294  0.90287659  0.18267741  1
  Se  Se252  1  0.41983073  0.91301686  0.70126457  1
  Se  Se253  1  0.74835171  0.25346178  0.19549756  1
  Se  Se254  1  0.74549281  0.25582724  0.69270795  1
  Se  Se255  1  0.74672447  0.58011222  0.19356876  1
  Se  Se256  1  0.74710532  0.58953648  0.70305039  1
  Se  Se257  1  0.74102826  0.92162103  0.19565655  1
  Se  Se258  1  0.76153435  0.90585402  0.69529446  1
