# generated using pymatgen
data_In86Cu29Se144
_symmetry_space_group_name_H-M   'P 1'
_cell_length_a   17.55937729
_cell_length_b   17.55797052
_cell_length_c   23.41373817
_cell_angle_alpha   90.00691607
_cell_angle_beta   89.98779682
_cell_angle_gamma   89.99516296
_symmetry_Int_Tables_number   1
_chemical_formula_structural   In86Cu29Se144
_chemical_formula_sum   'In86 Cu29 Se144'
_cell_volume   7218.61980784
_cell_formula_units_Z   1
loop_
 _symmetry_equiv_pos_site_id
 _symmetry_equiv_pos_as_xyz
  1  'x, y, z'
loop_
 _atom_site_type_symbol
 _atom_site_label
 _atom_site_symmetry_multiplicity
 _atom_site_fract_x
 _atom_site_fract_y
 _atom_site_fract_z
 _atom_site_occupancy
  In  In0  1  0.00912251  0.16094627  0.13473336  1
  In  In1  1  0.00084542  0.17624957  0.61929259  1
  In  In2  1  0.00713035  0.49593873  0.13395343  1
  In  In3  1  -0.00505392  0.51369132  0.61801965  1
  In  In4  1  0.01375674  0.82497766  0.13397116  1
  In  In5  1  0.00111121  0.83724150  0.60404886  1
  In  In6  1  0.33544474  0.17051616  0.13282079  1
  In  In7  1  0.32246720  0.14988744  0.62451851  1
  In  In8  1  0.32790451  0.50013519  0.12898677  1
  In  In9  1  0.33599192  0.48516038  0.61860287  1
  In  In10  1  0.33436615  0.83150465  0.12344426  1
  In  In11  1  0.33858227  0.83964948  0.62274057  1
  In  In12  1  0.66201487  0.16495194  0.11760278  1
  In  In13  1  0.65865977  0.15690475  0.62484843  1
  In  In14  1  0.67625505  0.51166655  0.12147131  1
  In  In15  1  0.67683351  0.51081247  0.61615215  1
  In  In16  1  0.65137969  0.82435814  0.11637719  1
  In  In17  1  0.66703946  0.82601658  0.63010018  1
  In  In18  1  0.15570341  -0.01169507  0.36519666  1
  In  In19  1  0.18094418  -0.01118149  0.89318541  1
  In  In20  1  0.16545279  0.34225121  0.35460021  1
  In  In21  1  0.16609585  0.32242141  0.90269500  1
  In  In22  1  0.17111388  0.66687183  0.35880542  1
  In  In23  1  0.16979920  0.66304761  0.89259917  1
  In  In24  1  0.48598287  0.00528799  0.37027191  1
  In  In25  1  0.49937334  0.00189089  0.88442746  1
  In  In26  1  0.51162149  0.34117771  0.36700952  1
  In  In27  1  0.49603439  0.33855751  0.88756850  1
  In  In28  1  0.48830815  0.65738251  0.36321883  1
  In  In29  1  0.50841504  0.66452549  0.88393378  1
  In  In30  1  0.85762379  -0.00861987  0.39417617  1
  In  In31  1  0.82702169  0.00563272  0.87143214  1
  In  In32  1  0.83965517  0.33226060  0.37599794  1
  In  In33  1  0.84387373  0.34030432  0.88042696  1
  In  In34  1  0.83212119  0.66553091  0.36450364  1
  In  In35  1  0.82131050  0.66944163  0.87630488  1
  In  In36  1  -0.00599076  0.16218259  0.36597389  1
  In  In37  1  0.00752064  0.17556636  0.88593142  1
  In  In38  1  -0.01646915  0.48565587  0.34088163  1
  In  In39  1  -0.00058102  0.49085046  0.90046878  1
  In  In40  1  0.00435499  0.83871721  0.37290602  1
  In  In41  1  0.00690905  0.83794437  0.88193314  1
  In  In42  1  0.33054501  0.15659777  0.35528736  1
  In  In43  1  0.34289670  0.15363674  0.89149414  1
  In  In44  1  0.33561418  0.50889618  0.35563065  1
  In  In45  1  0.33590022  0.49981931  0.89102731  1
  In  In46  1  0.31979929  0.82318818  0.36641302  1
  In  In47  1  0.33051794  0.84008818  0.88367114  1
  In  In48  1  0.67583177  0.17928196  0.37174764  1
  In  In49  1  0.66166500  0.14569179  0.87805560  1
  In  In50  1  0.66134483  0.50753296  0.37228555  1
  In  In51  1  0.65916724  0.51282081  0.88600674  1
  In  In52  1  0.68016236  0.83682161  0.37456265  1
  In  In53  1  0.66374910  0.83126491  0.87015146  1
  In  In54  1  0.16767670  0.00059341  0.12579366  1
  In  In55  1  0.17854908  -0.00524084  0.62570490  1
  In  In56  1  0.16581936  0.34022092  0.13130481  1
  In  In57  1  0.16955643  0.31992967  0.62378570  1
  In  In58  1  0.16681102  0.66527210  0.13024802  1
  In  In59  1  0.14965622  0.66324651  0.62046801  1
  In  In60  1  0.49742335  -0.01037686  0.11622185  1
  In  In61  1  0.50179269  -0.01463102  0.64333064  1
  In  In62  1  0.48291459  0.32113106  0.11765951  1
  In  In63  1  0.48846484  0.34189115  0.61999210  1
  In  In64  1  0.49887652  0.66637337  0.12456146  1
  In  In65  1  0.51861785  0.66944169  0.62233698  1
  In  In66  1  0.83740228  0.00998431  0.12784109  1
  In  In67  1  0.82444126  -0.01232115  0.60957199  1
  In  In68  1  0.83712573  0.35188215  0.12964061  1
  In  In69  1  0.83779219  0.34006934  0.61199147  1
  In  In70  1  0.85367995  0.63876423  0.15459620  1
  In  In71  1  0.82576164  0.66235141  0.61392739  1
  In  In72  1  0.15734830  0.50767033  0.48276324  1
  In  In73  1  -0.00065352  0.33216269  0.75184555  1
  In  In74  1  -0.00951361  0.66702579  0.74901659  1
  In  In75  1  0.50325168  0.16937769  0.49875912  1
  In  In76  1  0.34123866  0.32248424  0.76168219  1
  In  In77  1  -0.00473560  -0.00133873  0.74967324  1
  In  In78  1  0.82808270  0.17176163  -0.00077554  1
  In  In79  1  0.50223674  0.82691881  0.50565666  1
  In  In80  1  0.66385078  0.33278880  0.75325551  1
  In  In81  1  0.66783062  -0.00309501  0.24846691  1
  In  In82  1  0.16271074  0.16212349  0.49481157  1
  In  In83  1  0.66381838  0.33201962  0.24540745  1
  In  In84  1  0.34181247  0.67465837  0.75173747  1
  In  In85  1  0.83374154  0.82393807  0.00029428  1
  Cu  Cu86  1  0.00530297  -0.00411040  0.00697100  1
  Cu  Cu87  1  0.49238070  0.15809822  0.75842248  1
  Cu  Cu88  1  0.00254447  0.34241010  0.49084653  1
  Cu  Cu89  1  0.66305714  0.33827101  0.00526255  1
  Cu  Cu90  1  0.34493143  0.33957271  0.48806225  1
  Cu  Cu91  1  0.83683927  0.16486787  0.25214943  1
  Cu  Cu92  1  0.82348878  0.83056997  0.74260627  1
  Cu  Cu93  1  0.33684356  0.67066407  0.00908678  1
  Cu  Cu94  1  0.32976645  0.00524833  0.00862298  1
  Cu  Cu95  1  0.50916950  0.51048626  0.75108114  1
  Cu  Cu96  1  0.17600276  0.14831533  0.76342895  1
  Cu  Cu97  1  0.16980160  0.84339391  0.24492429  1
  Cu  Cu98  1  0.16871576  0.83190394  0.75483472  1
  Cu  Cu99  1  0.66933622  0.66719779  0.49359028  1
  Cu  Cu100  1  0.83141041  0.83803769  0.25399418  1
  Cu  Cu101  1  0.82606940  0.16092743  0.74515761  1
  Cu  Cu102  1  0.49403865  0.83114840  0.24521884  1
  Cu  Cu103  1  0.67255871  0.34372585  0.49102524  1
  Cu  Cu104  1  -0.00449718  0.67053167  0.48713118  1
  Cu  Cu105  1  0.32409273  0.33983281  0.01248547  1
  Cu  Cu106  1  0.33014569  0.65885943  0.48635961  1
  Cu  Cu107  1  0.17216752  0.48977931  0.76283086  1
  Cu  Cu108  1  0.00276424  0.65975808  0.01752486  1
  Cu  Cu109  1  0.49915074  0.49648167  0.24104511  1
  Cu  Cu110  1  0.67586370  0.66660157  0.00484399  1
  Cu  Cu111  1  0.82570344  0.51102309  0.75062247  1
  Cu  Cu112  1  0.33111642  -0.00655057  0.49926513  1
  Cu  Cu113  1  0.67375162  0.00620591  0.49950019  1
  Cu  Cu114  1  0.16739600  0.17034607  0.24336396  1
  Se  Se115  1  0.08395332  0.08545971  0.05705867  1
  Se  Se116  1  0.07949865  0.07342922  0.56085916  1
  Se  Se117  1  0.08513993  0.41932567  0.05927483  1
  Se  Se118  1  0.08384697  0.41220226  0.55803810  1
  Se  Se119  1  0.08860241  0.75207968  0.05676954  1
  Se  Se120  1  0.08453141  0.74515736  0.54336483  1
  Se  Se121  1  0.41548493  0.08854724  0.05939904  1
  Se  Se122  1  0.41766658  0.07003173  0.55849625  1
  Se  Se123  1  0.41520978  0.42442022  0.05652954  1
  Se  Se124  1  0.42416319  0.42438738  0.54209867  1
  Se  Se125  1  0.42489683  0.75665779  0.05446656  1
  Se  Se126  1  0.40502920  0.73224367  0.55692446  1
  Se  Se127  1  0.74264620  0.06934073  0.05205011  1
  Se  Se128  1  0.75115363  0.09441954  0.55325322  1
  Se  Se129  1  0.75135868  0.41883893  0.05432935  1
  Se  Se130  1  0.75597738  0.42612127  0.54693936  1
  Se  Se131  1  0.75935552  0.73563928  0.07061347  1
  Se  Se132  1  0.74394788  0.75462697  0.55162894  1
  Se  Se133  1  0.24737070  0.25033570  0.06454228  1
  Se  Se134  1  0.26557723  0.25417624  0.54914616  1
  Se  Se135  1  0.25048687  0.58668531  0.05820278  1
  Se  Se136  1  0.25079683  0.58191968  0.55537571  1
  Se  Se137  1  0.24780946  0.91514809  0.05682469  1
  Se  Se138  1  0.24757174  0.90868587  0.55118171  1
  Se  Se139  1  0.58011545  0.24922919  0.05133591  1
  Se  Se140  1  0.59274484  0.26572246  0.55713073  1
  Se  Se141  1  0.58410124  0.58547678  0.05412223  1
  Se  Se142  1  0.58453429  0.58364018  0.54737738  1
  Se  Se143  1  0.59160514  0.92094347  0.04810988  1
  Se  Se144  1  0.58789418  0.92850330  0.55903691  1
  Se  Se145  1  0.91425418  0.24728497  0.06969386  1
  Se  Se146  1  0.92362320  0.25627081  0.54701900  1
  Se  Se147  1  0.91527008  0.57725236  0.06572612  1
  Se  Se148  1  0.91432911  0.58623818  0.54419418  1
  Se  Se149  1  0.92184701  0.91625844  0.06336064  1
  Se  Se150  1  0.91960246  0.92383376  0.54169329  1
  Se  Se151  1  0.08486270  0.26165226  0.43264267  1
  Se  Se152  1  0.06622386  0.25575681  0.96509059  1
  Se  Se153  1  0.06563092  0.58879950  0.42136745  1
  Se  Se154  1  0.08723771  0.57932664  0.95944368  1
  Se  Se155  1  0.08446041  0.92040416  0.44497510  1
  Se  Se156  1  0.08772203  0.90865087  0.95590988  1
  Se  Se157  1  0.41455863  0.24840332  0.42982548  1
  Se  Se158  1  0.40696069  0.25988022  0.95235957  1
  Se  Se159  1  0.41375201  0.57488884  0.43718124  1
  Se  Se160  1  0.42038428  0.58824434  0.95268248  1
  Se  Se161  1  0.41216922  0.91202509  0.44033724  1
  Se  Se162  1  0.41287671  0.92172090  0.95309354  1
  Se  Se163  1  0.75489988  0.25273153  0.44660486  1
  Se  Se164  1  0.73566320  0.25966708  0.93600511  1
  Se  Se165  1  0.75194935  0.58542863  0.43855118  1
  Se  Se166  1  0.75870037  0.58099724  0.95161556  1
  Se  Se167  1  0.75276580  0.91621157  0.44942692  1
  Se  Se168  1  0.74940505  0.92002624  0.94236644  1
  Se  Se169  1  0.25794845  0.07610987  0.43591062  1
  Se  Se170  1  0.24231382  0.09091751  0.95851880  1
  Se  Se171  1  0.25394679  0.41339897  0.43278177  1
  Se  Se172  1  0.24338197  0.42559704  0.95709373  1
  Se  Se173  1  0.24320373  0.74275778  0.43983348  1
  Se  Se174  1  0.25279250  0.75299551  0.95325439  1
  Se  Se175  1  0.59085022  0.07751514  0.43619113  1
  Se  Se176  1  0.56580258  0.10118945  0.95214011  1
  Se  Se177  1  0.58191612  0.42207646  0.44266622  1
  Se  Se178  1  0.57993447  0.42405501  0.95187244  1
  Se  Se179  1  0.58308531  0.74394462  0.43431629  1
  Se  Se180  1  0.59515166  0.75045539  0.94852037  1
  Se  Se181  1  0.91722195  0.10338026  0.44844068  1
  Se  Se182  1  0.92320091  0.07220126  0.94434950  1
  Se  Se183  1  0.92540672  0.42727072  0.43405870  1
  Se  Se184  1  0.91477903  0.40462828  0.96196558  1
  Se  Se185  1  0.91093898  0.75344532  0.43429038  1
  Se  Se186  1  0.93116408  0.73309004  0.94392498  1
  Se  Se187  1  0.25353846  0.25336910  0.29487261  1
  Se  Se188  1  0.24313137  0.24253147  0.82147238  1
  Se  Se189  1  0.23753565  0.57277719  0.28988645  1
  Se  Se190  1  0.25096165  0.58081832  0.81358492  1
  Se  Se191  1  0.25706281  0.92343072  0.30005780  1
  Se  Se192  1  0.24666707  0.91598182  0.80994256  1
  Se  Se193  1  0.57441150  0.23363235  0.30093434  1
  Se  Se194  1  0.57002930  0.24686051  0.81329004  1
  Se  Se195  1  0.57941717  0.57990698  0.29731879  1
  Se  Se196  1  0.59039260  0.59110303  0.80688437  1
  Se  Se197  1  0.57426768  0.90797528  0.30967161  1
  Se  Se198  1  0.59633449  0.93821011  0.81508104  1
  Se  Se199  1  0.91804197  0.25582265  0.30057104  1
  Se  Se200  1  0.90681782  0.23632584  0.80926089  1
  Se  Se201  1  0.92404945  0.60253122  0.29073639  1
  Se  Se202  1  0.91580145  0.57291011  0.81660515  1
  Se  Se203  1  0.91425085  0.92216168  0.30643787  1
  Se  Se204  1  0.90673254  0.90140119  0.80868450  1
  Se  Se205  1  0.08650532  0.08753523  0.30107689  1
  Se  Se206  1  0.08412718  0.07776962  0.81997123  1
  Se  Se207  1  0.10441110  0.44046615  0.28702014  1
  Se  Se208  1  0.08708294  0.41298878  0.82088271  1
  Se  Se209  1  0.08709117  0.76131839  0.30008538  1
  Se  Se210  1  0.08903507  0.74812545  0.81175828  1
  Se  Se211  1  0.42034783  0.07819901  0.29059465  1
  Se  Se212  1  0.40820029  0.07700396  0.81130539  1
  Se  Se213  1  0.42077837  0.41305594  0.29871087  1
  Se  Se214  1  0.42514534  0.43042779  0.80981432  1
  Se  Se215  1  0.40928918  0.74702582  0.29888725  1
  Se  Se216  1  0.42595814  0.75934561  0.81728377  1
  Se  Se217  1  0.75885431  0.08224789  0.31188884  1
  Se  Se218  1  0.74335593  0.07988454  0.79916253  1
  Se  Se219  1  0.75152631  0.41865205  0.30791340  1
  Se  Se220  1  0.75438715  0.42430112  0.81260264  1
  Se  Se221  1  0.74290508  0.75118935  0.29881952  1
  Se  Se222  1  0.74696151  0.74635263  0.80068466  1
  Se  Se223  1  0.25037522  0.08108869  0.19617018  1
  Se  Se224  1  0.25443447  0.07038336  0.70272801  1
  Se  Se225  1  0.25509885  0.41467590  0.20120858  1
  Se  Se226  1  0.24704396  0.41214929  0.69678861  1
  Se  Se227  1  0.25125175  0.75393329  0.19547853  1
  Se  Se228  1  0.23914409  0.74918732  0.68837736  1
  Se  Se229  1  0.57857515  0.08375195  0.18775140  1
  Se  Se230  1  0.58113490  0.08474092  0.70071171  1
  Se  Se231  1  0.57783218  0.41717203  0.17993775  1
  Se  Se232  1  0.57947447  0.42391197  0.68856022  1
  Se  Se233  1  0.58200969  0.74903902  0.19609235  1
  Se  Se234  1  0.56380962  0.76704413  0.69520860  1
  Se  Se235  1  0.92105671  0.07886408  0.20199363  1
  Se  Se236  1  0.91140124  0.08786182  0.68449941  1
  Se  Se237  1  0.91570137  0.42161977  0.20486757  1
  Se  Se238  1  0.90971478  0.42900244  0.69176477  1
  Se  Se239  1  0.91761643  0.75676513  0.20141547  1
  Se  Se240  1  0.91225977  0.75960683  0.68234693  1
  Se  Se241  1  0.07872368  0.25791820  0.20030543  1
  Se  Se242  1  0.09703258  0.23160072  0.70092745  1
  Se  Se243  1  0.06770834  0.60206794  0.19727111  1
  Se  Se244  1  0.09053606  0.56780837  0.69927248  1
  Se  Se245  1  0.07928793  0.92681009  0.19768483  1
  Se  Se246  1  0.08385236  0.90428311  0.69071463  1
  Se  Se247  1  0.41964809  0.25269961  0.20123618  1
  Se  Se248  1  0.42250751  0.23632114  0.68753808  1
  Se  Se249  1  0.41482547  0.58660713  0.19459596  1
  Se  Se250  1  0.42040275  0.57654510  0.68686026  1
  Se  Se251  1  0.41608842  0.91842330  0.19231555  1
  Se  Se252  1  0.39959969  0.91735347  0.70223626  1
  Se  Se253  1  0.75790028  0.23944553  0.18772448  1
  Se  Se254  1  0.75645372  0.25196248  0.68645632  1
  Se  Se255  1  0.73817731  0.57991684  0.20656872  1
  Se  Se256  1  0.74633365  0.59256134  0.69324185  1
  Se  Se257  1  0.75389108  0.90727593  0.18430330  1
  Se  Se258  1  0.74789795  0.92265681  0.69101951  1
