# generated using pymatgen
data_In86Cu29Se144
_symmetry_space_group_name_H-M   'P 1'
_cell_length_a   17.57981394
_cell_length_b   17.58555816
_cell_length_c   23.44117700
_cell_angle_alpha   90.02330176
_cell_angle_beta   90.03487441
_cell_angle_gamma   89.99336046
_symmetry_Int_Tables_number   1
_chemical_formula_structural   In86Cu29Se144
_chemical_formula_sum   'In86 Cu29 Se144'
_cell_volume   7246.85758449
_cell_formula_units_Z   1
loop_
 _symmetry_equiv_pos_site_id
 _symmetry_equiv_pos_as_xyz
  1  'x, y, z'
loop_
 _atom_site_type_symbol
 _atom_site_label
 _atom_site_symmetry_multiplicity
 _atom_site_fract_x
 _atom_site_fract_y
 _atom_site_fract_z
 _atom_site_occupancy
  In  In0  1  0.00379233  0.16684441  0.12852102  1
  In  In1  1  0.00603512  0.17442883  0.61771501  1
  In  In2  1  0.01309008  0.48174853  0.12863056  1
  In  In3  1  -0.00794719  0.50370477  0.62627232  1
  In  In4  1  0.01607619  0.85002713  0.12199268  1
  In  In5  1  0.00283811  0.83055520  0.61775670  1
  In  In6  1  0.33223332  0.18495035  0.12584116  1
  In  In7  1  0.32273140  0.17874180  0.63647213  1
  In  In8  1  0.32975868  0.49765311  0.11828263  1
  In  In9  1  0.33818975  0.48716547  0.64105603  1
  In  In10  1  0.32034654  0.82064506  0.11169862  1
  In  In11  1  0.32475654  0.84299116  0.63826651  1
  In  In12  1  0.65610170  0.15883378  0.12945225  1
  In  In13  1  0.67824905  0.16831399  0.61901791  1
  In  In14  1  0.66223308  0.50912326  0.12201334  1
  In  In15  1  0.65368448  0.48659565  0.60919102  1
  In  In16  1  0.66973110  0.83473896  0.12021745  1
  In  In17  1  0.67122800  0.82812895  0.62329539  1
  In  In18  1  0.15881042  0.00685696  0.37980778  1
  In  In19  1  0.17610293  -0.00995453  0.88674367  1
  In  In20  1  0.15791717  0.32609985  0.36826270  1
  In  In21  1  0.16216428  0.33005701  0.87515235  1
  In  In22  1  0.18480888  0.66851274  0.37075470  1
  In  In23  1  0.20021070  0.64446185  0.90900924  1
  In  In24  1  0.50311174  -0.01641936  0.36855499  1
  In  In25  1  0.48546840  0.00708764  0.87408605  1
  In  In26  1  0.50109350  0.34718439  0.37869723  1
  In  In27  1  0.50287975  0.33678064  0.86419809  1
  In  In28  1  0.48661541  0.65713037  0.37041840  1
  In  In29  1  0.47231256  0.68371703  0.89506103  1
  In  In30  1  0.83829749  0.00009777  0.37353654  1
  In  In31  1  0.83263375  -0.01043324  0.87418320  1
  In  In32  1  0.84285107  0.31663209  0.39317286  1
  In  In33  1  0.83342556  0.34215583  0.86123983  1
  In  In34  1  0.83424823  0.66612129  0.38206450  1
  In  In35  1  0.84210399  0.67168420  0.87459966  1
  In  In36  1  0.00283154  0.16676625  0.37512805  1
  In  In37  1  0.00546206  0.18691201  0.87254149  1
  In  In38  1  0.00677149  0.48436309  0.37437664  1
  In  In39  1  0.01494141  0.49350501  0.87518260  1
  In  In40  1  -0.00316687  0.83847376  0.37677845  1
  In  In41  1  0.00286734  0.83157204  0.88426612  1
  In  In42  1  0.31375270  0.16702110  0.37788231  1
  In  In43  1  0.32869364  0.15615255  0.86436169  1
  In  In44  1  0.33767817  0.49968002  0.37135526  1
  In  In45  1  0.33021710  0.50136143  0.87428119  1
  In  In46  1  0.33919782  0.81974028  0.37296645  1
  In  In47  1  0.32763514  0.83488511  0.87899285  1
  In  In48  1  0.68959810  0.16656081  0.38045418  1
  In  In49  1  0.65434554  0.17638650  0.86615621  1
  In  In50  1  0.66792997  0.48614405  0.39201285  1
  In  In51  1  0.65681877  0.48868575  0.86639202  1
  In  In52  1  0.67009648  0.84372714  0.37102643  1
  In  In53  1  0.67079467  0.82566750  0.87897097  1
  In  In54  1  0.15245713  -0.00616777  0.12442989  1
  In  In55  1  0.16650136  0.00453148  0.62181629  1
  In  In56  1  0.16555838  0.33748949  0.11655127  1
  In  In57  1  0.17529127  0.32690112  0.63749136  1
  In  In58  1  0.18717882  0.67724891  0.11023244  1
  In  In59  1  0.16424349  0.67502777  0.62849516  1
  In  In60  1  0.51300409  -0.00137016  0.12873915  1
  In  In61  1  0.49445007  -0.00811585  0.63008525  1
  In  In62  1  0.48506413  0.32694994  0.12378456  1
  In  In63  1  0.48700674  0.33899248  0.63484172  1
  In  In64  1  0.47372753  0.64709695  0.10102715  1
  In  In65  1  0.49748704  0.65608915  0.62761768  1
  In  In66  1  0.84655175  -0.00625808  0.13568992  1
  In  In67  1  0.82965799  -0.00183162  0.61546671  1
  In  In68  1  0.84310640  0.33987812  0.12774792  1
  In  In69  1  0.83272428  0.33629289  0.62248339  1
  In  In70  1  0.82212617  0.66952061  0.12326133  1
  In  In71  1  0.83777085  0.66808742  0.61418656  1
  In  In72  1  0.00943421  0.66945724  0.24456372  1
  In  In73  1  0.16693581  0.50077170  0.50417897  1
  In  In74  1  0.00827610  0.66393520  0.75224306  1
  In  In75  1  0.00207456  -0.00039014  0.75388755  1
  In  In76  1  0.49790518  0.16785722  0.50590546  1
  In  In77  1  0.66406175  0.65990116  0.75094582  1
  In  In78  1  0.66503221  0.00547658  0.74343554  1
  In  In79  1  0.32855111  -0.00351591  0.24939728  1
  In  In80  1  0.50281012  0.82751210  0.49631196  1
  In  In81  1  0.83535529  0.50639514  -0.00717250  1
  In  In82  1  0.66861479  0.32871158  0.25654292  1
  In  In83  1  0.65784202  0.66869707  0.24862859  1
  In  In84  1  0.49594792  0.16711792  -0.00380954  1
  In  In85  1  0.83789435  0.16498066  0.00141617  1
  Cu  Cu86  1  0.16929956  0.83076363  0.76057323  1
  Cu  Cu87  1  0.49983618  0.82516355  0.24230249  1
  Cu  Cu88  1  0.65949455  0.66843722  -0.00063745  1
  Cu  Cu89  1  0.67131658  -0.00685634  0.00066438  1
  Cu  Cu90  1  0.32812005  0.33365785  0.50985957  1
  Cu  Cu91  1  -0.00325757  0.00202530  0.00586320  1
  Cu  Cu92  1  -0.00044897  0.33008042  0.50028298  1
  Cu  Cu93  1  0.00466387  0.67113093  0.49779352  1
  Cu  Cu94  1  0.66980508  0.66607107  0.50153225  1
  Cu  Cu95  1  0.67266219  0.00362520  0.49359942  1
  Cu  Cu96  1  0.49406985  0.83524764  0.75842946  1
  Cu  Cu97  1  0.17861925  0.49771818  0.24544445  1
  Cu  Cu98  1  -0.00575974  0.66964219  0.00326532  1
  Cu  Cu99  1  0.32113715  -0.00118242  0.50491325  1
  Cu  Cu100  1  0.49926533  0.16417238  0.25134378  1
  Cu  Cu101  1  0.49334910  0.50674241  0.75172613  1
  Cu  Cu102  1  0.83680781  0.17049165  0.74459360  1
  Cu  Cu103  1  0.66742451  0.33688441  -0.00834776  1
  Cu  Cu104  1  -0.00391003  0.00027548  0.49723457  1
  Cu  Cu105  1  0.83863280  0.84153803  0.24716240  1
  Cu  Cu106  1  0.82985685  0.49811872  0.74068532  1
  Cu  Cu107  1  0.84140267  0.49266694  0.25592495  1
  Cu  Cu108  1  0.33340320  0.00151279  0.00024215  1
  Cu  Cu109  1  0.49424822  0.49765842  0.24662442  1
  Cu  Cu110  1  0.32874374  0.33752054  -0.00315826  1
  Cu  Cu111  1  0.16425402  0.17343982  0.24892021  1
  Cu  Cu112  1  0.33533719  0.66507382  0.50016564  1
  Cu  Cu113  1  0.16905539  0.16487995  0.74934441  1
  Cu  Cu114  1  0.83789351  0.16527635  0.25735519  1
  Se  Se115  1  0.08183181  0.08717064  0.05511763  1
  Se  Se116  1  0.08091866  0.08136896  0.55244653  1
  Se  Se117  1  0.08737495  0.42288640  0.04667409  1
  Se  Se118  1  0.07968805  0.40799024  0.56311002  1
  Se  Se119  1  0.08086046  0.75131660  0.05520045  1
  Se  Se120  1  0.09059767  0.75072710  0.55088896  1
  Se  Se121  1  0.41249924  0.07956368  0.06389173  1
  Se  Se122  1  0.40539468  0.07667575  0.56333561  1
  Se  Se123  1  0.41833921  0.41329175  0.05119400  1
  Se  Se124  1  0.41149696  0.41956691  0.55928426  1
  Se  Se125  1  0.42364729  0.76271805  0.04642421  1
  Se  Se126  1  0.41113911  0.74951485  0.56237681  1
  Se  Se127  1  0.74618365  0.07639484  0.06190797  1
  Se  Se128  1  0.75520511  0.08746431  0.54640353  1
  Se  Se129  1  0.74612767  0.41215392  0.05662957  1
  Se  Se130  1  0.76518664  0.43021229  0.55338427  1
  Se  Se131  1  0.74859623  0.74928670  0.04942131  1
  Se  Se132  1  0.75168326  0.75494886  0.54960894  1
  Se  Se133  1  0.24938414  0.24954153  0.04943522  1
  Se  Se134  1  0.24360632  0.24804378  0.55807689  1
  Se  Se135  1  0.25677237  0.58259083  0.04484208  1
  Se  Se136  1  0.25822042  0.58709445  0.56470326  1
  Se  Se137  1  0.24626951  0.92465351  0.05525891  1
  Se  Se138  1  0.24560993  0.90929310  0.55863225  1
  Se  Se139  1  0.59197741  0.25615402  0.05627820  1
  Se  Se140  1  0.58301630  0.26101912  0.56387898  1
  Se  Se141  1  0.58122622  0.57491831  0.04564335  1
  Se  Se142  1  0.57829093  0.58861675  0.55096163  1
  Se  Se143  1  0.58164027  0.91642269  0.05306167  1
  Se  Se144  1  0.59087653  0.92517856  0.55514371  1
  Se  Se145  1  0.92564284  0.26082183  0.05570650  1
  Se  Se146  1  0.91220312  0.24837405  0.55243288  1
  Se  Se147  1  0.92088794  0.58501303  0.06527607  1
  Se  Se148  1  0.92357062  0.58414329  0.54903023  1
  Se  Se149  1  0.91353466  0.91588579  0.05623161  1
  Se  Se150  1  0.91711912  0.91403504  0.55212659  1
  Se  Se151  1  0.08558274  0.25013717  0.44579369  1
  Se  Se152  1  0.08877210  0.24527252  0.94933449  1
  Se  Se153  1  0.08318829  0.58995566  0.43615924  1
  Se  Se154  1  0.07475579  0.58540642  0.94924234  1
  Se  Se155  1  0.08272325  0.91622938  0.44718369  1
  Se  Se156  1  0.08118230  0.91826364  0.95225805  1
  Se  Se157  1  0.40535062  0.25475051  0.44410930  1
  Se  Se158  1  0.40943099  0.25658464  0.93564104  1
  Se  Se159  1  0.41510727  0.57862784  0.44707236  1
  Se  Se160  1  0.41538156  0.57262102  0.94982811  1
  Se  Se161  1  0.40673004  0.92384990  0.44440670  1
  Se  Se162  1  0.41654031  0.92059364  0.94553043  1
  Se  Se163  1  0.72814746  0.26882099  0.45148627  1
  Se  Se164  1  0.74833301  0.25407780  0.93654726  1
  Se  Se165  1  0.75275023  0.58126325  0.44859640  1
  Se  Se166  1  0.73775522  0.59038589  0.93375151  1
  Se  Se167  1  0.75423691  0.91553372  0.44316229  1
  Se  Se168  1  0.75415678  0.91125513  0.94620440  1
  Se  Se169  1  0.24197814  0.08594033  0.45207405  1
  Se  Se170  1  0.25474344  0.08839982  0.94626253  1
  Se  Se171  1  0.25167094  0.40975213  0.44103867  1
  Se  Se172  1  0.24477618  0.41740325  0.94234009  1
  Se  Se173  1  0.25405249  0.75020289  0.44778654  1
  Se  Se174  1  0.23674632  0.77244918  0.95286392  1
  Se  Se175  1  0.58191113  0.07718208  0.43742152  1
  Se  Se176  1  0.59455236  0.07748486  0.94071758  1
  Se  Se177  1  0.57141905  0.41929607  0.45696043  1
  Se  Se178  1  0.57809716  0.41519570  0.94195170  1
  Se  Se179  1  0.59143493  0.73878190  0.43270470  1
  Se  Se180  1  0.57947779  0.75746395  0.94901211  1
  Se  Se181  1  0.91577516  0.08647280  0.44334833  1
  Se  Se182  1  0.92508478  0.07747325  0.93602557  1
  Se  Se183  1  0.92049986  0.41968551  0.44892765  1
  Se  Se184  1  0.92029886  0.40708961  0.94046449  1
  Se  Se185  1  0.91729154  0.75282111  0.44600720  1
  Se  Se186  1  0.91093286  0.75272414  0.95046989  1
  Se  Se187  1  0.25240351  0.25303668  0.30104754  1
  Se  Se188  1  0.24869548  0.25048634  0.80408407  1
  Se  Se189  1  0.25815852  0.58253530  0.30025299  1
  Se  Se190  1  0.24664432  0.59382331  0.81334117  1
  Se  Se191  1  0.24552426  0.91116116  0.31533715  1
  Se  Se192  1  0.25208411  0.92260007  0.80639867  1
  Se  Se193  1  0.57737700  0.24027346  0.31704554  1
  Se  Se194  1  0.59049398  0.26256901  0.79403784  1
  Se  Se195  1  0.58204521  0.56707046  0.30954488  1
  Se  Se196  1  0.56594807  0.58979952  0.81601861  1
  Se  Se197  1  0.58355271  0.90849932  0.29499232  1
  Se  Se198  1  0.58315243  0.91454439  0.81148616  1
  Se  Se199  1  0.91641270  0.25405353  0.30939353  1
  Se  Se200  1  0.91826942  0.25387341  0.79880960  1
  Se  Se201  1  0.91905345  0.58152554  0.30975409  1
  Se  Se202  1  0.90912428  0.57189790  0.80675467  1
  Se  Se203  1  0.92222669  0.92059814  0.30269994  1
  Se  Se204  1  0.91295426  0.90117399  0.80557119  1
  Se  Se205  1  0.08606727  0.08705207  0.30383704  1
  Se  Se206  1  0.09238251  0.08644774  0.81424915  1
  Se  Se207  1  0.08929197  0.41891237  0.29770745  1
  Se  Se208  1  0.07934035  0.40785498  0.80210067  1
  Se  Se209  1  0.09206608  0.75689829  0.30975778  1
  Se  Se210  1  0.09239489  0.74805156  0.81937510  1
  Se  Se211  1  0.41788392  0.08665319  0.31366675  1
  Se  Se212  1  0.43319737  0.09806589  0.79940088  1
  Se  Se213  1  0.41629711  0.41169873  0.30223747  1
  Se  Se214  1  0.41147687  0.41917068  0.80253280  1
  Se  Se215  1  0.41730215  0.74403562  0.29759239  1
  Se  Se216  1  0.40987796  0.75119427  0.80880901  1
  Se  Se217  1  0.75006765  0.08041447  0.30402081  1
  Se  Se218  1  0.75933463  0.09105511  0.80795082  1
  Se  Se219  1  0.75909272  0.41709045  0.31629544  1
  Se  Se220  1  0.74299014  0.41788937  0.79420869  1
  Se  Se221  1  0.76030360  0.75387450  0.30402437  1
  Se  Se222  1  0.75854269  0.75467483  0.80220802  1
  Se  Se223  1  0.24464839  0.09193581  0.18871012  1
  Se  Se224  1  0.24823195  0.07717330  0.69642754  1
  Se  Se225  1  0.25474677  0.41077564  0.18913295  1
  Se  Se226  1  0.24447850  0.41722821  0.70600946  1
  Se  Se227  1  0.24731154  0.75417827  0.19245434  1
  Se  Se228  1  0.24851203  0.74815188  0.70174325  1
  Se  Se229  1  0.58569468  0.07879837  0.20519152  1
  Se  Se230  1  0.57589343  0.09528666  0.68517878  1
  Se  Se231  1  0.58107447  0.41748678  0.19015077  1
  Se  Se232  1  0.57799980  0.42881020  0.69421564  1
  Se  Se233  1  0.57173098  0.74314911  0.17755038  1
  Se  Se234  1  0.57384924  0.75998404  0.69393726  1
  Se  Se235  1  0.92198270  0.08659054  0.19964911  1
  Se  Se236  1  0.91318850  0.08394122  0.68793621  1
  Se  Se237  1  0.92475758  0.41214951  0.20179249  1
  Se  Se238  1  0.91898947  0.41379784  0.69457189  1
  Se  Se239  1  0.91233240  0.75587444  0.18665100  1
  Se  Se240  1  0.91563989  0.75112884  0.69040150  1
  Se  Se241  1  0.08560851  0.25738471  0.19177239  1
  Se  Se242  1  0.08001747  0.24416026  0.69759267  1
  Se  Se243  1  0.09921957  0.58030786  0.18499168  1
  Se  Se244  1  0.09507605  0.57122211  0.69274160  1
  Se  Se245  1  0.08186906  0.92116078  0.20331018  1
  Se  Se246  1  0.08974605  0.90587213  0.69483586  1
  Se  Se247  1  0.41640965  0.25111140  0.20280020  1
  Se  Se248  1  0.41391586  0.25020073  0.70266470  1
  Se  Se249  1  0.41546845  0.58011970  0.18903074  1
  Se  Se250  1  0.40929747  0.59196470  0.70093352  1
  Se  Se251  1  0.41766266  0.90974240  0.18648971  1
  Se  Se252  1  0.41345767  0.92180696  0.70547590  1
  Se  Se253  1  0.75851965  0.24120973  0.19069999  1
  Se  Se254  1  0.75078263  0.25147765  0.69263365  1
  Se  Se255  1  0.75788204  0.57185017  0.19793293  1
  Se  Se256  1  0.75115171  0.58017674  0.68190392  1
  Se  Se257  1  0.74633684  0.91606477  0.19405801  1
  Se  Se258  1  0.75905110  0.90972450  0.69269217  1
