# generated using pymatgen
data_In86Cu29Se144
_symmetry_space_group_name_H-M   'P 1'
_cell_length_a   17.58374116
_cell_length_b   17.58277870
_cell_length_c   23.44167399
_cell_angle_alpha   89.98492547
_cell_angle_beta   90.01292267
_cell_angle_gamma   89.99453358
_symmetry_Int_Tables_number   1
_chemical_formula_structural   In86Cu29Se144
_chemical_formula_sum   'In86 Cu29 Se144'
_cell_volume   7247.48601282
_cell_formula_units_Z   1
loop_
 _symmetry_equiv_pos_site_id
 _symmetry_equiv_pos_as_xyz
  1  'x, y, z'
loop_
 _atom_site_type_symbol
 _atom_site_label
 _atom_site_symmetry_multiplicity
 _atom_site_fract_x
 _atom_site_fract_y
 _atom_site_fract_z
 _atom_site_occupancy
  In  In0  1  -0.00573910  0.18229099  0.12301258  1
  In  In1  1  0.00350335  0.15437419  0.63439572  1
  In  In2  1  -0.00204298  0.50010213  0.11555314  1
  In  In3  1  -0.00398452  0.49717313  0.62208769  1
  In  In4  1  -0.00582953  0.83401800  0.11142446  1
  In  In5  1  0.01197493  0.83508155  0.61945485  1
  In  In6  1  0.34694764  0.17418053  0.12637433  1
  In  In7  1  0.32444465  0.15640077  0.61946052  1
  In  In8  1  0.32359341  0.49661068  0.11807906  1
  In  In9  1  0.33013023  0.51471238  0.63676470  1
  In  In10  1  0.32504986  0.81616508  0.10544201  1
  In  In11  1  0.32180107  0.84283801  0.63490511  1
  In  In12  1  0.66416374  0.16019899  0.13131260  1
  In  In13  1  0.67690196  0.18401801  0.62275183  1
  In  In14  1  0.66878260  0.49784210  0.12678805  1
  In  In15  1  0.66968692  0.48816297  0.62937479  1
  In  In16  1  0.66574296  0.83328168  0.12086177  1
  In  In17  1  0.67308267  0.81585737  0.62171297  1
  In  In18  1  0.16803530  0.00106495  0.38457615  1
  In  In19  1  0.15276199  -0.01410174  0.86513163  1
  In  In20  1  0.16845673  0.33818648  0.38487131  1
  In  In21  1  0.15887286  0.36450264  0.86441645  1
  In  In22  1  0.15720251  0.67329994  0.39308821  1
  In  In23  1  0.17863460  0.65956202  0.87651154  1
  In  In24  1  0.51293646  0.00201019  0.37325862  1
  In  In25  1  0.48622136  -0.00083206  0.87286953  1
  In  In26  1  0.49223443  0.33652695  0.36797591  1
  In  In27  1  0.51770159  0.34087055  0.87624003  1
  In  In28  1  0.51029784  0.64994599  0.36811332  1
  In  In29  1  0.48866635  0.66880817  0.88997403  1
  In  In30  1  0.82260631  -0.00165101  0.37196504  1
  In  In31  1  0.85099300  -0.00472217  0.88763756  1
  In  In32  1  0.83650256  0.34277280  0.37186498  1
  In  In33  1  0.82789932  0.33863466  0.87587988  1
  In  In34  1  0.82767378  0.67102021  0.37575253  1
  In  In35  1  0.83948838  0.66275040  0.88092978  1
  In  In36  1  0.00531271  0.17762214  0.38046310  1
  In  In37  1  -0.00830109  0.15987690  0.86881673  1
  In  In38  1  -0.00653916  0.51307478  0.39633914  1
  In  In39  1  0.00032600  0.49728330  0.86770187  1
  In  In40  1  -0.00608621  0.83406129  0.38734945  1
  In  In41  1  -0.00102652  0.84183362  0.88133096  1
  In  In42  1  0.32469366  0.18298938  0.38690538  1
  In  In43  1  0.34156721  0.16097367  0.86835433  1
  In  In44  1  0.33292122  0.49503803  0.37735523  1
  In  In45  1  0.31864851  0.52392118  0.89936847  1
  In  In46  1  0.32760403  0.82611080  0.37495900  1
  In  In47  1  0.32613305  0.82806663  0.87687323  1
  In  In48  1  0.65791272  0.16074458  0.37048912  1
  In  In49  1  0.67520606  0.19170853  0.87680015  1
  In  In50  1  0.66982971  0.50638865  0.35579547  1
  In  In51  1  0.67633622  0.47894517  0.89251041  1
  In  In52  1  0.67034489  0.84049639  0.36641258  1
  In  In53  1  0.67144193  0.82655959  0.88458123  1
  In  In54  1  0.17431863  -0.00285748  0.12228409  1
  In  In55  1  0.16570365  0.00061215  0.62818929  1
  In  In56  1  0.16887103  0.34966266  0.12407571  1
  In  In57  1  0.16311522  0.32575920  0.62452674  1
  In  In58  1  0.16697601  0.66084603  0.11299869  1
  In  In59  1  0.16723152  0.67729588  0.61973925  1
  In  In60  1  0.51003358  0.00112638  0.12365430  1
  In  In61  1  0.48730416  -0.00284730  0.62564751  1
  In  In62  1  0.49756755  0.34271177  0.13470766  1
  In  In63  1  0.51593890  0.33503302  0.62591335  1
  In  In64  1  0.50169340  0.67372124  0.11454477  1
  In  In65  1  0.49791915  0.65069387  0.63044328  1
  In  In66  1  0.81861033  -0.01553793  0.11021637  1
  In  In67  1  0.84852093  -0.00250904  0.62786790  1
  In  In68  1  0.80981900  0.31849909  0.10157701  1
  In  In69  1  0.83314728  0.34714713  0.63870938  1
  In  In70  1  0.81776188  0.65354167  0.11266037  1
  In  In71  1  0.84627096  0.66781570  0.60911227  1
  In  In72  1  0.50064809  0.49547467  0.49467869  1
  In  In73  1  0.00174362  0.66340400  0.75015551  1
  In  In74  1  0.50420223  0.16449887  0.00022093  1
  In  In75  1  0.15547203  0.16328514  -0.00845887  1
  In  In76  1  0.34613689  0.00041840  0.24493677  1
  In  In77  1  -0.00643903  0.66752360  0.24838535  1
  In  In78  1  0.33947139  0.66157675  0.24895633  1
  In  In79  1  -0.00846810  0.00424668  0.24970792  1
  In  In80  1  0.66644158  0.65451393  0.75354754  1
  In  In81  1  0.00045061  0.33967260  0.25365804  1
  In  In82  1  0.83991800  0.16421162  0.50207488  1
  In  In83  1  0.33917089  0.33360657  0.75363343  1
  In  In84  1  0.49812645  0.83564031  0.49692460  1
  In  In85  1  0.66637567  0.00405945  0.75581676  1
  Cu  Cu86  1  0.82980663  0.17224281  0.75231722  1
  Cu  Cu87  1  0.67064438  -0.00454436  0.49386231  1
  Cu  Cu88  1  0.82216783  0.82696957  0.24392199  1
  Cu  Cu89  1  0.50666466  0.83270276  0.24096435  1
  Cu  Cu90  1  0.82270997  0.16294990  0.24388143  1
  Cu  Cu91  1  0.33669612  0.33597166  0.50295734  1
  Cu  Cu92  1  0.83312125  0.49492900  0.24166810  1
  Cu  Cu93  1  0.33155965  0.00654239  0.50593112  1
  Cu  Cu94  1  0.16372574  0.83174121  0.24891730  1
  Cu  Cu95  1  0.66400913  -0.00003593  -0.00132489  1
  Cu  Cu96  1  0.17085239  0.16386699  0.74883833  1
  Cu  Cu97  1  0.17633928  0.17668689  0.25924514  1
  Cu  Cu98  1  0.00589400  -0.00406476  0.50708974  1
  Cu  Cu99  1  0.49854237  0.50058138  0.76131924  1
  Cu  Cu100  1  0.67555765  0.66186988  0.49348246  1
  Cu  Cu101  1  -0.00217353  0.34007889  -0.00651174  1
  Cu  Cu102  1  0.49858460  0.17355334  0.25243925  1
  Cu  Cu103  1  0.84006902  0.83878528  0.75363839  1
  Cu  Cu104  1  0.32681875  -0.01120685  -0.00597823  1
  Cu  Cu105  1  0.66469615  0.67031624  0.00193520  1
  Cu  Cu106  1  0.16828970  0.83303895  0.74840253  1
  Cu  Cu107  1  0.50225028  0.16467089  0.75001758  1
  Cu  Cu108  1  0.32886510  0.67738321  0.50669520  1
  Cu  Cu109  1  0.00390480  0.67228241  -0.00734592  1
  Cu  Cu110  1  0.67244966  0.33362253  0.50094772  1
  Cu  Cu111  1  0.00435345  0.33090380  0.50609679  1
  Cu  Cu112  1  0.49010569  0.82657841  0.75668549  1
  Cu  Cu113  1  0.17098490  0.49986283  0.25282685  1
  Cu  Cu114  1  0.32987739  0.33128580  0.00020828  1
  Se  Se115  1  0.07576199  0.08054276  0.06354868  1
  Se  Se116  1  0.08469863  0.08523799  0.55747073  1
  Se  Se117  1  0.08422485  0.41728994  0.04953144  1
  Se  Se118  1  0.08745835  0.41603452  0.55698920  1
  Se  Se119  1  0.08537872  0.75167069  0.05040025  1
  Se  Se120  1  0.07617630  0.74348184  0.54895268  1
  Se  Se121  1  0.40548934  0.07149392  0.05480349  1
  Se  Se122  1  0.42294346  0.08706527  0.55272469  1
  Se  Se123  1  0.41293076  0.40831385  0.05783750  1
  Se  Se124  1  0.41290105  0.41675413  0.56654455  1
  Se  Se125  1  0.40851393  0.73452827  0.04146909  1
  Se  Se126  1  0.41724009  0.74866813  0.56611509  1
  Se  Se127  1  0.74175921  0.08681088  0.05396632  1
  Se  Se128  1  0.74642216  0.07347453  0.56068580  1
  Se  Se129  1  0.77424689  0.44618704  0.05769496  1
  Se  Se130  1  0.75390518  0.41355467  0.55758735  1
  Se  Se131  1  0.75235694  0.75690822  0.05015049  1
  Se  Se132  1  0.75492299  0.75011359  0.54547930  1
  Se  Se133  1  0.24947273  0.24773746  0.05779471  1
  Se  Se134  1  0.25187532  0.25064635  0.55436065  1
  Se  Se135  1  0.24276769  0.57379929  0.04654577  1
  Se  Se136  1  0.25446495  0.58521088  0.55856564  1
  Se  Se137  1  0.24047843  0.91122756  0.04855909  1
  Se  Se138  1  0.25036215  0.91932174  0.55734177  1
  Se  Se139  1  0.58433492  0.25464010  0.06397277  1
  Se  Se140  1  0.58581753  0.25067488  0.55079905  1
  Se  Se141  1  0.58810776  0.58196792  0.05577946  1
  Se  Se142  1  0.59340494  0.58609794  0.55615881  1
  Se  Se143  1  0.58015029  0.91638594  0.05110633  1
  Se  Se144  1  0.59188799  0.91968344  0.56070366  1
  Se  Se145  1  0.91819599  0.25127651  0.04474307  1
  Se  Se146  1  0.92110500  0.25362430  0.56728594  1
  Se  Se147  1  0.92214222  0.59073735  0.04980924  1
  Se  Se148  1  0.91290395  0.56816220  0.54771035  1
  Se  Se149  1  0.92240437  0.92689198  0.04697335  1
  Se  Se150  1  0.91627875  0.91299883  0.55399011  1
  Se  Se151  1  0.08858462  0.24912586  0.45245453  1
  Se  Se152  1  0.07923194  0.26322735  0.93063259  1
  Se  Se153  1  0.10059775  0.56951694  0.45615142  1
  Se  Se154  1  0.07822141  0.58434422  0.93643255  1
  Se  Se155  1  0.08665352  0.91403419  0.44931204  1
  Se  Se156  1  0.08317380  0.92417461  0.94870457  1
  Se  Se157  1  0.42367016  0.25823231  0.44779661  1
  Se  Se158  1  0.41116598  0.25361300  0.94020085  1
  Se  Se159  1  0.40969519  0.59859622  0.44458837  1
  Se  Se160  1  0.43940862  0.55918103  0.95450176  1
  Se  Se161  1  0.40650820  0.92892100  0.43813601  1
  Se  Se162  1  0.41717628  0.91112924  0.94355805  1
  Se  Se163  1  0.74964957  0.25064318  0.43910675  1
  Se  Se164  1  0.75018119  0.26187368  0.95301969  1
  Se  Se165  1  0.74771905  0.57346868  0.43609387  1
  Se  Se166  1  0.74688102  0.58830106  0.94646792  1
  Se  Se167  1  0.75287966  0.90971550  0.44375169  1
  Se  Se168  1  0.75163460  0.91811920  0.94719550  1
  Se  Se169  1  0.24787004  0.08853977  0.45011206  1
  Se  Se170  1  0.25392171  0.07681209  0.93547875  1
  Se  Se171  1  0.25332398  0.42184281  0.45221369  1
  Se  Se172  1  0.24380119  0.41229023  0.94735972  1
  Se  Se173  1  0.24742472  0.76141422  0.45252722  1
  Se  Se174  1  0.24975115  0.74555159  0.94832364  1
  Se  Se175  1  0.58501333  0.08296099  0.44849829  1
  Se  Se176  1  0.59070142  0.07928294  0.93270476  1
  Se  Se177  1  0.59588541  0.41202607  0.43631937  1
  Se  Se178  1  0.58239042  0.40876143  0.95935765  1
  Se  Se179  1  0.58766528  0.74205029  0.43833421  1
  Se  Se180  1  0.57916272  0.75480565  0.95124931  1
  Se  Se181  1  0.92727215  0.07152806  0.43929854  1
  Se  Se182  1  0.91514538  0.09757207  0.95039841  1
  Se  Se183  1  0.91751256  0.40753459  0.44954934  1
  Se  Se184  1  0.91536658  0.42491104  0.94117399  1
  Se  Se185  1  0.92759927  0.72900337  0.44363522  1
  Se  Se186  1  0.91391283  0.75571977  0.94597099  1
  Se  Se187  1  0.25356473  0.26435687  0.31076082  1
  Se  Se188  1  0.24091094  0.24738090  0.81319119  1
  Se  Se189  1  0.23965302  0.58885898  0.31434485  1
  Se  Se190  1  0.24958055  0.56842006  0.80822642  1
  Se  Se191  1  0.24492358  0.91602414  0.30466627  1
  Se  Se192  1  0.25293242  0.91515591  0.80326717  1
  Se  Se193  1  0.58460970  0.25452543  0.30506931  1
  Se  Se194  1  0.58221689  0.25045595  0.80241947  1
  Se  Se195  1  0.57671201  0.57759028  0.28898902  1
  Se  Se196  1  0.58081252  0.57764067  0.82276180  1
  Se  Se197  1  0.58214619  0.91881311  0.29842738  1
  Se  Se198  1  0.57934106  0.90476790  0.81125419  1
  Se  Se199  1  0.90869221  0.23727810  0.30483824  1
  Se  Se200  1  0.91261222  0.25395608  0.80695944  1
  Se  Se201  1  0.91229220  0.57004921  0.30760336  1
  Se  Se202  1  0.90091053  0.57694109  0.80175268  1
  Se  Se203  1  0.90727991  0.90252722  0.30547458  1
  Se  Se204  1  0.92120383  0.92174073  0.80657064  1
  Se  Se205  1  0.09064761  0.09132000  0.30894121  1
  Se  Se206  1  0.08219110  0.08377698  0.80127059  1
  Se  Se207  1  0.08411096  0.43106325  0.31647232  1
  Se  Se208  1  0.06242200  0.41140315  0.78882317  1
  Se  Se209  1  0.08475844  0.75587352  0.31096637  1
  Se  Se210  1  0.08759669  0.75567144  0.81124232  1
  Se  Se211  1  0.41745954  0.09421796  0.31445051  1
  Se  Se212  1  0.41598162  0.07834516  0.79525281  1
  Se  Se213  1  0.42760729  0.44030848  0.30616364  1
  Se  Se214  1  0.41562174  0.42377860  0.82127160  1
  Se  Se215  1  0.42884425  0.75867449  0.30792314  1
  Se  Se216  1  0.41242131  0.74129376  0.81108464  1
  Se  Se217  1  0.74462681  0.07994581  0.30191296  1
  Se  Se218  1  0.75702186  0.08932092  0.81656786  1
  Se  Se219  1  0.75248671  0.40978855  0.29706442  1
  Se  Se220  1  0.74171817  0.41804371  0.80638375  1
  Se  Se221  1  0.74429718  0.74428882  0.30215078  1
  Se  Se222  1  0.75745264  0.75479645  0.80711941  1
  Se  Se223  1  0.24671372  0.09442781  0.19326912  1
  Se  Se224  1  0.25422898  0.07932137  0.69755197  1
  Se  Se225  1  0.25307453  0.41780289  0.19890160  1
  Se  Se226  1  0.24487893  0.41744503  0.69430657  1
  Se  Se227  1  0.24273849  0.75074636  0.19057087  1
  Se  Se228  1  0.24995923  0.74494589  0.69806018  1
  Se  Se229  1  0.57598028  0.08310582  0.20060587  1
  Se  Se230  1  0.58387678  0.08935024  0.68629415  1
  Se  Se231  1  0.59788776  0.40886577  0.19757583  1
  Se  Se232  1  0.57975078  0.42172511  0.70214270  1
  Se  Se233  1  0.58579533  0.74602717  0.18907825  1
  Se  Se234  1  0.57542942  0.75288505  0.69534375  1
  Se  Se235  1  0.90604874  0.08823386  0.18348432  1
  Se  Se236  1  0.91186566  0.08215953  0.70379936  1
  Se  Se237  1  0.91248795  0.41371226  0.18317560  1
  Se  Se238  1  0.93696410  0.41047788  0.70137420  1
  Se  Se239  1  0.90677728  0.75351822  0.18371136  1
  Se  Se240  1  0.91214353  0.75628997  0.68949381  1
  Se  Se241  1  0.09368956  0.24851097  0.19438258  1
  Se  Se242  1  0.08509601  0.24552790  0.69729776  1
  Se  Se243  1  0.08879008  0.57702752  0.19179952  1
  Se  Se244  1  0.09153775  0.58023923  0.68744898  1
  Se  Se245  1  0.08372052  0.91275559  0.19105287  1
  Se  Se246  1  0.08193571  0.91557553  0.69600480  1
  Se  Se247  1  0.41263976  0.25635428  0.20202319  1
  Se  Se248  1  0.42249277  0.24423725  0.68735945  1
  Se  Se249  1  0.42108180  0.57770124  0.18224906  1
  Se  Se250  1  0.41733292  0.58626939  0.70874079  1
  Se  Se251  1  0.41712166  0.90092644  0.18013299  1
  Se  Se252  1  0.41698111  0.91573238  0.70076268  1
  Se  Se253  1  0.74896770  0.25461036  0.19081570  1
  Se  Se254  1  0.74704206  0.25765499  0.70134491  1
  Se  Se255  1  0.75047918  0.58676055  0.19665791  1
  Se  Se256  1  0.76017277  0.58450627  0.68418898  1
  Se  Se257  1  0.74528300  0.91869886  0.19269162  1
  Se  Se258  1  0.75132787  0.90937428  0.69245406  1
