# generated using pymatgen
data_In86Cu29Se144
_symmetry_space_group_name_H-M   'P 1'
_cell_length_a   17.58867213
_cell_length_b   17.58815975
_cell_length_c   23.44521648
_cell_angle_alpha   89.98802130
_cell_angle_beta   89.97232291
_cell_angle_gamma   90.01319999
_symmetry_Int_Tables_number   1
_chemical_formula_structural   In86Cu29Se144
_chemical_formula_sum   'In86 Cu29 Se144'
_cell_volume   7252.83220745
_cell_formula_units_Z   1
loop_
 _symmetry_equiv_pos_site_id
 _symmetry_equiv_pos_as_xyz
  1  'x, y, z'
loop_
 _atom_site_type_symbol
 _atom_site_label
 _atom_site_symmetry_multiplicity
 _atom_site_fract_x
 _atom_site_fract_y
 _atom_site_fract_z
 _atom_site_occupancy
  In  In0  1  -0.01288276  0.15282165  0.11832981  1
  In  In1  1  0.00172605  0.16601672  0.63096865  1
  In  In2  1  0.00472618  0.50284249  0.11768891  1
  In  In3  1  -0.01692356  0.49446134  0.62406915  1
  In  In4  1  -0.01194853  0.84362841  0.13316292  1
  In  In5  1  0.00678405  0.83756577  0.62626450  1
  In  In6  1  0.33559281  0.16288163  0.12403917  1
  In  In7  1  0.32580641  0.17822442  0.62094873  1
  In  In8  1  0.32434398  0.50558077  0.12965552  1
  In  In9  1  0.34875363  0.50861081  0.62537936  1
  In  In10  1  0.34162437  0.82861924  0.12774998  1
  In  In11  1  0.33659232  0.82669024  0.62485684  1
  In  In12  1  0.66903523  0.16617461  0.12961068  1
  In  In13  1  0.68033052  0.17141271  0.62204798  1
  In  In14  1  0.67849094  0.48683244  0.13128401  1
  In  In15  1  0.67528482  0.48737940  0.62549163  1
  In  In16  1  0.66783034  0.83323035  0.12797386  1
  In  In17  1  0.66096248  0.84532976  0.61221263  1
  In  In18  1  0.16724080  0.00289386  0.36831823  1
  In  In19  1  0.16131453  0.02250458  0.88559782  1
  In  In20  1  0.16069818  0.31628109  0.37289190  1
  In  In21  1  0.15847647  0.33784747  0.88446115  1
  In  In22  1  0.17166221  0.67399237  0.36126995  1
  In  In23  1  0.16486586  0.65359389  0.87578316  1
  In  In24  1  0.49825863  -0.00315149  0.36948318  1
  In  In25  1  0.49661314  -0.00083143  0.89536162  1
  In  In26  1  0.50577621  0.34256314  0.36265992  1
  In  In27  1  0.50130630  0.32329598  0.87727656  1
  In  In28  1  0.51764058  0.68285567  0.36216308  1
  In  In29  1  0.49841165  0.68190893  0.87877343  1
  In  In30  1  0.83321872  0.00371476  0.35956683  1
  In  In31  1  0.84127942  -0.00872856  0.88161018  1
  In  In32  1  0.83178358  0.33765862  0.37406049  1
  In  In33  1  0.83206158  0.33358138  0.87577295  1
  In  In34  1  0.81652539  0.65075959  0.36401206  1
  In  In35  1  0.83681137  0.66444434  0.88616614  1
  In  In36  1  0.00176781  0.16587130  0.37203595  1
  In  In37  1  -0.00226787  0.16715671  0.87826444  1
  In  In38  1  -0.01997668  0.49410370  0.37397542  1
  In  In39  1  0.00272910  0.49170915  0.87870332  1
  In  In40  1  0.00624850  0.83642646  0.36507129  1
  In  In41  1  -0.01395336  0.83118221  0.87774795  1
  In  In42  1  0.32568289  0.15735286  0.36325441  1
  In  In43  1  0.33273797  0.16319024  0.89359254  1
  In  In44  1  0.34091035  0.50556815  0.36143231  1
  In  In45  1  0.31842198  0.49881613  0.87522222  1
  In  In46  1  0.34587681  0.84521101  0.36387295  1
  In  In47  1  0.34655856  0.83905552  0.88139653  1
  In  In48  1  0.67045050  0.16408685  0.35919737  1
  In  In49  1  0.66104297  0.17355236  0.88148336  1
  In  In50  1  0.67240802  0.50484239  0.37170228  1
  In  In51  1  0.68217892  0.49406391  0.87843257  1
  In  In52  1  0.65918987  0.82732292  0.37174110  1
  In  In53  1  0.66324070  0.83787959  0.88772976  1
  In  In54  1  0.16039986  0.00897779  0.12705761  1
  In  In55  1  0.15037103  0.00862987  0.62604243  1
  In  In56  1  0.17096630  0.33709790  0.11808186  1
  In  In57  1  0.16687505  0.31525802  0.62312177  1
  In  In58  1  0.17010666  0.65938055  0.12973715  1
  In  In59  1  0.17461085  0.67982327  0.62496067  1
  In  In60  1  0.49925029  0.00358433  0.12315263  1
  In  In61  1  0.50778863  -0.01102852  0.61829613  1
  In  In62  1  0.51179204  0.31667003  0.13243922  1
  In  In63  1  0.50555962  0.34399397  0.62526651  1
  In  In64  1  0.49443945  0.67486365  0.13125050  1
  In  In65  1  0.49487495  0.67091984  0.62526209  1
  In  In66  1  0.83435382  0.00082743  0.13097367  1
  In  In67  1  0.83780682  0.00967973  0.62358998  1
  In  In68  1  0.82220065  0.32105416  0.11656623  1
  In  In69  1  0.82675118  0.34733294  0.64563015  1
  In  In70  1  0.83190447  0.66682026  0.12630471  1
  In  In71  1  0.83828397  0.66019579  0.61983928  1
  In  In72  1  0.83243721  0.83031111  0.49248212  1
  In  In73  1  0.49892147  0.16637226  0.49401304  1
  In  In74  1  0.00182086  0.65926500  0.75614739  1
  In  In75  1  0.32656113  0.33833688  0.75426989  1
  In  In76  1  0.50805022  0.50501756  0.49580499  1
  In  In77  1  0.83326321  0.16517894  0.49450688  1
  In  In78  1  0.66974747  0.00532019  0.74648459  1
  In  In79  1  0.16627847  0.83306323  0.01116702  1
  In  In80  1  0.33030262  0.00488778  0.76640851  1
  In  In81  1  0.66692335  0.66409195  0.74659085  1
  In  In82  1  -0.00531619  0.32867234  0.24848165  1
  In  In83  1  0.49734895  0.50129179  0.01194191  1
  In  In84  1  0.16396558  0.49922081  0.49661007  1
  In  In85  1  0.17011827  0.83915712  0.49778598  1
  Cu  Cu86  1  0.16733266  0.16771028  0.24600443  1
  Cu  Cu87  1  0.16734336  0.50281505  0.75071069  1
  Cu  Cu88  1  0.49772738  0.49839102  0.24318618  1
  Cu  Cu89  1  -0.00106267  0.32945966  0.00054249  1
  Cu  Cu90  1  -0.00773665  0.32587086  0.49852328  1
  Cu  Cu91  1  0.67123181  0.33143378  0.00450724  1
  Cu  Cu92  1  0.16826865  0.83434159  0.24160588  1
  Cu  Cu93  1  0.50308729  0.83562357  0.24663465  1
  Cu  Cu94  1  0.66890784  0.67018328  0.00433086  1
  Cu  Cu95  1  0.49715410  0.83734258  0.75702357  1
  Cu  Cu96  1  -0.00343887  0.00222101  0.00507387  1
  Cu  Cu97  1  0.32859228  0.66314353  0.00644645  1
  Cu  Cu98  1  0.33271374  0.32930522  0.00342751  1
  Cu  Cu99  1  0.50569675  0.50568133  0.74752944  1
  Cu  Cu100  1  0.83163336  0.83057984  0.24994996  1
  Cu  Cu101  1  0.84038768  0.16786306  0.75347045  1
  Cu  Cu102  1  -0.00647906  0.66575097  0.00120076  1
  Cu  Cu103  1  0.16286385  0.49928713  0.24527338  1
  Cu  Cu104  1  0.67130988  0.00164504  0.00968351  1
  Cu  Cu105  1  0.83310030  0.83173669  0.75603421  1
  Cu  Cu106  1  0.32776973  0.32836451  0.49153454  1
  Cu  Cu107  1  0.16003703  0.16832583  0.75519452  1
  Cu  Cu108  1  0.34388135  0.67520192  0.49755115  1
  Cu  Cu109  1  -0.00720671  0.66031375  0.49262205  1
  Cu  Cu110  1  0.49657581  0.16168707  0.24619824  1
  Cu  Cu111  1  0.83395621  0.50109098  0.24756691  1
  Cu  Cu112  1  0.33060060  0.00192821  0.49015883  1
  Cu  Cu113  1  0.17079005  0.83825741  0.74758932  1
  Cu  Cu114  1  0.50660320  0.17300902  0.75450447  1
  Se  Se115  1  0.08552753  0.08636307  0.05053877  1
  Se  Se116  1  0.08230158  0.09374696  0.55526324  1
  Se  Se117  1  0.08389701  0.41596583  0.05005145  1
  Se  Se118  1  0.07694907  0.40718492  0.55722921  1
  Se  Se119  1  0.07155689  0.74312410  0.06551793  1
  Se  Se120  1  0.07431173  0.74072122  0.55202450  1
  Se  Se121  1  0.42933238  0.09626955  0.05455215  1
  Se  Se122  1  0.40763214  0.07850506  0.55880044  1
  Se  Se123  1  0.41070272  0.40586978  0.06815332  1
  Se  Se124  1  0.40819647  0.40943897  0.55118713  1
  Se  Se125  1  0.41652115  0.74624457  0.05324064  1
  Se  Se126  1  0.42426906  0.75806669  0.55219914  1
  Se  Se127  1  0.75535161  0.08603684  0.06023106  1
  Se  Se128  1  0.73898737  0.06996503  0.55188811  1
  Se  Se129  1  0.75455145  0.42113207  0.05021402  1
  Se  Se130  1  0.75595734  0.40406479  0.55959956  1
  Se  Se131  1  0.75283704  0.75376508  0.05694246  1
  Se  Se132  1  0.74451720  0.74266313  0.55730688  1
  Se  Se133  1  0.24853444  0.24388986  0.05411721  1
  Se  Se134  1  0.24478622  0.24586991  0.54434025  1
  Se  Se135  1  0.24296370  0.57796720  0.05352124  1
  Se  Se136  1  0.26036494  0.59266337  0.55376190  1
  Se  Se137  1  0.25780836  0.92444640  0.06425854  1
  Se  Se138  1  0.25678361  0.92872951  0.56256256  1
  Se  Se139  1  0.58752347  0.24572482  0.05437426  1
  Se  Se140  1  0.58731493  0.25640909  0.55712553  1
  Se  Se141  1  0.59245507  0.58914145  0.06720271  1
  Se  Se142  1  0.59198008  0.58784276  0.56515611  1
  Se  Se143  1  0.58534633  0.91580581  0.05824988  1
  Se  Se144  1  0.57986107  0.91839304  0.54052496  1
  Se  Se145  1  0.91406455  0.24532836  0.05095523  1
  Se  Se146  1  0.91247749  0.25249749  0.56378784  1
  Se  Se147  1  0.91100486  0.58179894  0.05475420  1
  Se  Se148  1  0.91394669  0.57716737  0.54797906  1
  Se  Se149  1  0.91292496  0.91776033  0.05620847  1
  Se  Se150  1  0.92256628  0.91978144  0.55640766  1
  Se  Se151  1  0.07827485  0.24514389  0.44705928  1
  Se  Se152  1  0.08468717  0.24441453  0.94922469  1
  Se  Se153  1  0.08071572  0.58927709  0.43224810  1
  Se  Se154  1  0.07817006  0.58376011  0.94710697  1
  Se  Se155  1  0.07572965  0.92489784  0.44167854  1
  Se  Se156  1  0.07636213  0.91815594  0.94465747  1
  Se  Se157  1  0.41244608  0.25562655  0.43070096  1
  Se  Se158  1  0.42233027  0.25077220  0.95230790  1
  Se  Se159  1  0.41608727  0.59185421  0.43564867  1
  Se  Se160  1  0.41031205  0.58570373  0.94292042  1
  Se  Se161  1  0.41759295  0.91778620  0.44382996  1
  Se  Se162  1  0.42126723  0.90755626  0.95883249  1
  Se  Se163  1  0.73842514  0.25207821  0.43796519  1
  Se  Se164  1  0.75271518  0.24933116  0.94732816  1
  Se  Se165  1  0.75212745  0.57915128  0.44604265  1
  Se  Se166  1  0.74786985  0.58365465  0.95086042  1
  Se  Se167  1  0.74778385  0.92302070  0.43304753  1
  Se  Se168  1  0.75159380  0.91840258  0.95149031  1
  Se  Se169  1  0.24663014  0.08529608  0.44062948  1
  Se  Se170  1  0.26415494  0.06464578  0.95541440  1
  Se  Se171  1  0.25468785  0.41541002  0.43255526  1
  Se  Se172  1  0.25133792  0.41510762  0.94995840  1
  Se  Se173  1  0.25875116  0.74921339  0.43694547  1
  Se  Se174  1  0.25076207  0.74388733  0.94325887  1
  Se  Se175  1  0.59097225  0.08055234  0.43550989  1
  Se  Se176  1  0.58998235  0.08364031  0.95199946  1
  Se  Se177  1  0.59240043  0.40728563  0.44104588  1
  Se  Se178  1  0.58554740  0.41341562  0.94678700  1
  Se  Se179  1  0.58778127  0.74323476  0.44578629  1
  Se  Se180  1  0.58095320  0.75121965  0.95351451  1
  Se  Se181  1  0.92156540  0.07133017  0.43867730  1
  Se  Se182  1  0.91481725  0.08420218  0.94785816  1
  Se  Se183  1  0.91010082  0.41355815  0.44976507  1
  Se  Se184  1  0.91605441  0.41443509  0.94702413  1
  Se  Se185  1  0.92086342  0.74278203  0.42994597  1
  Se  Se186  1  0.91135811  0.75536667  0.95356819  1
  Se  Se187  1  0.24908649  0.25286132  0.29897035  1
  Se  Se188  1  0.24758109  0.24124680  0.81607828  1
  Se  Se189  1  0.24978166  0.58343327  0.29666946  1
  Se  Se190  1  0.25216786  0.58668929  0.80068765  1
  Se  Se191  1  0.24774901  0.91657153  0.30102105  1
  Se  Se192  1  0.23775121  0.91195282  0.82062739  1
  Se  Se193  1  0.57934990  0.24780713  0.29807544  1
  Se  Se194  1  0.59080575  0.25628607  0.80462583  1
  Se  Se195  1  0.58098082  0.57628861  0.30209154  1
  Se  Se196  1  0.57924809  0.58188362  0.81543281  1
  Se  Se197  1  0.58561770  0.91731106  0.30210945  1
  Se  Se198  1  0.57943812  0.92018310  0.81249510  1
  Se  Se199  1  0.90281138  0.23900427  0.30579599  1
  Se  Se200  1  0.92052094  0.25248673  0.80790314  1
  Se  Se201  1  0.91914659  0.58394093  0.29967833  1
  Se  Se202  1  0.90605112  0.57407670  0.81176629  1
  Se  Se203  1  0.91948915  0.91554367  0.29780693  1
  Se  Se204  1  0.91854829  0.91774680  0.80336170  1
  Se  Se205  1  0.08282453  0.08642185  0.30086006  1
  Se  Se206  1  0.07871451  0.08162795  0.80646972  1
  Se  Se207  1  0.08561229  0.42096629  0.30992245  1
  Se  Se208  1  0.09008145  0.41849118  0.80654497  1
  Se  Se209  1  0.08312964  0.75099983  0.29495892  1
  Se  Se210  1  0.09056738  0.75803097  0.81083021  1
  Se  Se211  1  0.41434609  0.07628305  0.29952116  1
  Se  Se212  1  0.43032699  0.09461099  0.81701926  1
  Se  Se213  1  0.41260645  0.41282867  0.29459451  1
  Se  Se214  1  0.42488855  0.42646030  0.81092820  1
  Se  Se215  1  0.41670001  0.74947450  0.29802073  1
  Se  Se216  1  0.41196646  0.75218453  0.80534506  1
  Se  Se217  1  0.74865735  0.08061121  0.29130218  1
  Se  Se218  1  0.75735807  0.08698938  0.81295116  1
  Se  Se219  1  0.75186541  0.41779139  0.30273027  1
  Se  Se220  1  0.74602953  0.40990826  0.80454036  1
  Se  Se221  1  0.74489887  0.74841817  0.30142390  1
  Se  Se222  1  0.75073458  0.75404151  0.81402373  1
  Se  Se223  1  0.25186309  0.08232633  0.19561473  1
  Se  Se224  1  0.24753437  0.09216503  0.69654093  1
  Se  Se225  1  0.24603935  0.41343395  0.19530444  1
  Se  Se226  1  0.24449482  0.42569867  0.68359961  1
  Se  Se227  1  0.25291668  0.74757776  0.19378007  1
  Se  Se228  1  0.25491253  0.75281409  0.69929446  1
  Se  Se229  1  0.58450993  0.07988969  0.19572773  1
  Se  Se230  1  0.57419027  0.09296998  0.68668715  1
  Se  Se231  1  0.58514942  0.41273983  0.19683660  1
  Se  Se232  1  0.58639478  0.41743340  0.69877392  1
  Se  Se233  1  0.58691380  0.74769854  0.19825323  1
  Se  Se234  1  0.58019391  0.76605691  0.69279067  1
  Se  Se235  1  0.92246234  0.07963797  0.19881970  1
  Se  Se236  1  0.91768647  0.08068204  0.69856509  1
  Se  Se237  1  0.91066471  0.41905977  0.18531185  1
  Se  Se238  1  0.92981776  0.41419920  0.70514014  1
  Se  Se239  1  0.91599926  0.74663104  0.19752032  1
  Se  Se240  1  0.91301200  0.75299680  0.69350275  1
  Se  Se241  1  0.08462494  0.24461104  0.18474213  1
  Se  Se242  1  0.08216661  0.25354357  0.69990001  1
  Se  Se243  1  0.07693828  0.58184313  0.19502906  1
  Se  Se244  1  0.09076885  0.58048509  0.68464662  1
  Se  Se245  1  0.08248384  0.92147442  0.19560785  1
  Se  Se246  1  0.08289944  0.91922066  0.69856512  1
  Se  Se247  1  0.41230483  0.24864117  0.19682395  1
  Se  Se248  1  0.42102942  0.24851635  0.69361923  1
  Se  Se249  1  0.41299617  0.58503005  0.19559336  1
  Se  Se250  1  0.41922714  0.59058418  0.69996367  1
  Se  Se251  1  0.41852430  0.91863171  0.19447598  1
  Se  Se252  1  0.41821659  0.92019637  0.69664938  1
  Se  Se253  1  0.74229691  0.26125654  0.19575376  1
  Se  Se254  1  0.74913314  0.24483892  0.70159237  1
  Se  Se255  1  0.74780645  0.58481800  0.19656091  1
  Se  Se256  1  0.76355178  0.57494876  0.69467550  1
  Se  Se257  1  0.74914431  0.91595615  0.19775319  1
  Se  Se258  1  0.75732676  0.90738049  0.68921479  1
