# generated using pymatgen
data_In86Cu29Se144
_symmetry_space_group_name_H-M   'P 1'
_cell_length_a   17.58189756
_cell_length_b   17.57975106
_cell_length_c   23.43963756
_cell_angle_alpha   89.99339269
_cell_angle_beta   89.99845537
_cell_angle_gamma   90.00200133
_symmetry_Int_Tables_number   1
_chemical_formula_structural   In86Cu29Se144
_chemical_formula_sum   'In86 Cu29 Se144'
_cell_volume   7244.84928087
_cell_formula_units_Z   1
loop_
 _symmetry_equiv_pos_site_id
 _symmetry_equiv_pos_as_xyz
  1  'x, y, z'
loop_
 _atom_site_type_symbol
 _atom_site_label
 _atom_site_symmetry_multiplicity
 _atom_site_fract_x
 _atom_site_fract_y
 _atom_site_fract_z
 _atom_site_occupancy
  In  In0  1  0.01395336  0.15710573  0.13197858  1
  In  In1  1  0.00148990  0.16428359  0.62824082  1
  In  In2  1  -0.00356648  0.50270955  0.12325249  1
  In  In3  1  0.00057275  0.48574667  0.62659110  1
  In  In4  1  -0.00166820  0.83596823  0.13490320  1
  In  In5  1  0.01184040  0.84368379  0.61429299  1
  In  In6  1  0.32191440  0.21423671  0.13747181  1
  In  In7  1  0.33328533  0.16436172  0.61324612  1
  In  In8  1  0.33070671  0.49407472  0.12077119  1
  In  In9  1  0.33273863  0.51487943  0.62734326  1
  In  In10  1  0.33295493  0.82719251  0.13717717  1
  In  In11  1  0.32911357  0.82946856  0.61662980  1
  In  In12  1  0.67098907  0.16725140  0.13151443  1
  In  In13  1  0.66012656  0.17413689  0.62530304  1
  In  In14  1  0.66514026  0.50169291  0.12603158  1
  In  In15  1  0.66183592  0.49731765  0.62652475  1
  In  In16  1  0.65522191  0.82391100  0.13096139  1
  In  In17  1  0.68684483  0.85127370  0.59511798  1
  In  In18  1  0.15860312  0.00621401  0.38005407  1
  In  In19  1  0.16257988  0.01208580  0.87569530  1
  In  In20  1  0.17188044  0.33478101  0.37249530  1
  In  In21  1  0.15522937  0.34448552  0.88689525  1
  In  In22  1  0.16533792  0.66512778  0.37350899  1
  In  In23  1  0.16856225  0.65101359  0.87708272  1
  In  In24  1  0.50764831  -0.00280682  0.39036084  1
  In  In25  1  0.50602106  -0.00734275  0.86919609  1
  In  In26  1  0.49269257  0.32218615  0.36198267  1
  In  In27  1  0.51018362  0.32906491  0.87823119  1
  In  In28  1  0.50975116  0.68439006  0.35508370  1
  In  In29  1  0.48811569  0.66729512  0.87221710  1
  In  In30  1  0.83101467  -0.01750521  0.38250001  1
  In  In31  1  0.83628040  0.00593593  0.86197362  1
  In  In32  1  0.83680375  0.33530750  0.36471336  1
  In  In33  1  0.84046281  0.33713151  0.87280878  1
  In  In34  1  0.83517999  0.67158106  0.37138300  1
  In  In35  1  0.82754591  0.66341402  0.88407197  1
  In  In36  1  0.01175105  0.17950985  0.36579127  1
  In  In37  1  0.00242610  0.16720666  0.87055099  1
  In  In38  1  0.01147357  0.51009589  0.36364418  1
  In  In39  1  0.01452333  0.49321346  0.89144648  1
  In  In40  1  -0.00012109  0.83273175  0.37506460  1
  In  In41  1  -0.00863810  0.83559394  0.87045904  1
  In  In42  1  0.33062430  0.16937882  0.38007839  1
  In  In43  1  0.32335586  0.16730550  0.88211133  1
  In  In44  1  0.32851968  0.49486539  0.36754061  1
  In  In45  1  0.32014292  0.50549414  0.88645352  1
  In  In46  1  0.34096598  0.81813812  0.37821138  1
  In  In47  1  0.34921567  0.83298634  0.86951899  1
  In  In48  1  0.64765400  0.16279688  0.37732804  1
  In  In49  1  0.67041772  0.16991947  0.86423389  1
  In  In50  1  0.66298539  0.49894254  0.36745755  1
  In  In51  1  0.67632852  0.48904035  0.88511665  1
  In  In52  1  0.66973916  0.82914645  0.38943039  1
  In  In53  1  0.65848434  0.83402977  0.86637128  1
  In  In54  1  0.15212992  0.00807370  0.12775859  1
  In  In55  1  0.16274839  -0.00095126  0.61866897  1
  In  In56  1  0.16238221  0.33227590  0.12264022  1
  In  In57  1  0.16247059  0.32625934  0.61917956  1
  In  In58  1  0.17149048  0.65697037  0.13105232  1
  In  In59  1  0.17478040  0.67336072  0.61698699  1
  In  In60  1  0.50012801  0.00028700  0.12745072  1
  In  In61  1  0.51481794  0.00868444  0.60373830  1
  In  In62  1  0.47977934  0.34974643  0.14597468  1
  In  In63  1  0.51292342  0.33696894  0.62534769  1
  In  In64  1  0.51025317  0.65572053  0.14045791  1
  In  In65  1  0.49658448  0.66424008  0.62251769  1
  In  In66  1  0.84325629  0.00927759  0.12483511  1
  In  In67  1  0.84344176  -0.00574206  0.62675898  1
  In  In68  1  0.82392141  0.34201271  0.13232423  1
  In  In69  1  0.83448258  0.33301508  0.63231493  1
  In  In70  1  0.85170419  0.64868225  0.13778078  1
  In  In71  1  0.82604400  0.68122322  0.61861783  1
  In  In72  1  0.66444398  0.66896499  0.74334288  1
  In  In73  1  0.33308615  -0.00084946  0.74936485  1
  In  In74  1  0.67550733  -0.00515147  0.26339517  1
  In  In75  1  0.83979938  0.50586335  0.49190427  1
  In  In76  1  0.49885284  0.82986968  -0.00155976  1
  In  In77  1  0.83623233  0.16492422  0.50025623  1
  In  In78  1  0.84128123  0.17216891  -0.00770928  1
  In  In79  1  0.33418745  0.00151347  0.26010549  1
  In  In80  1  0.83596046  0.82654381  0.00489666  1
  In  In81  1  0.16525702  0.82852260  0.00430849  1
  In  In82  1  0.49641300  0.50458565  0.50062564  1
  In  In83  1  0.00234800  0.66097625  0.75371656  1
  In  In84  1  0.33475798  0.33562218  0.75788032  1
  In  In85  1  0.49290498  0.17251562  0.00620656  1
  Cu  Cu86  1  0.16160420  0.82867896  0.25278029  1
  Cu  Cu87  1  0.32451287  0.00917325  0.00653629  1
  Cu  Cu88  1  0.00093960  0.00077003  0.49941039  1
  Cu  Cu89  1  0.67156072  0.00109030  -0.00922679  1
  Cu  Cu90  1  0.16468856  0.49421792  0.24541482  1
  Cu  Cu91  1  0.83565791  0.83840965  0.74145352  1
  Cu  Cu92  1  0.66096435  0.34133392  0.00626343  1
  Cu  Cu93  1  0.49475005  0.49822294  0.24803252  1
  Cu  Cu94  1  0.50377369  0.83897019  0.73969285  1
  Cu  Cu95  1  0.84177581  0.16600549  0.24945776  1
  Cu  Cu96  1  0.82547502  0.16322357  0.74487115  1
  Cu  Cu97  1  0.82963769  0.50585695  0.24777053  1
  Cu  Cu98  1  0.83632546  0.49438053  0.75501223  1
  Cu  Cu99  1  -0.00635673  0.33306527  0.00462097  1
  Cu  Cu100  1  0.32808515  0.65917754  0.49436759  1
  Cu  Cu101  1  0.01443721  0.33484390  0.49607339  1
  Cu  Cu102  1  0.33355056  0.66255961  0.00294928  1
  Cu  Cu103  1  0.16721600  0.83312645  0.73995290  1
  Cu  Cu104  1  0.82993928  0.83225021  0.25521427  1
  Cu  Cu105  1  0.15510730  0.17008679  0.74841009  1
  Cu  Cu106  1  0.50303114  0.50092904  0.74862634  1
  Cu  Cu107  1  0.66386572  0.65536498  0.00845204  1
  Cu  Cu108  1  0.00095649  0.66728236  0.49266718  1
  Cu  Cu109  1  0.17131911  0.17063904  0.25218707  1
  Cu  Cu110  1  0.16722553  0.49637510  0.75814196  1
  Cu  Cu111  1  0.50260845  0.16627073  0.74496082  1
  Cu  Cu112  1  0.66449228  0.33235165  0.49898331  1
  Cu  Cu113  1  0.32770812  -0.00231251  0.49617738  1
  Cu  Cu114  1  0.33286175  0.33506464  0.49301098  1
  Se  Se115  1  0.07947017  0.08213161  0.05108264  1
  Se  Se116  1  0.08053376  0.08782957  0.55375521  1
  Se  Se117  1  0.07913260  0.41733847  0.05531948  1
  Se  Se118  1  0.08945536  0.42191278  0.55256078  1
  Se  Se119  1  0.07616500  0.74344809  0.06614750  1
  Se  Se120  1  0.08454366  0.74879327  0.54983247  1
  Se  Se121  1  0.40479575  0.08440834  0.06893706  1
  Se  Se122  1  0.41520129  0.08425790  0.54444682  1
  Se  Se123  1  0.41601781  0.40527314  0.05846531  1
  Se  Se124  1  0.40792673  0.41106628  0.56199187  1
  Se  Se125  1  0.41351409  0.74331888  0.06305468  1
  Se  Se126  1  0.41045277  0.73928566  0.55218100  1
  Se  Se127  1  0.74669255  0.08110853  0.05326387  1
  Se  Se128  1  0.74845664  0.08067447  0.56305512  1
  Se  Se129  1  0.75094419  0.42084979  0.05617816  1
  Se  Se130  1  0.74908311  0.41312328  0.55535080  1
  Se  Se131  1  0.74263652  0.74074250  0.06442415  1
  Se  Se132  1  0.75281849  0.74446494  0.53822121  1
  Se  Se133  1  0.23543853  0.23949091  0.05396004  1
  Se  Se134  1  0.25025744  0.25185772  0.54964290  1
  Se  Se135  1  0.24676344  0.58159679  0.05397951  1
  Se  Se136  1  0.24697160  0.57723407  0.55082763  1
  Se  Se137  1  0.25608074  0.91868511  0.06612844  1
  Se  Se138  1  0.24498200  0.91534140  0.55158223  1
  Se  Se139  1  0.58781493  0.25566828  0.06580549  1
  Se  Se140  1  0.57884351  0.25070161  0.55084176  1
  Se  Se141  1  0.57247594  0.57877301  0.05819183  1
  Se  Se142  1  0.59690392  0.59125448  0.55504064  1
  Se  Se143  1  0.59320627  0.92417972  0.05454002  1
  Se  Se144  1  0.55874253  0.88874303  0.55042921  1
  Se  Se145  1  0.91835096  0.25197426  0.06729703  1
  Se  Se146  1  0.92526739  0.26275049  0.55600616  1
  Se  Se147  1  0.91302213  0.58348102  0.05292502  1
  Se  Se148  1  0.92588539  0.59072850  0.56123243  1
  Se  Se149  1  0.92716707  0.92365048  0.05616317  1
  Se  Se150  1  0.91541228  0.91570158  0.54909206  1
  Se  Se151  1  0.09256667  0.24726182  0.44325386  1
  Se  Se152  1  0.07245420  0.24961655  0.94619096  1
  Se  Se153  1  0.08403799  0.57981287  0.44450824  1
  Se  Se154  1  0.08685635  0.58982135  0.95376495  1
  Se  Se155  1  0.08251894  0.91433611  0.44634154  1
  Se  Se156  1  0.07924759  0.91735771  0.94017580  1
  Se  Se157  1  0.42107384  0.25305549  0.44425104  1
  Se  Se158  1  0.40494625  0.26185937  0.94396293  1
  Se  Se159  1  0.41395802  0.58822260  0.43230128  1
  Se  Se160  1  0.41909068  0.58423190  0.94676070  1
  Se  Se161  1  0.41146859  0.91252058  0.44607840  1
  Se  Se162  1  0.40773803  0.93238259  0.94574723  1
  Se  Se163  1  0.75001822  0.25752184  0.43939340  1
  Se  Se164  1  0.73756055  0.25898759  0.94286499  1
  Se  Se165  1  0.73969645  0.58858488  0.43853083  1
  Se  Se166  1  0.75163040  0.57882240  0.95338131  1
  Se  Se167  1  0.73810706  0.92685709  0.45513647  1
  Se  Se168  1  0.74921309  0.91530219  0.93562200  1
  Se  Se169  1  0.24599961  0.08630968  0.44682666  1
  Se  Se170  1  0.24080152  0.08702648  0.95110848  1
  Se  Se171  1  0.24965542  0.42069997  0.44394155  1
  Se  Se172  1  0.25024573  0.41264427  0.95176290  1
  Se  Se173  1  0.24524240  0.74801632  0.44521443  1
  Se  Se174  1  0.26365934  0.74962145  0.94024766  1
  Se  Se175  1  0.59538951  0.07699255  0.45613137  1
  Se  Se176  1  0.58537133  0.08411394  0.93910089  1
  Se  Se177  1  0.58260537  0.41163652  0.43962611  1
  Se  Se178  1  0.57709528  0.42004795  0.94978743  1
  Se  Se179  1  0.56890399  0.74698205  0.44315618  1
  Se  Se180  1  0.59381014  0.73810920  0.94126709  1
  Se  Se181  1  0.92707245  0.08278997  0.43547107  1
  Se  Se182  1  0.92350808  0.06992444  0.93993257  1
  Se  Se183  1  0.92938687  0.41131323  0.43672651  1
  Se  Se184  1  0.91246327  0.41619242  0.94886052  1
  Se  Se185  1  0.91425752  0.75095188  0.44457162  1
  Se  Se186  1  0.93037775  0.73981029  0.94437296  1
  Se  Se187  1  0.25770604  0.25101631  0.30465121  1
  Se  Se188  1  0.23615250  0.24602459  0.81046245  1
  Se  Se189  1  0.24344996  0.57970011  0.30220598  1
  Se  Se190  1  0.25525284  0.58218207  0.80393359  1
  Se  Se191  1  0.24168550  0.90873245  0.31453201  1
  Se  Se192  1  0.24245459  0.90880537  0.80983430  1
  Se  Se193  1  0.60205617  0.26049748  0.30427184  1
  Se  Se194  1  0.58134347  0.25243507  0.80013636  1
  Se  Se195  1  0.58225479  0.58113933  0.29768376  1
  Se  Se196  1  0.58471122  0.57974104  0.81134431  1
  Se  Se197  1  0.57780523  0.90829347  0.31526177  1
  Se  Se198  1  0.58725921  0.92069872  0.79447187  1
  Se  Se199  1  0.92381694  0.25616403  0.29752315  1
  Se  Se200  1  0.90792944  0.24154289  0.80513345  1
  Se  Se201  1  0.91458466  0.58655842  0.30250674  1
  Se  Se202  1  0.91250555  0.57525723  0.81638189  1
  Se  Se203  1  0.91458505  0.91666865  0.30599141  1
  Se  Se204  1  0.91953385  0.91833018  0.79702133  1
  Se  Se205  1  0.08726388  0.08345744  0.30162313  1
  Se  Se206  1  0.07852415  0.07875756  0.79991015  1
  Se  Se207  1  0.08383278  0.41102686  0.30186592  1
  Se  Se208  1  0.07828578  0.41700686  0.80873121  1
  Se  Se209  1  0.07731636  0.74547838  0.30554532  1
  Se  Se210  1  0.09511447  0.75519991  0.80948390  1
  Se  Se211  1  0.42968890  0.08648176  0.31720946  1
  Se  Se212  1  0.42132165  0.09455850  0.81068667  1
  Se  Se213  1  0.41117525  0.41201056  0.29868427  1
  Se  Se214  1  0.42477512  0.42683067  0.81494843  1
  Se  Se215  1  0.39974962  0.74085585  0.29584871  1
  Se  Se216  1  0.42409458  0.75404672  0.79540426  1
  Se  Se217  1  0.76361608  0.09290133  0.31783991  1
  Se  Se218  1  0.74140144  0.07724985  0.79648211  1
  Se  Se219  1  0.75000062  0.41871437  0.30084059  1
  Se  Se220  1  0.74772717  0.41390349  0.80599309  1
  Se  Se221  1  0.74338707  0.75486150  0.30939568  1
  Se  Se222  1  0.76196117  0.75471297  0.80480193  1
  Se  Se223  1  0.25159361  0.08938038  0.19102831  1
  Se  Se224  1  0.24452422  0.09399066  0.69147396  1
  Se  Se225  1  0.24899816  0.41169030  0.19213007  1
  Se  Se226  1  0.24649098  0.42049972  0.69242547  1
  Se  Se227  1  0.24659565  0.74563870  0.20135193  1
  Se  Se228  1  0.25338213  0.74862691  0.69272838  1
  Se  Se229  1  0.58458761  0.08103182  0.19823993  1
  Se  Se230  1  0.57879671  0.08096408  0.68859500  1
  Se  Se231  1  0.58845579  0.41793168  0.19950154  1
  Se  Se232  1  0.58832421  0.41600525  0.70041328  1
  Se  Se233  1  0.57421309  0.75626092  0.20485862  1
  Se  Se234  1  0.58607518  0.76106457  0.67957708  1
  Se  Se235  1  0.92379488  0.07819288  0.20043026  1
  Se  Se236  1  0.91656758  0.08317553  0.69591144  1
  Se  Se237  1  0.91493567  0.42178404  0.19612701  1
  Se  Se238  1  0.92018760  0.41218114  0.70120323  1
  Se  Se239  1  0.91611676  0.75122707  0.20153718  1
  Se  Se240  1  0.91988988  0.75398928  0.68845864  1
  Se  Se241  1  0.08444765  0.25157978  0.19837089  1
  Se  Se242  1  0.07764528  0.25784433  0.69445607  1
  Se  Se243  1  0.07908621  0.58118491  0.19696358  1
  Se  Se244  1  0.09261598  0.57575940  0.69086736  1
  Se  Se245  1  0.08490890  0.91886766  0.20036271  1
  Se  Se246  1  0.08372283  0.92012123  0.69287570  1
  Se  Se247  1  0.43822627  0.22902496  0.20080470  1
  Se  Se248  1  0.41760825  0.24645254  0.68907154  1
  Se  Se249  1  0.40722561  0.57877926  0.19462089  1
  Se  Se250  1  0.42015809  0.58670095  0.69863642  1
  Se  Se251  1  0.42696334  0.91123264  0.19927052  1
  Se  Se252  1  0.41991101  0.91927966  0.68205235  1
  Se  Se253  1  0.75320952  0.24714462  0.20015534  1
  Se  Se254  1  0.74451341  0.25254862  0.69560781  1
  Se  Se255  1  0.74229568  0.58964931  0.19695236  1
  Se  Se256  1  0.76426732  0.57677961  0.69027185  1
  Se  Se257  1  0.75698889  0.91246661  0.18776725  1
  Se  Se258  1  0.74624535  0.91189696  0.68611510  1
