# generated using pymatgen
data_In86Cu29Se144
_symmetry_space_group_name_H-M   'P 1'
_cell_length_a   17.72157064
_cell_length_b   17.72344308
_cell_length_c   23.60827653
_cell_angle_alpha   90.02269567
_cell_angle_beta   90.02966992
_cell_angle_gamma   90.01669064
_symmetry_Int_Tables_number   1
_chemical_formula_structural   In86Cu29Se144
_chemical_formula_sum   'In86 Cu29 Se144'
_cell_volume   7415.05673130
_cell_formula_units_Z   1
loop_
 _symmetry_equiv_pos_site_id
 _symmetry_equiv_pos_as_xyz
  1  'x, y, z'
loop_
 _atom_site_type_symbol
 _atom_site_label
 _atom_site_symmetry_multiplicity
 _atom_site_fract_x
 _atom_site_fract_y
 _atom_site_fract_z
 _atom_site_occupancy
  In  In0  1  0.00929365  0.15782290  0.12580542  1
  In  In1  1  -0.01250076  0.15971285  0.62893039  1
  In  In2  1  -0.00984614  0.49577500  0.11641769  1
  In  In3  1  -0.01962656  0.52191217  0.64380929  1
  In  In4  1  0.01303342  0.83724868  0.12581975  1
  In  In5  1  -0.00951558  0.83014046  0.63457963  1
  In  In6  1  0.33171229  0.15936391  0.11635034  1
  In  In7  1  0.34219976  0.16608191  0.62501818  1
  In  In8  1  0.33615306  0.52185396  0.12642774  1
  In  In9  1  0.34696368  0.50125250  0.62232291  1
  In  In10  1  0.32770330  0.82289217  0.12243266  1
  In  In11  1  0.33768359  0.82339307  0.63045453  1
  In  In12  1  0.66690172  0.16823771  0.12705811  1
  In  In13  1  0.66850126  0.15830652  0.63418961  1
  In  In14  1  0.66787471  0.50037796  0.13034801  1
  In  In15  1  0.66800578  0.50626061  0.62683216  1
  In  In16  1  0.66782642  0.84229719  0.13314570  1
  In  In17  1  0.66609927  0.81802774  0.61920216  1
  In  In18  1  0.15918849  -0.00593126  0.37194621  1
  In  In19  1  0.16309225  0.00005586  0.88264342  1
  In  In20  1  0.15570242  0.34637796  0.36498341  1
  In  In21  1  0.16794672  0.33287221  0.88779401  1
  In  In22  1  0.15999156  0.66545668  0.36885128  1
  In  In23  1  0.16509747  0.66571977  0.87666624  1
  In  In24  1  0.50815943  -0.02060387  0.38030851  1
  In  In25  1  0.50795741  -0.00702833  0.88260182  1
  In  In26  1  0.51285948  0.33406976  0.37430950  1
  In  In27  1  0.51129784  0.32716251  0.87976509  1
  In  In28  1  0.50089843  0.66804281  0.37774900  1
  In  In29  1  0.51116079  0.67821069  0.86811937  1
  In  In30  1  0.80872423  -0.02212390  0.35084312  1
  In  In31  1  0.82473782  -0.01322596  0.86557847  1
  In  In32  1  0.83880558  0.34331078  0.37001864  1
  In  In33  1  0.82679354  0.34543501  0.87310444  1
  In  In34  1  0.82511815  0.67525163  0.39453059  1
  In  In35  1  0.81650160  0.65195910  0.83475131  1
  In  In36  1  -0.01428082  0.15950593  0.36671065  1
  In  In37  1  0.01218522  0.16142922  0.87779133  1
  In  In38  1  -0.00259979  0.50066654  0.37308894  1
  In  In39  1  -0.02035357  0.51637412  0.88609844  1
  In  In40  1  -0.05269620  0.81983953  0.36047088  1
  In  In41  1  -0.00003316  0.83450299  0.87225829  1
  In  In42  1  0.33132266  0.16455911  0.36706809  1
  In  In43  1  0.33906780  0.16557079  0.88613633  1
  In  In44  1  0.32986656  0.51841045  0.37201614  1
  In  In45  1  0.32513000  0.50236592  0.88085747  1
  In  In46  1  0.34608918  0.83652094  0.37714578  1
  In  In47  1  0.34367754  0.82278185  0.88151601  1
  In  In48  1  0.66995850  0.17190567  0.36792781  1
  In  In49  1  0.65925935  0.16094373  0.86861912  1
  In  In50  1  0.66426121  0.50263382  0.37703622  1
  In  In51  1  0.68139036  0.51127869  0.85593136  1
  In  In52  1  0.66989902  0.82375141  0.37519900  1
  In  In53  1  0.66255434  0.81256963  0.85711395  1
  In  In54  1  0.16037305  -0.01075912  0.11120461  1
  In  In55  1  0.16076176  -0.01007197  0.62997769  1
  In  In56  1  0.15807772  0.32692194  0.11585551  1
  In  In57  1  0.16684325  0.33615879  0.62185640  1
  In  In58  1  0.17265145  0.68044756  0.11306545  1
  In  In59  1  0.16813512  0.66552412  0.63632727  1
  In  In60  1  0.50427866  0.00157803  0.12091011  1
  In  In61  1  0.58135049  -0.02212499  0.65496261  1
  In  In62  1  0.51708767  0.33311275  0.12643441  1
  In  In63  1  0.49827491  0.34328863  0.62297970  1
  In  In64  1  0.50059946  0.67547224  0.13046546  1
  In  In65  1  0.50099254  0.66606043  0.62633288  1
  In  In66  1  0.83439946  -0.00312798  0.13733945  1
  In  In67  1  0.83521984  -0.01226119  0.63548535  1
  In  In68  1  0.82560421  0.34304035  0.12818377  1
  In  In69  1  0.82124249  0.33357736  0.62386451  1
  In  In70  1  0.83306899  0.65704217  0.12544815  1
  In  In71  1  0.82690589  0.66762820  0.62614359  1
  In  In72  1  0.33277682  0.34343886  0.76192724  1
  In  In73  1  -0.00419408  0.66607802  0.24595283  1
  In  In74  1  0.00600456  0.32643159  0.75511287  1
  In  In75  1  0.15797604  0.82771266  0.50108721  1
  In  In76  1  0.34015181  0.34406412  0.23532405  1
  In  In77  1  0.50323685  0.16030984  0.50477092  1
  In  In78  1  0.83407527  0.16603126  0.00117877  1
  In  In79  1  0.34211547  -0.00559614  0.76059310  1
  In  In80  1  0.16133488  0.16253599  0.48304283  1
  In  In81  1  0.83340193  0.16676692  0.49771510  1
  In  In82  1  0.16390798  0.50053659  0.49355911  1
  In  In83  1  0.50078510  0.49948020  0.00398374  1
  In  In84  1  0.33226188  -0.00502922  0.25190487  1
  In  In85  1  0.83313747  0.82438492  -0.00285252  1
  Cu  Cu86  1  0.66759482  0.33573505  0.00405288  1
  Cu  Cu87  1  0.66325197  -0.00688260  0.00106425  1
  Cu  Cu88  1  0.17094826  0.15724053  0.75476785  1
  Cu  Cu89  1  0.50953383  0.16096556  0.24741199  1
  Cu  Cu90  1  0.67240618  -0.01088238  0.50025667  1
  Cu  Cu91  1  0.33868059  -0.00249303  -0.00086373  1
  Cu  Cu92  1  -0.00286999  0.66717538  -0.00283577  1
  Cu  Cu93  1  -0.00296946  0.33370206  -0.00249951  1
  Cu  Cu94  1  0.50450615  0.50677916  0.25211013  1
  Cu  Cu95  1  0.00009072  -0.00414636  -0.00179729  1
  Cu  Cu96  1  -0.00543608  -0.00154386  0.50372566  1
  Cu  Cu97  1  0.50277189  0.82848938  0.25402986  1
  Cu  Cu98  1  -0.00262336  0.34713139  0.49670229  1
  Cu  Cu99  1  0.34251589  -0.00517069  0.50444339  1
  Cu  Cu100  1  0.83352939  0.17717184  0.24612696  1
  Cu  Cu101  1  0.16621842  0.49884670  0.75965666  1
  Cu  Cu102  1  0.50280017  0.50434094  0.74467533  1
  Cu  Cu103  1  0.49697564  0.83081389  0.75009730  1
  Cu  Cu104  1  0.33327083  0.66863848  0.00042919  1
  Cu  Cu105  1  0.16694730  0.17364261  0.24329996  1
  Cu  Cu106  1  0.16516763  0.82682461  0.75292537  1
  Cu  Cu107  1  0.66229476  0.66327605  0.50149489  1
  Cu  Cu108  1  0.83500797  0.15704450  0.75296248  1
  Cu  Cu109  1  0.66411149  0.34535594  0.50143494  1
  Cu  Cu110  1  0.33373969  0.33524787  0.00326980  1
  Cu  Cu111  1  0.82541437  0.50187458  0.25095212  1
  Cu  Cu112  1  0.33912586  0.66765303  0.50101364  1
  Cu  Cu113  1  0.33329453  0.32828192  0.49969823  1
  Cu  Cu114  1  0.15971270  0.50778510  0.24617581  1
  Se  Se115  1  0.08271258  0.08314186  0.04850940  1
  Se  Se116  1  0.07928752  0.08030327  0.55743488  1
  Se  Se117  1  0.07995706  0.41695096  0.05091758  1
  Se  Se118  1  0.07575924  0.41998054  0.56134751  1
  Se  Se119  1  0.07720461  0.75376285  0.04919598  1
  Se  Se120  1  0.07676275  0.74029408  0.56718220  1
  Se  Se121  1  0.42126159  0.08204114  0.05179004  1
  Se  Se122  1  0.42075945  0.07000802  0.56604042  1
  Se  Se123  1  0.41133994  0.41157495  0.06722125  1
  Se  Se124  1  0.41436502  0.41410032  0.54966505  1
  Se  Se125  1  0.41766653  0.74733462  0.05588876  1
  Se  Se126  1  0.41791835  0.74999031  0.55684573  1
  Se  Se127  1  0.74762550  0.07137171  0.05916725  1
  Se  Se128  1  0.74836960  0.07528553  0.55926928  1
  Se  Se129  1  0.74673367  0.42210690  0.05633336  1
  Se  Se130  1  0.74976288  0.42207637  0.55602976  1
  Se  Se131  1  0.74381245  0.74631655  0.06367703  1
  Se  Se132  1  0.75165217  0.74664394  0.54845305  1
  Se  Se133  1  0.25106655  0.24871162  0.05341311  1
  Se  Se134  1  0.25043632  0.24699636  0.55311258  1
  Se  Se135  1  0.24991963  0.58426549  0.05107156  1
  Se  Se136  1  0.25381063  0.58827861  0.55800027  1
  Se  Se137  1  0.25680961  0.91377552  0.05233176  1
  Se  Se138  1  0.25345069  0.91824051  0.55967672  1
  Se  Se139  1  0.58714009  0.24820611  0.05412920  1
  Se  Se140  1  0.59344920  0.25536602  0.55982912  1
  Se  Se141  1  0.58788976  0.59078229  0.06146033  1
  Se  Se142  1  0.58023986  0.58218178  0.55707784  1
  Se  Se143  1  0.58429951  0.91112668  0.05742580  1
  Se  Se144  1  0.58558740  0.91471804  0.55638596  1
  Se  Se145  1  0.92017916  0.25604928  0.06213104  1
  Se  Se146  1  0.92651183  0.25820620  0.55674653  1
  Se  Se147  1  0.91244591  0.58511139  0.05010331  1
  Se  Se148  1  0.91154401  0.58124469  0.56137518  1
  Se  Se149  1  0.91630718  0.92184199  0.05822395  1
  Se  Se150  1  0.91751425  0.91665483  0.56163762  1
  Se  Se151  1  0.07014445  0.26236056  0.43517277  1
  Se  Se152  1  0.08165339  0.24733522  0.95008691  1
  Se  Se153  1  0.07248150  0.59572268  0.44292498  1
  Se  Se154  1  0.08273003  0.58254197  0.94628010  1
  Se  Se155  1  0.07309341  0.91963376  0.44254419  1
  Se  Se156  1  0.08191547  0.91102015  0.94638123  1
  Se  Se157  1  0.41239842  0.24817162  0.43907529  1
  Se  Se158  1  0.41852919  0.25803429  0.94790522  1
  Se  Se159  1  0.41645966  0.58239693  0.44550252  1
  Se  Se160  1  0.41711995  0.59147352  0.94110510  1
  Se  Se161  1  0.42339458  0.90967715  0.45286078  1
  Se  Se162  1  0.42042799  0.91263247  0.94719100  1
  Se  Se163  1  0.74254748  0.26088690  0.44253176  1
  Se  Se164  1  0.74418099  0.25433883  0.94193688  1
  Se  Se165  1  0.74583428  0.57847532  0.45046495  1
  Se  Se166  1  0.75730931  0.59458332  0.92490527  1
  Se  Se167  1  0.75338132  0.91450076  0.44020648  1
  Se  Se168  1  0.74036485  0.91448718  0.93975036  1
  Se  Se169  1  0.26474687  0.06856103  0.43986588  1
  Se  Se170  1  0.25321984  0.07996693  0.94735046  1
  Se  Se171  1  0.25646576  0.40737069  0.43613277  1
  Se  Se172  1  0.25118497  0.41897262  0.95198160  1
  Se  Se173  1  0.25414756  0.74212082  0.44100858  1
  Se  Se174  1  0.24904398  0.74856719  0.94533047  1
  Se  Se175  1  0.59689991  0.07674126  0.44106789  1
  Se  Se176  1  0.58915973  0.08302153  0.94672048  1
  Se  Se177  1  0.57810246  0.42121187  0.44646270  1
  Se  Se178  1  0.59514133  0.42030250  0.94188900  1
  Se  Se179  1  0.58403892  0.74976871  0.44620290  1
  Se  Se180  1  0.59256730  0.74990982  0.94022416  1
  Se  Se181  1  0.91538763  0.07163858  0.43955286  1
  Se  Se182  1  0.91737729  0.07369944  0.93914166  1
  Se  Se183  1  0.91233693  0.42534036  0.44378357  1
  Se  Se184  1  0.91048788  0.41485590  0.94699047  1
  Se  Se185  1  0.92941076  0.74583711  0.45117000  1
  Se  Se186  1  0.91618211  0.73819852  0.93254710  1
  Se  Se187  1  0.24898769  0.25582983  0.30132300  1
  Se  Se188  1  0.24433766  0.24221188  0.81315112  1
  Se  Se189  1  0.24389695  0.58738164  0.29954683  1
  Se  Se190  1  0.25139087  0.58334501  0.80826760  1
  Se  Se191  1  0.24345330  0.90295886  0.30939415  1
  Se  Se192  1  0.24536358  0.90659658  0.81372666  1
  Se  Se193  1  0.58299834  0.25116936  0.30105849  1
  Se  Se194  1  0.59350837  0.26141604  0.80537337  1
  Se  Se195  1  0.58507356  0.58815421  0.30843975  1
  Se  Se196  1  0.58334226  0.58924730  0.79836988  1
  Se  Se197  1  0.58811707  0.91057243  0.30575803  1
  Se  Se198  1  0.57867391  0.91350241  0.80565227  1
  Se  Se199  1  0.91684434  0.25605513  0.30265995  1
  Se  Se200  1  0.91133996  0.23903995  0.81444883  1
  Se  Se201  1  0.90533487  0.58348843  0.30960647  1
  Se  Se202  1  0.92178550  0.56767275  0.79449275  1
  Se  Se203  1  0.93597069  0.94285749  0.30543363  1
  Se  Se204  1  0.93170368  0.93021605  0.80664457  1
  Se  Se205  1  0.09540405  0.09653156  0.30980525  1
  Se  Se206  1  0.08640404  0.07725630  0.80664051  1
  Se  Se207  1  0.07450461  0.42533007  0.29647696  1
  Se  Se208  1  0.08732463  0.41841719  0.81779503  1
  Se  Se209  1  0.07424937  0.75986372  0.31090387  1
  Se  Se210  1  0.08178328  0.74566238  0.80684252  1
  Se  Se211  1  0.43085382  0.08269928  0.30998659  1
  Se  Se212  1  0.42756504  0.09092352  0.81512148  1
  Se  Se213  1  0.42034762  0.42433006  0.30914822  1
  Se  Se214  1  0.42948866  0.43124570  0.81511915  1
  Se  Se215  1  0.41691567  0.74933789  0.30735774  1
  Se  Se216  1  0.41388166  0.74773795  0.80256203  1
  Se  Se217  1  0.75013378  0.09248555  0.29834903  1
  Se  Se218  1  0.74509293  0.07853825  0.80323273  1
  Se  Se219  1  0.74513167  0.41877622  0.30692969  1
  Se  Se220  1  0.73267014  0.39669785  0.80020887  1
  Se  Se221  1  0.77426410  0.75801250  0.31335642  1
  Se  Se222  1  0.77538758  0.77837904  0.79099019  1
  Se  Se223  1  0.24615079  0.08659867  0.19094207  1
  Se  Se224  1  0.25074725  0.08281240  0.69209744  1
  Se  Se225  1  0.23940939  0.42899431  0.18396609  1
  Se  Se226  1  0.24340693  0.42464377  0.69262989  1
  Se  Se227  1  0.24357661  0.74990206  0.19270963  1
  Se  Se228  1  0.25304772  0.74926011  0.70044291  1
  Se  Se229  1  0.58810753  0.07773758  0.19231240  1
  Se  Se230  1  0.55433661  0.11069228  0.69132669  1
  Se  Se231  1  0.58281566  0.42003171  0.19921093  1
  Se  Se232  1  0.58190436  0.41910648  0.69187534  1
  Se  Se233  1  0.58822809  0.75128095  0.19875838  1
  Se  Se234  1  0.58201039  0.74973868  0.69517417  1
  Se  Se235  1  0.91597968  0.09190391  0.19483138  1
  Se  Se236  1  0.91883737  0.07489933  0.70041183  1
  Se  Se237  1  0.91133258  0.42550200  0.19413753  1
  Se  Se238  1  0.91105250  0.40905734  0.69655910  1
  Se  Se239  1  0.91170759  0.75901256  0.18525385  1
  Se  Se240  1  0.88914739  0.76513870  0.69812287  1
  Se  Se241  1  0.08116420  0.25385906  0.19215180  1
  Se  Se242  1  0.09526087  0.23704028  0.69000789  1
  Se  Se243  1  0.08416323  0.58352548  0.18063370  1
  Se  Se244  1  0.08707663  0.58146606  0.70345609  1
  Se  Se245  1  0.08120023  0.93214200  0.19142110  1
  Se  Se246  1  0.08291289  0.90970672  0.69887251  1
  Se  Se247  1  0.42473355  0.23766755  0.18875944  1
  Se  Se248  1  0.41490518  0.25689513  0.69476554  1
  Se  Se249  1  0.42076997  0.58915949  0.19956493  1
  Se  Se250  1  0.41428089  0.58513065  0.69553623  1
  Se  Se251  1  0.42339229  0.90875591  0.19168384  1
  Se  Se252  1  0.42589106  0.91731059  0.68898350  1
  Se  Se253  1  0.74624927  0.25504169  0.19355401  1
  Se  Se254  1  0.75974137  0.23988697  0.69422256  1
  Se  Se255  1  0.74664073  0.58759893  0.19803967  1
  Se  Se256  1  0.74557855  0.58849949  0.69675198  1
  Se  Se257  1  0.75485392  0.91418997  0.20346486  1
  Se  Se258  1  0.71839607  0.92934232  0.68823259  1
