# generated using pymatgen
data_In86Cu29Se144
_symmetry_space_group_name_H-M   'P 1'
_cell_length_a   17.58413260
_cell_length_b   17.58523602
_cell_length_c   23.43646086
_cell_angle_alpha   89.99333996
_cell_angle_beta   90.02197765
_cell_angle_gamma   90.00648298
_symmetry_Int_Tables_number   1
_chemical_formula_structural   In86Cu29Se144
_chemical_formula_sum   'In86 Cu29 Se144'
_cell_volume   7247.04809351
_cell_formula_units_Z   1
loop_
 _symmetry_equiv_pos_site_id
 _symmetry_equiv_pos_as_xyz
  1  'x, y, z'
loop_
 _atom_site_type_symbol
 _atom_site_label
 _atom_site_symmetry_multiplicity
 _atom_site_fract_x
 _atom_site_fract_y
 _atom_site_fract_z
 _atom_site_occupancy
  In  In0  1  -0.00098609  0.16629150  0.13023446  1
  In  In1  1  0.00058807  0.16619005  0.61454975  1
  In  In2  1  -0.00009104  0.50052907  0.12817731  1
  In  In3  1  -0.00746547  0.51112006  0.62353037  1
  In  In4  1  -0.00247430  0.83144700  0.13116300  1
  In  In5  1  0.00510684  0.83256667  0.61331826  1
  In  In6  1  0.34103933  0.16823683  0.11790699  1
  In  In7  1  0.31589994  0.14164287  0.60327541  1
  In  In8  1  0.31885608  0.51078198  0.13094175  1
  In  In9  1  0.33766559  0.49250899  0.62656193  1
  In  In10  1  0.30349119  0.80926111  0.08917106  1
  In  In11  1  0.34099215  0.84974399  0.62627584  1
  In  In12  1  0.67270134  0.16816956  0.12286495  1
  In  In13  1  0.66572201  0.16387330  0.61421468  1
  In  In14  1  0.67062205  0.48271255  0.13086128  1
  In  In15  1  0.68276505  0.50558117  0.62121611  1
  In  In16  1  0.67290263  0.83658631  0.11853187  1
  In  In17  1  0.67820869  0.82381784  0.62699636  1
  In  In18  1  0.15961644  0.01167827  0.37938947  1
  In  In19  1  0.17400811  -0.00521376  0.88876131  1
  In  In20  1  0.15502730  0.32544060  0.36328611  1
  In  In21  1  0.16828589  0.33183536  0.88731523  1
  In  In22  1  0.16861645  0.67653132  0.36694606  1
  In  In23  1  0.17268441  0.66786984  0.89097391  1
  In  In24  1  0.50673616  0.00082445  0.37701284  1
  In  In25  1  0.49081666  0.00655344  0.88481346  1
  In  In26  1  0.48841897  0.32457218  0.36197585  1
  In  In27  1  0.48687149  0.33301639  0.88060437  1
  In  In28  1  0.49140986  0.67626691  0.36858814  1
  In  In29  1  0.51314927  0.66691182  0.87682685  1
  In  In30  1  0.84954550  -0.01038962  0.37727236  1
  In  In31  1  0.83883498  -0.00515487  0.88236407  1
  In  In32  1  0.83463937  0.33374761  0.37160397  1
  In  In33  1  0.83865348  0.33073634  0.88596561  1
  In  In34  1  0.83612800  0.66042298  0.37772407  1
  In  In35  1  0.82156465  0.67428683  0.88520200  1
  In  In36  1  -0.00131070  0.16608300  0.37125060  1
  In  In37  1  0.00373009  0.16072496  0.88760372  1
  In  In38  1  -0.01040051  0.49174722  0.36514364  1
  In  In39  1  0.00364567  0.49577092  0.88728457  1
  In  In40  1  -0.00140447  0.83707252  0.36248831  1
  In  In41  1  0.00014694  0.83293401  0.88613330  1
  In  In42  1  0.31923289  0.16625869  0.37960677  1
  In  In43  1  0.34296639  0.15214340  0.89655573  1
  In  In44  1  0.32973271  0.49998580  0.36438897  1
  In  In45  1  0.32875657  0.50082445  0.88484645  1
  In  In46  1  0.33521717  0.82942389  0.37221023  1
  In  In47  1  0.31958725  0.85077641  0.89416854  1
  In  In48  1  0.66033568  0.17400433  0.37650855  1
  In  In49  1  0.66651963  0.16840368  0.88102861  1
  In  In50  1  0.68480556  0.49909301  0.37703821  1
  In  In51  1  0.66411920  0.51691858  0.87525589  1
  In  In52  1  0.66899247  0.83855390  0.37707677  1
  In  In53  1  0.68043489  0.82304527  0.88008495  1
  In  In54  1  0.16316432  -0.00975709  0.11481158  1
  In  In55  1  0.16819996  -0.00096929  0.62030471  1
  In  In56  1  0.16404636  0.33439043  0.13014032  1
  In  In57  1  0.17880993  0.32506398  0.62329910  1
  In  In58  1  0.16472031  0.66062290  0.12279964  1
  In  In59  1  0.15421218  0.67028010  0.62500364  1
  In  In60  1  0.48597013  -0.00757144  0.10794310  1
  In  In61  1  0.48937938  -0.00142830  0.62622492  1
  In  In62  1  0.50642585  0.32420125  0.13167078  1
  In  In63  1  0.50562222  0.32484296  0.62350590  1
  In  In64  1  0.48455334  0.66878558  0.12003273  1
  In  In65  1  0.50723100  0.68309499  0.62873509  1
  In  In66  1  0.83777582  0.00110583  0.12669362  1
  In  In67  1  0.83366747  -0.00200137  0.61498288  1
  In  In68  1  0.83338302  0.33165055  0.12970322  1
  In  In69  1  0.83401361  0.33369175  0.61341334  1
  In  In70  1  0.85303937  0.67986122  0.12157715  1
  In  In71  1  0.83180696  0.66755797  0.61402789  1
  In  In72  1  0.00111426  0.33179270  0.76119032  1
  In  In73  1  -0.00060975  0.66710852  0.75135087  1
  In  In74  1  0.66427836  -0.00656535  0.74175644  1
  In  In75  1  0.00071173  -0.00536022  0.76038130  1
  In  In76  1  0.66613753  0.33936625  0.74773925  1
  In  In77  1  0.33296283  0.33421172  0.75206313  1
  In  In78  1  0.33101696  -0.00382300  0.24187441  1
  In  In79  1  0.50495809  0.83919479  0.49943859  1
  In  In80  1  0.49946331  0.50002910  -0.00116342  1
  In  In81  1  0.66970825  0.00315092  0.24504015  1
  In  In82  1  0.66751065  0.66149498  0.25656215  1
  In  In83  1  0.50451755  0.49724923  0.50593231  1
  In  In84  1  0.33142788  0.67689037  0.76583739  1
  In  In85  1  0.15920023  0.49587591  0.50145824  1
  Cu  Cu86  1  0.32706919  0.66589131  0.49359829  1
  Cu  Cu87  1  -0.00144710  0.33056733  0.49038729  1
  Cu  Cu88  1  0.16441444  0.16796522  0.25006630  1
  Cu  Cu89  1  0.83348968  0.16871445  0.24976855  1
  Cu  Cu90  1  0.00229495  -0.00040129  0.49328651  1
  Cu  Cu91  1  0.83481696  0.50555323  0.74978825  1
  Cu  Cu92  1  -0.00483527  -0.00139163  0.00677739  1
  Cu  Cu93  1  0.49232366  0.82701397  0.24230506  1
  Cu  Cu94  1  -0.00278423  0.33465560  0.01205938  1
  Cu  Cu95  1  0.67423311  0.00499560  0.49684899  1
  Cu  Cu96  1  0.83658445  0.50112916  0.24920107  1
  Cu  Cu97  1  0.49509135  0.49745789  0.24355219  1
  Cu  Cu98  1  0.50196496  0.84208788  0.75423268  1
  Cu  Cu99  1  0.66742459  0.00175427  -0.00094336  1
  Cu  Cu100  1  0.48656675  0.16864534  0.75376195  1
  Cu  Cu101  1  0.50328469  0.51651792  0.75093270  1
  Cu  Cu102  1  0.67445556  0.66040317  0.00391752  1
  Cu  Cu103  1  0.32878348  0.31932118  0.48794598  1
  Cu  Cu104  1  0.00053062  0.66480499  0.00729331  1
  Cu  Cu105  1  -0.00198642  0.66862829  0.49320530  1
  Cu  Cu106  1  0.17647969  0.16669059  0.74844484  1
  Cu  Cu107  1  0.17365254  0.83765736  0.75690045  1
  Cu  Cu108  1  0.16460062  0.50575993  0.24729044  1
  Cu  Cu109  1  0.16603261  0.83254952  0.24067441  1
  Cu  Cu110  1  0.67077697  0.32870272  0.00607994  1
  Cu  Cu111  1  0.66766875  0.33486828  0.49452528  1
  Cu  Cu112  1  0.33060877  0.33530949  0.00835404  1
  Cu  Cu113  1  0.82963708  0.15792923  0.74700608  1
  Cu  Cu114  1  0.49770478  0.16424920  0.24656384  1
  Se  Se115  1  0.07824834  0.08499074  0.05705679  1
  Se  Se116  1  0.08450100  0.08056089  0.55148943  1
  Se  Se117  1  0.08525106  0.41933627  0.05914040  1
  Se  Se118  1  0.07116023  0.40351128  0.56333175  1
  Se  Se119  1  0.08095287  0.75219458  0.05936791  1
  Se  Se120  1  0.08686577  0.74671077  0.54619095  1
  Se  Se121  1  0.41276058  0.08574085  0.04404146  1
  Se  Se122  1  0.43451579  0.09110291  0.55281694  1
  Se  Se123  1  0.41511207  0.41537363  0.06632710  1
  Se  Se124  1  0.40460386  0.39858827  0.55316437  1
  Se  Se125  1  0.43120848  0.76206478  0.04669490  1
  Se  Se126  1  0.40941607  0.74412322  0.55565255  1
  Se  Se127  1  0.75184896  0.07994493  0.05681796  1
  Se  Se128  1  0.75834418  0.08986688  0.54895183  1
  Se  Se129  1  0.75362554  0.41458866  0.05578220  1
  Se  Se130  1  0.75015017  0.41873876  0.54809323  1
  Se  Se131  1  0.75575800  0.74841921  0.05467594  1
  Se  Se132  1  0.75272937  0.75654381  0.54858052  1
  Se  Se133  1  0.24579928  0.25173676  0.05930691  1
  Se  Se134  1  0.24137188  0.24417899  0.54501379  1
  Se  Se135  1  0.25545204  0.58933495  0.05240033  1
  Se  Se136  1  0.25583567  0.58593769  0.56026120  1
  Se  Se137  1  0.26693430  0.93876626  0.04686588  1
  Se  Se138  1  0.24331644  0.90354119  0.55753244  1
  Se  Se139  1  0.58263329  0.24742489  0.05564856  1
  Se  Se140  1  0.58418261  0.25205034  0.54880258  1
  Se  Se141  1  0.59101859  0.58322160  0.06463086  1
  Se  Se142  1  0.59027661  0.59639272  0.55959676  1
  Se  Se143  1  0.58683363  0.91500166  0.05081053  1
  Se  Se144  1  0.59650585  0.92644676  0.56257259  1
  Se  Se145  1  0.91353086  0.24676913  0.06027481  1
  Se  Se146  1  0.91582187  0.24827371  0.54798890  1
  Se  Se147  1  0.91497645  0.57829318  0.05569749  1
  Se  Se148  1  0.91693409  0.58268707  0.54712263  1
  Se  Se149  1  0.91391164  0.91150548  0.05847683  1
  Se  Se150  1  0.91970714  0.91658154  0.54887671  1
  Se  Se151  1  0.08535280  0.24768195  0.44144063  1
  Se  Se152  1  0.07756726  0.25447282  0.95229601  1
  Se  Se153  1  0.07916464  0.58509190  0.43467768  1
  Se  Se154  1  0.08505084  0.58228431  0.95314148  1
  Se  Se155  1  0.08041614  0.91363992  0.43789591  1
  Se  Se156  1  0.08165184  0.91675343  0.95296487  1
  Se  Se157  1  0.42107218  0.24283561  0.43893511  1
  Se  Se158  1  0.41794077  0.25356482  0.95589818  1
  Se  Se159  1  0.41207789  0.58379650  0.44099234  1
  Se  Se160  1  0.41127449  0.59794141  0.94455898  1
  Se  Se161  1  0.40876900  0.92481018  0.44256808  1
  Se  Se162  1  0.43305754  0.90390905  0.95080928  1
  Se  Se163  1  0.75185748  0.25151641  0.44196317  1
  Se  Se164  1  0.75279465  0.24569949  0.94949298  1
  Se  Se165  1  0.74461335  0.59104458  0.44772198  1
  Se  Se166  1  0.75442750  0.57375280  0.95099460  1
  Se  Se167  1  0.75339084  0.91791411  0.44458330  1
  Se  Se168  1  0.75216611  0.91531364  0.94887249  1
  Se  Se169  1  0.25548217  0.07339211  0.44911690  1
  Se  Se170  1  0.22257497  0.10842503  0.94801071  1
  Se  Se171  1  0.25029371  0.41170132  0.43727162  1
  Se  Se172  1  0.24928139  0.41928085  0.95409551  1
  Se  Se173  1  0.24842170  0.75234385  0.44200062  1
  Se  Se174  1  0.24690623  0.75591356  0.95828569  1
  Se  Se175  1  0.58506972  0.08416481  0.44608093  1
  Se  Se176  1  0.58314281  0.08744244  0.94811509  1
  Se  Se177  1  0.58220509  0.41114373  0.43475470  1
  Se  Se178  1  0.59384444  0.40827631  0.93993343  1
  Se  Se179  1  0.58714306  0.74067553  0.44058466  1
  Se  Se180  1  0.59332095  0.74429990  0.94928892  1
  Se  Se181  1  0.91745838  0.08634780  0.44413745  1
  Se  Se182  1  0.91267808  0.08288528  0.95180200  1
  Se  Se183  1  0.91481918  0.41875904  0.44331250  1
  Se  Se184  1  0.91600460  0.41669822  0.95387337  1
  Se  Se185  1  0.92056391  0.75392323  0.43691217  1
  Se  Se186  1  0.91744583  0.74620340  0.95049562  1
  Se  Se187  1  0.25264137  0.24812847  0.30207427  1
  Se  Se188  1  0.24917675  0.24450692  0.81497324  1
  Se  Se189  1  0.24977902  0.58892962  0.30023106  1
  Se  Se190  1  0.23993166  0.57718006  0.81239712  1
  Se  Se191  1  0.24108125  0.91258446  0.30664869  1
  Se  Se192  1  0.25260110  0.92299414  0.81107840  1
  Se  Se193  1  0.58318943  0.24656336  0.29875758  1
  Se  Se194  1  0.57242900  0.24916985  0.80815759  1
  Se  Se195  1  0.57218852  0.57045957  0.31283339  1
  Se  Se196  1  0.59265883  0.59600723  0.79890416  1
  Se  Se197  1  0.57321510  0.90694905  0.30204308  1
  Se  Se198  1  0.58406578  0.91760809  0.81694473  1
  Se  Se199  1  0.91866746  0.25271196  0.30247886  1
  Se  Se200  1  0.90747215  0.23462792  0.81108760  1
  Se  Se201  1  0.91672731  0.58881825  0.30108441  1
  Se  Se202  1  0.91485313  0.57713813  0.81522576  1
  Se  Se203  1  0.91934551  0.92522413  0.29519807  1
  Se  Se204  1  0.90732076  0.89915951  0.80985003  1
  Se  Se205  1  0.08191650  0.08240366  0.30189900  1
  Se  Se206  1  0.09255198  0.09126439  0.81079666  1
  Se  Se207  1  0.08138743  0.41829654  0.29803472  1
  Se  Se208  1  0.09481514  0.42342189  0.81275773  1
  Se  Se209  1  0.08275064  0.75024945  0.29595695  1
  Se  Se210  1  0.09297128  0.75476937  0.81377354  1
  Se  Se211  1  0.41975279  0.08306515  0.30744096  1
  Se  Se212  1  0.41030209  0.08512148  0.81145175  1
  Se  Se213  1  0.40971011  0.41447964  0.29710226  1
  Se  Se214  1  0.42456351  0.43355899  0.80834237  1
  Se  Se215  1  0.40658553  0.74724434  0.29620194  1
  Se  Se216  1  0.42443481  0.76645604  0.81996582  1
  Se  Se217  1  0.75451690  0.08793970  0.31159499  1
  Se  Se218  1  0.75128487  0.08199313  0.80939668  1
  Se  Se219  1  0.75146056  0.41696025  0.30077656  1
  Se  Se220  1  0.75856777  0.42172518  0.81143166  1
  Se  Se221  1  0.75615484  0.75837475  0.30875376  1
  Se  Se222  1  0.75071147  0.74239642  0.80417391  1
  Se  Se223  1  0.24163602  0.09011428  0.18598491  1
  Se  Se224  1  0.25122032  0.08041586  0.69142954  1
  Se  Se225  1  0.24879723  0.41751111  0.19886893  1
  Se  Se226  1  0.23898643  0.42618887  0.69514912  1
  Se  Se227  1  0.25106600  0.75498279  0.18409828  1
  Se  Se228  1  0.24606723  0.75483490  0.69268629  1
  Se  Se229  1  0.57074924  0.08104249  0.18416535  1
  Se  Se230  1  0.57573975  0.09700782  0.69336283  1
  Se  Se231  1  0.58410957  0.41072098  0.20168968  1
  Se  Se232  1  0.57441285  0.43102852  0.68823101  1
  Se  Se233  1  0.58278442  0.74983677  0.18860543  1
  Se  Se234  1  0.58602962  0.76053531  0.70099311  1
  Se  Se235  1  0.91565339  0.08214822  0.19929389  1
  Se  Se236  1  0.91735622  0.08374628  0.69058954  1
  Se  Se237  1  0.91835174  0.41487890  0.19695499  1
  Se  Se238  1  0.91110060  0.41748575  0.69322702  1
  Se  Se239  1  0.92119017  0.74705952  0.20316655  1
  Se  Se240  1  0.91744829  0.75445163  0.68568767  1
  Se  Se241  1  0.07926153  0.25269286  0.19918353  1
  Se  Se242  1  0.08790966  0.24286278  0.69331713  1
  Se  Se243  1  0.07918169  0.58858483  0.19640698  1
  Se  Se244  1  0.09140348  0.57106981  0.69591127  1
  Se  Se245  1  0.08420096  0.92207383  0.19315499  1
  Se  Se246  1  0.08736185  0.90846381  0.69454116  1
  Se  Se247  1  0.41132387  0.24767963  0.19593765  1
  Se  Se248  1  0.41196301  0.24283194  0.68634616  1
  Se  Se249  1  0.41452760  0.58727832  0.19559851  1
  Se  Se250  1  0.41600800  0.58994098  0.69198568  1
  Se  Se251  1  0.41375360  0.90376143  0.18059067  1
  Se  Se252  1  0.41505073  0.92385979  0.70405500  1
  Se  Se253  1  0.74575359  0.24942034  0.19788293  1
  Se  Se254  1  0.75520405  0.24442132  0.68922611  1
  Se  Se255  1  0.75602772  0.58138776  0.18870808  1
  Se  Se256  1  0.75719068  0.58869615  0.69280140  1
  Se  Se257  1  0.75915917  0.90472678  0.19567820  1
  Se  Se258  1  0.76865969  0.90983708  0.69348986  1
