# generated using pymatgen
data_In86Cu29Se144
_symmetry_space_group_name_H-M   'P 1'
_cell_length_a   17.58133821
_cell_length_b   17.58541589
_cell_length_c   23.44974590
_cell_angle_alpha   90.00407826
_cell_angle_beta   90.02934024
_cell_angle_gamma   89.98200799
_symmetry_Int_Tables_number   1
_chemical_formula_structural   In86Cu29Se144
_chemical_formula_sum   'In86 Cu29 Se144'
_cell_volume   7250.07724802
_cell_formula_units_Z   1
loop_
 _symmetry_equiv_pos_site_id
 _symmetry_equiv_pos_as_xyz
  1  'x, y, z'
loop_
 _atom_site_type_symbol
 _atom_site_label
 _atom_site_symmetry_multiplicity
 _atom_site_fract_x
 _atom_site_fract_y
 _atom_site_fract_z
 _atom_site_occupancy
  In  In0  1  0.00359299  0.15138057  0.12962509  1
  In  In1  1  -0.00338256  0.17029537  0.62854891  1
  In  In2  1  0.01919033  0.50431805  0.11949040  1
  In  In3  1  0.00192174  0.48662051  0.62592464  1
  In  In4  1  0.00008911  0.84313417  0.13231435  1
  In  In5  1  0.01381226  0.84493624  0.61974583  1
  In  In6  1  0.33400544  0.16927621  0.12445476  1
  In  In7  1  0.34506548  0.16823087  0.61559493  1
  In  In8  1  0.32387363  0.50592527  0.13154358  1
  In  In9  1  0.33062793  0.51150377  0.63537397  1
  In  In10  1  0.33572787  0.82714865  0.13631009  1
  In  In11  1  0.30752692  0.83589162  0.62431656  1
  In  In12  1  0.66429681  0.17944320  0.12719537  1
  In  In13  1  0.67379894  0.16991584  0.61576355  1
  In  In14  1  0.66982538  0.49952685  0.13215170  1
  In  In15  1  0.65113435  0.48854628  0.62689078  1
  In  In16  1  0.65829495  0.82904518  0.12401251  1
  In  In17  1  0.67324348  0.82656962  0.61604816  1
  In  In18  1  0.15942773  -0.01466623  0.35562129  1
  In  In19  1  0.17251864  0.01373687  0.87203656  1
  In  In20  1  0.18977052  0.33376426  0.38193444  1
  In  In21  1  0.16982583  0.33242528  0.87217382  1
  In  In22  1  0.16578820  0.66654753  0.37544473  1
  In  In23  1  0.15906458  0.65171113  0.88053016  1
  In  In24  1  0.49523188  0.01857735  0.37858876  1
  In  In25  1  0.50069642  -0.00164897  0.88616954  1
  In  In26  1  0.48737077  0.31876590  0.37039980  1
  In  In27  1  0.48328703  0.32206662  0.86142153  1
  In  In28  1  0.49479211  0.65980992  0.36309887  1
  In  In29  1  0.49701623  0.67929425  0.87914350  1
  In  In30  1  0.83806564  -0.01382630  0.38947677  1
  In  In31  1  0.83902800  -0.01484842  0.87637607  1
  In  In32  1  0.81812405  0.33387113  0.37721287  1
  In  In33  1  0.83204082  0.32613696  0.86399410  1
  In  In34  1  0.85345660  0.68009224  0.36439526  1
  In  In35  1  0.84589923  0.67730255  0.88062676  1
  In  In36  1  0.00183787  0.15036706  0.37384537  1
  In  In37  1  0.00858594  0.17415957  0.86556977  1
  In  In38  1  0.00572368  0.51645768  0.37421380  1
  In  In39  1  0.01301009  0.50014682  0.87640731  1
  In  In40  1  0.00421941  0.83272250  0.37257792  1
  In  In41  1  -0.00886163  0.82635987  0.87533639  1
  In  In42  1  0.34329330  0.17363784  0.37027283  1
  In  In43  1  0.32460068  0.17051779  0.88035763  1
  In  In44  1  0.32499941  0.49049010  0.37288287  1
  In  In45  1  0.32590699  0.48738031  0.86699552  1
  In  In46  1  0.32138983  0.82043615  0.36273042  1
  In  In47  1  0.34005840  0.84078406  0.87554934  1
  In  In48  1  0.65201518  0.17007961  0.38757014  1
  In  In49  1  0.65427107  0.16457264  0.87626957  1
  In  In50  1  0.66298347  0.49644041  0.36637721  1
  In  In51  1  0.67296768  0.49338888  0.87279604  1
  In  In52  1  0.68081257  0.83585763  0.37592965  1
  In  In53  1  0.66697859  0.82908594  0.88458490  1
  In  In54  1  0.15923129  0.00574604  0.13499253  1
  In  In55  1  0.16798112  -0.01888306  0.62206540  1
  In  In56  1  0.17912703  0.34585546  0.11745746  1
  In  In57  1  0.16338862  0.33867253  0.62463744  1
  In  In58  1  0.17427666  0.67003808  0.13677735  1
  In  In59  1  0.17706033  0.68106181  0.61896955  1
  In  In60  1  0.49077264  -0.00466941  0.12089956  1
  In  In61  1  0.48608935  0.01314441  0.61456801  1
  In  In62  1  0.50348454  0.32917763  0.12583608  1
  In  In63  1  0.50522607  0.33197297  0.63706109  1
  In  In64  1  0.49313935  0.67267626  0.13264710  1
  In  In65  1  0.49072087  0.65571396  0.62501774  1
  In  In66  1  0.85030688  -0.00528159  0.13219517  1
  In  In67  1  0.84181266  0.01226857  0.61105833  1
  In  In68  1  0.82706209  0.32418435  0.12895349  1
  In  In69  1  0.83840680  0.32338282  0.62849798  1
  In  In70  1  0.82734860  0.67654371  0.13210363  1
  In  In71  1  0.82835497  0.67569517  0.61859836  1
  In  In72  1  0.67095736  0.00000094  0.74882413  1
  In  In73  1  0.49626293  0.49933749  -0.00183559  1
  In  In74  1  0.49553551  0.49558612  0.50487734  1
  In  In75  1  0.83851254  0.50301326  0.49840079  1
  In  In76  1  0.66589136  0.00460424  0.26202156  1
  In  In77  1  0.32968294  0.00386432  0.74426859  1
  In  In78  1  0.83892895  0.50464533  -0.00418671  1
  In  In79  1  0.83742310  0.15990860  0.00806633  1
  In  In80  1  0.00109848  0.33749501  0.24599064  1
  In  In81  1  0.16967157  0.15946690  0.49251817  1
  In  In82  1  0.66282368  0.66135180  0.75084009  1
  In  In83  1  0.16689414  0.83538717  0.00642398  1
  In  In84  1  0.49597870  0.84026573  0.49278592  1
  In  In85  1  0.00473258  0.66425770  0.75704950  1
  Cu  Cu86  1  0.00226112  -0.00569352  0.49577769  1
  Cu  Cu87  1  0.17053043  0.50033153  0.25179278  1
  Cu  Cu88  1  0.49975867  0.49784926  0.24608520  1
  Cu  Cu89  1  0.49932279  0.17151282  0.25078945  1
  Cu  Cu90  1  0.49459402  0.83251271  0.75085293  1
  Cu  Cu91  1  0.67583128  0.66907183  0.49096558  1
  Cu  Cu92  1  0.16706986  0.17351256  0.74802775  1
  Cu  Cu93  1  0.82836106  0.16718063  0.25324137  1
  Cu  Cu94  1  0.33200163  0.66941498  0.00867982  1
  Cu  Cu95  1  0.82918141  0.49145967  0.74743209  1
  Cu  Cu96  1  0.17437736  0.17094706  0.25200379  1
  Cu  Cu97  1  0.66188965  0.32989035  -0.00043993  1
  Cu  Cu98  1  0.33549943  0.00329921  0.00284694  1
  Cu  Cu99  1  0.00539904  -0.00084935  0.00468646  1
  Cu  Cu100  1  0.00771674  0.67365801  0.49486690  1
  Cu  Cu101  1  0.32765937  0.66920611  0.49996658  1
  Cu  Cu102  1  0.83298137  0.16233304  0.74192099  1
  Cu  Cu103  1  0.66126476  0.32798618  0.50208690  1
  Cu  Cu104  1  0.33135722  0.33031746  -0.00626932  1
  Cu  Cu105  1  0.83147619  0.50318177  0.25105180  1
  Cu  Cu106  1  0.66655022  -0.00330868  0.00326270  1
  Cu  Cu107  1  0.83537653  0.83626386  0.25492084  1
  Cu  Cu108  1  0.66455029  0.67545423  0.00638128  1
  Cu  Cu109  1  0.01212733  0.32801201  -0.00408856  1
  Cu  Cu110  1  0.16541510  0.49717570  0.75047626  1
  Cu  Cu111  1  0.49889699  0.16772603  0.74989882  1
  Cu  Cu112  1  0.49986782  0.83312674  0.24858290  1
  Cu  Cu113  1  -0.00103472  0.32892323  0.50365612  1
  Cu  Cu114  1  0.84175202  0.83751874  0.74837715  1
  Se  Se115  1  0.08874408  0.08413112  0.05499768  1
  Se  Se116  1  0.07928652  0.07722730  0.55824798  1
  Se  Se117  1  0.08946014  0.41870827  0.04698943  1
  Se  Se118  1  0.08283948  0.41678468  0.55009513  1
  Se  Se119  1  0.07947794  0.74649814  0.06665809  1
  Se  Se120  1  0.08982834  0.75725989  0.55019793  1
  Se  Se121  1  0.41945683  0.08918342  0.05382913  1
  Se  Se122  1  0.40247452  0.07811900  0.54029865  1
  Se  Se123  1  0.40616611  0.41178750  0.05912985  1
  Se  Se124  1  0.40986643  0.41193934  0.56920283  1
  Se  Se125  1  0.41522307  0.75335138  0.05986500  1
  Se  Se126  1  0.41239104  0.74831040  0.55826001  1
  Se  Se127  1  0.74484252  0.07254019  0.06853677  1
  Se  Se128  1  0.74007361  0.07567535  0.54886075  1
  Se  Se129  1  0.74609352  0.41068440  0.05519567  1
  Se  Se130  1  0.74458293  0.41352523  0.55753831  1
  Se  Se131  1  0.75225876  0.75623539  0.05660987  1
  Se  Se132  1  0.75760939  0.75481836  0.54219362  1
  Se  Se133  1  0.25025091  0.24928749  0.05249354  1
  Se  Se134  1  0.25023032  0.25456669  0.55446856  1
  Se  Se135  1  0.24611444  0.58777047  0.05987199  1
  Se  Se136  1  0.25180783  0.58285023  0.55707928  1
  Se  Se137  1  0.25697997  0.92482512  0.06606128  1
  Se  Se138  1  0.25998203  0.92672809  0.54717489  1
  Se  Se139  1  0.57943429  0.24645278  0.05188947  1
  Se  Se140  1  0.57578054  0.25228250  0.55932280  1
  Se  Se141  1  0.58721750  0.58677715  0.06055786  1
  Se  Se142  1  0.59562282  0.59315362  0.55440087  1
  Se  Se143  1  0.58026550  0.91517145  0.05554476  1
  Se  Se144  1  0.58463547  0.92172851  0.56027892  1
  Se  Se145  1  0.93040361  0.25718318  0.06149298  1
  Se  Se146  1  0.91468338  0.24530669  0.55349357  1
  Se  Se147  1  0.91874775  0.59052739  0.06329437  1
  Se  Se148  1  0.92982396  0.59359094  0.55912858  1
  Se  Se149  1  0.91933493  0.91637476  0.05470456  1
  Se  Se150  1  0.91880796  0.91308395  0.55179342  1
  Se  Se151  1  0.07719328  0.25554763  0.43581501  1
  Se  Se152  1  0.09077215  0.24328992  0.94138822  1
  Se  Se153  1  0.08938826  0.58133088  0.45026056  1
  Se  Se154  1  0.06635858  0.59086108  0.95154215  1
  Se  Se155  1  0.08806533  0.91781819  0.43974604  1
  Se  Se156  1  0.08285860  0.92312969  0.93878782  1
  Se  Se157  1  0.41409141  0.24963417  0.44873098  1
  Se  Se158  1  0.41963228  0.24813679  0.94429790  1
  Se  Se159  1  0.41205401  0.58993576  0.44288638  1
  Se  Se160  1  0.40392904  0.58945064  0.94136392  1
  Se  Se161  1  0.40297243  0.91758850  0.42861020  1
  Se  Se162  1  0.41628790  0.91460320  0.95216905  1
  Se  Se163  1  0.74947488  0.24851255  0.45022594  1
  Se  Se164  1  0.74958799  0.25034089  0.94405830  1
  Se  Se165  1  0.75297093  0.58697792  0.43120156  1
  Se  Se166  1  0.73983991  0.59616665  0.94124805  1
  Se  Se167  1  0.73739029  0.92098389  0.45314952  1
  Se  Se168  1  0.75074230  0.91675957  0.94829563  1
  Se  Se169  1  0.24776595  0.07567228  0.42214263  1
  Se  Se170  1  0.24883023  0.08349167  0.95022736  1
  Se  Se171  1  0.25447413  0.42176790  0.45387126  1
  Se  Se172  1  0.24773964  0.41745886  0.94446941  1
  Se  Se173  1  0.24749658  0.75221698  0.44438654  1
  Se  Se174  1  0.25440050  0.74648579  0.94251916  1
  Se  Se175  1  0.57794786  0.08128814  0.45498955  1
  Se  Se176  1  0.58502402  0.08330922  0.95183894  1
  Se  Se177  1  0.58599315  0.41082009  0.44062092  1
  Se  Se178  1  0.58338227  0.40733191  0.93742395  1
  Se  Se179  1  0.58318508  0.74098877  0.43555647  1
  Se  Se180  1  0.57710883  0.75487848  0.95294519  1
  Se  Se181  1  0.91825556  0.08399691  0.44957318  1
  Se  Se182  1  0.92572204  0.07887351  0.94100408  1
  Se  Se183  1  0.92561296  0.41086535  0.43709835  1
  Se  Se184  1  0.92093687  0.40204420  0.93926847  1
  Se  Se185  1  0.91817671  0.75456859  0.44589911  1
  Se  Se186  1  0.91617741  0.75831416  0.95368918  1
  Se  Se187  1  0.25636408  0.25641960  0.30265609  1
  Se  Se188  1  0.25497272  0.25021469  0.80294320  1
  Se  Se189  1  0.25261929  0.58425125  0.30661613  1
  Se  Se190  1  0.24386749  0.58204666  0.80692890  1
  Se  Se191  1  0.23853976  0.89635328  0.28870132  1
  Se  Se192  1  0.24441888  0.91241959  0.80633893  1
  Se  Se193  1  0.58708244  0.24846286  0.30646511  1
  Se  Se194  1  0.58634996  0.24831982  0.80202674  1
  Se  Se195  1  0.58503917  0.58199065  0.29771980  1
  Se  Se196  1  0.57410069  0.57850589  0.81498003  1
  Se  Se197  1  0.57291331  0.91034721  0.31579913  1
  Se  Se198  1  0.57892772  0.90982130  0.81007450  1
  Se  Se199  1  0.91379985  0.24880339  0.31080558  1
  Se  Se200  1  0.91687543  0.24602996  0.79696814  1
  Se  Se201  1  0.92247688  0.58327350  0.29797580  1
  Se  Se202  1  0.90480847  0.57291017  0.81026792  1
  Se  Se203  1  0.91579320  0.92139279  0.30914496  1
  Se  Se204  1  0.92539639  0.91806169  0.80211841  1
  Se  Se205  1  0.08372578  0.08662116  0.29612915  1
  Se  Se206  1  0.08687813  0.08437824  0.79881139  1
  Se  Se207  1  0.09111094  0.41847167  0.31229397  1
  Se  Se208  1  0.08174408  0.41388776  0.80383356  1
  Se  Se209  1  0.06223338  0.72618664  0.31016466  1
  Se  Se210  1  0.09563348  0.75688820  0.81214911  1
  Se  Se211  1  0.41599902  0.08371126  0.29900546  1
  Se  Se212  1  0.42282565  0.08395074  0.81080620  1
  Se  Se213  1  0.42000985  0.41901206  0.30624611  1
  Se  Se214  1  0.41815578  0.42049729  0.79817892  1
  Se  Se215  1  0.41443802  0.74531761  0.29652543  1
  Se  Se216  1  0.41268934  0.75128697  0.80521385  1
  Se  Se217  1  0.75720433  0.09083012  0.32191516  1
  Se  Se218  1  0.75973657  0.08872097  0.81267604  1
  Se  Se219  1  0.75034570  0.41463307  0.30011704  1
  Se  Se220  1  0.74457640  0.40953944  0.79982098  1
  Se  Se221  1  0.74990492  0.74934625  0.30304811  1
  Se  Se222  1  0.75729795  0.75700210  0.80667981  1
  Se  Se223  1  0.25429881  0.08621809  0.19591181  1
  Se  Se224  1  0.24137325  0.09335375  0.68264071  1
  Se  Se225  1  0.25167438  0.41289673  0.19976502  1
  Se  Se226  1  0.24853617  0.41570207  0.69548226  1
  Se  Se227  1  0.23735426  0.76740919  0.20617028  1
  Se  Se228  1  0.25971331  0.74061259  0.69840736  1
  Se  Se229  1  0.57973310  0.08709529  0.19269222  1
  Se  Se230  1  0.57655236  0.08557409  0.68949214  1
  Se  Se231  1  0.58444157  0.41335035  0.19473058  1
  Se  Se232  1  0.57818980  0.42282606  0.70577141  1
  Se  Se233  1  0.58582719  0.74860645  0.19920434  1
  Se  Se234  1  0.57820611  0.75741832  0.68930833  1
  Se  Se235  1  0.91622630  0.08500142  0.20417901  1
  Se  Se236  1  0.91734611  0.07678406  0.69293563  1
  Se  Se237  1  0.91034506  0.42741683  0.18463853  1
  Se  Se238  1  0.91716358  0.41149509  0.69610746  1
  Se  Se239  1  0.91685710  0.75516311  0.19821413  1
  Se  Se240  1  0.91760499  0.75097987  0.68997240  1
  Se  Se241  1  0.09313709  0.24819545  0.18782018  1
  Se  Se242  1  0.08144318  0.25475418  0.69366858  1
  Se  Se243  1  0.08535325  0.58163285  0.19884807  1
  Se  Se244  1  0.08860791  0.57967242  0.68868191  1
  Se  Se245  1  0.08020850  0.92199643  0.20275694  1
  Se  Se246  1  0.09032731  0.91163983  0.69851267  1
  Se  Se247  1  0.41617454  0.25305364  0.19483800  1
  Se  Se248  1  0.41125277  0.24532288  0.69600749  1
  Se  Se249  1  0.41356385  0.58389497  0.19764234  1
  Se  Se250  1  0.42368386  0.58281536  0.70338787  1
  Se  Se251  1  0.41800044  0.92044537  0.19850252  1
  Se  Se252  1  0.42179579  0.91190238  0.68572090  1
  Se  Se253  1  0.74528265  0.25197473  0.20279800  1
  Se  Se254  1  0.74562708  0.24667668  0.69399796  1
  Se  Se255  1  0.74777010  0.58750496  0.19845484  1
  Se  Se256  1  0.75675182  0.57632104  0.68655048  1
  Se  Se257  1  0.75038623  0.91529046  0.19585458  1
  Se  Se258  1  0.75863678  0.91101238  0.68669706  1
