# generated using pymatgen
data_In86Cu29Se144
_symmetry_space_group_name_H-M   'P 1'
_cell_length_a   17.59274651
_cell_length_b   17.59948290
_cell_length_c   23.46448959
_cell_angle_alpha   90.03991546
_cell_angle_beta   89.99615438
_cell_angle_gamma   90.00770106
_symmetry_Int_Tables_number   1
_chemical_formula_structural   In86Cu29Se144
_chemical_formula_sum   'In86 Cu29 Se144'
_cell_volume   7265.14948211
_cell_formula_units_Z   1
loop_
 _symmetry_equiv_pos_site_id
 _symmetry_equiv_pos_as_xyz
  1  'x, y, z'
loop_
 _atom_site_type_symbol
 _atom_site_label
 _atom_site_symmetry_multiplicity
 _atom_site_fract_x
 _atom_site_fract_y
 _atom_site_fract_z
 _atom_site_occupancy
  In  In0  1  -0.01528364  0.15651231  0.10389202  1
  In  In1  1  0.00306395  0.16905710  0.62419245  1
  In  In2  1  -0.00683110  0.50130405  0.12132188  1
  In  In3  1  0.00516795  0.49430191  0.63374871  1
  In  In4  1  -0.00942952  0.85210181  0.11893325  1
  In  In5  1  -0.01281267  0.84212102  0.64346215  1
  In  In6  1  0.33487163  0.16512834  0.13038723  1
  In  In7  1  0.33471729  0.16782142  0.61485647  1
  In  In8  1  0.32206405  0.49071528  0.12989193  1
  In  In9  1  0.33790482  0.50397128  0.61907174  1
  In  In10  1  0.34439824  0.83605496  0.12444881  1
  In  In11  1  0.31713057  0.83200910  0.62493685  1
  In  In12  1  0.66470901  0.16767714  0.12415235  1
  In  In13  1  0.65924149  0.15911954  0.62201909  1
  In  In14  1  0.67700802  0.50133868  0.13392398  1
  In  In15  1  0.66474472  0.50578029  0.62428437  1
  In  In16  1  0.68208980  0.82795379  0.12828729  1
  In  In17  1  0.68031819  0.83447731  0.64082799  1
  In  In18  1  0.17450397  0.01832622  0.35797786  1
  In  In19  1  0.15288230  0.02201407  0.88143314  1
  In  In20  1  0.17479412  0.31686213  0.37743732  1
  In  In21  1  0.14236419  0.32675098  0.87956227  1
  In  In22  1  0.15416364  0.66091452  0.38253787  1
  In  In23  1  0.16516040  0.67023570  0.86457554  1
  In  In24  1  0.51404695  0.01497815  0.36604878  1
  In  In25  1  0.51060174  -0.00330044  0.87825754  1
  In  In26  1  0.49939950  0.33391026  0.37373264  1
  In  In27  1  0.49398594  0.32497472  0.87694882  1
  In  In28  1  0.49951723  0.65288972  0.37800530  1
  In  In29  1  0.51325022  0.67169547  0.86245393  1
  In  In30  1  0.84757200  0.01766491  0.36053720  1
  In  In31  1  0.82858549  0.00341198  0.86971377  1
  In  In32  1  0.81283619  0.32352614  0.36352649  1
  In  In33  1  0.86624504  0.30847300  0.90336125  1
  In  In34  1  0.83418393  0.67139228  0.37391568  1
  In  In35  1  0.82693700  0.66277274  0.87811849  1
  In  In36  1  0.00925188  0.14848303  0.39039307  1
  In  In37  1  -0.00272232  0.15887505  0.87208416  1
  In  In38  1  0.00011301  0.50708864  0.38385031  1
  In  In39  1  -0.01136662  0.49001214  0.87167726  1
  In  In40  1  -0.01122914  0.84332941  0.37779126  1
  In  In41  1  -0.02101043  0.83164344  0.86077677  1
  In  In42  1  0.33234134  0.17547706  0.36737553  1
  In  In43  1  0.33258047  0.16465164  0.88469948  1
  In  In44  1  0.33946154  0.49021455  0.38098111  1
  In  In45  1  0.32200524  0.49632477  0.87130084  1
  In  In46  1  0.32328790  0.84103918  0.37240074  1
  In  In47  1  0.34426979  0.83190522  0.87054907  1
  In  In48  1  0.66505768  0.16455351  0.37438359  1
  In  In49  1  0.68383875  0.15419823  0.89005053  1
  In  In50  1  0.65246710  0.48337508  0.35943079  1
  In  In51  1  0.68106469  0.51211957  0.87289297  1
  In  In52  1  0.67291283  0.83902912  0.36733627  1
  In  In53  1  0.67434943  0.83427307  0.86795318  1
  In  In54  1  0.14160067  0.03094125  0.14838589  1
  In  In55  1  0.15681679  0.00552095  0.62156239  1
  In  In56  1  0.17983535  0.32450282  0.13722152  1
  In  In57  1  0.15640276  0.32490277  0.61572574  1
  In  In58  1  0.16316533  0.65474992  0.12204702  1
  In  In59  1  0.17279653  0.66451322  0.63405444  1
  In  In60  1  0.48904692  0.01066398  0.13640460  1
  In  In61  1  0.50420875  0.00973932  0.62050610  1
  In  In62  1  0.51245873  0.32779598  0.13562124  1
  In  In63  1  0.49141734  0.32585783  0.61447146  1
  In  In64  1  0.51451059  0.67775009  0.12353569  1
  In  In65  1  0.51170953  0.66009501  0.62785827  1
  In  In66  1  0.83105643  -0.00066291  0.12005594  1
  In  In67  1  0.83225659  0.00797971  0.63173730  1
  In  In68  1  0.83185567  0.32541522  0.11861570  1
  In  In69  1  0.84699700  0.33234334  0.62724881  1
  In  In70  1  0.81268224  0.65854287  0.09920343  1
  In  In71  1  0.83113955  0.66909493  0.64226458  1
  In  In72  1  0.82997341  0.49700102  0.50136384  1
  In  In73  1  0.32934713  0.33025585  0.74062805  1
  In  In74  1  -0.00640539  0.67332539  0.25161868  1
  In  In75  1  0.51226474  0.83852443  -0.00620084  1
  In  In76  1  0.16058543  0.83588608  0.50034682  1
  In  In77  1  0.50205353  0.83450482  0.50362559  1
  In  In78  1  0.32940458  -0.00610109  0.74663125  1
  In  In79  1  0.83594501  0.83821302  0.51470739  1
  In  In80  1  0.50641197  0.49649214  0.00504413  1
  In  In81  1  0.33751648  0.66884844  0.24891747  1
  In  In82  1  -0.00489928  0.32672870  0.24479474  1
  In  In83  1  0.16106197  0.84621069  -0.00344609  1
  In  In84  1  0.16374506  0.49193445  -0.00005303  1
  In  In85  1  0.67024274  0.34034944  0.75672004  1
  Cu  Cu86  1  0.15997591  0.17450031  0.75032538  1
  Cu  Cu87  1  0.00048027  0.67377389  -0.00794662  1
  Cu  Cu88  1  -0.00417033  0.33182040  0.50001297  1
  Cu  Cu89  1  0.66378974  0.00338756  0.00363357  1
  Cu  Cu90  1  0.66336942  0.33961257  0.00768241  1
  Cu  Cu91  1  0.50095852  0.82812090  0.74887379  1
  Cu  Cu92  1  0.66292178  0.65988646  0.49973000  1
  Cu  Cu93  1  0.00422386  0.66517305  0.51141150  1
  Cu  Cu94  1  0.33837724  0.00949230  0.48852247  1
  Cu  Cu95  1  0.33438769  0.31905465  0.00525567  1
  Cu  Cu96  1  0.51056553  0.15474676  0.75272092  1
  Cu  Cu97  1  0.83530703  0.49702366  0.75656239  1
  Cu  Cu98  1  0.49898450  0.50291182  0.74507116  1
  Cu  Cu99  1  0.32706415  0.00729109  0.01088669  1
  Cu  Cu100  1  0.83256859  0.83419221  0.24423844  1
  Cu  Cu101  1  0.16816772  0.49096006  0.25873092  1
  Cu  Cu102  1  0.83421500  0.17300705  0.75598310  1
  Cu  Cu103  1  0.34257251  0.66337783  -0.01293779  1
  Cu  Cu104  1  0.16455410  0.83714834  0.75302931  1
  Cu  Cu105  1  0.66062505  0.32870829  0.49321308  1
  Cu  Cu106  1  0.67605814  0.00095528  0.49713893  1
  Cu  Cu107  1  0.33190898  0.65749446  0.50402789  1
  Cu  Cu108  1  0.50785514  0.83458123  0.24892162  1
  Cu  Cu109  1  0.50302921  0.50400746  0.25176961  1
  Cu  Cu110  1  0.83064510  0.16616512  0.24212474  1
  Cu  Cu111  1  0.16541441  0.84002802  0.24669970  1
  Cu  Cu112  1  0.16565969  0.50435952  0.75085788  1
  Cu  Cu113  1  0.50044439  0.17489479  0.25124252  1
  Cu  Cu114  1  0.33146489  0.33749201  0.49368854  1
  Se  Se115  1  0.07645186  0.06209570  0.05363157  1
  Se  Se116  1  0.09549336  0.09961581  0.55353456  1
  Se  Se117  1  0.08499539  0.40487318  0.06736196  1
  Se  Se118  1  0.07514398  0.41839958  0.55383905  1
  Se  Se119  1  0.08030958  0.74512194  0.05812553  1
  Se  Se120  1  0.07700027  0.75341952  0.56962546  1
  Se  Se121  1  0.41988331  0.08698278  0.05746587  1
  Se  Se122  1  0.42109561  0.08481168  0.54922285  1
  Se  Se123  1  0.41001527  0.40843852  0.06166617  1
  Se  Se124  1  0.41508303  0.41725338  0.55015802  1
  Se  Se125  1  0.41585298  0.74301539  0.05047305  1
  Se  Se126  1  0.40810162  0.74452531  0.56113079  1
  Se  Se127  1  0.74840269  0.08869019  0.05379108  1
  Se  Se128  1  0.75302685  0.08352317  0.55680041  1
  Se  Se129  1  0.74924968  0.42069533  0.05850214  1
  Se  Se130  1  0.73972971  0.40361949  0.56031255  1
  Se  Se131  1  0.75538680  0.77088389  0.04382512  1
  Se  Se132  1  0.74200100  0.73684662  0.56247997  1
  Se  Se133  1  0.24707488  0.24321546  0.05975110  1
  Se  Se134  1  0.25210594  0.25342156  0.55068148  1
  Se  Se135  1  0.26355992  0.58757881  0.05135329  1
  Se  Se136  1  0.24196574  0.58286791  0.55703671  1
  Se  Se137  1  0.25041594  0.92143193  0.06656582  1
  Se  Se138  1  0.25981476  0.93052128  0.55150473  1
  Se  Se139  1  0.57915174  0.25203877  0.05557272  1
  Se  Se140  1  0.58186207  0.24498100  0.55192873  1
  Se  Se141  1  0.59679968  0.59176674  0.05652822  1
  Se  Se142  1  0.57912085  0.57694507  0.55092581  1
  Se  Se143  1  0.58455288  0.92532197  0.06694505  1
  Se  Se144  1  0.60186141  0.91761842  0.56155916  1
  Se  Se145  1  0.92363559  0.26389283  0.04574675  1
  Se  Se146  1  0.91455178  0.24763405  0.55359308  1
  Se  Se147  1  0.92399653  0.58741642  0.04860903  1
  Se  Se148  1  0.91496403  0.58793974  0.56546531  1
  Se  Se149  1  0.90178034  0.91293158  0.04610472  1
  Se  Se150  1  0.93284977  0.93126538  0.56244792  1
  Se  Se151  1  0.08238520  0.25009322  0.44855778  1
  Se  Se152  1  0.09284933  0.22327375  0.94428161  1
  Se  Se153  1  0.08400338  0.57996810  0.45750072  1
  Se  Se154  1  0.08376924  0.58867698  0.93835556  1
  Se  Se155  1  0.08459937  0.92743039  0.43516961  1
  Se  Se156  1  0.06560435  0.92106867  0.93314729  1
  Se  Se157  1  0.41458416  0.25226382  0.44158075  1
  Se  Se158  1  0.42238389  0.24330940  0.95069371  1
  Se  Se159  1  0.41726415  0.57857768  0.44968957  1
  Se  Se160  1  0.42210138  0.57987078  0.93221491  1
  Se  Se161  1  0.41824012  0.92200679  0.43657517  1
  Se  Se162  1  0.40497792  0.92771377  0.94613390  1
  Se  Se163  1  0.74889473  0.24704483  0.44460819  1
  Se  Se164  1  0.74644452  0.25580966  0.95419995  1
  Se  Se165  1  0.74433039  0.58551607  0.43768192  1
  Se  Se166  1  0.75463476  0.57814121  0.95233063  1
  Se  Se167  1  0.75522224  0.91781722  0.44134722  1
  Se  Se168  1  0.74004262  0.92506090  0.94048938  1
  Se  Se169  1  0.25099081  0.08830609  0.43694116  1
  Se  Se170  1  0.24588950  0.08632080  0.95212994  1
  Se  Se171  1  0.24152091  0.41738389  0.44317171  1
  Se  Se172  1  0.25737902  0.39863202  0.94205747  1
  Se  Se173  1  0.25695994  0.74171571  0.44338474  1
  Se  Se174  1  0.25487556  0.74802159  0.93968103  1
  Se  Se175  1  0.58627710  0.08159585  0.44800170  1
  Se  Se176  1  0.57806535  0.08551079  0.94975487  1
  Se  Se177  1  0.58247929  0.41947984  0.44336791  1
  Se  Se178  1  0.59004396  0.41073368  0.93649804  1
  Se  Se179  1  0.59089508  0.74778681  0.44029070  1
  Se  Se180  1  0.59517991  0.73843925  0.94135733  1
  Se  Se181  1  0.90733637  0.07713094  0.44897823  1
  Se  Se182  1  0.89328817  0.10031241  0.93771808  1
  Se  Se183  1  0.91337772  0.40579418  0.43740941  1
  Se  Se184  1  0.92878398  0.42076552  0.95673559  1
  Se  Se185  1  0.92441768  0.74362021  0.45044977  1
  Se  Se186  1  0.91391096  0.75338626  0.94107469  1
  Se  Se187  1  0.24068821  0.24478007  0.29707480  1
  Se  Se188  1  0.24686073  0.24695131  0.81051340  1
  Se  Se189  1  0.24515576  0.58337425  0.31192535  1
  Se  Se190  1  0.25335115  0.58525718  0.80111712  1
  Se  Se191  1  0.25308147  0.91996318  0.29747459  1
  Se  Se192  1  0.24059897  0.91722592  0.81704002  1
  Se  Se193  1  0.58646088  0.25364271  0.30640700  1
  Se  Se194  1  0.58418596  0.24068996  0.81198718  1
  Se  Se195  1  0.58490110  0.59158815  0.30141889  1
  Se  Se196  1  0.58915705  0.57610815  0.79986037  1
  Se  Se197  1  0.58909713  0.92128353  0.30081611  1
  Se  Se198  1  0.57950981  0.91385808  0.80392632  1
  Se  Se199  1  0.91196978  0.23657305  0.30915492  1
  Se  Se200  1  0.91908980  0.25553473  0.80820049  1
  Se  Se201  1  0.91052055  0.57402632  0.30838990  1
  Se  Se202  1  0.91654384  0.58484664  0.80745221  1
  Se  Se203  1  0.91743127  0.91500099  0.29870680  1
  Se  Se204  1  0.89910048  0.91858310  0.79389259  1
  Se  Se205  1  0.06606983  0.08242593  0.30248011  1
  Se  Se206  1  0.08056381  0.08255224  0.79749953  1
  Se  Se207  1  0.07878219  0.41707404  0.31372848  1
  Se  Se208  1  0.08621596  0.41953327  0.80553702  1
  Se  Se209  1  0.09033393  0.76071916  0.31139513  1
  Se  Se210  1  0.07799474  0.75278764  0.80126291  1
  Se  Se211  1  0.41824454  0.08704847  0.30212206  1
  Se  Se212  1  0.41808283  0.08369570  0.80949799  1
  Se  Se213  1  0.41830125  0.42092972  0.30394412  1
  Se  Se214  1  0.42159523  0.41961117  0.80355551  1
  Se  Se215  1  0.42612233  0.75795642  0.31231262  1
  Se  Se216  1  0.41520047  0.74545844  0.79960440  1
  Se  Se217  1  0.74625992  0.08576300  0.29963997  1
  Se  Se218  1  0.74379818  0.09012046  0.80195062  1
  Se  Se219  1  0.75707898  0.42489740  0.29767167  1
  Se  Se220  1  0.76866572  0.41041750  0.82090599  1
  Se  Se221  1  0.75541601  0.75108425  0.30306503  1
  Se  Se222  1  0.73777796  0.73197172  0.80600138  1
  Se  Se223  1  0.26504251  0.06992915  0.19757756  1
  Se  Se224  1  0.24677945  0.09640842  0.69234583  1
  Se  Se225  1  0.25561172  0.41148484  0.20800568  1
  Se  Se226  1  0.23949642  0.42389676  0.68596759  1
  Se  Se227  1  0.24007462  0.75328578  0.18740160  1
  Se  Se228  1  0.25118052  0.75368680  0.70306976  1
  Se  Se229  1  0.58299424  0.08961147  0.19839854  1
  Se  Se230  1  0.59017488  0.07243914  0.69714426  1
  Se  Se231  1  0.58760295  0.42166329  0.19931716  1
  Se  Se232  1  0.57239791  0.41327768  0.68814442  1
  Se  Se233  1  0.59212031  0.75106919  0.19803145  1
  Se  Se234  1  0.58745458  0.74731629  0.69694844  1
  Se  Se235  1  0.91522694  0.08618915  0.18690204  1
  Se  Se236  1  0.91742741  0.09371355  0.69690999  1
  Se  Se237  1  0.90682302  0.42348596  0.19083409  1
  Se  Se238  1  0.91782409  0.41485168  0.70121909  1
  Se  Se239  1  0.91069538  0.75358837  0.18266678  1
  Se  Se240  1  0.92620306  0.73942293  0.70521207  1
  Se  Se241  1  0.07836917  0.23502484  0.18476892  1
  Se  Se242  1  0.07992058  0.25836961  0.69557111  1
  Se  Se243  1  0.08850571  0.57184847  0.19794729  1
  Se  Se244  1  0.08070643  0.58733154  0.69937833  1
  Se  Se245  1  0.07429109  0.91571051  0.19670969  1
  Se  Se246  1  0.08887852  0.92323616  0.69735012  1
  Se  Se247  1  0.41422531  0.25585879  0.19814280  1
  Se  Se248  1  0.42843980  0.23382685  0.69383686  1
  Se  Se249  1  0.42501287  0.57926567  0.18485392  1
  Se  Se250  1  0.41530389  0.58523579  0.69200579  1
  Se  Se251  1  0.41595545  0.91294449  0.20102403  1
  Se  Se252  1  0.42450114  0.90801314  0.68520596  1
  Se  Se253  1  0.74848638  0.25300829  0.19241229  1
  Se  Se254  1  0.75226122  0.24813655  0.69155097  1
  Se  Se255  1  0.75343959  0.60303503  0.18992909  1
  Se  Se256  1  0.74858805  0.57254272  0.69967181  1
  Se  Se257  1  0.75003927  0.92314896  0.19601245  1
  Se  Se258  1  0.77638301  0.90701140  0.70277531  1
