# generated using pymatgen
data_In86Cu29Se144
_symmetry_space_group_name_H-M   'P 1'
_cell_length_a   17.57917793
_cell_length_b   17.57691317
_cell_length_c   23.43239000
_cell_angle_alpha   90.00947278
_cell_angle_beta   90.00774147
_cell_angle_gamma   90.01695190
_symmetry_Int_Tables_number   1
_chemical_formula_structural   In86Cu29Se144
_chemical_formula_sum   'In86 Cu29 Se144'
_cell_volume   7240.31943852
_cell_formula_units_Z   1
loop_
 _symmetry_equiv_pos_site_id
 _symmetry_equiv_pos_as_xyz
  1  'x, y, z'
loop_
 _atom_site_type_symbol
 _atom_site_label
 _atom_site_symmetry_multiplicity
 _atom_site_fract_x
 _atom_site_fract_y
 _atom_site_fract_z
 _atom_site_occupancy
  In  In0  1  0.00058389  0.16687123  0.13196405  1
  In  In1  1  0.00298567  0.16888489  0.61301754  1
  In  In2  1  -0.00395610  0.48708719  0.12408710  1
  In  In3  1  -0.01548086  0.50200606  0.62822804  1
  In  In4  1  0.02039907  0.83247031  0.13359475  1
  In  In5  1  0.00262279  0.83434429  0.60804954  1
  In  In6  1  0.31916499  0.16183556  0.13170002  1
  In  In7  1  0.32353805  0.16168097  0.61721413  1
  In  In8  1  0.34505189  0.51317885  0.11814364  1
  In  In9  1  0.34552442  0.50587300  0.62984645  1
  In  In10  1  0.33177496  0.82534947  0.13167079  1
  In  In11  1  0.32884604  0.83155626  0.61849803  1
  In  In12  1  0.68044362  0.15698833  0.13218237  1
  In  In13  1  0.67323728  0.16466866  0.62259044  1
  In  In14  1  0.65869042  0.50527159  0.13287164  1
  In  In15  1  0.67716464  0.48894638  0.63115173  1
  In  In16  1  0.65621485  0.84247212  0.13184960  1
  In  In17  1  0.67081021  0.83807955  0.61666060  1
  In  In18  1  0.16468823  -0.00105570  0.38639871  1
  In  In19  1  0.15802986  -0.00265189  0.87980154  1
  In  In20  1  0.14711639  0.32956303  0.37101368  1
  In  In21  1  0.17033750  0.35117572  0.86699413  1
  In  In22  1  0.18507602  0.68152908  0.36250768  1
  In  In23  1  0.17989112  0.65861518  0.88023199  1
  In  In24  1  0.49171326  -0.01667254  0.36805323  1
  In  In25  1  0.50302151  -0.02410416  0.87472075  1
  In  In26  1  0.51270757  0.32344624  0.37516189  1
  In  In27  1  0.51802311  0.33520163  0.87577714  1
  In  In28  1  0.50758710  0.67865452  0.36878888  1
  In  In29  1  0.48725792  0.68063307  0.88351423  1
  In  In30  1  0.83196141  0.00463522  0.37536759  1
  In  In31  1  0.83756429  0.01358976  0.87528309  1
  In  In32  1  0.83139838  0.32866479  0.38200408  1
  In  In33  1  0.82043197  0.32894933  0.86517448  1
  In  In34  1  0.82402866  0.67774069  0.38097474  1
  In  In35  1  0.83327961  0.66101252  0.87145349  1
  In  In36  1  -0.00844335  0.16203344  0.38350385  1
  In  In37  1  -0.01697044  0.16552508  0.87749808  1
  In  In38  1  -0.00060269  0.48638000  0.37150167  1
  In  In39  1  0.01622928  0.49555332  0.86763090  1
  In  In40  1  -0.00475115  0.84689742  0.38273501  1
  In  In41  1  0.00408678  0.84862714  0.87823495  1
  In  In42  1  0.33091291  0.13208619  0.37824242  1
  In  In43  1  0.33017590  0.16416397  0.87450658  1
  In  In44  1  0.32310587  0.51019213  0.36915445  1
  In  In45  1  0.32175105  0.51773438  0.88153246  1
  In  In46  1  0.33541162  0.84150130  0.37987362  1
  In  In47  1  0.34363482  0.82229383  0.88385373  1
  In  In48  1  0.68142115  0.17477671  0.36928956  1
  In  In49  1  0.67359680  0.17580988  0.86947965  1
  In  In50  1  0.67087849  0.50472140  0.37437560  1
  In  In51  1  0.66838241  0.48594361  0.87721577  1
  In  In52  1  0.66355493  0.83224210  0.37239312  1
  In  In53  1  0.64963858  0.82933212  0.87004252  1
  In  In54  1  0.18508924  -0.02662973  0.15580341  1
  In  In55  1  0.16098497  -0.00646389  0.60041598  1
  In  In56  1  0.15276097  0.33185744  0.12562501  1
  In  In57  1  0.16272332  0.32345982  0.62578559  1
  In  In58  1  0.17844354  0.67827028  0.12091288  1
  In  In59  1  0.17090467  0.67780686  0.62486844  1
  In  In60  1  0.50727346  -0.01201748  0.13078753  1
  In  In61  1  0.51197760  0.00058635  0.62136750  1
  In  In62  1  0.50165848  0.34650843  0.12516621  1
  In  In63  1  0.50782998  0.33789471  0.62856800  1
  In  In64  1  0.49823436  0.66792906  0.12742716  1
  In  In65  1  0.48889491  0.66828261  0.63029032  1
  In  In66  1  0.82648513  0.00867614  0.13359020  1
  In  In67  1  0.82892162  -0.00941901  0.60738003  1
  In  In68  1  0.84706058  0.31969924  0.13151910  1
  In  In69  1  0.83107838  0.33961230  0.62318195  1
  In  In70  1  0.82766260  0.65302981  0.13098647  1
  In  In71  1  0.83312262  0.66614599  0.61175917  1
  In  In72  1  0.66636409  0.66365778  0.74537604  1
  In  In73  1  0.15775992  0.16422321  0.00633922  1
  In  In74  1  0.50532268  0.50273349  0.50552214  1
  In  In75  1  0.83235163  0.83641822  0.00330999  1
  In  In76  1  0.00575190  0.66497733  0.74963671  1
  In  In77  1  -0.00265114  0.67071505  0.25467406  1
  In  In78  1  0.50089179  0.16139731  0.50004653  1
  In  In79  1  0.33652110  0.33721151  0.74613823  1
  In  In80  1  0.50278215  0.16694165  -0.00105013  1
  In  In81  1  0.83224397  0.49382954  -0.00189127  1
  In  In82  1  0.33396263  0.33135305  0.24945381  1
  In  In83  1  0.16057479  0.50356639  0.49413775  1
  In  In84  1  0.33592008  0.00031543  0.74553259  1
  In  In85  1  -0.00232652  0.00144044  0.73157029  1
  Cu  Cu86  1  0.15541069  0.16520576  0.74270548  1
  Cu  Cu87  1  0.67459221  0.33009760  0.00001750  1
  Cu  Cu88  1  0.00306945  0.66499074  0.49399053  1
  Cu  Cu89  1  0.33246863  0.66923419  0.00464191  1
  Cu  Cu90  1  0.16628789  0.50456801  0.24512449  1
  Cu  Cu91  1  0.49961926  0.50546988  0.75619676  1
  Cu  Cu92  1  0.17645939  0.83015414  0.74901051  1
  Cu  Cu93  1  -0.00048323  0.33064640  0.00036695  1
  Cu  Cu94  1  0.82615263  0.17327883  0.74619786  1
  Cu  Cu95  1  0.50204819  0.50130527  0.24971127  1
  Cu  Cu96  1  0.33301789  0.34542401  -0.00157764  1
  Cu  Cu97  1  0.33665892  0.67388699  0.49694739  1
  Cu  Cu98  1  0.66271111  -0.00190063  0.49151088  1
  Cu  Cu99  1  0.83642749  0.17078332  0.25771806  1
  Cu  Cu100  1  0.50782844  0.16132058  0.25278679  1
  Cu  Cu101  1  0.82758906  0.49018014  0.25256745  1
  Cu  Cu102  1  0.66913785  0.00119931  0.00456160  1
  Cu  Cu103  1  0.82833131  0.83422046  0.25735219  1
  Cu  Cu104  1  0.32652536  0.32412152  0.49740933  1
  Cu  Cu105  1  0.49600686  0.82852351  0.25040499  1
  Cu  Cu106  1  0.00707220  -0.00223895  0.00882541  1
  Cu  Cu107  1  0.33244505  -0.00912485  0.01195931  1
  Cu  Cu108  1  0.66690286  0.67049613  0.49720675  1
  Cu  Cu109  1  -0.00837825  0.33295420  0.49828333  1
  Cu  Cu110  1  0.15938535  0.16385098  0.25931217  1
  Cu  Cu111  1  0.65515566  0.66893207  0.00534591  1
  Cu  Cu112  1  0.50917005  0.16256401  0.74780686  1
  Cu  Cu113  1  0.00913467  0.66783583  -0.00217562  1
  Cu  Cu114  1  0.83226450  0.83635863  0.73791508  1
  Se  Se115  1  0.08961792  0.06879641  0.07387555  1
  Se  Se116  1  0.06876694  0.07588824  0.54333872  1
  Se  Se117  1  0.08277762  0.41649505  0.05075383  1
  Se  Se118  1  0.07690366  0.41278191  0.55723400  1
  Se  Se119  1  0.08506998  0.75334984  0.05383356  1
  Se  Se120  1  0.08948222  0.74439875  0.54819243  1
  Se  Se121  1  0.41130655  0.08135247  0.06340924  1
  Se  Se122  1  0.40744311  0.07002450  0.55536111  1
  Se  Se123  1  0.42169029  0.42131658  0.05167146  1
  Se  Se124  1  0.40673465  0.40493464  0.55667705  1
  Se  Se125  1  0.41669338  0.75197833  0.05818849  1
  Se  Se126  1  0.42200832  0.75014076  0.55369886  1
  Se  Se127  1  0.75555412  0.08440950  0.05327166  1
  Se  Se128  1  0.74329122  0.08181886  0.54705572  1
  Se  Se129  1  0.74912022  0.40953296  0.06635901  1
  Se  Se130  1  0.75099793  0.42289486  0.55219652  1
  Se  Se131  1  0.74420687  0.74305519  0.06282581  1
  Se  Se132  1  0.75377517  0.75557589  0.54761269  1
  Se  Se133  1  0.25698333  0.25962541  0.05748470  1
  Se  Se134  1  0.24053821  0.24613540  0.55107981  1
  Se  Se135  1  0.24655122  0.58194906  0.05345130  1
  Se  Se136  1  0.26023811  0.58559539  0.55491987  1
  Se  Se137  1  0.24536343  0.91362971  0.06535557  1
  Se  Se138  1  0.25768493  0.91423080  0.54542458  1
  Se  Se139  1  0.59184447  0.25284870  0.06246197  1
  Se  Se140  1  0.58801735  0.25863762  0.55520058  1
  Se  Se141  1  0.57879961  0.57967392  0.05827009  1
  Se  Se142  1  0.59387090  0.59370465  0.56628945  1
  Se  Se143  1  0.58338518  0.91585212  0.05205120  1
  Se  Se144  1  0.58230152  0.91551517  0.54752871  1
  Se  Se145  1  0.92258943  0.24369215  0.05490459  1
  Se  Se146  1  0.90921041  0.25132278  0.55316067  1
  Se  Se147  1  0.92351694  0.59015790  0.05539639  1
  Se  Se148  1  0.92101123  0.58184154  0.54804100  1
  Se  Se149  1  0.92244979  0.91876075  0.06750732  1
  Se  Se150  1  0.92641385  0.92278665  0.54266516  1
  Se  Se151  1  0.07952941  0.25091628  0.44811249  1
  Se  Se152  1  0.08196611  0.25411775  0.93652670  1
  Se  Se153  1  0.08214049  0.59447481  0.42653739  1
  Se  Se154  1  0.08403822  0.58042449  0.94258800  1
  Se  Se155  1  0.07730351  0.92032238  0.45625217  1
  Se  Se156  1  0.08842284  0.91413360  0.95474529  1
  Se  Se157  1  0.40820623  0.24921982  0.43589395  1
  Se  Se158  1  0.40885244  0.25958616  0.93946683  1
  Se  Se159  1  0.41390042  0.58681762  0.43994149  1
  Se  Se160  1  0.41620993  0.58570444  0.94996512  1
  Se  Se161  1  0.42533510  0.91434833  0.44980905  1
  Se  Se162  1  0.41627773  0.91616215  0.95174714  1
  Se  Se163  1  0.75029814  0.24354343  0.45037271  1
  Se  Se164  1  0.75577916  0.24778673  0.94514785  1
  Se  Se165  1  0.74996363  0.58385328  0.44761213  1
  Se  Se166  1  0.73981689  0.59307174  0.94508325  1
  Se  Se167  1  0.74854352  0.91394686  0.44039422  1
  Se  Se168  1  0.74587272  0.92184172  0.93803594  1
  Se  Se169  1  0.23987848  0.09061129  0.45601969  1
  Se  Se170  1  0.25781659  0.07444518  0.94840843  1
  Se  Se171  1  0.25281844  0.40952796  0.43650587  1
  Se  Se172  1  0.24464463  0.42202583  0.94539318  1
  Se  Se173  1  0.24827165  0.75300942  0.44583882  1
  Se  Se174  1  0.24789713  0.75192968  0.94982657  1
  Se  Se175  1  0.58533144  0.08033728  0.43036672  1
  Se  Se176  1  0.58988317  0.07677215  0.93805987  1
  Se  Se177  1  0.59089393  0.41055524  0.44562855  1
  Se  Se178  1  0.58669622  0.41560619  0.95342785  1
  Se  Se179  1  0.58123987  0.75296522  0.44637642  1
  Se  Se180  1  0.57986788  0.75713786  0.95052223  1
  Se  Se181  1  0.88849496  0.10098944  0.44857698  1
  Se  Se182  1  0.92184366  0.07695281  0.95348440  1
  Se  Se183  1  0.91397952  0.42178843  0.44641201  1
  Se  Se184  1  0.92249972  0.40899393  0.93580189  1
  Se  Se185  1  0.91734859  0.75148683  0.44604618  1
  Se  Se186  1  0.92268318  0.74461637  0.93953403  1
  Se  Se187  1  0.24973341  0.24352906  0.31508916  1
  Se  Se188  1  0.24305903  0.23937315  0.80198663  1
  Se  Se189  1  0.25337992  0.58881662  0.29215778  1
  Se  Se190  1  0.24478234  0.58083320  0.80122575  1
  Se  Se191  1  0.25600560  0.93147787  0.31485086  1
  Se  Se192  1  0.24712157  0.91522186  0.81224160  1
  Se  Se193  1  0.58984767  0.25022138  0.29974796  1
  Se  Se194  1  0.58596537  0.25289038  0.79997839  1
  Se  Se195  1  0.58403177  0.58354279  0.30596590  1
  Se  Se196  1  0.58050976  0.58442173  0.81719755  1
  Se  Se197  1  0.58434502  0.91314887  0.29898426  1
  Se  Se198  1  0.59460832  0.92519747  0.79903358  1
  Se  Se199  1  0.92026547  0.25370945  0.31106063  1
  Se  Se200  1  0.91413822  0.24771722  0.80274702  1
  Se  Se201  1  0.90622726  0.57732206  0.31077323  1
  Se  Se202  1  0.91182315  0.57245856  0.80498875  1
  Se  Se203  1  0.91357092  0.91779520  0.30677285  1
  Se  Se204  1  0.91276050  0.91432140  0.80170192  1
  Se  Se205  1  0.07970730  0.08221238  0.31602052  1
  Se  Se206  1  0.08105655  0.08434755  0.80665496  1
  Se  Se207  1  0.08427375  0.41849986  0.29602410  1
  Se  Se208  1  0.07869709  0.40677091  0.79366313  1
  Se  Se209  1  0.08524584  0.76692963  0.30807457  1
  Se  Se210  1  0.08956734  0.75998347  0.81163572  1
  Se  Se211  1  0.41969616  0.07842311  0.30016246  1
  Se  Se212  1  0.42718492  0.08866413  0.81014983  1
  Se  Se213  1  0.42349344  0.42125532  0.31273975  1
  Se  Se214  1  0.42019239  0.42124525  0.81533646  1
  Se  Se215  1  0.40975400  0.75154541  0.30677954  1
  Se  Se216  1  0.42491918  0.76187817  0.80498073  1
  Se  Se217  1  0.74901391  0.08049483  0.30022676  1
  Se  Se218  1  0.75196698  0.08464912  0.80334979  1
  Se  Se219  1  0.74723348  0.40995241  0.31040099  1
  Se  Se220  1  0.74819898  0.42303627  0.80019625  1
  Se  Se221  1  0.74447081  0.74511343  0.30273401  1
  Se  Se222  1  0.75974803  0.75866090  0.80516114  1
  Se  Se223  1  0.25164110  0.08484383  0.20969573  1
  Se  Se224  1  0.23341748  0.08001984  0.68621050  1
  Se  Se225  1  0.24811510  0.42176548  0.18605972  1
  Se  Se226  1  0.24367709  0.42404682  0.68731509  1
  Se  Se227  1  0.23831590  0.75653880  0.20098983  1
  Se  Se228  1  0.25955077  0.74809280  0.69617782  1
  Se  Se229  1  0.58801029  0.07787318  0.19538341  1
  Se  Se230  1  0.59052762  0.08145026  0.69256264  1
  Se  Se231  1  0.58480514  0.41288258  0.20137945  1
  Se  Se232  1  0.58044328  0.42306323  0.70035006  1
  Se  Se233  1  0.58345733  0.74741575  0.19720091  1
  Se  Se234  1  0.58101905  0.75953782  0.69004751  1
  Se  Se235  1  0.91596823  0.08636884  0.20060171  1
  Se  Se236  1  0.90088423  0.09223714  0.68164357  1
  Se  Se237  1  0.91821800  0.41421881  0.19981851  1
  Se  Se238  1  0.92179413  0.40732890  0.69583212  1
  Se  Se239  1  0.90556905  0.75740489  0.19029179  1
  Se  Se240  1  0.91745262  0.75517637  0.68493059  1
  Se  Se241  1  0.08449136  0.24969381  0.20142958  1
  Se  Se242  1  0.07157042  0.24817310  0.69260446  1
  Se  Se243  1  0.08139476  0.58289659  0.18644641  1
  Se  Se244  1  0.09274189  0.57780209  0.68623443  1
  Se  Se245  1  0.06199177  0.93223307  0.20663444  1
  Se  Se246  1  0.09568047  0.90571152  0.68530399  1
  Se  Se247  1  0.42660906  0.24039164  0.18960546  1
  Se  Se248  1  0.42206411  0.23676579  0.68763949  1
  Se  Se249  1  0.41625469  0.58415781  0.19850282  1
  Se  Se250  1  0.41435925  0.58796410  0.70545256  1
  Se  Se251  1  0.41480084  0.91520160  0.19726825  1
  Se  Se252  1  0.42462959  0.91147530  0.68736516  1
  Se  Se253  1  0.75256314  0.25056698  0.19947044  1
  Se  Se254  1  0.74363184  0.25646516  0.69205211  1
  Se  Se255  1  0.74613924  0.58016375  0.20383645  1
  Se  Se256  1  0.76780969  0.58059025  0.69255590  1
  Se  Se257  1  0.74859867  0.91674230  0.19803136  1
  Se  Se258  1  0.75112209  0.92169961  0.68711101  1
