# generated using pymatgen
data_In86Cu29Se144
_symmetry_space_group_name_H-M   'P 1'
_cell_length_a   17.57482775
_cell_length_b   17.57778337
_cell_length_c   23.44608214
_cell_angle_alpha   90.00347325
_cell_angle_beta   90.02572721
_cell_angle_gamma   90.00295866
_symmetry_Int_Tables_number   1
_chemical_formula_structural   In86Cu29Se144
_chemical_formula_sum   'In86 Cu29 Se144'
_cell_volume   7243.11569168
_cell_formula_units_Z   1
loop_
 _symmetry_equiv_pos_site_id
 _symmetry_equiv_pos_as_xyz
  1  'x, y, z'
loop_
 _atom_site_type_symbol
 _atom_site_label
 _atom_site_symmetry_multiplicity
 _atom_site_fract_x
 _atom_site_fract_y
 _atom_site_fract_z
 _atom_site_occupancy
  In  In0  1  -0.00051693  0.16381560  0.13295967  1
  In  In1  1  0.01338199  0.17213902  0.62202700  1
  In  In2  1  -0.00780449  0.50993872  0.13563808  1
  In  In3  1  -0.00542005  0.50119004  0.61651493  1
  In  In4  1  -0.00585841  0.83001221  0.12406863  1
  In  In5  1  -0.01566799  0.82551724  0.62509402  1
  In  In6  1  0.33955873  0.15776526  0.12861708  1
  In  In7  1  0.33885644  0.16009287  0.63226680  1
  In  In8  1  0.32236052  0.50035264  0.13075332  1
  In  In9  1  0.32427928  0.48831034  0.61951569  1
  In  In10  1  0.34428151  0.84832567  0.11324741  1
  In  In11  1  0.34467454  0.83308936  0.63492097  1
  In  In12  1  0.66306135  0.17009242  0.12314894  1
  In  In13  1  0.66565171  0.16698408  0.63279334  1
  In  In14  1  0.67401021  0.48375826  0.12795525  1
  In  In15  1  0.66614208  0.50228904  0.62138664  1
  In  In16  1  0.68039520  0.84533059  0.11567928  1
  In  In17  1  0.67045027  0.82262521  0.64566170  1
  In  In18  1  0.16480731  -0.00356382  0.36353176  1
  In  In19  1  0.16268363  -0.01612150  0.87763637  1
  In  In20  1  0.16569899  0.33470732  0.37610921  1
  In  In21  1  0.16760589  0.33648143  0.86899892  1
  In  In22  1  0.14832497  0.65666404  0.37648577  1
  In  In23  1  0.16399363  0.68318231  0.87334145  1
  In  In24  1  0.49948277  0.00411090  0.36525167  1
  In  In25  1  0.50641496  0.00193340  0.88000443  1
  In  In26  1  0.50800667  0.33808118  0.37132297  1
  In  In27  1  0.49932773  0.32419270  0.86919057  1
  In  In28  1  0.49896524  0.66191857  0.37923755  1
  In  In29  1  0.51146559  0.66884576  0.87249895  1
  In  In30  1  0.83874906  0.00481986  0.36002204  1
  In  In31  1  0.82223511  -0.00073880  0.87824468  1
  In  In32  1  0.84309524  0.35088564  0.36475038  1
  In  In33  1  0.83775422  0.34402156  0.86839826  1
  In  In34  1  0.83632227  0.65376910  0.37949920  1
  In  In35  1  0.83019073  0.66667389  0.87315269  1
  In  In36  1  -0.00182043  0.16855025  0.36862530  1
  In  In37  1  -0.01103248  0.17460851  0.87431695  1
  In  In38  1  -0.00246989  0.49715717  0.38673308  1
  In  In39  1  -0.01186609  0.49511367  0.86772281  1
  In  In40  1  -0.00241248  0.83537726  0.36198758  1
  In  In41  1  0.00841046  0.82545138  0.88262805  1
  In  In42  1  0.33007486  0.16639997  0.36649018  1
  In  In43  1  0.34309151  0.17767133  0.87315535  1
  In  In44  1  0.34028110  0.48705355  0.38459239  1
  In  In45  1  0.34293486  0.49406116  0.86858198  1
  In  In46  1  0.32657997  0.83961007  0.36783329  1
  In  In47  1  0.32500463  0.84703105  0.87955456  1
  In  In48  1  0.66441342  0.16535640  0.36759099  1
  In  In49  1  0.66040291  0.15482057  0.87046156  1
  In  In50  1  0.68349029  0.49621145  0.38919774  1
  In  In51  1  0.67462632  0.51313636  0.86382265  1
  In  In52  1  0.66318708  0.83425704  0.36770778  1
  In  In53  1  0.66457637  0.83540099  0.87824202  1
  In  In54  1  0.16473665  -0.00474759  0.12394636  1
  In  In55  1  0.17328030  0.00903525  0.62460502  1
  In  In56  1  0.16646850  0.32949284  0.13586862  1
  In  In57  1  0.15280728  0.34766529  0.63598160  1
  In  In58  1  0.14637083  0.66947970  0.12814720  1
  In  In59  1  0.15838167  0.64764036  0.61762731  1
  In  In60  1  0.50229742  0.00339024  0.12085729  1
  In  In61  1  0.50618334  -0.01688248  0.64440920  1
  In  In62  1  0.50845762  0.32222367  0.12832145  1
  In  In63  1  0.49527847  0.33818751  0.62917567  1
  In  In64  1  0.49218182  0.67284623  0.11894329  1
  In  In65  1  0.53296885  0.65776607  0.63647879  1
  In  In66  1  0.84975245  -0.03078464  0.14596061  1
  In  In67  1  0.82911422  -0.01217585  0.62693041  1
  In  In68  1  0.83007881  0.33834538  0.12740386  1
  In  In69  1  0.82514256  0.34177266  0.62727784  1
  In  In70  1  0.84980955  0.67864688  0.11565127  1
  In  In71  1  0.83614244  0.65811179  0.62753635  1
  In  In72  1  0.00062442  0.00318162  0.75050138  1
  In  In73  1  0.49777841  0.16813316  0.50614703  1
  In  In74  1  0.50505276  0.82370400  0.50596064  1
  In  In75  1  0.16711139  0.17070999  0.49539729  1
  In  In76  1  0.83453443  0.82796118  0.49841122  1
  In  In77  1  0.82631925  0.15808035  0.00030033  1
  In  In78  1  0.50722840  0.50460720  -0.00410711  1
  In  In79  1  0.16545189  0.82673007  0.48967419  1
  In  In80  1  0.16198090  0.50487118  0.00619624  1
  In  In81  1  0.83710754  0.17498524  0.49251554  1
  In  In82  1  0.33051143  0.66991388  0.25201880  1
  In  In83  1  0.33100777  0.66433807  0.75086056  1
  In  In84  1  0.67371657  0.66745604  0.25067328  1
  In  In85  1  0.16935994  0.16265394  0.01085206  1
  Cu  Cu86  1  0.50308366  0.49465013  0.74691833  1
  Cu  Cu87  1  0.67185391  0.66492953  -0.00601863  1
  Cu  Cu88  1  0.17486924  0.16920428  0.75091972  1
  Cu  Cu89  1  0.83531702  0.49798004  0.25428987  1
  Cu  Cu90  1  0.50455793  0.84302788  0.24084350  1
  Cu  Cu91  1  0.33577568  -0.00685506  0.50156407  1
  Cu  Cu92  1  0.67056079  -0.00364695  0.50220676  1
  Cu  Cu93  1  0.16313162  0.49250804  0.25570265  1
  Cu  Cu94  1  0.82831361  0.83025990  0.75491861  1
  Cu  Cu95  1  0.50207527  0.49276843  0.25504753  1
  Cu  Cu96  1  0.50573379  0.16310791  0.75317279  1
  Cu  Cu97  1  0.16105156  0.17084980  0.24985637  1
  Cu  Cu98  1  0.83021913  0.50404760  0.74423225  1
  Cu  Cu99  1  0.67025321  0.34630026  0.49769128  1
  Cu  Cu100  1  0.16038732  0.82857831  0.75197069  1
  Cu  Cu101  1  0.32802914  0.33060705  0.50385210  1
  Cu  Cu102  1  0.15927046  0.49676772  0.74372627  1
  Cu  Cu103  1  0.16991347  0.83741087  0.24463484  1
  Cu  Cu104  1  0.66759571  -0.00419904  0.00264204  1
  Cu  Cu105  1  0.33672653  0.00697112  -0.00083900  1
  Cu  Cu106  1  0.49494813  0.16690337  0.24585531  1
  Cu  Cu107  1  0.66989298  0.33390465  -0.00037535  1
  Cu  Cu108  1  0.33001775  0.68175840  -0.00389840  1
  Cu  Cu109  1  0.82089016  0.16874621  0.24604895  1
  Cu  Cu110  1  0.34491578  0.33738712  -0.00156709  1
  Cu  Cu111  1  -0.00585161  0.66585762  0.00013439  1
  Cu  Cu112  1  0.33787351  0.65872137  0.50125386  1
  Cu  Cu113  1  0.83577824  0.17548307  0.74988188  1
  Cu  Cu114  1  -0.00265825  0.33607378  -0.00188079  1
  Se  Se115  1  0.06718420  0.07475104  0.05718998  1
  Se  Se116  1  0.07782610  0.07207298  0.55183061  1
  Se  Se117  1  0.07639146  0.40968478  0.06415217  1
  Se  Se118  1  0.08759842  0.41746838  0.55512350  1
  Se  Se119  1  0.07979455  0.74966640  0.05131331  1
  Se  Se120  1  0.07566671  0.74586286  0.55612780  1
  Se  Se121  1  0.42042114  0.08993247  0.05166394  1
  Se  Se122  1  0.41901460  0.06551885  0.56358328  1
  Se  Se123  1  0.41639680  0.42167638  0.06164391  1
  Se  Se124  1  0.41765417  0.41278872  0.55317389  1
  Se  Se125  1  0.42183020  0.75773279  0.04657255  1
  Se  Se126  1  0.41278737  0.73612159  0.56523127  1
  Se  Se127  1  0.74918097  0.06890081  0.06767544  1
  Se  Se128  1  0.74846019  0.08244846  0.55785998  1
  Se  Se129  1  0.75491977  0.41657179  0.05019631  1
  Se  Se130  1  0.75563296  0.42496950  0.55175165  1
  Se  Se131  1  0.75175815  0.74833262  0.05137853  1
  Se  Se132  1  0.74172989  0.74930753  0.56357812  1
  Se  Se133  1  0.26044548  0.26267604  0.06029540  1
  Se  Se134  1  0.25270869  0.25020904  0.56630695  1
  Se  Se135  1  0.25680249  0.59964654  0.06005115  1
  Se  Se136  1  0.24935017  0.57632502  0.54971878  1
  Se  Se137  1  0.24929909  0.92385949  0.04957382  1
  Se  Se138  1  0.25524680  0.91148645  0.55839593  1
  Se  Se139  1  0.58410630  0.25096232  0.04961691  1
  Se  Se140  1  0.59533285  0.25938884  0.55724845  1
  Se  Se141  1  0.59606717  0.58862025  0.06215571  1
  Se  Se142  1  0.57710811  0.57920023  0.55252685  1
  Se  Se143  1  0.57895102  0.91299705  0.05270613  1
  Se  Se144  1  0.59488160  0.91679641  0.56444475  1
  Se  Se145  1  0.91999662  0.25138827  0.05729836  1
  Se  Se146  1  0.92182829  0.25808391  0.56028655  1
  Se  Se147  1  0.91818101  0.57506763  0.05309191  1
  Se  Se148  1  0.91444734  0.59055359  0.55095925  1
  Se  Se149  1  0.90788745  0.91127280  0.05653568  1
  Se  Se150  1  0.92523233  0.92677583  0.55369983  1
  Se  Se151  1  0.06818112  0.25819563  0.44430912  1
  Se  Se152  1  0.08298706  0.25535065  0.94448616  1
  Se  Se153  1  0.08599805  0.57727516  0.45398996  1
  Se  Se154  1  0.07752979  0.58828450  0.93816855  1
  Se  Se155  1  0.07671775  0.92375776  0.43705837  1
  Se  Se156  1  0.07757675  0.91898929  0.95030326  1
  Se  Se157  1  0.40833851  0.25232280  0.44193283  1
  Se  Se158  1  0.42530575  0.25067231  0.94840608  1
  Se  Se159  1  0.42272915  0.57714288  0.44826132  1
  Se  Se160  1  0.40674118  0.59306225  0.94016515  1
  Se  Se161  1  0.41813020  0.91662523  0.44074391  1
  Se  Se162  1  0.41766513  0.91990137  0.94669392  1
  Se  Se163  1  0.74063413  0.25985683  0.43516100  1
  Se  Se164  1  0.74775087  0.25400480  0.93614195  1
  Se  Se165  1  0.74885414  0.59376743  0.45435083  1
  Se  Se166  1  0.75308794  0.57771170  0.94385412  1
  Se  Se167  1  0.74821930  0.92359640  0.43709924  1
  Se  Se168  1  0.75182391  0.91258890  0.95010768  1
  Se  Se169  1  0.25767507  0.07219815  0.44055281  1
  Se  Se170  1  0.25300500  0.08357970  0.93808055  1
  Se  Se171  1  0.24540620  0.41340008  0.44953199  1
  Se  Se172  1  0.25683912  0.41620907  0.94454688  1
  Se  Se173  1  0.26364653  0.73621733  0.43532560  1
  Se  Se174  1  0.24081204  0.76108791  0.94663606  1
  Se  Se175  1  0.58712818  0.07625332  0.44426383  1
  Se  Se176  1  0.58798247  0.08582909  0.95154071  1
  Se  Se177  1  0.57804989  0.42164013  0.44576963  1
  Se  Se178  1  0.59231977  0.41336644  0.93482415  1
  Se  Se179  1  0.59782814  0.74172303  0.44237724  1
  Se  Se180  1  0.58283113  0.74862608  0.94795490  1
  Se  Se181  1  0.92247525  0.07495729  0.43957163  1
  Se  Se182  1  0.92514718  0.07454301  0.94187750  1
  Se  Se183  1  0.90374603  0.41732242  0.44951889  1
  Se  Se184  1  0.91464152  0.41888234  0.94561944  1
  Se  Se185  1  0.93061887  0.74586260  0.43900108  1
  Se  Se186  1  0.91226134  0.74832663  0.94420924  1
  Se  Se187  1  0.24526819  0.25271760  0.30417163  1
  Se  Se188  1  0.25554948  0.25542984  0.80438354  1
  Se  Se189  1  0.24825477  0.57505138  0.31299037  1
  Se  Se190  1  0.23713895  0.57418384  0.81043647  1
  Se  Se191  1  0.25556400  0.92268189  0.29448401  1
  Se  Se192  1  0.24338420  0.91499764  0.80108895  1
  Se  Se193  1  0.57893836  0.24778899  0.30182115  1
  Se  Se194  1  0.59091535  0.24989954  0.80220596  1
  Se  Se195  1  0.58313344  0.57669487  0.31073115  1
  Se  Se196  1  0.58056875  0.58640328  0.79715290  1
  Se  Se197  1  0.58602145  0.92144160  0.30011283  1
  Se  Se198  1  0.59530229  0.92922343  0.81050564  1
  Se  Se199  1  0.90730648  0.24649291  0.30312820  1
  Se  Se200  1  0.92128072  0.25866253  0.80022219  1
  Se  Se201  1  0.92039694  0.57752901  0.30928438  1
  Se  Se202  1  0.91265479  0.58578065  0.80131432  1
  Se  Se203  1  0.91905607  0.91957710  0.29489244  1
  Se  Se204  1  0.91312071  0.91230725  0.81096464  1
  Se  Se205  1  0.07976898  0.08366523  0.30110471  1
  Se  Se206  1  0.09126166  0.09273612  0.81280868  1
  Se  Se207  1  0.07655175  0.41603856  0.31138389  1
  Se  Se208  1  0.07940371  0.41519154  0.80329836  1
  Se  Se209  1  0.09438586  0.75347396  0.30371189  1
  Se  Se210  1  0.07268133  0.74696415  0.80057385  1
  Se  Se211  1  0.41131948  0.08212052  0.29895512  1
  Se  Se212  1  0.42158047  0.08493998  0.81013150  1
  Se  Se213  1  0.41297743  0.41274586  0.30550596  1
  Se  Se214  1  0.41939465  0.41086654  0.79941983  1
  Se  Se215  1  0.43071830  0.76088690  0.30611433  1
  Se  Se216  1  0.41342027  0.75453328  0.81426699  1
  Se  Se217  1  0.74182827  0.08042523  0.29852185  1
  Se  Se218  1  0.75808547  0.08685935  0.80324355  1
  Se  Se219  1  0.74063834  0.42117999  0.30331388  1
  Se  Se220  1  0.74881537  0.41845304  0.79897695  1
  Se  Se221  1  0.76556417  0.75519920  0.30996800  1
  Se  Se222  1  0.74181870  0.74798448  0.80660038  1
  Se  Se223  1  0.24016778  0.08775184  0.19127037  1
  Se  Se224  1  0.25298172  0.07913476  0.70028950  1
  Se  Se225  1  0.25084176  0.41482652  0.20188772  1
  Se  Se226  1  0.25399985  0.41505616  0.70035270  1
  Se  Se227  1  0.24999014  0.75706138  0.18357835  1
  Se  Se228  1  0.23703613  0.74849724  0.68713095  1
  Se  Se229  1  0.58137615  0.08602778  0.19243727  1
  Se  Se230  1  0.58965726  0.07897644  0.70073829  1
  Se  Se231  1  0.58335073  0.41310436  0.19673803  1
  Se  Se232  1  0.58904896  0.41463714  0.69272651  1
  Se  Se233  1  0.58089049  0.75314398  0.18719160  1
  Se  Se234  1  0.54998620  0.77651022  0.69775496  1
  Se  Se235  1  0.91006642  0.08517470  0.19855929  1
  Se  Se236  1  0.91125940  0.09217515  0.68689870  1
  Se  Se237  1  0.91713535  0.41345182  0.19844787  1
  Se  Se238  1  0.91590817  0.42125340  0.69222643  1
  Se  Se239  1  0.92968084  0.73615061  0.19568178  1
  Se  Se240  1  0.91088389  0.74782596  0.69943062  1
  Se  Se241  1  0.07371731  0.25477482  0.20075085  1
  Se  Se242  1  0.08371454  0.24756979  0.70036845  1
  Se  Se243  1  0.08471033  0.58210836  0.20377974  1
  Se  Se244  1  0.07550049  0.58089275  0.69316120  1
  Se  Se245  1  0.08047157  0.91501196  0.19227705  1
  Se  Se246  1  0.08624399  0.91072039  0.68659789  1
  Se  Se247  1  0.41179964  0.25311158  0.19478884  1
  Se  Se248  1  0.42305140  0.24510866  0.69676634  1
  Se  Se249  1  0.42614102  0.57726421  0.19464313  1
  Se  Se250  1  0.41929862  0.57600835  0.68776265  1
  Se  Se251  1  0.41514960  0.92357093  0.19176413  1
  Se  Se252  1  0.39963630  0.92757984  0.70665662  1
  Se  Se253  1  0.74258424  0.25574761  0.19233398  1
  Se  Se254  1  0.74837277  0.25449930  0.69668462  1
  Se  Se255  1  0.76128214  0.57829499  0.18828349  1
  Se  Se256  1  0.74168509  0.58757596  0.69507263  1
  Se  Se257  1  0.73999443  0.90882862  0.20327709  1
  Se  Se258  1  0.74931526  0.92099406  0.70402742  1
