# generated using pymatgen
data_In86Cu29Se144
_symmetry_space_group_name_H-M   'P 1'
_cell_length_a   17.58491571
_cell_length_b   17.58649293
_cell_length_c   23.44323374
_cell_angle_alpha   89.97567946
_cell_angle_beta   89.99631285
_cell_angle_gamma   89.99365671
_symmetry_Int_Tables_number   1
_chemical_formula_structural   In86Cu29Se144
_chemical_formula_sum   'In86 Cu29 Se144'
_cell_volume   7249.98332805
_cell_formula_units_Z   1
loop_
 _symmetry_equiv_pos_site_id
 _symmetry_equiv_pos_as_xyz
  1  'x, y, z'
loop_
 _atom_site_type_symbol
 _atom_site_label
 _atom_site_symmetry_multiplicity
 _atom_site_fract_x
 _atom_site_fract_y
 _atom_site_fract_z
 _atom_site_occupancy
  In  In0  1  0.00936608  0.15934078  0.13160940  1
  In  In1  1  0.01141901  0.15923483  0.62260437  1
  In  In2  1  -0.00077789  0.49829306  0.12736246  1
  In  In3  1  0.00043609  0.48930826  0.62172616  1
  In  In4  1  -0.02132590  0.84968461  0.14417182  1
  In  In5  1  0.01336364  0.84459613  0.62267724  1
  In  In6  1  0.32607734  0.16027739  0.11881580  1
  In  In7  1  0.31819460  0.17117968  0.62264675  1
  In  In8  1  0.33792668  0.50577920  0.11653688  1
  In  In9  1  0.34454691  0.50292802  0.61734708  1
  In  In10  1  0.34724281  0.83147044  0.12448001  1
  In  In11  1  0.34240983  0.82408203  0.63402828  1
  In  In12  1  0.65144296  0.17476009  0.13597711  1
  In  In13  1  0.66816157  0.16883878  0.64303290  1
  In  In14  1  0.65573489  0.49265251  0.11567442  1
  In  In15  1  0.65490444  0.50153517  0.62890622  1
  In  In16  1  0.67663004  0.84482104  0.11333327  1
  In  In17  1  0.66740465  0.84693475  0.62659707  1
  In  In18  1  0.17610544  0.00598301  0.36433016  1
  In  In19  1  0.17256209  0.00693811  0.87052855  1
  In  In20  1  0.16311408  0.34135347  0.38259594  1
  In  In21  1  0.16220873  0.33448961  0.88385221  1
  In  In22  1  0.15848197  0.66529704  0.37212170  1
  In  In23  1  0.16813324  0.65580148  0.87470779  1
  In  In24  1  0.48837679  0.00012021  0.36579734  1
  In  In25  1  0.50033745  -0.00142374  0.87719190  1
  In  In26  1  0.51101645  0.33376947  0.37059488  1
  In  In27  1  0.50609583  0.32125364  0.88226414  1
  In  In28  1  0.50184607  0.66677152  0.37933586  1
  In  In29  1  0.49516744  0.67826799  0.88834781  1
  In  In30  1  0.83745400  -0.00613609  0.36380289  1
  In  In31  1  0.82283476  -0.00460869  0.87042303  1
  In  In32  1  0.82581456  0.32521733  0.36167231  1
  In  In33  1  0.82988842  0.34522714  0.87931813  1
  In  In34  1  0.83897502  0.66650172  0.36807828  1
  In  In35  1  0.81438774  0.67748097  0.90128352  1
  In  In36  1  0.00376969  0.17228654  0.36593183  1
  In  In37  1  0.01186493  0.16745060  0.87822838  1
  In  In38  1  0.01089758  0.50800608  0.36387038  1
  In  In39  1  -0.00294169  0.50242624  0.88630896  1
  In  In40  1  0.02307826  0.84965606  0.34028667  1
  In  In41  1  -0.01333300  0.83713125  0.87975633  1
  In  In42  1  0.33629081  0.15215636  0.37594906  1
  In  In43  1  0.34064865  0.16020971  0.88322977  1
  In  In44  1  0.33818145  0.49137705  0.38545617  1
  In  In45  1  0.32714920  0.50417229  0.87807365  1
  In  In46  1  0.33602512  0.85000226  0.37135508  1
  In  In47  1  0.34143101  0.84369633  0.86909853  1
  In  In48  1  0.65349358  0.16659140  0.35809004  1
  In  In49  1  0.65880091  0.15246972  0.86610557  1
  In  In50  1  0.66004876  0.49125675  0.37011881  1
  In  In51  1  0.66758957  0.49792095  0.88787580  1
  In  In52  1  0.65406131  0.82951229  0.37389916  1
  In  In53  1  0.65726792  0.84380686  0.88901425  1
  In  In54  1  0.15671124  0.00215457  0.13378652  1
  In  In55  1  0.16563039  0.00840585  0.62884838  1
  In  In56  1  0.16401495  0.32656759  0.12128969  1
  In  In57  1  0.18248086  0.33791189  0.60270394  1
  In  In58  1  0.16475773  0.65588025  0.12568792  1
  In  In59  1  0.18304515  0.67241744  0.62461184  1
  In  In60  1  0.50179418  0.00275345  0.12576827  1
  In  In61  1  0.50814041  -0.00901504  0.63126351  1
  In  In62  1  0.50454767  0.34037840  0.12144481  1
  In  In63  1  0.50201770  0.34184431  0.62649593  1
  In  In64  1  0.50625170  0.66444685  0.11092742  1
  In  In65  1  0.49155546  0.66009550  0.62179548  1
  In  In66  1  0.82854728  -0.00662611  0.13058067  1
  In  In67  1  0.83419676  0.01265225  0.64059615  1
  In  In68  1  0.82285542  0.34152535  0.13105510  1
  In  In69  1  0.83142863  0.32483256  0.63116043  1
  In  In70  1  0.83668185  0.67676628  0.11424809  1
  In  In71  1  0.83565604  0.66158969  0.62799714  1
  In  In72  1  0.33306937  0.33108123  0.74389000  1
  In  In73  1  0.33383668  0.66347438  0.24115271  1
  In  In74  1  -0.00143956  0.66913373  0.75754481  1
  In  In75  1  0.83231825  0.16805119  0.50342878  1
  In  In76  1  -0.00106350  0.32608578  0.74978968  1
  In  In77  1  0.83474945  0.83045310  0.49324151  1
  In  In78  1  0.34054072  0.32776537  0.25379014  1
  In  In79  1  0.82873592  0.49568547  0.48444429  1
  In  In80  1  0.49239076  0.17164593  0.49983544  1
  In  In81  1  0.65836284  0.67289118  0.76798523  1
  In  In82  1  0.16949519  0.83322425  0.49342556  1
  In  In83  1  0.83454514  0.16672782  0.00172731  1
  In  In84  1  0.67283167  0.67239176  0.24299288  1
  In  In85  1  0.16495494  0.83085882  0.00872500  1
  Cu  Cu86  1  0.66537701  0.33661219  0.49783610  1
  Cu  Cu87  1  0.65750018  0.00144510  0.50213836  1
  Cu  Cu88  1  0.66236538  0.32848037  0.00385134  1
  Cu  Cu89  1  0.49804164  0.15699768  0.75816544  1
  Cu  Cu90  1  0.16996164  0.49144478  0.24963090  1
  Cu  Cu91  1  0.49519018  0.49658153  0.74834257  1
  Cu  Cu92  1  0.00175425  0.66468478  0.00438302  1
  Cu  Cu93  1  0.00032724  0.66228949  0.48949486  1
  Cu  Cu94  1  0.16718921  0.50498548  0.75079990  1
  Cu  Cu95  1  0.16793522  0.84119936  0.74817068  1
  Cu  Cu96  1  0.33778692  -0.00072592  -0.00429033  1
  Cu  Cu97  1  0.50161169  0.84003229  0.24687785  1
  Cu  Cu98  1  0.83529203  0.16213680  0.24396618  1
  Cu  Cu99  1  0.83457894  0.50055680  0.24646712  1
  Cu  Cu100  1  0.82579691  0.50463936  0.76371062  1
  Cu  Cu101  1  -0.00079886  -0.00270205  0.01016086  1
  Cu  Cu102  1  0.00320280  0.33324914  0.00571691  1
  Cu  Cu103  1  0.65459128  0.66966140  0.50159081  1
  Cu  Cu104  1  0.33422847  -0.00394293  0.49972076  1
  Cu  Cu105  1  0.16461673  0.16814097  0.24748433  1
  Cu  Cu106  1  -0.00025454  0.00022526  0.49959378  1
  Cu  Cu107  1  0.33170940  0.33425201  0.00207173  1
  Cu  Cu108  1  0.33129608  0.66828326  0.00085078  1
  Cu  Cu109  1  0.50366916  0.83346446  0.75556908  1
  Cu  Cu110  1  0.83662619  0.84243218  0.75284985  1
  Cu  Cu111  1  0.33756602  0.66407247  0.50154803  1
  Cu  Cu112  1  0.00860247  0.33493447  0.49102012  1
  Cu  Cu113  1  0.66166112  0.00500151  -0.00005487  1
  Cu  Cu114  1  0.16822805  0.16696856  0.74949948  1
  Se  Se115  1  0.08639077  0.08211611  0.05602319  1
  Se  Se116  1  0.08867799  0.08010691  0.54970191  1
  Se  Se117  1  0.08602858  0.41956457  0.05691750  1
  Se  Se118  1  0.08418768  0.42182709  0.54758887  1
  Se  Se119  1  0.07077415  0.74866036  0.06889054  1
  Se  Se120  1  0.07713802  0.74093445  0.55492777  1
  Se  Se121  1  0.41801505  0.08196409  0.05368239  1
  Se  Se122  1  0.41245904  0.07486343  0.56305388  1
  Se  Se123  1  0.41820914  0.41779264  0.05132139  1
  Se  Se124  1  0.40691662  0.39837322  0.55628627  1
  Se  Se125  1  0.41863173  0.75208124  0.04875207  1
  Se  Se126  1  0.41657313  0.75224622  0.55473703  1
  Se  Se127  1  0.74180880  0.08278460  0.06270462  1
  Se  Se128  1  0.73953186  0.07855517  0.56257532  1
  Se  Se129  1  0.74991559  0.41242881  0.05158999  1
  Se  Se130  1  0.74826120  0.41326555  0.55911530  1
  Se  Se131  1  0.73652929  0.74130903  0.04919964  1
  Se  Se132  1  0.74550123  0.74146738  0.55937187  1
  Se  Se133  1  0.24690917  0.24781069  0.05101618  1
  Se  Se134  1  0.24862771  0.23756073  0.54118519  1
  Se  Se135  1  0.24668493  0.58357153  0.05096489  1
  Se  Se136  1  0.25079215  0.58360271  0.55385543  1
  Se  Se137  1  0.25746900  0.92531971  0.06186369  1
  Se  Se138  1  0.25463285  0.91622426  0.56203162  1
  Se  Se139  1  0.57859576  0.24434777  0.05504231  1
  Se  Se140  1  0.59415100  0.25112122  0.56102370  1
  Se  Se141  1  0.58174907  0.57709015  0.04421788  1
  Se  Se142  1  0.57966709  0.57916459  0.55482074  1
  Se  Se143  1  0.57809359  0.91853728  0.05154498  1
  Se  Se144  1  0.57918397  0.91233885  0.55276806  1
  Se  Se145  1  0.92154347  0.25398382  0.06590609  1
  Se  Se146  1  0.92797928  0.26226949  0.55681384  1
  Se  Se147  1  0.91784778  0.57957044  0.05551999  1
  Se  Se148  1  0.91845304  0.58541489  0.55117681  1
  Se  Se149  1  0.91185969  0.91473021  0.05822783  1
  Se  Se150  1  0.91564214  0.92571296  0.55981873  1
  Se  Se151  1  0.08485683  0.24129688  0.44246552  1
  Se  Se152  1  0.08465169  0.24774133  0.95282178  1
  Se  Se153  1  0.08787744  0.57669083  0.44406807  1
  Se  Se154  1  0.08639029  0.58503417  0.94961703  1
  Se  Se155  1  0.07542249  0.92037223  0.43481754  1
  Se  Se156  1  0.08057683  0.92224276  0.94455900  1
  Se  Se157  1  0.40922517  0.26001483  0.43537983  1
  Se  Se158  1  0.41600691  0.24811880  0.95125104  1
  Se  Se159  1  0.42180701  0.58174166  0.44769562  1
  Se  Se160  1  0.41306293  0.58288113  0.94731638  1
  Se  Se161  1  0.42120888  0.91947137  0.44516267  1
  Se  Se162  1  0.42087505  0.91164652  0.94722676  1
  Se  Se163  1  0.73946153  0.25046956  0.43858659  1
  Se  Se164  1  0.74072554  0.24997260  0.93992076  1
  Se  Se165  1  0.73635156  0.59667804  0.43681101  1
  Se  Se166  1  0.76738246  0.56039453  0.95413670  1
  Se  Se167  1  0.74182068  0.92659534  0.44098974  1
  Se  Se168  1  0.75267595  0.92292715  0.95104428  1
  Se  Se169  1  0.24922527  0.07547394  0.44542023  1
  Se  Se170  1  0.24771404  0.08185762  0.94774913  1
  Se  Se171  1  0.24912386  0.41658467  0.45090959  1
  Se  Se172  1  0.24855347  0.41839478  0.94735296  1
  Se  Se173  1  0.26195162  0.74192406  0.43596143  1
  Se  Se174  1  0.25280859  0.74985617  0.93949188  1
  Se  Se175  1  0.58462866  0.08362867  0.43960620  1
  Se  Se176  1  0.57917785  0.08756869  0.94548515  1
  Se  Se177  1  0.58038760  0.41910688  0.44660350  1
  Se  Se178  1  0.57832471  0.41308271  0.95044022  1
  Se  Se179  1  0.57524642  0.75652277  0.44938487  1
  Se  Se180  1  0.60749444  0.73044573  0.94763979  1
  Se  Se181  1  0.91799028  0.07832119  0.43938917  1
  Se  Se182  1  0.92353876  0.07470794  0.94279777  1
  Se  Se183  1  0.92241221  0.40553763  0.42985413  1
  Se  Se184  1  0.91790291  0.41312837  0.95171106  1
  Se  Se185  1  0.93085152  0.75180758  0.43169026  1
  Se  Se186  1  0.91909480  0.75355568  0.95472792  1
  Se  Se187  1  0.24281826  0.24423605  0.31232507  1
  Se  Se188  1  0.24528717  0.24831418  0.81154232  1
  Se  Se189  1  0.25174159  0.57270850  0.30876453  1
  Se  Se190  1  0.25416044  0.58554938  0.80137893  1
  Se  Se191  1  0.24017610  0.90450625  0.30094248  1
  Se  Se192  1  0.25305465  0.92196218  0.80257826  1
  Se  Se193  1  0.58540262  0.26250429  0.29324115  1
  Se  Se194  1  0.57989453  0.24870745  0.80373438  1
  Se  Se195  1  0.57933860  0.58484559  0.30372240  1
  Se  Se196  1  0.56914957  0.57338363  0.81695573  1
  Se  Se197  1  0.58334142  0.91930039  0.30444969  1
  Se  Se198  1  0.58714661  0.91666301  0.80854620  1
  Se  Se199  1  0.91703773  0.24872577  0.29676384  1
  Se  Se200  1  0.91058371  0.24590347  0.81632981  1
  Se  Se201  1  0.91775776  0.58377376  0.29907050  1
  Se  Se202  1  0.90474407  0.58838536  0.82035838  1
  Se  Se203  1  0.91053414  0.91308453  0.29086042  1
  Se  Se204  1  0.92240887  0.92395079  0.80473094  1
  Se  Se205  1  0.08119450  0.08130656  0.30005399  1
  Se  Se206  1  0.08308284  0.08564554  0.80269039  1
  Se  Se207  1  0.08508587  0.40897912  0.30255236  1
  Se  Se208  1  0.08510404  0.42522570  0.80886084  1
  Se  Se209  1  0.08388381  0.73327710  0.29427886  1
  Se  Se210  1  0.09131806  0.76239765  0.81337117  1
  Se  Se211  1  0.42329912  0.09706084  0.29939615  1
  Se  Se212  1  0.41064619  0.07692297  0.80827329  1
  Se  Se213  1  0.42552541  0.42936341  0.30582128  1
  Se  Se214  1  0.41810739  0.41507259  0.81131454  1
  Se  Se215  1  0.42253099  0.75442915  0.30520392  1
  Se  Se216  1  0.42083571  0.74780111  0.80742669  1
  Se  Se217  1  0.75237194  0.08473704  0.30326356  1
  Se  Se218  1  0.75468375  0.08520607  0.80055109  1
  Se  Se219  1  0.74831271  0.42032588  0.29997433  1
  Se  Se220  1  0.74039073  0.41799585  0.80969289  1
  Se  Se221  1  0.75719494  0.76306454  0.30720231  1
  Se  Se222  1  0.75916127  0.76301016  0.81564069  1
  Se  Se223  1  0.24910319  0.08480283  0.19568378  1
  Se  Se224  1  0.25460072  0.08388966  0.69828711  1
  Se  Se225  1  0.25401896  0.41858310  0.18854290  1
  Se  Se226  1  0.24118983  0.42335604  0.68733222  1
  Se  Se227  1  0.24387204  0.75699593  0.18704281  1
  Se  Se228  1  0.25051195  0.74996196  0.70239333  1
  Se  Se229  1  0.59588830  0.06653732  0.19700596  1
  Se  Se230  1  0.58358632  0.07727425  0.70183585  1
  Se  Se231  1  0.59247598  0.40978777  0.19377004  1
  Se  Se232  1  0.58481985  0.41458757  0.70103674  1
  Se  Se233  1  0.57583706  0.75744131  0.18515785  1
  Se  Se234  1  0.58061010  0.75281247  0.69163831  1
  Se  Se235  1  0.91875934  0.07702706  0.19392078  1
  Se  Se236  1  0.91834146  0.10558743  0.69543019  1
  Se  Se237  1  0.91851633  0.41312850  0.19712803  1
  Se  Se238  1  0.90655101  0.42973185  0.69878530  1
  Se  Se239  1  0.91289167  0.73851341  0.19587563  1
  Se  Se240  1  0.91356295  0.76128440  0.69078771  1
  Se  Se241  1  0.08261149  0.25514495  0.19720362  1
  Se  Se242  1  0.10058673  0.25484737  0.68584659  1
  Se  Se243  1  0.08617677  0.57656350  0.19834436  1
  Se  Se244  1  0.08347514  0.58160554  0.68954530  1
  Se  Se245  1  0.08853063  0.90867461  0.20157496  1
  Se  Se246  1  0.08205202  0.92457262  0.69809201  1
  Se  Se247  1  0.42008605  0.24333006  0.18459117  1
  Se  Se248  1  0.42605781  0.23610999  0.68958219  1
  Se  Se249  1  0.43210068  0.57679026  0.18809523  1
  Se  Se250  1  0.41376502  0.58176655  0.69603705  1
  Se  Se251  1  0.41423800  0.92146903  0.19587931  1
  Se  Se252  1  0.41919859  0.91483828  0.70007331  1
  Se  Se253  1  0.74920662  0.24937494  0.19782603  1
  Se  Se254  1  0.74911924  0.25815050  0.70461174  1
  Se  Se255  1  0.75426560  0.57604353  0.18279960  1
  Se  Se256  1  0.74886487  0.58441512  0.70002748  1
  Se  Se257  1  0.74318932  0.91078781  0.19674557  1
  Se  Se258  1  0.74888410  0.92044471  0.69946052  1
