# generated using pymatgen
data_In86Cu29Se144
_symmetry_space_group_name_H-M   'P 1'
_cell_length_a   17.58193010
_cell_length_b   17.58096903
_cell_length_c   23.42252963
_cell_angle_alpha   89.99188220
_cell_angle_beta   90.02896596
_cell_angle_gamma   90.02024899
_symmetry_Int_Tables_number   1
_chemical_formula_structural   In86Cu29Se144
_chemical_formula_sum   'In86 Cu29 Se144'
_cell_volume   7240.07505241
_cell_formula_units_Z   1
loop_
 _symmetry_equiv_pos_site_id
 _symmetry_equiv_pos_as_xyz
  1  'x, y, z'
loop_
 _atom_site_type_symbol
 _atom_site_label
 _atom_site_symmetry_multiplicity
 _atom_site_fract_x
 _atom_site_fract_y
 _atom_site_fract_z
 _atom_site_occupancy
  In  In0  1  -0.00493472  0.17119758  0.11524485  1
  In  In1  1  -0.00213471  0.15722141  0.61997312  1
  In  In2  1  -0.01246487  0.47705074  0.09607337  1
  In  In3  1  0.01575032  0.49997923  0.63577203  1
  In  In4  1  -0.00456270  0.83227451  0.12347798  1
  In  In5  1  -0.00268288  0.83153511  0.62782653  1
  In  In6  1  0.33430632  0.18687393  0.12539917  1
  In  In7  1  0.32855658  0.17773639  0.62681388  1
  In  In8  1  0.31414912  0.48786097  0.09902800  1
  In  In9  1  0.35043735  0.47687558  0.66049810  1
  In  In10  1  0.32429184  0.82201274  0.10610861  1
  In  In11  1  0.33356828  0.82251788  0.62923823  1
  In  In12  1  0.67494439  0.16058969  0.12595560  1
  In  In13  1  0.66402718  0.17256505  0.63772253  1
  In  In14  1  0.65375141  0.48807079  0.10764709  1
  In  In15  1  0.66042627  0.50353722  0.64182549  1
  In  In16  1  0.67647249  0.84526046  0.11016179  1
  In  In17  1  0.67239666  0.82159828  0.63965267  1
  In  In18  1  0.17339521  0.01814875  0.36864223  1
  In  In19  1  0.16055313  0.00789197  0.88333651  1
  In  In20  1  0.16119078  0.32683164  0.36155299  1
  In  In21  1  0.16872572  0.33352645  0.87886317  1
  In  In22  1  0.17853116  0.66466265  0.37675015  1
  In  In23  1  0.17541908  0.66568579  0.87417178  1
  In  In24  1  0.51137350  -0.01150984  0.36878810  1
  In  In25  1  0.50263088  -0.02118760  0.87129470  1
  In  In26  1  0.50758797  0.34340847  0.36970485  1
  In  In27  1  0.51263174  0.36560793  0.85698231  1
  In  In28  1  0.49020886  0.66067349  0.38144734  1
  In  In29  1  0.50101321  0.65762193  0.86555744  1
  In  In30  1  0.82681659  -0.01144044  0.36002382  1
  In  In31  1  0.82445957  0.00446634  0.88079735  1
  In  In32  1  0.82715037  0.32701182  0.36261880  1
  In  In33  1  0.80281965  0.37010014  0.93071441  1
  In  In34  1  0.84230173  0.66920061  0.38147576  1
  In  In35  1  0.83417315  0.67280211  0.87599932  1
  In  In36  1  0.00508281  0.16845571  0.36117559  1
  In  In37  1  -0.00672195  0.18260885  0.89428456  1
  In  In38  1  0.01140458  0.49951481  0.36647121  1
  In  In39  1  -0.00833201  0.49497317  0.89214092  1
  In  In40  1  -0.01274918  0.82971341  0.37322436  1
  In  In41  1  0.01225117  0.81937200  0.88713466  1
  In  In42  1  0.31898383  0.17083985  0.37242754  1
  In  In43  1  0.31873187  0.17752703  0.87795574  1
  In  In44  1  0.34474103  0.50398553  0.37462585  1
  In  In45  1  0.33848144  0.50231634  0.86641038  1
  In  In46  1  0.33786570  0.82324157  0.37246922  1
  In  In47  1  0.36646065  0.77963080  0.92099963  1
  In  In48  1  0.67028531  0.16753513  0.36727938  1
  In  In49  1  0.67715201  0.18125485  0.87884911  1
  In  In50  1  0.66433680  0.49319994  0.37501199  1
  In  In51  1  0.66289155  0.50469359  0.87286932  1
  In  In52  1  0.67119643  0.84452721  0.37111454  1
  In  In53  1  0.66499570  0.83133387  0.86740335  1
  In  In54  1  0.15163191  -0.00994707  0.11940240  1
  In  In55  1  0.15366480  0.00406727  0.62320565  1
  In  In56  1  0.16655848  0.33354415  0.11082185  1
  In  In57  1  0.17404307  0.33155557  0.62541436  1
  In  In58  1  0.16963009  0.64937984  0.10144944  1
  In  In59  1  0.18819910  0.63099507  0.66605266  1
  In  In60  1  0.51069156  -0.00094396  0.12162596  1
  In  In61  1  0.50881509  -0.00151292  0.63449355  1
  In  In62  1  0.49796460  0.33592548  0.12578054  1
  In  In63  1  0.49352743  0.34158407  0.64428228  1
  In  In64  1  0.48927425  0.65951355  0.10417566  1
  In  In65  1  0.52102531  0.64101203  0.66366201  1
  In  In66  1  0.82848227  -0.00320630  0.12544325  1
  In  In67  1  0.84201382  -0.01105159  0.62476009  1
  In  In68  1  0.83151816  0.33041032  0.11739790  1
  In  In69  1  0.82618977  0.32340240  0.62943114  1
  In  In70  1  0.83687725  0.66569281  0.11353411  1
  In  In71  1  0.82533326  0.67240404  0.63668306  1
  In  In72  1  0.15515465  0.83124515  0.50971317  1
  In  In73  1  -0.00050067  0.66202477  0.23416059  1
  In  In74  1  0.83346492  0.50210376  0.50079571  1
  In  In75  1  0.32895236  -0.00546402  0.75642571  1
  In  In76  1  0.66838807  0.66630602  0.23930647  1
  In  In77  1  0.49715030  0.17200067  0.50004957  1
  In  In78  1  -0.00314366  0.00159697  0.75375372  1
  In  In79  1  0.33949864  0.00183534  0.25061363  1
  In  In80  1  0.83046826  0.16380903  0.49043598  1
  In  In81  1  0.50002977  0.17039184  -0.00030751  1
  In  In82  1  0.50103193  0.83231065  0.50296859  1
  In  In83  1  0.16929310  0.50177879  0.50230297  1
  In  In84  1  -0.00797017  0.33726919  0.76443226  1
  In  In85  1  0.33234180  0.66042399  0.24205259  1
  Cu  Cu86  1  0.50803204  0.83489490  0.23559900  1
  Cu  Cu87  1  0.16691484  0.48529902  0.23448483  1
  Cu  Cu88  1  0.66455443  0.66440229  -0.00639188  1
  Cu  Cu89  1  0.66219152  -0.00695660  -0.00331570  1
  Cu  Cu90  1  0.67638708  -0.00151832  0.49871499  1
  Cu  Cu91  1  0.00075445  0.67196721  -0.00483139  1
  Cu  Cu92  1  0.00152197  0.32841384  0.48703043  1
  Cu  Cu93  1  0.16932947  0.83052702  0.76707929  1
  Cu  Cu94  1  -0.00608316  0.00159121  0.00482755  1
  Cu  Cu95  1  0.83019244  0.49376773  0.76493890  1
  Cu  Cu96  1  0.50033879  0.49539971  0.24384346  1
  Cu  Cu97  1  0.83490882  0.49257113  0.23828874  1
  Cu  Cu98  1  0.15863644  0.82973515  0.24263703  1
  Cu  Cu99  1  0.66190510  0.66694169  0.51727629  1
  Cu  Cu100  1  0.49740115  0.16613004  0.75799619  1
  Cu  Cu101  1  0.34288555  0.34013538  -0.00799529  1
  Cu  Cu102  1  0.65278751  0.34567994  0.50266750  1
  Cu  Cu103  1  0.82550247  0.17211573  0.76187340  1
  Cu  Cu104  1  0.33044370  0.00724477  0.50103367  1
  Cu  Cu105  1  0.15948424  0.17455130  0.75300227  1
  Cu  Cu106  1  0.32857317  0.00253236  -0.00339436  1
  Cu  Cu107  1  0.83533511  0.83743898  0.75453397  1
  Cu  Cu108  1  0.50789807  0.17159297  0.24552394  1
  Cu  Cu109  1  0.16620990  0.16934272  0.23831020  1
  Cu  Cu110  1  0.00696095  0.00470242  0.49570224  1
  Cu  Cu111  1  -0.00344100  0.67373690  0.50979032  1
  Cu  Cu112  1  0.33276511  0.34019083  0.50753986  1
  Cu  Cu113  1  0.83770490  0.16960174  0.24150830  1
  Cu  Cu114  1  0.34014338  0.65730397  0.51229422  1
  Se  Se115  1  0.08417353  0.08556724  0.05156397  1
  Se  Se116  1  0.08778814  0.09058863  0.54816439  1
  Se  Se117  1  0.11903899  0.45079242  0.05197152  1
  Se  Se118  1  0.07242469  0.40757077  0.55502793  1
  Se  Se119  1  0.08134743  0.75059531  0.05523611  1
  Se  Se120  1  0.08675058  0.73303873  0.57381851  1
  Se  Se121  1  0.40801778  0.08041154  0.06177401  1
  Se  Se122  1  0.41384348  0.07778317  0.56405747  1
  Se  Se123  1  0.42686105  0.41747698  0.04960278  1
  Se  Se124  1  0.41140737  0.41654572  0.56972717  1
  Se  Se125  1  0.42817026  0.76496755  0.04140640  1
  Se  Se126  1  0.42482982  0.73817122  0.56737751  1
  Se  Se127  1  0.74487841  0.07548187  0.05193610  1
  Se  Se128  1  0.74655726  0.08349702  0.56254903  1
  Se  Se129  1  0.75834592  0.42130037  0.04697232  1
  Se  Se130  1  0.74289739  0.41422829  0.56222097  1
  Se  Se131  1  0.74793935  0.74619504  0.04811258  1
  Se  Se132  1  0.75091501  0.75237826  0.56048654  1
  Se  Se133  1  0.25992877  0.25388954  0.04505549  1
  Se  Se134  1  0.24775653  0.24951757  0.55111559  1
  Se  Se135  1  0.28865457  0.61244369  0.04352044  1
  Se  Se136  1  0.25557803  0.58167687  0.57014944  1
  Se  Se137  1  0.24353338  0.91932048  0.04963859  1
  Se  Se138  1  0.25618667  0.92355025  0.56220108  1
  Se  Se139  1  0.59331091  0.25495294  0.05948621  1
  Se  Se140  1  0.58286447  0.25932495  0.56432368  1
  Se  Se141  1  0.57863114  0.57820978  0.04088563  1
  Se  Se142  1  0.57936754  0.58448614  0.57025251  1
  Se  Se143  1  0.57341380  0.91142922  0.04626833  1
  Se  Se144  1  0.59518995  0.92162646  0.56065902  1
  Se  Se145  1  0.91935182  0.25832941  0.04448513  1
  Se  Se146  1  0.92017044  0.25689962  0.55210544  1
  Se  Se147  1  0.91426752  0.58286515  0.04192659  1
  Se  Se148  1  0.92203191  0.58470561  0.56688541  1
  Se  Se149  1  0.91161602  0.91392530  0.05502047  1
  Se  Se150  1  0.93005540  0.91983427  0.55286343  1
  Se  Se151  1  0.08553446  0.24603304  0.43580332  1
  Se  Se152  1  0.10084648  0.24438455  0.95155420  1
  Se  Se153  1  0.07386254  0.59591227  0.44378778  1
  Se  Se154  1  0.08556573  0.58756493  0.94446674  1
  Se  Se155  1  0.08703556  0.92190866  0.43482612  1
  Se  Se156  1  0.07832319  0.92222320  0.94951370  1
  Se  Se157  1  0.40760115  0.26121752  0.44003989  1
  Se  Se158  1  0.42322998  0.26081785  0.93156672  1
  Se  Se159  1  0.41954644  0.57596512  0.45433309  1
  Se  Se160  1  0.41482405  0.58494438  0.93927676  1
  Se  Se161  1  0.40799048  0.92575205  0.44044777  1
  Se  Se162  1  0.41374614  0.92015361  0.94715520  1
  Se  Se163  1  0.73507118  0.26507150  0.44334669  1
  Se  Se164  1  0.75888333  0.23455377  0.96065522  1
  Se  Se165  1  0.73774090  0.59404564  0.44560569  1
  Se  Se166  1  0.75166124  0.58393610  0.94171613  1
  Se  Se167  1  0.75737213  0.91652468  0.44344825  1
  Se  Se168  1  0.74544299  0.90987989  0.94292390  1
  Se  Se169  1  0.24770999  0.08965261  0.44822087  1
  Se  Se170  1  0.24634071  0.09170390  0.94984316  1
  Se  Se171  1  0.25377266  0.41220037  0.43737612  1
  Se  Se172  1  0.25716389  0.42169963  0.93974689  1
  Se  Se173  1  0.26267097  0.74339355  0.45275246  1
  Se  Se174  1  0.22460873  0.76972307  0.94468807  1
  Se  Se175  1  0.59106921  0.07741731  0.44220117  1
  Se  Se176  1  0.58366004  0.07709255  0.93712956  1
  Se  Se177  1  0.57279912  0.42798053  0.44790269  1
  Se  Se178  1  0.58902127  0.41368579  0.94279677  1
  Se  Se179  1  0.59229168  0.74274846  0.44108283  1
  Se  Se180  1  0.58511752  0.74408334  0.93489432  1
  Se  Se181  1  0.92312600  0.07676562  0.43243896  1
  Se  Se182  1  0.91218110  0.08242505  0.94881122  1
  Se  Se183  1  0.91996105  0.41359263  0.43372700  1
  Se  Se184  1  0.94724485  0.38098643  0.95586449  1
  Se  Se185  1  0.91578830  0.75453189  0.45313798  1
  Se  Se186  1  0.90901472  0.75627038  0.95099280  1
  Se  Se187  1  0.25155911  0.24946804  0.29399127  1
  Se  Se188  1  0.24701019  0.25721096  0.80102073  1
  Se  Se189  1  0.23872858  0.56788397  0.30152670  1
  Se  Se190  1  0.26267453  0.59756589  0.79963278  1
  Se  Se191  1  0.24516229  0.90378915  0.30541424  1
  Se  Se192  1  0.24573449  0.91377999  0.82419233  1
  Se  Se193  1  0.58729862  0.25476485  0.30379922  1
  Se  Se194  1  0.58144038  0.24899768  0.81019932  1
  Se  Se195  1  0.57412981  0.58186061  0.30539507  1
  Se  Se196  1  0.58003740  0.57237004  0.79558718  1
  Se  Se197  1  0.58942574  0.91467494  0.29385415  1
  Se  Se198  1  0.59004078  0.91894650  0.79623629  1
  Se  Se199  1  0.91907832  0.25368402  0.29710844  1
  Se  Se200  1  0.90097429  0.25179963  0.82268719  1
  Se  Se201  1  0.90754918  0.57586524  0.30377625  1
  Se  Se202  1  0.91599190  0.57445893  0.81691747  1
  Se  Se203  1  0.92730179  0.91797971  0.29964661  1
  Se  Se204  1  0.91701090  0.91054900  0.81819127  1
  Se  Se205  1  0.08786240  0.08276384  0.29320617  1
  Se  Se206  1  0.07767109  0.09967420  0.81337121  1
  Se  Se207  1  0.07961734  0.41264261  0.29413299  1
  Se  Se208  1  0.08716400  0.42878573  0.81375819  1
  Se  Se209  1  0.08945400  0.74326870  0.30668662  1
  Se  Se210  1  0.07872289  0.74367859  0.80728860  1
  Se  Se211  1  0.42977842  0.09435939  0.31250542  1
  Se  Se212  1  0.41549377  0.08762763  0.81717789  1
  Se  Se213  1  0.41530374  0.41842816  0.30187724  1
  Se  Se214  1  0.40268974  0.41120857  0.79188555  1
  Se  Se215  1  0.43161189  0.75353736  0.29940610  1
  Se  Se216  1  0.41568771  0.76277422  0.81892747  1
  Se  Se217  1  0.75386694  0.08836240  0.29923923  1
  Se  Se218  1  0.74269768  0.08299111  0.80890037  1
  Se  Se219  1  0.74862497  0.42273423  0.30141528  1
  Se  Se220  1  0.76235458  0.40871372  0.82671823  1
  Se  Se221  1  0.75551137  0.74784412  0.30942299  1
  Se  Se222  1  0.75271201  0.74723985  0.80088648  1
  Se  Se223  1  0.24997235  0.08348944  0.18401070  1
  Se  Se224  1  0.23738688  0.08869250  0.69449373  1
  Se  Se225  1  0.25786675  0.40965631  0.18295722  1
  Se  Se226  1  0.21297761  0.44149398  0.69047065  1
  Se  Se227  1  0.23738379  0.74795822  0.18383405  1
  Se  Se228  1  0.24878905  0.75649234  0.70405806  1
  Se  Se229  1  0.58446665  0.08207332  0.19431587  1
  Se  Se230  1  0.58235657  0.08609784  0.70308453  1
  Se  Se231  1  0.58902762  0.41702106  0.19209341  1
  Se  Se232  1  0.59607946  0.40407631  0.70622378  1
  Se  Se233  1  0.57719049  0.74770299  0.17508218  1
  Se  Se234  1  0.57667874  0.76148045  0.70871196  1
  Se  Se235  1  0.91738595  0.08565794  0.18645298  1
  Se  Se236  1  0.90357171  0.09630502  0.69649361  1
  Se  Se237  1  0.92071154  0.41553786  0.18354431  1
  Se  Se238  1  0.90560167  0.42220657  0.69268908  1
  Se  Se239  1  0.89859944  0.75572277  0.19263968  1
  Se  Se240  1  0.91706004  0.75424555  0.69986676  1
  Se  Se241  1  0.08548072  0.25188581  0.18209171  1
  Se  Se242  1  0.07558906  0.24794443  0.68996134  1
  Se  Se243  1  0.08799148  0.57016755  0.17728438  1
  Se  Se244  1  0.05800701  0.59805438  0.70938934  1
  Se  Se245  1  0.07427719  0.91574621  0.19603712  1
  Se  Se246  1  0.09413377  0.90950486  0.69971162  1
  Se  Se247  1  0.41934911  0.25479501  0.19930312  1
  Se  Se248  1  0.41166093  0.24396243  0.70208549  1
  Se  Se249  1  0.42004371  0.57184707  0.18160144  1
  Se  Se250  1  0.39205568  0.60196887  0.70879975  1
  Se  Se251  1  0.41317001  0.90697816  0.18265500  1
  Se  Se252  1  0.42144381  0.90842195  0.69503410  1
  Se  Se253  1  0.75077249  0.25343993  0.19207227  1
  Se  Se254  1  0.74520299  0.25676900  0.70604807  1
  Se  Se255  1  0.75389139  0.57168756  0.17966500  1
  Se  Se256  1  0.75580109  0.57914288  0.70489534  1
  Se  Se257  1  0.74063176  0.91602172  0.19263818  1
  Se  Se258  1  0.75599387  0.92027257  0.69692460  1
