# generated using pymatgen
data_In86Cu29Se144
_symmetry_space_group_name_H-M   'P 1'
_cell_length_a   17.58061594
_cell_length_b   17.57718879
_cell_length_c   23.43988181
_cell_angle_alpha   89.97824075
_cell_angle_beta   89.99269473
_cell_angle_gamma   89.96793901
_symmetry_Int_Tables_number   1
_chemical_formula_structural   In86Cu29Se144
_chemical_formula_sum   'In86 Cu29 Se144'
_cell_volume   7243.33912247
_cell_formula_units_Z   1
loop_
 _symmetry_equiv_pos_site_id
 _symmetry_equiv_pos_as_xyz
  1  'x, y, z'
loop_
 _atom_site_type_symbol
 _atom_site_label
 _atom_site_symmetry_multiplicity
 _atom_site_fract_x
 _atom_site_fract_y
 _atom_site_fract_z
 _atom_site_occupancy
  In  In0  1  0.00149320  0.17058541  0.11886942  1
  In  In1  1  0.00432190  0.16331799  0.62557455  1
  In  In2  1  -0.01095268  0.48689971  0.12711305  1
  In  In3  1  -0.01640398  0.50042832  0.62087031  1
  In  In4  1  0.00150349  0.84574338  0.11627201  1
  In  In5  1  0.01821093  0.84607799  0.62139998  1
  In  In6  1  0.32087842  0.17541795  0.13076717  1
  In  In7  1  0.33642258  0.16758817  0.62216775  1
  In  In8  1  0.35240193  0.49412526  0.14239591  1
  In  In9  1  0.32791740  0.48160173  0.61851630  1
  In  In10  1  0.33997554  0.82440745  0.13307408  1
  In  In11  1  0.33185720  0.84731221  0.62850295  1
  In  In12  1  0.67906577  0.17679946  0.12732462  1
  In  In13  1  0.66687543  0.16918960  0.62595572  1
  In  In14  1  0.65690783  0.49117957  0.12906825  1
  In  In15  1  0.65263450  0.48299155  0.61263745  1
  In  In16  1  0.66748126  0.83682937  0.11386602  1
  In  In17  1  0.67584340  0.83779303  0.62750590  1
  In  In18  1  0.16694074  -0.00395100  0.38707200  1
  In  In19  1  0.18129684  0.00722863  0.86332143  1
  In  In20  1  0.15893265  0.31947692  0.37108773  1
  In  In21  1  0.15416795  0.32143112  0.86626704  1
  In  In22  1  0.18608805  0.66758387  0.38235094  1
  In  In23  1  0.16231125  0.66864573  0.87417962  1
  In  In24  1  0.49795202  0.01881740  0.37862838  1
  In  In25  1  0.48974080  -0.00496901  0.86961180  1
  In  In26  1  0.49929510  0.33507180  0.37269236  1
  In  In27  1  0.50378158  0.33509618  0.87291210  1
  In  In28  1  0.47957058  0.65561512  0.37288224  1
  In  In29  1  0.50484370  0.66036363  0.88607967  1
  In  In30  1  0.84081580  0.01973048  0.37783679  1
  In  In31  1  0.83392054  0.00470566  0.87208395  1
  In  In32  1  0.83931463  0.32342157  0.37375827  1
  In  In33  1  0.82741425  0.32307576  0.86955315  1
  In  In34  1  0.82115233  0.65849268  0.37193665  1
  In  In35  1  0.84526774  0.67965864  0.87910214  1
  In  In36  1  -0.01028732  0.17631574  0.39977204  1
  In  In37  1  -0.00066690  0.16512036  0.87363950  1
  In  In38  1  -0.00462704  0.47968187  0.36945836  1
  In  In39  1  0.00676190  0.49914995  0.87122601  1
  In  In40  1  0.00744151  0.85568208  0.37964140  1
  In  In41  1  -0.01153057  0.83198391  0.87383910  1
  In  In42  1  0.33374108  0.16732430  0.37339784  1
  In  In43  1  0.32297787  0.16060903  0.86997683  1
  In  In44  1  0.34802123  0.50585370  0.36471368  1
  In  In45  1  0.34674272  0.50005545  0.87737226  1
  In  In46  1  0.32077279  0.82753592  0.37400710  1
  In  In47  1  0.33099608  0.84733935  0.87651308  1
  In  In48  1  0.66365660  0.17673967  0.38073570  1
  In  In49  1  0.67588119  0.17680169  0.86765654  1
  In  In50  1  0.68134403  0.47509844  0.37762818  1
  In  In51  1  0.66344857  0.48446164  0.87577475  1
  In  In52  1  0.67126782  0.82783134  0.37461215  1
  In  In53  1  0.65774667  0.84086769  0.88011957  1
  In  In54  1  0.16153003  0.01305897  0.12314503  1
  In  In55  1  0.16545318  0.00755257  0.62560953  1
  In  In56  1  0.17355444  0.32817419  0.13027533  1
  In  In57  1  0.17683835  0.31951068  0.62946249  1
  In  In58  1  0.17571359  0.67714065  0.12910798  1
  In  In59  1  0.16329557  0.66925550  0.61697752  1
  In  In60  1  0.50042542  -0.01099442  0.12287235  1
  In  In61  1  0.48918319  0.00964705  0.63317651  1
  In  In62  1  0.49348743  0.34351082  0.13624619  1
  In  In63  1  0.50105796  0.32927014  0.62283249  1
  In  In64  1  0.49374168  0.65555339  0.11917021  1
  In  In65  1  0.50375755  0.65899720  0.61862906  1
  In  In66  1  0.83728847  0.00877332  0.11480314  1
  In  In67  1  0.82331343  0.01486094  0.63447867  1
  In  In68  1  0.84890931  0.32198093  0.14576082  1
  In  In69  1  0.83344806  0.32865760  0.62541306  1
  In  In70  1  0.82387329  0.66427233  0.12245824  1
  In  In71  1  0.84315628  0.66262459  0.62061946  1
  In  In72  1  0.66901401  0.66530847  0.74679763  1
  In  In73  1  0.16574781  0.83726088  -0.00496265  1
  In  In74  1  0.49329633  0.83136401  0.50450804  1
  In  In75  1  0.16759431  0.49357276  0.49274496  1
  In  In76  1  0.82602781  0.50117842  0.00526776  1
  In  In77  1  0.17046985  0.50350419  -0.00447347  1
  In  In78  1  0.49969293  0.16395989  -0.00262098  1
  In  In79  1  0.00708940  0.66324220  0.25149578  1
  In  In80  1  0.65505537  0.65465923  0.24031912  1
  In  In81  1  0.66233970  0.00821369  0.25635378  1
  In  In82  1  0.83447288  0.83116376  0.50119004  1
  In  In83  1  0.00249861  0.01012942  0.24892682  1
  In  In84  1  0.33142177  0.66661684  0.74776024  1
  In  In85  1  -0.00087422  0.67037712  0.75159025  1
  Cu  Cu86  1  0.17046664  0.49736157  0.25575926  1
  Cu  Cu87  1  0.16682701  0.16320714  0.25215672  1
  Cu  Cu88  1  -0.00519785  0.33027784  -0.00150820  1
  Cu  Cu89  1  0.16501829  0.49036852  0.74619284  1
  Cu  Cu90  1  0.49710333  0.83714411  0.75514253  1
  Cu  Cu91  1  0.66223215  0.33486715  -0.00168871  1
  Cu  Cu92  1  0.83474904  0.83718246  0.24050239  1
  Cu  Cu93  1  0.67270876  0.00306086  -0.00380736  1
  Cu  Cu94  1  0.16844787  0.16865387  0.74494607  1
  Cu  Cu95  1  -0.00102175  0.33202451  0.50319381  1
  Cu  Cu96  1  0.49198030  0.83602563  0.24908394  1
  Cu  Cu97  1  0.49504881  0.16940795  0.25215667  1
  Cu  Cu98  1  0.83860092  0.16791365  0.74869177  1
  Cu  Cu99  1  0.34028939  0.33082561  0.49513336  1
  Cu  Cu100  1  0.33132480  0.00029621  -0.00432307  1
  Cu  Cu101  1  0.67289663  0.32639690  0.50007617  1
  Cu  Cu102  1  0.66094041  0.65183355  0.49347320  1
  Cu  Cu103  1  0.83475797  0.84608120  0.74995067  1
  Cu  Cu104  1  0.66743915  0.00725292  0.50434714  1
  Cu  Cu105  1  0.50047011  0.16959953  0.74802707  1
  Cu  Cu106  1  0.33043404  0.33385249  0.00738132  1
  Cu  Cu107  1  -0.00587340  0.00602683  -0.00538174  1
  Cu  Cu108  1  0.34278731  0.66416419  0.00709534  1
  Cu  Cu109  1  0.66975763  0.67137461  0.00165644  1
  Cu  Cu110  1  0.82609749  0.49045961  0.74561232  1
  Cu  Cu111  1  0.49856992  0.48705574  0.74770153  1
  Cu  Cu112  1  0.17619556  0.83539198  0.25651704  1
  Cu  Cu113  1  -0.00356826  0.66348570  0.49593428  1
  Cu  Cu114  1  0.33246689  0.00618155  0.50409992  1
  Se  Se115  1  0.08066768  0.08538389  0.04902384  1
  Se  Se116  1  0.09878957  0.09998388  0.55492692  1
  Se  Se117  1  0.07928501  0.41134226  0.05501214  1
  Se  Se118  1  0.08131923  0.41241435  0.56248850  1
  Se  Se119  1  0.08083742  0.74285608  0.05702150  1
  Se  Se120  1  0.07572643  0.74729395  0.55033493  1
  Se  Se121  1  0.40768831  0.07985307  0.06037957  1
  Se  Se122  1  0.42321366  0.08620429  0.55275702  1
  Se  Se123  1  0.41386758  0.41699992  0.05923900  1
  Se  Se124  1  0.42119179  0.41383926  0.55057300  1
  Se  Se125  1  0.42171822  0.75582517  0.05610937  1
  Se  Se126  1  0.40229768  0.74188835  0.56276275  1
  Se  Se127  1  0.74689304  0.09103995  0.05224035  1
  Se  Se128  1  0.75345318  0.08959599  0.55497354  1
  Se  Se129  1  0.74654284  0.40343639  0.06400446  1
  Se  Se130  1  0.75485308  0.41313585  0.55278687  1
  Se  Se131  1  0.75705395  0.75389248  0.05072582  1
  Se  Se132  1  0.73720750  0.73615759  0.55524008  1
  Se  Se133  1  0.24362247  0.24762556  0.05254937  1
  Se  Se134  1  0.25541499  0.25154517  0.55116752  1
  Se  Se135  1  0.25874991  0.58411594  0.06412780  1
  Se  Se136  1  0.25506789  0.58479769  0.55450502  1
  Se  Se137  1  0.25458460  0.92010435  0.06126729  1
  Se  Se138  1  0.24991581  0.92132853  0.55596693  1
  Se  Se139  1  0.58137983  0.25674873  0.06100462  1
  Se  Se140  1  0.58459858  0.24732882  0.55363119  1
  Se  Se141  1  0.59259939  0.58365058  0.05622816  1
  Se  Se142  1  0.57410869  0.57347990  0.54658654  1
  Se  Se143  1  0.58448645  0.92168065  0.04727175  1
  Se  Se144  1  0.58811703  0.92253463  0.56112260  1
  Se  Se145  1  0.90951957  0.25556521  0.05752783  1
  Se  Se146  1  0.91774639  0.24668864  0.55726663  1
  Se  Se147  1  0.92589016  0.58893784  0.05870679  1
  Se  Se148  1  0.91061158  0.57956866  0.54458259  1
  Se  Se149  1  0.91392298  0.91918590  0.04746246  1
  Se  Se150  1  0.91111474  0.92242191  0.56631323  1
  Se  Se151  1  0.09252801  0.25198836  0.45646876  1
  Se  Se152  1  0.08065872  0.24941996  0.94523854  1
  Se  Se153  1  0.07467271  0.58458645  0.43317540  1
  Se  Se154  1  0.07043704  0.59520103  0.94454214  1
  Se  Se155  1  0.08044377  0.92194912  0.45837738  1
  Se  Se156  1  0.07887465  0.92840184  0.93492193  1
  Se  Se157  1  0.42203269  0.24568899  0.44193275  1
  Se  Se158  1  0.40657186  0.25459305  0.94108233  1
  Se  Se159  1  0.40761750  0.58041880  0.44890853  1
  Se  Se160  1  0.42149723  0.57652108  0.95332356  1
  Se  Se161  1  0.41148256  0.92487756  0.44162681  1
  Se  Se162  1  0.41914591  0.91622658  0.94858952  1
  Se  Se163  1  0.75965969  0.24359449  0.44868091  1
  Se  Se164  1  0.74782402  0.25220310  0.94690084  1
  Se  Se165  1  0.75199231  0.57362749  0.44455217  1
  Se  Se166  1  0.74307684  0.59101925  0.93552046  1
  Se  Se167  1  0.74360034  0.92594466  0.44135978  1
  Se  Se168  1  0.75357319  0.91771317  0.94196563  1
  Se  Se169  1  0.25185171  0.08866652  0.44667313  1
  Se  Se170  1  0.24605830  0.08357952  0.94554899  1
  Se  Se171  1  0.25830820  0.40739881  0.43219960  1
  Se  Se172  1  0.25383291  0.40680774  0.93729440  1
  Se  Se173  1  0.24417694  0.76131330  0.45348239  1
  Se  Se174  1  0.26149353  0.73900826  0.94300604  1
  Se  Se175  1  0.58436116  0.08913723  0.44979245  1
  Se  Se176  1  0.58989811  0.07954398  0.93408033  1
  Se  Se177  1  0.58678186  0.40815889  0.44648139  1
  Se  Se178  1  0.57556201  0.41795568  0.94933321  1
  Se  Se179  1  0.58389250  0.74264833  0.43983263  1
  Se  Se180  1  0.58259623  0.75242323  0.94932861  1
  Se  Se181  1  0.93493167  0.06090422  0.45419840  1
  Se  Se182  1  0.90960726  0.09116498  0.94402024  1
  Se  Se183  1  0.91591666  0.41191043  0.44651298  1
  Se  Se184  1  0.91756418  0.41577002  0.93987213  1
  Se  Se185  1  0.92023344  0.74507395  0.43241474  1
  Se  Se186  1  0.92421783  0.75234680  0.95212209  1
  Se  Se187  1  0.25167954  0.24903793  0.30210938  1
  Se  Se188  1  0.25136075  0.25218074  0.80068732  1
  Se  Se189  1  0.25092134  0.58656150  0.30420213  1
  Se  Se190  1  0.24086359  0.57242416  0.80871360  1
  Se  Se191  1  0.24988424  0.92630830  0.30982845  1
  Se  Se192  1  0.25311279  0.91112774  0.79906375  1
  Se  Se193  1  0.58239549  0.24744902  0.30514350  1
  Se  Se194  1  0.58336176  0.25340242  0.80257196  1
  Se  Se195  1  0.58755550  0.57672524  0.31950996  1
  Se  Se196  1  0.57565609  0.57486260  0.80552486  1
  Se  Se197  1  0.57406486  0.90929607  0.31285568  1
  Se  Se198  1  0.58507395  0.91980900  0.80402453  1
  Se  Se199  1  0.93103383  0.23899330  0.31253383  1
  Se  Se200  1  0.92097335  0.25192980  0.80291989  1
  Se  Se201  1  0.90978915  0.57555161  0.30521687  1
  Se  Se202  1  0.90269937  0.57598340  0.80598427  1
  Se  Se203  1  0.90698717  0.91563571  0.30594589  1
  Se  Se204  1  0.92158414  0.92341186  0.80342695  1
  Se  Se205  1  0.08664852  0.09091337  0.31723732  1
  Se  Se206  1  0.08681595  0.08800057  0.80316070  1
  Se  Se207  1  0.08518120  0.40927311  0.30042932  1
  Se  Se208  1  0.07660600  0.41328662  0.79965576  1
  Se  Se209  1  0.08839788  0.75910795  0.31418039  1
  Se  Se210  1  0.09273177  0.76309391  0.80542347  1
  Se  Se211  1  0.41383402  0.08123650  0.30164879  1
  Se  Se212  1  0.41617674  0.08706244  0.80322235  1
  Se  Se213  1  0.41656300  0.41062803  0.29978272  1
  Se  Se214  1  0.41253460  0.41150455  0.80426905  1
  Se  Se215  1  0.41393545  0.75370754  0.30689899  1
  Se  Se216  1  0.42401751  0.74843224  0.81329353  1
  Se  Se217  1  0.75836593  0.09939095  0.30647718  1
  Se  Se218  1  0.75135973  0.08549946  0.80118303  1
  Se  Se219  1  0.75331611  0.39906033  0.30167531  1
  Se  Se220  1  0.74462942  0.41090700  0.80299898  1
  Se  Se221  1  0.75325400  0.75360861  0.29669660  1
  Se  Se222  1  0.75689627  0.75763871  0.80690760  1
  Se  Se223  1  0.24811754  0.07943917  0.19715689  1
  Se  Se224  1  0.25569508  0.08637671  0.69396981  1
  Se  Se225  1  0.25182308  0.41513298  0.19826407  1
  Se  Se226  1  0.25453352  0.41040422  0.69712999  1
  Se  Se227  1  0.25559463  0.74722260  0.20468001  1
  Se  Se228  1  0.23919565  0.75492919  0.69076589  1
  Se  Se229  1  0.57504472  0.09237884  0.18794293  1
  Se  Se230  1  0.58472673  0.08491085  0.69626945  1
  Se  Se231  1  0.57518859  0.42529719  0.20465447  1
  Se  Se232  1  0.58673142  0.40984184  0.69444435  1
  Se  Se233  1  0.57715490  0.76261987  0.18767256  1
  Se  Se234  1  0.57243614  0.75724025  0.69096415  1
  Se  Se235  1  0.90625569  0.09462864  0.19148093  1
  Se  Se236  1  0.92306364  0.08242665  0.69847812  1
  Se  Se237  1  0.92551232  0.41519967  0.20805182  1
  Se  Se238  1  0.91750396  0.41412470  0.69489075  1
  Se  Se239  1  0.91845784  0.75552307  0.18667220  1
  Se  Se240  1  0.91063261  0.76152411  0.68857056  1
  Se  Se241  1  0.08471040  0.24359397  0.19313950  1
  Se  Se242  1  0.08038490  0.25258720  0.69657122  1
  Se  Se243  1  0.09389974  0.57304207  0.18766939  1
  Se  Se244  1  0.08689442  0.57643404  0.68893064  1
  Se  Se245  1  0.09258539  0.90930956  0.19371030  1
  Se  Se246  1  0.08772500  0.92248088  0.69704061  1
  Se  Se247  1  0.41118725  0.25089810  0.19732682  1
  Se  Se248  1  0.41640345  0.25132930  0.69361595  1
  Se  Se249  1  0.42351619  0.59411441  0.20289920  1
  Se  Se250  1  0.42051593  0.57221128  0.68962555  1
  Se  Se251  1  0.41259995  0.92322480  0.19670974  1
  Se  Se252  1  0.41387443  0.92022592  0.70213505  1
  Se  Se253  1  0.73546598  0.26657370  0.20269439  1
  Se  Se254  1  0.75064128  0.24958939  0.69683460  1
  Se  Se255  1  0.76075542  0.56799201  0.19310479  1
  Se  Se256  1  0.75228890  0.57380008  0.68357118  1
  Se  Se257  1  0.75086556  0.92097942  0.18797758  1
  Se  Se258  1  0.74330751  0.92337264  0.70035149  1
