# generated using pymatgen
data_In86Cu29Se144
_symmetry_space_group_name_H-M   'P 1'
_cell_length_a   17.57176524
_cell_length_b   17.57270488
_cell_length_c   23.42995522
_cell_angle_alpha   89.98890463
_cell_angle_beta   90.00354145
_cell_angle_gamma   90.01672899
_symmetry_Int_Tables_number   1
_chemical_formula_structural   In86Cu29Se144
_chemical_formula_sum   'In86 Cu29 Se144'
_cell_volume   7234.78182519
_cell_formula_units_Z   1
loop_
 _symmetry_equiv_pos_site_id
 _symmetry_equiv_pos_as_xyz
  1  'x, y, z'
loop_
 _atom_site_type_symbol
 _atom_site_label
 _atom_site_symmetry_multiplicity
 _atom_site_fract_x
 _atom_site_fract_y
 _atom_site_fract_z
 _atom_site_occupancy
  In  In0  1  0.01336267  0.16703986  0.11195652  1
  In  In1  1  0.00284716  0.17452517  0.62349053  1
  In  In2  1  -0.00044775  0.48872552  0.12403700  1
  In  In3  1  0.00218769  0.48321482  0.62944302  1
  In  In4  1  0.00521140  0.84489441  0.10757451  1
  In  In5  1  0.00407153  0.84046675  0.61310730  1
  In  In6  1  0.32289383  0.16174065  0.11598743  1
  In  In7  1  0.34373936  0.16416736  0.63721585  1
  In  In8  1  0.32204798  0.50555140  0.11888540  1
  In  In9  1  0.33531802  0.49848530  0.62431503  1
  In  In10  1  0.33543332  0.83850843  0.12276524  1
  In  In11  1  0.33491268  0.83378926  0.62710568  1
  In  In12  1  0.66413963  0.16408307  0.12626911  1
  In  In13  1  0.66149167  0.16332846  0.61800159  1
  In  In14  1  0.65908287  0.49525099  0.12865905  1
  In  In15  1  0.66438048  0.51656818  0.62787369  1
  In  In16  1  0.68333068  0.84056318  0.12223167  1
  In  In17  1  0.66013914  0.83411333  0.61825008  1
  In  In18  1  0.16393144  -0.01398638  0.37479145  1
  In  In19  1  0.17499674  -0.01030627  0.88213736  1
  In  In20  1  0.17353792  0.34295430  0.37646221  1
  In  In21  1  0.16904108  0.33262931  0.87213436  1
  In  In22  1  0.16833048  0.66450718  0.38233265  1
  In  In23  1  0.18172136  0.65393549  0.89401447  1
  In  In24  1  0.50102164  0.00088517  0.37345174  1
  In  In25  1  0.49692254  0.01747458  0.87249887  1
  In  In26  1  0.50717133  0.32176595  0.39304957  1
  In  In27  1  0.48747175  0.32773157  0.86958189  1
  In  In28  1  0.49375054  0.67097899  0.38524519  1
  In  In29  1  0.49781167  0.66170724  0.86161607  1
  In  In30  1  0.82488114  0.01330974  0.38290171  1
  In  In31  1  0.84174755  -0.00640768  0.89143153  1
  In  In32  1  0.82341897  0.32276031  0.36547454  1
  In  In33  1  0.83554605  0.31545311  0.87626008  1
  In  In34  1  0.84453182  0.67419018  0.37519792  1
  In  In35  1  0.83382355  0.67934156  0.87473721  1
  In  In36  1  -0.01624150  0.16146557  0.37361487  1
  In  In37  1  -0.00351378  0.16751511  0.88185173  1
  In  In38  1  0.01420580  0.49373000  0.37478325  1
  In  In39  1  0.02571206  0.50186390  0.87660321  1
  In  In40  1  -0.00129123  0.84581972  0.39460128  1
  In  In41  1  0.01060921  0.82711839  0.90371578  1
  In  In42  1  0.35646069  0.16826182  0.38089434  1
  In  In43  1  0.33363290  0.16468992  0.87088372  1
  In  In44  1  0.32939694  0.49156763  0.39412951  1
  In  In45  1  0.32895996  0.49567118  0.86720503  1
  In  In46  1  0.32535737  0.84119597  0.38003845  1
  In  In47  1  0.32821826  0.82624564  0.86427718  1
  In  In48  1  0.66470280  0.16693319  0.37396793  1
  In  In49  1  0.67343946  0.16318316  0.88518988  1
  In  In50  1  0.66826928  0.48868560  0.37508705  1
  In  In51  1  0.65409564  0.50183481  0.87017522  1
  In  In52  1  0.65559975  0.84192008  0.37820054  1
  In  In53  1  0.67525057  0.82936739  0.87292704  1
  In  In54  1  0.17195298  0.00595171  0.11785442  1
  In  In55  1  0.18094937  0.00153706  0.62659435  1
  In  In56  1  0.15861978  0.32834500  0.11585718  1
  In  In57  1  0.16257237  0.33936622  0.62945007  1
  In  In58  1  0.15695843  0.66509093  0.10065337  1
  In  In59  1  0.17840281  0.67531242  0.62468210  1
  In  In60  1  0.48594843  0.01166902  0.13343384  1
  In  In61  1  0.49592691  0.00096901  0.62225211  1
  In  In62  1  0.51276210  0.33221474  0.12863701  1
  In  In63  1  0.47909765  0.31843557  0.60719800  1
  In  In64  1  0.49759641  0.66513084  0.12051554  1
  In  In65  1  0.49838016  0.66795401  0.62495540  1
  In  In66  1  0.82863862  -0.00641662  0.12123685  1
  In  In67  1  0.83602654  -0.00053498  0.61132001  1
  In  In68  1  0.84224071  0.32142730  0.13058893  1
  In  In69  1  0.84609009  0.32868650  0.62597156  1
  In  In70  1  0.83393274  0.69228936  0.11306632  1
  In  In71  1  0.82294630  0.67375162  0.62761848  1
  In  In72  1  0.49434791  0.49396754  -0.00248171  1
  In  In73  1  0.00062598  0.00069418  0.76126848  1
  In  In74  1  0.16517113  0.16155488  0.50283887  1
  In  In75  1  0.83800051  0.50587432  -0.00013547  1
  In  In76  1  0.00485149  0.66887824  0.76099721  1
  In  In77  1  0.33915230  0.32917697  0.25905702  1
  In  In78  1  0.66876905  0.66562265  0.23884096  1
  In  In79  1  0.83265418  0.50028095  0.50302543  1
  In  In80  1  0.66143918  0.33462796  0.74952056  1
  In  In81  1  0.00396606  0.66493814  0.24863513  1
  In  In82  1  0.33159625  0.66637383  0.24477618  1
  In  In83  1  0.49833173  0.82928347  -0.00155378  1
  In  In84  1  -0.00254539  0.00216434  0.24814434  1
  In  In85  1  0.66226925  -0.00252106  0.74648607  1
  Cu  Cu86  1  0.16853008  0.82940926  0.25276876  1
  Cu  Cu87  1  0.83328917  0.83892935  0.24989759  1
  Cu  Cu88  1  0.66734102  0.33147137  0.49826794  1
  Cu  Cu89  1  0.49881569  0.83192788  0.74195120  1
  Cu  Cu90  1  0.83617519  0.49794654  0.74674443  1
  Cu  Cu91  1  0.49856991  0.84336002  0.25086251  1
  Cu  Cu92  1  0.17107451  0.17620441  0.74906805  1
  Cu  Cu93  1  0.00382967  0.66492314  0.50246818  1
  Cu  Cu94  1  0.33660314  0.00256735  -0.00113673  1
  Cu  Cu95  1  0.66278796  0.00389284  0.49709776  1
  Cu  Cu96  1  0.16884582  0.83546977  0.75410879  1
  Cu  Cu97  1  0.50414839  0.16535399  0.25365647  1
  Cu  Cu98  1  0.33421178  0.66635858  0.50726303  1
  Cu  Cu99  1  0.66924463  0.32549555  0.00536289  1
  Cu  Cu100  1  0.32793544  0.32923213  -0.00812943  1
  Cu  Cu101  1  0.83320333  0.49171791  0.24519224  1
  Cu  Cu102  1  0.33798428  -0.00195693  0.50288288  1
  Cu  Cu103  1  0.83582001  0.83233054  0.75190124  1
  Cu  Cu104  1  0.50677234  0.49449368  0.25674261  1
  Cu  Cu105  1  0.16902314  0.16652293  0.24138880  1
  Cu  Cu106  1  0.83505282  0.16181281  0.75497166  1
  Cu  Cu107  1  0.00841904  0.33743905  -0.00172710  1
  Cu  Cu108  1  0.17108000  0.50171515  0.75090381  1
  Cu  Cu109  1  0.66124071  0.00113366  0.00246389  1
  Cu  Cu110  1  -0.00313111  0.32914215  0.50102512  1
  Cu  Cu111  1  0.82849610  0.16695272  0.24854214  1
  Cu  Cu112  1  0.16801579  0.49324827  0.25191277  1
  Cu  Cu113  1  0.66579908  0.67364765  0.50220555  1
  Cu  Cu114  1  0.49776153  0.50265889  0.74262154  1
  Se  Se115  1  0.07020667  0.06058240  0.04827739  1
  Se  Se116  1  0.07553586  0.07044259  0.56237154  1
  Se  Se117  1  0.08869504  0.42589301  0.04953394  1
  Se  Se118  1  0.08083896  0.41309053  0.55256248  1
  Se  Se119  1  0.09133666  0.76766043  0.04087014  1
  Se  Se120  1  0.08873179  0.74836838  0.55440637  1
  Se  Se121  1  0.41914846  0.08664469  0.05211051  1
  Se  Se122  1  0.41349625  0.08829211  0.55602100  1
  Se  Se123  1  0.40647397  0.40277595  0.06080950  1
  Se  Se124  1  0.42948724  0.43474220  0.55297950  1
  Se  Se125  1  0.40245015  0.73663334  0.05319659  1
  Se  Se126  1  0.41812841  0.75383308  0.55613911  1
  Se  Se127  1  0.74679096  0.08262067  0.05637837  1
  Se  Se128  1  0.74894857  0.08639267  0.54991342  1
  Se  Se129  1  0.74819902  0.41228240  0.06072172  1
  Se  Se130  1  0.74359995  0.40969144  0.56409056  1
  Se  Se131  1  0.72662147  0.74084533  0.04938841  1
  Se  Se132  1  0.75299866  0.75576505  0.55262254  1
  Se  Se133  1  0.24372048  0.24749447  0.04825514  1
  Se  Se134  1  0.25056641  0.24717609  0.56721955  1
  Se  Se135  1  0.25354120  0.58448661  0.04417935  1
  Se  Se136  1  0.24764450  0.58158724  0.55652878  1
  Se  Se137  1  0.25409507  0.91800438  0.05202230  1
  Se  Se138  1  0.25263532  0.91539988  0.55484128  1
  Se  Se139  1  0.57938060  0.24572498  0.05515509  1
  Se  Se140  1  0.58153250  0.24592300  0.54805562  1
  Se  Se141  1  0.59028831  0.58565339  0.05398130  1
  Se  Se142  1  0.58360552  0.58767658  0.55304356  1
  Se  Se143  1  0.57907597  0.92241392  0.06341428  1
  Se  Se144  1  0.57990540  0.92139389  0.55254622  1
  Se  Se145  1  0.92341460  0.25560729  0.05249067  1
  Se  Se146  1  0.91294210  0.24348049  0.55059650  1
  Se  Se147  1  0.92689942  0.59480730  0.06208013  1
  Se  Se148  1  0.92337267  0.58760203  0.56581665  1
  Se  Se149  1  0.89247827  0.89898773  0.05159894  1
  Se  Se150  1  0.91173918  0.90980598  0.54665576  1
  Se  Se151  1  0.07714107  0.25088732  0.43814600  1
  Se  Se152  1  0.08789916  0.25105251  0.94380991  1
  Se  Se153  1  0.08298320  0.57986105  0.44764397  1
  Se  Se154  1  0.06856389  0.59899626  0.95052695  1
  Se  Se155  1  0.10020055  0.91162922  0.45522948  1
  Se  Se156  1  0.05949004  0.95317440  0.94671760  1
  Se  Se157  1  0.39514341  0.27044641  0.45253808  1
  Se  Se158  1  0.41623478  0.24652347  0.94417511  1
  Se  Se159  1  0.41635781  0.58314510  0.45188026  1
  Se  Se160  1  0.41127140  0.58769864  0.93728040  1
  Se  Se161  1  0.41925220  0.91712287  0.44399436  1
  Se  Se162  1  0.41356292  0.92130616  0.93662891  1
  Se  Se163  1  0.75093122  0.24888178  0.44385461  1
  Se  Se164  1  0.75657087  0.24566482  0.95363759  1
  Se  Se165  1  0.74543884  0.59270224  0.43999620  1
  Se  Se166  1  0.74198330  0.58545408  0.93755119  1
  Se  Se167  1  0.74600101  0.91831620  0.44497743  1
  Se  Se168  1  0.74068566  0.91519732  0.94795311  1
  Se  Se169  1  0.25826145  0.07710319  0.43901223  1
  Se  Se170  1  0.25265847  0.08508243  0.94432777  1
  Se  Se171  1  0.23726011  0.41621154  0.45737844  1
  Se  Se172  1  0.24920125  0.41958474  0.94197851  1
  Se  Se173  1  0.25410281  0.74711811  0.44707429  1
  Se  Se174  1  0.24101322  0.77130376  0.94278137  1
  Se  Se175  1  0.57873179  0.08741550  0.44348894  1
  Se  Se176  1  0.57997737  0.08507066  0.94877190  1
  Se  Se177  1  0.58571792  0.42258550  0.45100242  1
  Se  Se178  1  0.59006044  0.40199150  0.94129458  1
  Se  Se179  1  0.58033861  0.75538222  0.44851282  1
  Se  Se180  1  0.58422976  0.73968138  0.93575787  1
  Se  Se181  1  0.93055503  0.06896723  0.44732564  1
  Se  Se182  1  0.89809890  0.10344816  0.94854208  1
  Se  Se183  1  0.91711576  0.40991504  0.43868416  1
  Se  Se184  1  0.92328318  0.41299457  0.93726397  1
  Se  Se185  1  0.91704233  0.74815727  0.45226091  1
  Se  Se186  1  0.90641108  0.74911748  0.95332537  1
  Se  Se187  1  0.24486384  0.23675093  0.31287560  1
  Se  Se188  1  0.25699198  0.25675429  0.80267982  1
  Se  Se189  1  0.24957606  0.57368781  0.31068330  1
  Se  Se190  1  0.24603086  0.59047658  0.80648975  1
  Se  Se191  1  0.25154038  0.91661300  0.30143375  1
  Se  Se192  1  0.25305323  0.92423637  0.80155316  1
  Se  Se193  1  0.57806354  0.25462099  0.30956426  1
  Se  Se194  1  0.58308385  0.23788501  0.81113415  1
  Se  Se195  1  0.58081954  0.58661414  0.31086038  1
  Se  Se196  1  0.58645915  0.58314910  0.79376898  1
  Se  Se197  1  0.58698010  0.92266305  0.30146842  1
  Se  Se198  1  0.57401718  0.90863759  0.80977962  1
  Se  Se199  1  0.91700896  0.24819226  0.29924722  1
  Se  Se200  1  0.92191736  0.24617341  0.80323560  1
  Se  Se201  1  0.91102843  0.57176036  0.30737252  1
  Se  Se202  1  0.91255369  0.57307532  0.81466732  1
  Se  Se203  1  0.91390266  0.91263681  0.31367927  1
  Se  Se204  1  0.91532205  0.90248242  0.81780769  1
  Se  Se205  1  0.09111468  0.08945193  0.30800935  1
  Se  Se206  1  0.09573000  0.09346181  0.81208496  1
  Se  Se207  1  0.08396555  0.40767108  0.30126314  1
  Se  Se208  1  0.08607684  0.41546937  0.80038337  1
  Se  Se209  1  0.08408084  0.75738031  0.31465604  1
  Se  Se210  1  0.09080329  0.76193139  0.81979816  1
  Se  Se211  1  0.41592414  0.08272387  0.30305924  1
  Se  Se212  1  0.41317308  0.08345211  0.79875107  1
  Se  Se213  1  0.42372260  0.42312428  0.31915379  1
  Se  Se214  1  0.41925799  0.41917164  0.80005734  1
  Se  Se215  1  0.42065958  0.75512431  0.30666701  1
  Se  Se216  1  0.41539670  0.74811922  0.79666987  1
  Se  Se217  1  0.74833584  0.08361656  0.30448976  1
  Se  Se218  1  0.75726484  0.07744821  0.81208839  1
  Se  Se219  1  0.74618760  0.41520876  0.29980734  1
  Se  Se220  1  0.75727562  0.41919362  0.81137330  1
  Se  Se221  1  0.75338221  0.75340157  0.30648977  1
  Se  Se222  1  0.74860431  0.74666233  0.79849419  1
  Se  Se223  1  0.25252538  0.08063034  0.19284352  1
  Se  Se224  1  0.25042272  0.08464010  0.70043218  1
  Se  Se225  1  0.24979861  0.41382311  0.19195580  1
  Se  Se226  1  0.25175665  0.41811097  0.69591373  1
  Se  Se227  1  0.23647071  0.74949677  0.18468763  1
  Se  Se228  1  0.25221765  0.75300307  0.69999449  1
  Se  Se229  1  0.58422192  0.08113117  0.19815076  1
  Se  Se230  1  0.57429463  0.09472994  0.69403025  1
  Se  Se231  1  0.58882567  0.41171455  0.20323111  1
  Se  Se232  1  0.57636060  0.41898464  0.68352307  1
  Se  Se233  1  0.57339732  0.76154621  0.18729185  1
  Se  Se234  1  0.58746258  0.75104982  0.69208260  1
  Se  Se235  1  0.91159250  0.09214043  0.18558803  1
  Se  Se236  1  0.91258772  0.08243750  0.69164533  1
  Se  Se237  1  0.92294220  0.41054892  0.19700597  1
  Se  Se238  1  0.91892613  0.40868148  0.70185408  1
  Se  Se239  1  0.91893145  0.76365482  0.19110313  1
  Se  Se240  1  0.92175122  0.75701062  0.69176919  1
  Se  Se241  1  0.08329904  0.24733439  0.19003787  1
  Se  Se242  1  0.08018322  0.25201563  0.69677637  1
  Se  Se243  1  0.09748083  0.57866749  0.18845127  1
  Se  Se244  1  0.08665587  0.58112915  0.69196610  1
  Se  Se245  1  0.08805641  0.90988089  0.19053739  1
  Se  Se246  1  0.08676510  0.91322730  0.69412245  1
  Se  Se247  1  0.42079931  0.24222967  0.19081638  1
  Se  Se248  1  0.41953895  0.26235285  0.69750144  1
  Se  Se249  1  0.42623141  0.56811940  0.19212406  1
  Se  Se250  1  0.41207921  0.58855021  0.69406897  1
  Se  Se251  1  0.40777552  0.91861011  0.19798536  1
  Se  Se252  1  0.41652335  0.92111664  0.69466422  1
  Se  Se253  1  0.74474530  0.25123053  0.19539522  1
  Se  Se254  1  0.75516957  0.24007483  0.69242021  1
  Se  Se255  1  0.76695047  0.57942475  0.18199247  1
  Se  Se256  1  0.75317679  0.58584832  0.69996709  1
  Se  Se257  1  0.74842216  0.92273980  0.19980941  1
  Se  Se258  1  0.76058794  0.91294711  0.68924851  1
