# generated using pymatgen
data_In86Cu29Se144
_symmetry_space_group_name_H-M   'P 1'
_cell_length_a   17.57076290
_cell_length_b   17.57578914
_cell_length_c   23.43321206
_cell_angle_alpha   90.00317779
_cell_angle_beta   89.99239789
_cell_angle_gamma   89.99942411
_symmetry_Int_Tables_number   1
_chemical_formula_structural   In86Cu29Se144
_chemical_formula_sum   'In86 Cu29 Se144'
_cell_volume   7236.64503136
_cell_formula_units_Z   1
loop_
 _symmetry_equiv_pos_site_id
 _symmetry_equiv_pos_as_xyz
  1  'x, y, z'
loop_
 _atom_site_type_symbol
 _atom_site_label
 _atom_site_symmetry_multiplicity
 _atom_site_fract_x
 _atom_site_fract_y
 _atom_site_fract_z
 _atom_site_occupancy
  In  In0  1  -0.01095802  0.15413974  0.11798557  1
  In  In1  1  -0.00184792  0.15911612  0.62495399  1
  In  In2  1  -0.00954337  0.52244761  0.11841479  1
  In  In3  1  0.01589160  0.50005696  0.62410588  1
  In  In4  1  -0.01299017  0.83387264  0.13604668  1
  In  In5  1  -0.00269102  0.83503827  0.62587807  1
  In  In6  1  0.34743840  0.17981808  0.11513674  1
  In  In7  1  0.32751755  0.17625218  0.62561367  1
  In  In8  1  0.34547671  0.50127359  0.13699323  1
  In  In9  1  0.32948440  0.50771138  0.62688296  1
  In  In10  1  0.32859392  0.82047822  0.13010860  1
  In  In11  1  0.31808845  0.83390869  0.62420803  1
  In  In12  1  0.66770260  0.16778074  0.12434239  1
  In  In13  1  0.66911566  0.16035911  0.64633428  1
  In  In14  1  0.65845791  0.50042174  0.11103617  1
  In  In15  1  0.66915181  0.50147970  0.63705995  1
  In  In16  1  0.70694025  0.82376862  0.12536752  1
  In  In17  1  0.67545727  0.82861632  0.63331022  1
  In  In18  1  0.15331841  0.00529440  0.37945345  1
  In  In19  1  0.16139018  0.01033082  0.87475957  1
  In  In20  1  0.17008768  0.32164169  0.37876239  1
  In  In21  1  0.15606884  0.32796972  0.87667106  1
  In  In22  1  0.16200575  0.66681757  0.37787774  1
  In  In23  1  0.16713333  0.66647793  0.87022457  1
  In  In24  1  0.51152758  -0.00718220  0.36777449  1
  In  In25  1  0.51405207  0.00359963  0.87485613  1
  In  In26  1  0.50062151  0.33869793  0.36169680  1
  In  In27  1  0.51859001  0.32233705  0.88508716  1
  In  In28  1  0.49572375  0.66749708  0.36689325  1
  In  In29  1  0.49297118  0.65475307  0.87629273  1
  In  In30  1  0.82810807  -0.01241544  0.36617455  1
  In  In31  1  0.83687447  -0.00099107  0.87946505  1
  In  In32  1  0.82802225  0.34253173  0.36653904  1
  In  In33  1  0.81679893  0.34395477  0.88532917  1
  In  In34  1  0.84588860  0.66907425  0.37016463  1
  In  In35  1  0.83497269  0.67432274  0.88026837  1
  In  In36  1  0.01674619  0.16197162  0.37359448  1
  In  In37  1  0.00524016  0.15785760  0.88038616  1
  In  In38  1  -0.00214241  0.51090446  0.37592032  1
  In  In39  1  -0.01264855  0.51189222  0.88136665  1
  In  In40  1  -0.00275059  0.83399951  0.37644401  1
  In  In41  1  -0.01655558  0.81823487  0.86758132  1
  In  In42  1  0.31878446  0.16872924  0.37112194  1
  In  In43  1  0.33397348  0.16959954  0.88543947  1
  In  In44  1  0.32480355  0.48796415  0.36213048  1
  In  In45  1  0.34005505  0.51729275  0.88115452  1
  In  In46  1  0.32856735  0.81725186  0.37303709  1
  In  In47  1  0.33828434  0.81830048  0.87488658  1
  In  In48  1  0.66755219  0.16670086  0.36814449  1
  In  In49  1  0.66534345  0.16643977  0.87884811  1
  In  In50  1  0.67468951  0.49720244  0.36590029  1
  In  In51  1  0.67162306  0.50580736  0.88127638  1
  In  In52  1  0.66839028  0.84362824  0.36984147  1
  In  In53  1  0.67781397  0.84614683  0.87285501  1
  In  In54  1  0.15105639  -0.00586956  0.12770546  1
  In  In55  1  0.15584456  -0.01348431  0.61585725  1
  In  In56  1  0.18211944  0.33889678  0.12600245  1
  In  In57  1  0.15839350  0.33350885  0.60630743  1
  In  In58  1  0.16446431  0.66525977  0.13444470  1
  In  In59  1  0.16314878  0.66807778  0.62572210  1
  In  In60  1  0.50624754  0.01651671  0.11894565  1
  In  In61  1  0.51337206  0.00198784  0.63152624  1
  In  In62  1  0.50530442  0.33897436  0.12857072  1
  In  In63  1  0.50326662  0.33866402  0.63070158  1
  In  In64  1  0.50079600  0.64950997  0.11658196  1
  In  In65  1  0.50249548  0.66338382  0.63659957  1
  In  In66  1  0.83147192  -0.00097490  0.12840601  1
  In  In67  1  0.84371770  -0.00263000  0.63441402  1
  In  In68  1  0.82318607  0.32319109  0.11752321  1
  In  In69  1  0.83041076  0.32531762  0.63098584  1
  In  In70  1  0.84406437  0.68145895  0.08950804  1
  In  In71  1  0.82458681  0.67788895  0.63319505  1
  In  In72  1  0.84129189  0.50394640  0.49524964  1
  In  In73  1  -0.00115265  0.32883310  0.24936840  1
  In  In74  1  -0.00563577  0.33777248  0.75109435  1
  In  In75  1  0.34000206  0.33729946  0.74767933  1
  In  In76  1  0.84035444  0.16380921  0.50833490  1
  In  In77  1  0.16160467  0.83312066  0.00027752  1
  In  In78  1  0.16612452  0.49914183  0.00072670  1
  In  In79  1  0.49653635  0.16795832  0.50970123  1
  In  In80  1  0.66750457  0.66144285  0.23714974  1
  In  In81  1  0.49437886  0.50069402  0.50267393  1
  In  In82  1  0.33429380  0.00386404  0.24949009  1
  In  In83  1  0.33528882  -0.00681669  0.75554741  1
  In  In84  1  0.50609627  0.83623093  0.00085051  1
  In  In85  1  0.48976070  0.83213699  0.49639078  1
  Cu  Cu86  1  0.50486376  0.17451165  0.24272008  1
  Cu  Cu87  1  0.83583951  0.83896534  0.75310820  1
  Cu  Cu88  1  0.16432979  0.50501373  0.24891787  1
  Cu  Cu89  1  0.15857444  0.82860043  0.25477121  1
  Cu  Cu90  1  0.17217892  0.17013197  0.24721586  1
  Cu  Cu91  1  0.50364271  0.82629570  0.75758334  1
  Cu  Cu92  1  0.32521373  0.32862942  0.49185214  1
  Cu  Cu93  1  0.67346599  0.00254985  0.00077930  1
  Cu  Cu94  1  0.82748252  0.49764013  0.23946595  1
  Cu  Cu95  1  0.32342795  0.00269117  0.49738873  1
  Cu  Cu96  1  0.32302920  0.66161897  0.50024971  1
  Cu  Cu97  1  0.16654276  0.16248189  0.74807975  1
  Cu  Cu98  1  0.16125371  0.83032316  0.74431836  1
  Cu  Cu99  1  0.00607355  0.32214346  0.00253079  1
  Cu  Cu100  1  0.67220523  -0.00328465  0.49810678  1
  Cu  Cu101  1  0.83080173  0.50984432  0.75959585  1
  Cu  Cu102  1  0.83194424  0.15779390  0.24368487  1
  Cu  Cu103  1  0.82948630  0.16922422  0.75979147  1
  Cu  Cu104  1  -0.00532876  -0.00199837  0.00321552  1
  Cu  Cu105  1  0.50719427  0.83300157  0.24426526  1
  Cu  Cu106  1  0.33130367  0.00177530  -0.00085799  1
  Cu  Cu107  1  0.16907405  0.50751759  0.74932943  1
  Cu  Cu108  1  0.65988658  0.33069344  0.00181762  1
  Cu  Cu109  1  0.67008289  0.33454518  0.49955299  1
  Cu  Cu110  1  0.50812360  0.49505515  0.75723277  1
  Cu  Cu111  1  0.00017879  0.67330422  0.50064354  1
  Cu  Cu112  1  -0.00129276  -0.00225565  0.50145546  1
  Cu  Cu113  1  0.33738422  0.33747506  0.00595058  1
  Cu  Cu114  1  0.67176342  0.67566122  0.50496432  1
  Se  Se115  1  0.08484743  0.07918864  0.05243575  1
  Se  Se116  1  0.08184749  0.08461553  0.55288194  1
  Se  Se117  1  0.07472840  0.41164903  0.06414400  1
  Se  Se118  1  0.08085260  0.42488179  0.54452114  1
  Se  Se119  1  0.07644592  0.74716629  0.06507601  1
  Se  Se120  1  0.08335628  0.75435231  0.55719182  1
  Se  Se121  1  0.41875483  0.08623712  0.04725766  1
  Se  Se122  1  0.40676925  0.06915434  0.56370419  1
  Se  Se123  1  0.41726771  0.42106528  0.06050210  1
  Se  Se124  1  0.40406867  0.40314216  0.55830073  1
  Se  Se125  1  0.40936191  0.74639361  0.05444851  1
  Se  Se126  1  0.41050333  0.73658589  0.56048244  1
  Se  Se127  1  0.75469190  0.08569192  0.05749357  1
  Se  Se128  1  0.74154900  0.07833057  0.56453867  1
  Se  Se129  1  0.74914436  0.41338907  0.04983204  1
  Se  Se130  1  0.74802114  0.41668882  0.55938682  1
  Se  Se131  1  0.73017964  0.74230471  0.03694313  1
  Se  Se132  1  0.75504209  0.75868481  0.55522826  1
  Se  Se133  1  0.24834931  0.25203650  0.05143735  1
  Se  Se134  1  0.24745890  0.24312442  0.54836959  1
  Se  Se135  1  0.25280556  0.58432567  0.06520766  1
  Se  Se136  1  0.24272978  0.57908478  0.55616825  1
  Se  Se137  1  0.25673500  0.92164521  0.06169817  1
  Se  Se138  1  0.24627985  0.91125047  0.54770531  1
  Se  Se139  1  0.57853242  0.24836483  0.05801995  1
  Se  Se140  1  0.59693070  0.25417116  0.56418171  1
  Se  Se141  1  0.58756783  0.59082683  0.04061552  1
  Se  Se142  1  0.59213511  0.58960458  0.55943491  1
  Se  Se143  1  0.59653365  0.92091675  0.06366850  1
  Se  Se144  1  0.58692479  0.91647335  0.55571994  1
  Se  Se145  1  0.91386964  0.24432763  0.05153363  1
  Se  Se146  1  0.92862162  0.26464297  0.55955593  1
  Se  Se147  1  0.89832258  0.56245386  0.03720071  1
  Se  Se148  1  0.92000552  0.59324838  0.56319674  1
  Se  Se149  1  0.91521171  0.91469155  0.05936467  1
  Se  Se150  1  0.91283451  0.91885398  0.55652809  1
  Se  Se151  1  0.08019092  0.24886707  0.44659484  1
  Se  Se152  1  0.09049465  0.24049637  0.94956505  1
  Se  Se153  1  0.08009158  0.58455681  0.44931906  1
  Se  Se154  1  0.07774669  0.59690784  0.94696319  1
  Se  Se155  1  0.08224113  0.91360310  0.44797599  1
  Se  Se156  1  0.07278943  0.92034927  0.93828220  1
  Se  Se157  1  0.41715333  0.25415902  0.43787352  1
  Se  Se158  1  0.41878190  0.25342866  0.95022000  1
  Se  Se159  1  0.40780909  0.58792431  0.43883482  1
  Se  Se160  1  0.42207261  0.58256859  0.95694922  1
  Se  Se161  1  0.40574320  0.92840699  0.43455857  1
  Se  Se162  1  0.40982386  0.92316008  0.93789688  1
  Se  Se163  1  0.75008042  0.25276860  0.44234433  1
  Se  Se164  1  0.74723856  0.24716462  0.95067724  1
  Se  Se165  1  0.74217119  0.59192429  0.43952454  1
  Se  Se166  1  0.77774874  0.56649966  0.94553662  1
  Se  Se167  1  0.75251750  0.91268760  0.44496679  1
  Se  Se168  1  0.75643534  0.91592586  0.95095835  1
  Se  Se169  1  0.24422740  0.08779657  0.44370161  1
  Se  Se170  1  0.24570997  0.08352770  0.94700134  1
  Se  Se171  1  0.24786840  0.41908481  0.44116473  1
  Se  Se172  1  0.25693420  0.40906455  0.93855836  1
  Se  Se173  1  0.24487793  0.75120152  0.44851928  1
  Se  Se174  1  0.25558102  0.73850616  0.94757346  1
  Se  Se175  1  0.58726979  0.07937238  0.44480893  1
  Se  Se176  1  0.58353241  0.08361163  0.95137954  1
  Se  Se177  1  0.58936132  0.41418140  0.44123214  1
  Se  Se178  1  0.58422748  0.42309137  0.94894182  1
  Se  Se179  1  0.58702463  0.74409379  0.43948061  1
  Se  Se180  1  0.58612926  0.75169704  0.93189516  1
  Se  Se181  1  0.91932182  0.07710590  0.43894623  1
  Se  Se182  1  0.91504768  0.08568256  0.94984267  1
  Se  Se183  1  0.92431082  0.40469260  0.43843668  1
  Se  Se184  1  0.93031471  0.40293792  0.94146835  1
  Se  Se185  1  0.91288021  0.75100304  0.44669445  1
  Se  Se186  1  0.91665389  0.75520553  0.95177899  1
  Se  Se187  1  0.25201802  0.25756814  0.29856891  1
  Se  Se188  1  0.24549104  0.24507390  0.80632523  1
  Se  Se189  1  0.24579090  0.58798924  0.30568600  1
  Se  Se190  1  0.25533798  0.58404689  0.80488126  1
  Se  Se191  1  0.24393675  0.91331943  0.30974875  1
  Se  Se192  1  0.23919900  0.90389252  0.81285414  1
  Se  Se193  1  0.58926889  0.25339541  0.30055361  1
  Se  Se194  1  0.58693267  0.24881102  0.80677622  1
  Se  Se195  1  0.57745013  0.57538285  0.30281024  1
  Se  Se196  1  0.58739909  0.58386553  0.80874616  1
  Se  Se197  1  0.59053320  0.91876589  0.29375540  1
  Se  Se198  1  0.58497491  0.91752093  0.80294420  1
  Se  Se199  1  0.90865599  0.23657516  0.30976801  1
  Se  Se200  1  0.91267422  0.24997185  0.81746377  1
  Se  Se201  1  0.90963556  0.57360464  0.30037142  1
  Se  Se202  1  0.91850950  0.59366656  0.80603812  1
  Se  Se203  1  0.92884150  0.92280445  0.30398469  1
  Se  Se204  1  0.92055830  0.92309735  0.80508611  1
  Se  Se205  1  0.08944657  0.08321007  0.29761697  1
  Se  Se206  1  0.07925862  0.08348214  0.80048745  1
  Se  Se207  1  0.08632471  0.42077836  0.30970208  1
  Se  Se208  1  0.08723956  0.42922820  0.81043417  1
  Se  Se209  1  0.07555102  0.74407663  0.30778872  1
  Se  Se210  1  0.08223902  0.74779678  0.80305407  1
  Se  Se211  1  0.42747437  0.09555812  0.30920212  1
  Se  Se212  1  0.41935311  0.09065855  0.81184637  1
  Se  Se213  1  0.42486834  0.42697664  0.29682326  1
  Se  Se214  1  0.42303119  0.41956776  0.81705067  1
  Se  Se215  1  0.42033207  0.75607329  0.29884867  1
  Se  Se216  1  0.41591216  0.74038330  0.80251179  1
  Se  Se217  1  0.74757625  0.07969758  0.30279693  1
  Se  Se218  1  0.75011328  0.08083570  0.81174445  1
  Se  Se219  1  0.74543288  0.41275966  0.29188369  1
  Se  Se220  1  0.74785459  0.42019741  0.80646546  1
  Se  Se221  1  0.75064485  0.74971476  0.30589514  1
  Se  Se222  1  0.75420903  0.75380207  0.80681354  1
  Se  Se223  1  0.24908849  0.08965580  0.18330886  1
  Se  Se224  1  0.24602483  0.07988130  0.68930115  1
  Se  Se225  1  0.25182152  0.42066616  0.20053706  1
  Se  Se226  1  0.23699778  0.41645489  0.68923925  1
  Se  Se227  1  0.24650353  0.74836960  0.20386005  1
  Se  Se228  1  0.25052200  0.74702240  0.69681605  1
  Se  Se229  1  0.58615640  0.08403057  0.19634486  1
  Se  Se230  1  0.58028053  0.07950237  0.70810088  1
  Se  Se231  1  0.59027138  0.42599392  0.19132937  1
  Se  Se232  1  0.58832078  0.41179966  0.70139019  1
  Se  Se233  1  0.58243644  0.75759871  0.17766642  1
  Se  Se234  1  0.58826259  0.74762424  0.69983236  1
  Se  Se235  1  0.92277765  0.07714999  0.19750803  1
  Se  Se236  1  0.91478651  0.09315509  0.70106383  1
  Se  Se237  1  0.91456162  0.41708367  0.18348650  1
  Se  Se238  1  0.90613624  0.43213145  0.69126580  1
  Se  Se239  1  0.90001724  0.73269927  0.18294813  1
  Se  Se240  1  0.91738268  0.75391448  0.69813580  1
  Se  Se241  1  0.08793084  0.24429457  0.18445540  1
  Se  Se242  1  0.09040761  0.25076077  0.69054622  1
  Se  Se243  1  0.07409611  0.58293786  0.19790189  1
  Se  Se244  1  0.08051524  0.58731929  0.69806740  1
  Se  Se245  1  0.07805399  0.91380496  0.20132676  1
  Se  Se246  1  0.08012125  0.92015994  0.69616630  1
  Se  Se247  1  0.41494763  0.25535623  0.19505090  1
  Se  Se248  1  0.42875795  0.23682315  0.69502835  1
  Se  Se249  1  0.41039017  0.60694483  0.19678613  1
  Se  Se250  1  0.42137400  0.57143459  0.69869477  1
  Se  Se251  1  0.42357475  0.91555050  0.18591701  1
  Se  Se252  1  0.42436665  0.90326260  0.69094339  1
  Se  Se253  1  0.75106929  0.24837137  0.19634378  1
  Se  Se254  1  0.74952509  0.25578730  0.70615849  1
  Se  Se255  1  0.76035607  0.58121285  0.17421600  1
  Se  Se256  1  0.74715134  0.59051062  0.70197749  1
  Se  Se257  1  0.75012426  0.91870770  0.19995677  1
  Se  Se258  1  0.75013758  0.92148932  0.69930028  1
