# generated using pymatgen
data_In86Cu29Se144
_symmetry_space_group_name_H-M   'P 1'
_cell_length_a   17.57384827
_cell_length_b   17.57422720
_cell_length_c   23.43342818
_cell_angle_alpha   90.00195516
_cell_angle_beta   90.01482043
_cell_angle_gamma   89.99015486
_symmetry_Int_Tables_number   1
_chemical_formula_structural   In86Cu29Se144
_chemical_formula_sum   'In86 Cu29 Se144'
_cell_volume   7237.33900691
_cell_formula_units_Z   1
loop_
 _symmetry_equiv_pos_site_id
 _symmetry_equiv_pos_as_xyz
  1  'x, y, z'
loop_
 _atom_site_type_symbol
 _atom_site_label
 _atom_site_symmetry_multiplicity
 _atom_site_fract_x
 _atom_site_fract_y
 _atom_site_fract_z
 _atom_site_occupancy
  In  In0  1  0.01561186  0.16484916  0.12210368  1
  In  In1  1  0.01040802  0.17845824  0.61585267  1
  In  In2  1  -0.00273133  0.49615116  0.12990549  1
  In  In3  1  -0.00339012  0.50728287  0.63685222  1
  In  In4  1  -0.02680507  0.83726635  0.11990421  1
  In  In5  1  -0.01442726  0.82369958  0.62201299  1
  In  In6  1  0.32865283  0.15800004  0.12084051  1
  In  In7  1  0.33125907  0.17536784  0.61995511  1
  In  In8  1  0.32432559  0.50349073  0.11866522  1
  In  In9  1  0.32248642  0.48251201  0.62755670  1
  In  In10  1  0.34617607  0.83818202  0.12918152  1
  In  In11  1  0.33797208  0.84747315  0.62697643  1
  In  In12  1  0.65849779  0.17587039  0.13029585  1
  In  In13  1  0.67501645  0.17730874  0.61326149  1
  In  In14  1  0.68694996  0.48195173  0.14897312  1
  In  In15  1  0.67694825  0.49260296  0.62614241  1
  In  In16  1  0.68133158  0.81886566  0.13656838  1
  In  In17  1  0.67193819  0.82295532  0.62407390  1
  In  In18  1  0.17849612  0.00755511  0.37430984  1
  In  In19  1  0.18254459  -0.00205966  0.87155904  1
  In  In20  1  0.15656694  0.33224969  0.37934479  1
  In  In21  1  0.16225729  0.33391091  0.87768129  1
  In  In22  1  0.15340106  0.66884117  0.37466305  1
  In  In23  1  0.14237208  0.66438623  0.87087872  1
  In  In24  1  0.50398734  0.00717793  0.37150378  1
  In  In25  1  0.49840502  0.01854560  0.87696087  1
  In  In26  1  0.50548983  0.32610748  0.37669207  1
  In  In27  1  0.49191392  0.32704787  0.86854226  1
  In  In28  1  0.52945372  0.65933989  0.37593291  1
  In  In29  1  0.50655732  0.65225070  0.87170858  1
  In  In30  1  0.82316003  0.01161320  0.37922584  1
  In  In31  1  0.82400459  -0.00542174  0.88075743  1
  In  In32  1  0.82775848  0.33179510  0.36940677  1
  In  In33  1  0.84730674  0.34735718  0.86618385  1
  In  In34  1  0.83133006  0.66046145  0.37806605  1
  In  In35  1  0.83283048  0.66011601  0.87743382  1
  In  In36  1  -0.00961268  0.17710750  0.38370049  1
  In  In37  1  0.00060983  0.18662997  0.87286187  1
  In  In38  1  -0.03011494  0.47687916  0.34660295  1
  In  In39  1  -0.00319884  0.49472702  0.87853866  1
  In  In40  1  -0.00711579  0.81070428  0.36997351  1
  In  In41  1  -0.00425335  0.81902457  0.87410045  1
  In  In42  1  0.35268621  0.15532825  0.40056719  1
  In  In43  1  0.33228030  0.16846183  0.87425893  1
  In  In44  1  0.33616975  0.49334516  0.38109392  1
  In  In45  1  0.33263745  0.47950959  0.87224139  1
  In  In46  1  0.32622527  0.84189230  0.37268239  1
  In  In47  1  0.32384497  0.84284392  0.86871591  1
  In  In48  1  0.66636748  0.16772268  0.37259545  1
  In  In49  1  0.65533738  0.16902896  0.87736655  1
  In  In50  1  0.69414918  0.52076596  0.34781040  1
  In  In51  1  0.67630934  0.50618438  0.86814890  1
  In  In52  1  0.67215108  0.84077211  0.37315794  1
  In  In53  1  0.68291917  0.83030285  0.87962202  1
  In  In54  1  0.16280294  0.01691993  0.12303216  1
  In  In55  1  0.17266008  0.01704859  0.62087835  1
  In  In56  1  0.16258512  0.32636658  0.12073482  1
  In  In57  1  0.17249523  0.32992246  0.64535903  1
  In  In58  1  0.16460224  0.64981077  0.12085578  1
  In  In59  1  0.15497783  0.64575478  0.62975554  1
  In  In60  1  0.49219720  0.00616947  0.13378826  1
  In  In61  1  0.48345716  0.01367797  0.62316775  1
  In  In62  1  0.51658981  0.32893954  0.12599056  1
  In  In63  1  0.50620959  0.32578156  0.62350036  1
  In  In64  1  0.50572027  0.66558540  0.13071712  1
  In  In65  1  0.51412812  0.66979337  0.62867827  1
  In  In66  1  0.83564249  -0.01890431  0.12374234  1
  In  In67  1  0.82977775  -0.00609926  0.61224156  1
  In  In68  1  0.83251308  0.34246730  0.13477540  1
  In  In69  1  0.83228739  0.33551913  0.62320645  1
  In  In70  1  0.83273340  0.66042085  0.12890423  1
  In  In71  1  0.83172858  0.66363185  0.62509352  1
  In  In72  1  0.33418195  0.32693365  0.26172065  1
  In  In73  1  -0.00225293  -0.00025572  0.24418821  1
  In  In74  1  0.33453937  0.66608027  0.74881568  1
  In  In75  1  0.50452729  0.83208342  0.00995999  1
  In  In76  1  0.50380955  0.49186442  0.00551078  1
  In  In77  1  0.00227844  0.00258161  0.74292769  1
  In  In78  1  0.83582375  0.16825861  -0.00124510  1
  In  In79  1  0.51486335  0.49561691  0.50152150  1
  In  In80  1  0.15900541  0.83739884  -0.00229493  1
  In  In81  1  0.50848615  0.84243688  0.49414532  1
  In  In82  1  0.15871307  0.49507229  0.50339400  1
  In  In83  1  0.15992891  0.84039453  0.50293482  1
  In  In84  1  0.33693435  0.66968301  0.25072093  1
  In  In85  1  0.66248959  0.00253622  0.75341977  1
  Cu  Cu86  1  0.32283962  0.66070347  -0.00494963  1
  Cu  Cu87  1  0.83146156  0.16721814  0.25350186  1
  Cu  Cu88  1  0.16378505  0.49880492  0.24899599  1
  Cu  Cu89  1  -0.01084098  0.65336059  0.49787561  1
  Cu  Cu90  1  0.33640488  0.00616133  0.00014575  1
  Cu  Cu91  1  0.66278273  0.00542446  0.49557807  1
  Cu  Cu92  1  -0.00910244  0.33836927  0.49904262  1
  Cu  Cu93  1  0.83512143  0.82167456  0.75009069  1
  Cu  Cu94  1  0.33132689  0.32095263  -0.00512460  1
  Cu  Cu95  1  0.50706287  0.49441803  0.74698854  1
  Cu  Cu96  1  0.83214869  0.17028420  0.74086713  1
  Cu  Cu97  1  0.16606559  0.83642794  0.74833821  1
  Cu  Cu98  1  0.49827305  0.16586060  0.25481933  1
  Cu  Cu99  1  0.49463897  0.17158623  0.74857693  1
  Cu  Cu100  1  0.83294747  0.49927293  0.74969954  1
  Cu  Cu101  1  0.67230205  0.33575235  0.49426261  1
  Cu  Cu102  1  0.50466110  0.83820359  0.74596903  1
  Cu  Cu103  1  0.17289145  0.17067360  0.74924340  1
  Cu  Cu104  1  0.83127359  0.82929383  0.25259759  1
  Cu  Cu105  1  0.00069923  0.34015031  -0.00062403  1
  Cu  Cu106  1  0.50134856  0.83943861  0.25466875  1
  Cu  Cu107  1  -0.00083087  -0.00378848  0.49605759  1
  Cu  Cu108  1  0.16652781  0.16892815  0.24902006  1
  Cu  Cu109  1  0.66741460  -0.00229569  0.00368447  1
  Cu  Cu110  1  0.34072749  0.67114120  0.50081755  1
  Cu  Cu111  1  0.67565011  0.66271911  0.00453266  1
  Cu  Cu112  1  -0.00985777  0.66272389  0.00053870  1
  Cu  Cu113  1  0.67205322  0.33714548  0.00391864  1
  Cu  Cu114  1  0.16698006  0.83855650  0.25014552  1
  Se  Se115  1  0.07977679  0.07986333  0.04719635  1
  Se  Se116  1  0.08015626  0.08079976  0.54978807  1
  Se  Se117  1  0.08349196  0.41950398  0.05794213  1
  Se  Se118  1  0.07171697  0.40907735  0.56644505  1
  Se  Se119  1  0.07434123  0.74407202  0.05972233  1
  Se  Se120  1  0.07745714  0.73293335  0.55474961  1
  Se  Se121  1  0.42364054  0.08402563  0.05449552  1
  Se  Se122  1  0.41575427  0.09564987  0.54960072  1
  Se  Se123  1  0.40762687  0.40001312  0.06100637  1
  Se  Se124  1  0.41359955  0.41226670  0.55618929  1
  Se  Se125  1  0.40547011  0.73439762  0.05764494  1
  Se  Se126  1  0.41857276  0.75082081  0.56075776  1
  Se  Se127  1  0.74710923  0.08148556  0.06313864  1
  Se  Se128  1  0.75172299  0.08533734  0.54807006  1
  Se  Se129  1  0.75055620  0.41945631  0.06089307  1
  Se  Se130  1  0.75418356  0.41821196  0.54978737  1
  Se  Se131  1  0.75585181  0.74974355  0.05693178  1
  Se  Se132  1  0.76729153  0.76183536  0.55667012  1
  Se  Se133  1  0.24690863  0.24322574  0.05379398  1
  Se  Se134  1  0.23440329  0.25858669  0.56293738  1
  Se  Se135  1  0.24075331  0.57419985  0.04463035  1
  Se  Se136  1  0.25879691  0.58885172  0.55778846  1
  Se  Se137  1  0.25845029  0.92025434  0.05859632  1
  Se  Se138  1  0.26055826  0.92897118  0.55192608  1
  Se  Se139  1  0.58633699  0.24883268  0.04930411  1
  Se  Se140  1  0.58496640  0.25395410  0.54591375  1
  Se  Se141  1  0.59271689  0.58367804  0.06299538  1
  Se  Se142  1  0.60006157  0.59359947  0.55765249  1
  Se  Se143  1  0.59308142  0.92017256  0.07027994  1
  Se  Se144  1  0.58992471  0.92870998  0.56520703  1
  Se  Se145  1  0.92141599  0.25904560  0.06204899  1
  Se  Se146  1  0.91175494  0.24934983  0.55261851  1
  Se  Se147  1  0.91422074  0.57819251  0.05899422  1
  Se  Se148  1  0.91349603  0.57317890  0.55908191  1
  Se  Se149  1  0.92741936  0.93370280  0.04565923  1
  Se  Se150  1  0.91818600  0.91044642  0.54850638  1
  Se  Se151  1  0.07960936  0.25263987  0.45274304  1
  Se  Se152  1  0.08263151  0.25064065  0.95096238  1
  Se  Se153  1  0.07087262  0.57670970  0.43687570  1
  Se  Se154  1  0.07766141  0.58262558  0.94801056  1
  Se  Se155  1  0.07407744  0.91780003  0.43063331  1
  Se  Se156  1  0.07596318  0.92364326  0.93134414  1
  Se  Se157  1  0.41378790  0.26952590  0.45006862  1
  Se  Se158  1  0.42255849  0.24432066  0.94431071  1
  Se  Se159  1  0.42043555  0.59198786  0.44172045  1
  Se  Se160  1  0.41156351  0.58153685  0.94180052  1
  Se  Se161  1  0.40805999  0.92704971  0.44201242  1
  Se  Se162  1  0.41387169  0.91756661  0.94347760  1
  Se  Se163  1  0.75296837  0.24695701  0.44199799  1
  Se  Se164  1  0.74861398  0.25971850  0.93769071  1
  Se  Se165  1  0.74522354  0.57433870  0.44135482  1
  Se  Se166  1  0.75111485  0.57614949  0.94774090  1
  Se  Se167  1  0.74915402  0.91993032  0.44752917  1
  Se  Se168  1  0.75235414  0.91219651  0.95544607  1
  Se  Se169  1  0.23828923  0.09189067  0.45069558  1
  Se  Se170  1  0.25057973  0.08406115  0.94510986  1
  Se  Se171  1  0.25577460  0.40637258  0.44801220  1
  Se  Se172  1  0.25042373  0.41252453  0.94829163  1
  Se  Se173  1  0.25281899  0.74470414  0.44334149  1
  Se  Se174  1  0.24981636  0.74568924  0.93570647  1
  Se  Se175  1  0.58009631  0.08938942  0.44406634  1
  Se  Se176  1  0.58601983  0.08288808  0.95153971  1
  Se  Se177  1  0.60117854  0.41958180  0.43073768  1
  Se  Se178  1  0.58975043  0.41022653  0.93707726  1
  Se  Se179  1  0.60290882  0.74450478  0.44924053  1
  Se  Se180  1  0.58838860  0.73875781  0.94529681  1
  Se  Se181  1  0.91421085  0.08369441  0.44792612  1
  Se  Se182  1  0.92329110  0.08193552  0.93413510  1
  Se  Se183  1  0.91274061  0.41747899  0.43794738  1
  Se  Se184  1  0.90918232  0.41903861  0.95076064  1
  Se  Se185  1  0.91274923  0.74724747  0.44889641  1
  Se  Se186  1  0.91068682  0.74966899  0.94746416  1
  Se  Se187  1  0.24438457  0.23662451  0.31864310  1
  Se  Se188  1  0.25015829  0.25458627  0.80775161  1
  Se  Se189  1  0.24529958  0.57618214  0.31133688  1
  Se  Se190  1  0.24891380  0.58321430  0.81550216  1
  Se  Se191  1  0.25014979  0.92255307  0.29985775  1
  Se  Se192  1  0.25392088  0.92247104  0.79209693  1
  Se  Se193  1  0.58489611  0.25150079  0.30185461  1
  Se  Se194  1  0.58382753  0.24943699  0.80191069  1
  Se  Se195  1  0.57797792  0.57824137  0.29404266  1
  Se  Se196  1  0.58792998  0.58256571  0.79737356  1
  Se  Se197  1  0.58718076  0.92260369  0.30539768  1
  Se  Se198  1  0.57775012  0.91081891  0.81799400  1
  Se  Se199  1  0.91905195  0.24854082  0.30337675  1
  Se  Se200  1  0.91462355  0.25071834  0.79742144  1
  Se  Se201  1  0.93557620  0.60815744  0.30876315  1
  Se  Se202  1  0.91584047  0.57978807  0.80774308  1
  Se  Se203  1  0.91117235  0.91456435  0.31094193  1
  Se  Se204  1  0.90951039  0.91414261  0.80572062  1
  Se  Se205  1  0.08171882  0.08918800  0.30892670  1
  Se  Se206  1  0.08958725  0.08857223  0.80815100  1
  Se  Se207  1  0.08644352  0.40876958  0.30087626  1
  Se  Se208  1  0.06205810  0.39683466  0.81183641  1
  Se  Se209  1  0.08547649  0.74858811  0.29688235  1
  Se  Se210  1  0.07881447  0.75370398  0.79674965  1
  Se  Se211  1  0.41004615  0.09000633  0.31031786  1
  Se  Se212  1  0.41443300  0.08522720  0.80234889  1
  Se  Se213  1  0.42677936  0.42612958  0.30888377  1
  Se  Se214  1  0.41805076  0.41418929  0.79718455  1
  Se  Se215  1  0.42663516  0.75467736  0.31682647  1
  Se  Se216  1  0.42611097  0.75767686  0.81057235  1
  Se  Se217  1  0.74611962  0.08201294  0.30137046  1
  Se  Se218  1  0.75837768  0.09390442  0.80867214  1
  Se  Se219  1  0.76127443  0.41523468  0.29152103  1
  Se  Se220  1  0.74723798  0.41285834  0.80016526  1
  Se  Se221  1  0.74914015  0.74807453  0.30874729  1
  Se  Se222  1  0.74956676  0.74415112  0.80628303  1
  Se  Se223  1  0.24943583  0.08329263  0.19734641  1
  Se  Se224  1  0.25512385  0.08841050  0.69430760  1
  Se  Se225  1  0.24864421  0.41723533  0.19376234  1
  Se  Se226  1  0.23490922  0.43547855  0.70644869  1
  Se  Se227  1  0.24379034  0.75466541  0.18685149  1
  Se  Se228  1  0.24368054  0.75470589  0.68496114  1
  Se  Se229  1  0.58275655  0.08550442  0.19855747  1
  Se  Se230  1  0.58076980  0.09353905  0.68909801  1
  Se  Se231  1  0.57438474  0.41784284  0.19973974  1
  Se  Se232  1  0.58781761  0.41137307  0.69128960  1
  Se  Se233  1  0.57920513  0.75271874  0.20005715  1
  Se  Se234  1  0.59055351  0.75228559  0.70062438  1
  Se  Se235  1  0.90783958  0.09207770  0.18546260  1
  Se  Se236  1  0.90902994  0.08707607  0.68199310  1
  Se  Se237  1  0.91316693  0.42481312  0.20435499  1
  Se  Se238  1  0.91387818  0.41296238  0.69668138  1
  Se  Se239  1  0.91562929  0.75034488  0.19658528  1
  Se  Se240  1  0.92021087  0.74011088  0.69797642  1
  Se  Se241  1  0.08271255  0.25139737  0.19666516  1
  Se  Se242  1  0.07575017  0.24532101  0.70165061  1
  Se  Se243  1  0.08272641  0.58416811  0.19703813  1
  Se  Se244  1  0.08490259  0.57782592  0.70917871  1
  Se  Se245  1  0.08692736  0.90871652  0.18264284  1
  Se  Se246  1  0.08940977  0.91053605  0.68036146  1
  Se  Se247  1  0.41914414  0.24356649  0.19090932  1
  Se  Se248  1  0.41379234  0.25567464  0.69312616  1
  Se  Se249  1  0.41752302  0.57132657  0.19127078  1
  Se  Se250  1  0.42377204  0.57417815  0.68668422  1
  Se  Se251  1  0.41358818  0.92076143  0.20452597  1
  Se  Se252  1  0.41987600  0.92391765  0.69870602  1
  Se  Se253  1  0.74997273  0.25071497  0.19682136  1
  Se  Se254  1  0.74467684  0.25354388  0.69219849  1
  Se  Se255  1  0.73721806  0.60002094  0.20068875  1
  Se  Se256  1  0.74925764  0.58293039  0.69630949  1
  Se  Se257  1  0.75083760  0.91850126  0.20133292  1
  Se  Se258  1  0.75787857  0.91373550  0.69538840  1
