# generated using pymatgen
data_In86Cu29Se144
_symmetry_space_group_name_H-M   'P 1'
_cell_length_a   17.61850920
_cell_length_b   17.61071549
_cell_length_c   23.47323937
_cell_angle_alpha   90.01177580
_cell_angle_beta   90.02098331
_cell_angle_gamma   90.01291502
_symmetry_Int_Tables_number   1
_chemical_formula_structural   In86Cu29Se144
_chemical_formula_sum   'In86 Cu29 Se144'
_cell_volume   7283.14801824
_cell_formula_units_Z   1
loop_
 _symmetry_equiv_pos_site_id
 _symmetry_equiv_pos_as_xyz
  1  'x, y, z'
loop_
 _atom_site_type_symbol
 _atom_site_label
 _atom_site_symmetry_multiplicity
 _atom_site_fract_x
 _atom_site_fract_y
 _atom_site_fract_z
 _atom_site_occupancy
  In  In0  1  -0.00303329  0.17917208  0.12892063  1
  In  In1  1  0.00900804  0.18467929  0.61367793  1
  In  In2  1  0.00546271  0.49932023  0.12767558  1
  In  In3  1  0.00175553  0.48832283  0.62334146  1
  In  In4  1  -0.01811642  0.82642069  0.11898012  1
  In  In5  1  0.01588949  0.82229365  0.62662514  1
  In  In6  1  0.34729390  0.16503315  0.12262831  1
  In  In7  1  0.32435820  0.16392130  0.62299355  1
  In  In8  1  0.33702103  0.50013067  0.13051085  1
  In  In9  1  0.33489706  0.50775494  0.61715722  1
  In  In10  1  0.33910921  0.81628220  0.13326998  1
  In  In11  1  0.32572655  0.83572081  0.63981280  1
  In  In12  1  0.66027134  0.18209790  0.13495052  1
  In  In13  1  0.66050431  0.15791276  0.61903413  1
  In  In14  1  0.65983989  0.50261416  0.12667959  1
  In  In15  1  0.66027151  0.51055781  0.62018185  1
  In  In16  1  0.66755011  0.82597079  0.13007386  1
  In  In17  1  0.67546353  0.83821748  0.63054417  1
  In  In18  1  0.16062178  0.01010954  0.38906510  1
  In  In19  1  0.18306096  -0.01146758  0.86618995  1
  In  In20  1  0.16269760  0.33237730  0.37565187  1
  In  In21  1  0.16264142  0.34652689  0.87511713  1
  In  In22  1  0.16069159  0.66017594  0.38053753  1
  In  In23  1  0.16618902  0.65301030  0.87170148  1
  In  In24  1  0.50293874  -0.01030537  0.36884792  1
  In  In25  1  0.50047980  -0.00843754  0.87652786  1
  In  In26  1  0.51256647  0.35036692  0.35842242  1
  In  In27  1  0.49358067  0.33333871  0.88920665  1
  In  In28  1  0.45244468  0.63393089  0.30847540  1
  In  In29  1  0.49542368  0.66978667  0.88961061  1
  In  In30  1  0.82896903  0.00599575  0.37728971  1
  In  In31  1  0.81714622  0.00493674  0.87496847  1
  In  In32  1  0.82805138  0.32885001  0.36669088  1
  In  In33  1  0.84281494  0.33926834  0.87629890  1
  In  In34  1  0.83252991  0.66227057  0.36776817  1
  In  In35  1  0.83277678  0.66754285  0.89599869  1
  In  In36  1  -0.01042205  0.17722764  0.39163478  1
  In  In37  1  -0.00444274  0.17667258  0.86799597  1
  In  In38  1  0.01122667  0.50674670  0.37323632  1
  In  In39  1  0.00096051  0.49625851  0.88491277  1
  In  In40  1  0.00931631  0.82784157  0.38306106  1
  In  In41  1  0.00691375  0.82197084  0.87709083  1
  In  In42  1  0.31670193  0.17629310  0.38163533  1
  In  In43  1  0.34513694  0.16249598  0.87548391  1
  In  In44  1  0.33126425  0.49410748  0.37045380  1
  In  In45  1  0.32765769  0.50256714  0.88176449  1
  In  In46  1  0.32918952  0.81560053  0.36398344  1
  In  In47  1  0.34505400  0.83536222  0.86692217  1
  In  In48  1  0.67252207  0.17133525  0.36767263  1
  In  In49  1  0.66373309  0.15394663  0.87731249  1
  In  In50  1  0.65025825  0.50431526  0.35037573  1
  In  In51  1  0.66108641  0.51167154  0.89799673  1
  In  In52  1  0.63935990  0.81682367  0.34973457  1
  In  In53  1  0.65661618  0.83011938  0.89102650  1
  In  In54  1  0.16631528  -0.00085374  0.12458728  1
  In  In55  1  0.17152674  0.00131874  0.62553207  1
  In  In56  1  0.15110805  0.35398062  0.14005697  1
  In  In57  1  0.16006491  0.32970899  0.61120377  1
  In  In58  1  0.18177315  0.65693183  0.13989711  1
  In  In59  1  0.17799618  0.67618324  0.60084110  1
  In  In60  1  0.51433918  0.00494286  0.11798773  1
  In  In61  1  0.50708429  -0.01229403  0.63530250  1
  In  In62  1  0.50131480  0.33581470  0.13141354  1
  In  In63  1  0.49158454  0.33779454  0.62192706  1
  In  In64  1  0.50427517  0.66127517  0.12526193  1
  In  In65  1  0.48960868  0.65271070  0.61806944  1
  In  In66  1  0.82031547  -0.02706203  0.11624430  1
  In  In67  1  0.81694983  0.00213408  0.62691040  1
  In  In68  1  0.83154596  0.34458774  0.13002471  1
  In  In69  1  0.84957647  0.33716604  0.62075324  1
  In  In70  1  0.83582743  0.66723090  0.12895951  1
  In  In71  1  0.82857918  0.67132405  0.62393638  1
  In  In72  1  -0.00361975  0.00677133  0.74056159  1
  In  In73  1  -0.00218313  -0.00044442  0.25116480  1
  In  In74  1  0.33296907  0.00154132  0.25255646  1
  In  In75  1  0.82404769  0.17689030  0.00840277  1
  In  In76  1  0.00362009  0.66156626  0.74986528  1
  In  In77  1  0.17341798  0.17620499  -0.00719458  1
  In  In78  1  0.83064019  0.84290234  0.49840277  1
  In  In79  1  0.67006049  0.33225330  0.75892929  1
  In  In80  1  0.83888298  0.49823152  0.49437155  1
  In  In81  1  0.49407846  0.17177039  0.49939260  1
  In  In82  1  0.16913751  0.82897397  -0.00524237  1
  In  In83  1  0.32837395  0.32855904  0.74778614  1
  In  In84  1  0.66149539  0.67409739  0.76320365  1
  In  In85  1  0.49606210  0.82643296  0.49006506  1
  Cu  Cu86  1  0.16501294  0.17595035  0.25323096  1
  Cu  Cu87  1  0.83291300  0.84193341  0.75653700  1
  Cu  Cu88  1  0.83855168  0.15808802  0.24811905  1
  Cu  Cu89  1  0.34299777  -0.01343375  0.00092739  1
  Cu  Cu90  1  0.50247817  0.15393637  0.75335543  1
  Cu  Cu91  1  0.65896484  0.66061157  0.49246339  1
  Cu  Cu92  1  0.00054689  0.00060835  0.50718534  1
  Cu  Cu93  1  0.83143726  0.50303375  0.75334634  1
  Cu  Cu94  1  0.65931315  -0.00660475  0.00039212  1
  Cu  Cu95  1  0.65825330  0.33265775  0.00877041  1
  Cu  Cu96  1  0.33872772  0.34629252  0.49453068  1
  Cu  Cu97  1  0.83026678  0.17940032  0.74950358  1
  Cu  Cu98  1  0.66850486  -0.00254345  0.49538320  1
  Cu  Cu99  1  0.33396235  0.66108899  0.00695953  1
  Cu  Cu100  1  0.16394857  0.16725380  0.74161803  1
  Cu  Cu101  1  0.83250239  0.83208759  0.24711025  1
  Cu  Cu102  1  -0.00019827  0.01329457  -0.00344745  1
  Cu  Cu103  1  0.15844709  0.82995592  0.25430904  1
  Cu  Cu104  1  0.16591524  0.49866515  0.75013073  1
  Cu  Cu105  1  0.83873886  0.49730561  0.24912118  1
  Cu  Cu106  1  0.66912650  0.34254515  0.48587884  1
  Cu  Cu107  1  0.33233130  -0.00615819  0.50701053  1
  Cu  Cu108  1  0.16672358  0.50081205  0.25375365  1
  Cu  Cu109  1  0.33165579  0.33632799  0.00851880  1
  Cu  Cu110  1  0.34062801  0.66062206  0.48304482  1
  Cu  Cu111  1  0.50680195  0.82508946  0.75571896  1
  Cu  Cu112  1  0.49625892  0.50040885  0.74975090  1
  Cu  Cu113  1  0.00781239  0.66170098  0.00577089  1
  Cu  Cu114  1  0.49772327  0.17006162  0.25101635  1
  Se  Se115  1  0.08047906  0.08644830  0.05794931  1
  Se  Se116  1  0.08693870  0.08259537  0.55836800  1
  Se  Se117  1  0.08888630  0.42025774  0.05640673  1
  Se  Se118  1  0.07901194  0.41786975  0.54762459  1
  Se  Se119  1  0.08881038  0.74341832  0.06457602  1
  Se  Se120  1  0.07304187  0.74645889  0.54502457  1
  Se  Se121  1  0.41868288  0.07795453  0.05202818  1
  Se  Se122  1  0.41900630  0.07038494  0.56273613  1
  Se  Se123  1  0.41806594  0.41738966  0.06064331  1
  Se  Se124  1  0.42324341  0.42455175  0.55094444  1
  Se  Se125  1  0.41765313  0.74621071  0.05726850  1
  Se  Se126  1  0.40482006  0.74414618  0.55426305  1
  Se  Se127  1  0.73648278  0.07843603  0.06125996  1
  Se  Se128  1  0.74778968  0.08218915  0.54933184  1
  Se  Se129  1  0.74414452  0.41506969  0.05877504  1
  Se  Se130  1  0.74259301  0.41440913  0.55799878  1
  Se  Se131  1  0.77774503  0.77526058  0.06652131  1
  Se  Se132  1  0.73428956  0.74331888  0.55280031  1
  Se  Se133  1  0.25018289  0.25602367  0.06710218  1
  Se  Se134  1  0.26532069  0.25932145  0.55317128  1
  Se  Se135  1  0.25056183  0.58078345  0.06082235  1
  Se  Se136  1  0.25682866  0.58046908  0.54044368  1
  Se  Se137  1  0.25797754  0.91545195  0.06159648  1
  Se  Se138  1  0.25194120  0.91026573  0.56117152  1
  Se  Se139  1  0.57585803  0.24655748  0.05853539  1
  Se  Se140  1  0.59169287  0.26463611  0.55291745  1
  Se  Se141  1  0.59413985  0.59386511  0.05313866  1
  Se  Se142  1  0.57566707  0.57916077  0.54670709  1
  Se  Se143  1  0.58421038  0.90448872  0.05589984  1
  Se  Se144  1  0.58919626  0.91533004  0.55438869  1
  Se  Se145  1  0.92431917  0.26604583  0.05567645  1
  Se  Se146  1  0.91140398  0.24977633  0.54757794  1
  Se  Se147  1  0.92132782  0.58403597  0.06056168  1
  Se  Se148  1  0.91826151  0.59005879  0.56105143  1
  Se  Se149  1  0.92279175  0.92209982  0.04691991  1
  Se  Se150  1  0.92203960  0.92029019  0.56875398  1
  Se  Se151  1  0.10593207  0.22927998  0.44349017  1
  Se  Se152  1  0.07126401  0.26085786  0.94232354  1
  Se  Se153  1  0.07777277  0.58411457  0.45196215  1
  Se  Se154  1  0.08899614  0.58164557  0.94809593  1
  Se  Se155  1  0.08107395  0.91820656  0.45174114  1
  Se  Se156  1  0.08118320  0.93047412  0.93988194  1
  Se  Se157  1  0.41942806  0.26707974  0.43435422  1
  Se  Se158  1  0.40770130  0.24757539  0.95233811  1
  Se  Se159  1  0.42250466  0.59717979  0.41665782  1
  Se  Se160  1  0.41548019  0.57634017  0.95151770  1
  Se  Se161  1  0.40325754  0.92192678  0.43691961  1
  Se  Se162  1  0.42304526  0.90272943  0.94602199  1
  Se  Se163  1  0.74991296  0.24993835  0.44180512  1
  Se  Se164  1  0.73646915  0.25988836  0.93987669  1
  Se  Se165  1  0.74089986  0.58057945  0.43578902  1
  Se  Se166  1  0.76345558  0.57336311  0.95992930  1
  Se  Se167  1  0.73334506  0.91027275  0.43129639  1
  Se  Se168  1  0.75089647  0.91781667  0.94777868  1
  Se  Se169  1  0.25515959  0.08377267  0.45426888  1
  Se  Se170  1  0.25917534  0.06861016  0.94420864  1
  Se  Se171  1  0.24648651  0.42028098  0.44249653  1
  Se  Se172  1  0.25008429  0.41268021  0.94842599  1
  Se  Se173  1  0.25033913  0.75005599  0.44206509  1
  Se  Se174  1  0.26018605  0.73846202  0.93859297  1
  Se  Se175  1  0.58295000  0.07941806  0.44031613  1
  Se  Se176  1  0.57865029  0.07932432  0.94666952  1
  Se  Se177  1  0.58806693  0.42740674  0.43458427  1
  Se  Se178  1  0.57595532  0.41712705  0.95474659  1
  Se  Se179  1  0.57885882  0.73509645  0.43078518  1
  Se  Se180  1  0.60554931  0.71977737  0.95243957  1
  Se  Se181  1  0.91458239  0.07584345  0.45038793  1
  Se  Se182  1  0.91465881  0.08934375  0.93959903  1
  Se  Se183  1  0.92282437  0.40820707  0.43387190  1
  Se  Se184  1  0.90179517  0.42935790  0.94869538  1
  Se  Se185  1  0.91334477  0.74235576  0.44478043  1
  Se  Se186  1  0.92886377  0.75163545  0.95278305  1
  Se  Se187  1  0.25210123  0.25693622  0.30373013  1
  Se  Se188  1  0.24044818  0.24021506  0.81266327  1
  Se  Se189  1  0.24582565  0.58671657  0.30796504  1
  Se  Se190  1  0.25412663  0.57659453  0.80302286  1
  Se  Se191  1  0.23401295  0.91859640  0.31199148  1
  Se  Se192  1  0.25513280  0.90534413  0.79692098  1
  Se  Se193  1  0.58850992  0.25133009  0.29922889  1
  Se  Se194  1  0.57045541  0.24505023  0.81194903  1
  Se  Se195  1  0.59839081  0.61338079  0.28651102  1
  Se  Se196  1  0.57635917  0.57254992  0.81348278  1
  Se  Se197  1  0.59255586  0.93444393  0.29434434  1
  Se  Se198  1  0.58890159  0.90739575  0.81090884  1
  Se  Se199  1  0.91836588  0.23959677  0.30654281  1
  Se  Se200  1  0.91625352  0.26086918  0.79961106  1
  Se  Se201  1  0.92062475  0.58075124  0.30383905  1
  Se  Se202  1  0.90777346  0.58575871  0.81398196  1
  Se  Se203  1  0.91223501  0.90786030  0.31288448  1
  Se  Se204  1  0.91924762  0.91784043  0.81442879  1
  Se  Se205  1  0.08618692  0.09055079  0.31019649  1
  Se  Se206  1  0.09077866  0.08764800  0.80863008  1
  Se  Se207  1  0.08297556  0.41493212  0.30456209  1
  Se  Se208  1  0.07802413  0.42331240  0.80523802  1
  Se  Se209  1  0.07941162  0.74540690  0.30902731  1
  Se  Se210  1  0.09724266  0.75570110  0.80404303  1
  Se  Se211  1  0.41732049  0.09588483  0.31573127  1
  Se  Se212  1  0.41626439  0.07389052  0.80592177  1
  Se  Se213  1  0.42247580  0.43032401  0.29659117  1
  Se  Se214  1  0.42033731  0.41516505  0.80889466  1
  Se  Se215  1  0.44597604  0.78352100  0.30569432  1
  Se  Se216  1  0.42503097  0.73849908  0.80687435  1
  Se  Se217  1  0.75152519  0.08056345  0.30219002  1
  Se  Se218  1  0.74989546  0.09118244  0.80060195  1
  Se  Se219  1  0.75009069  0.41721111  0.30004101  1
  Se  Se220  1  0.74716407  0.43360104  0.81695679  1
  Se  Se221  1  0.75175632  0.74719327  0.30069645  1
  Se  Se222  1  0.76184736  0.75671134  0.81779239  1
  Se  Se223  1  0.24050707  0.09282277  0.19232722  1
  Se  Se224  1  0.25289596  0.08243865  0.69731275  1
  Se  Se225  1  0.25399653  0.41964234  0.20149604  1
  Se  Se226  1  0.24441636  0.42052005  0.68664376  1
  Se  Se227  1  0.25234000  0.75133937  0.20783910  1
  Se  Se228  1  0.25110770  0.72750472  0.68744363  1
  Se  Se229  1  0.57965468  0.08774758  0.19582157  1
  Se  Se230  1  0.58939405  0.08019498  0.69627998  1
  Se  Se231  1  0.58537701  0.41743467  0.19822499  1
  Se  Se232  1  0.58066837  0.42056686  0.69342397  1
  Se  Se233  1  0.59291365  0.73350460  0.19822006  1
  Se  Se234  1  0.57697751  0.74895362  0.68585700  1
  Se  Se235  1  0.90902595  0.07830238  0.18216424  1
  Se  Se236  1  0.90723824  0.10002329  0.68481020  1
  Se  Se237  1  0.92500734  0.41413687  0.19843337  1
  Se  Se238  1  0.91168662  0.42302369  0.69725496  1
  Se  Se239  1  0.92172801  0.74906108  0.20052593  1
  Se  Se240  1  0.90745049  0.75979410  0.69564636  1
  Se  Se241  1  0.07718100  0.25435167  0.20124299  1
  Se  Se242  1  0.08581675  0.25637543  0.69145406  1
  Se  Se243  1  0.08212116  0.58496061  0.20043024  1
  Se  Se244  1  0.09133969  0.57887323  0.68517022  1
  Se  Se245  1  0.08574044  0.90698237  0.18871708  1
  Se  Se246  1  0.09204373  0.90892945  0.69753232  1
  Se  Se247  1  0.41337370  0.25011415  0.19692082  1
  Se  Se248  1  0.42656418  0.23737082  0.69209374  1
  Se  Se249  1  0.41027126  0.59620127  0.19828369  1
  Se  Se250  1  0.41323604  0.58014735  0.69528387  1
  Se  Se251  1  0.42143412  0.92085355  0.18736724  1
  Se  Se252  1  0.42216535  0.90988543  0.70309520  1
  Se  Se253  1  0.75959389  0.24981240  0.19794626  1
  Se  Se254  1  0.74893856  0.25154706  0.68519703  1
  Se  Se255  1  0.75563941  0.57746148  0.19350187  1
  Se  Se256  1  0.75002452  0.58266153  0.69652741  1
  Se  Se257  1  0.74562793  0.91667612  0.20038381  1
  Se  Se258  1  0.74717924  0.92184211  0.70408038  1
