# generated using pymatgen
data_In86Cu29Se144
_symmetry_space_group_name_H-M   'P 1'
_cell_length_a   17.57654452
_cell_length_b   17.57555437
_cell_length_c   23.43763041
_cell_angle_alpha   89.98628531
_cell_angle_beta   89.98377834
_cell_angle_gamma   89.99482087
_symmetry_Int_Tables_number   1
_chemical_formula_structural   In86Cu29Se144
_chemical_formula_sum   'In86 Cu29 Se144'
_cell_volume   7240.29399027
_cell_formula_units_Z   1
loop_
 _symmetry_equiv_pos_site_id
 _symmetry_equiv_pos_as_xyz
  1  'x, y, z'
loop_
 _atom_site_type_symbol
 _atom_site_label
 _atom_site_symmetry_multiplicity
 _atom_site_fract_x
 _atom_site_fract_y
 _atom_site_fract_z
 _atom_site_occupancy
  In  In0  1  -0.01118313  0.16409528  0.12684265  1
  In  In1  1  0.00474242  0.16197141  0.61859756  1
  In  In2  1  -0.00249590  0.50613990  0.12381792  1
  In  In3  1  0.01538428  0.50001030  0.62523034  1
  In  In4  1  0.01154071  0.83653461  0.12657495  1
  In  In5  1  0.00554844  0.82862074  0.62996660  1
  In  In6  1  0.33891987  0.15882478  0.13157159  1
  In  In7  1  0.33661480  0.17256534  0.62274694  1
  In  In8  1  0.34035257  0.47815926  0.12995125  1
  In  In9  1  0.33309057  0.49662046  0.62132474  1
  In  In10  1  0.34527315  0.83470439  0.12517028  1
  In  In11  1  0.33148912  0.84710455  0.62325184  1
  In  In12  1  0.66274138  0.16765188  0.12484316  1
  In  In13  1  0.65586889  0.18163134  0.63303796  1
  In  In14  1  0.66373576  0.49739678  0.12399341  1
  In  In15  1  0.65429370  0.50382486  0.63493425  1
  In  In16  1  0.65786221  0.84536775  0.13056433  1
  In  In17  1  0.65719606  0.83002517  0.62983762  1
  In  In18  1  0.17030444  -0.00116638  0.37853420  1
  In  In19  1  0.16826153  0.00210515  0.86554950  1
  In  In20  1  0.17419309  0.32148242  0.38563226  1
  In  In21  1  0.17478807  0.32179359  0.86984969  1
  In  In22  1  0.18711870  0.65824474  0.40056921  1
  In  In23  1  0.16301917  0.67876569  0.86839497  1
  In  In24  1  0.50778723  0.01357883  0.36973237  1
  In  In25  1  0.49207998  0.00795509  0.88273622  1
  In  In26  1  0.49691167  0.33422081  0.37282576  1
  In  In27  1  0.50822122  0.33526790  0.87111396  1
  In  In28  1  0.49846648  0.65287803  0.37458151  1
  In  In29  1  0.51557856  0.64966130  0.88499613  1
  In  In30  1  0.83147984  0.00016021  0.36695156  1
  In  In31  1  0.84389983  -0.00226692  0.87545984  1
  In  In32  1  0.82479108  0.33718215  0.36927151  1
  In  In33  1  0.81906574  0.34483786  0.88662811  1
  In  In34  1  0.83048833  0.67430088  0.37101333  1
  In  In35  1  0.81739405  0.65513141  0.85982830  1
  In  In36  1  0.01807906  0.15690350  0.38864642  1
  In  In37  1  -0.00196669  0.15371018  0.87383321  1
  In  In38  1  0.00667581  0.50121749  0.38111875  1
  In  In39  1  -0.01513906  0.49421557  0.87254407  1
  In  In40  1  0.00984108  0.84464168  0.37461348  1
  In  In41  1  -0.01604832  0.83331411  0.85394491  1
  In  In42  1  0.33783495  0.16956047  0.37391751  1
  In  In43  1  0.37165861  0.19373431  0.84127153  1
  In  In44  1  0.34492618  0.49765453  0.38139722  1
  In  In45  1  0.35653449  0.49513265  0.86953849  1
  In  In46  1  0.31792314  0.83259671  0.38029399  1
  In  In47  1  0.33659022  0.84564045  0.87229647  1
  In  In48  1  0.65701411  0.16338687  0.36757612  1
  In  In49  1  0.65408655  0.17942511  0.88511740  1
  In  In50  1  0.65516089  0.48529861  0.36257682  1
  In  In51  1  0.66393789  0.49948785  0.87340294  1
  In  In52  1  0.66554138  0.83437747  0.36441673  1
  In  In53  1  0.66720927  0.81460351  0.87498154  1
  In  In54  1  0.16679536  -0.00312449  0.13978969  1
  In  In55  1  0.16546000  0.01001913  0.61416286  1
  In  In56  1  0.18835370  0.33350494  0.13529409  1
  In  In57  1  0.18020820  0.35214952  0.60747128  1
  In  In58  1  0.15672586  0.66407426  0.12891805  1
  In  In59  1  0.16307203  0.65342638  0.61590518  1
  In  In60  1  0.49746619  0.00531818  0.12438779  1
  In  In61  1  0.48580744  0.00246067  0.62937919  1
  In  In62  1  0.50020672  0.33223952  0.12277144  1
  In  In63  1  0.49718529  0.33349893  0.62613873  1
  In  In64  1  0.51100341  0.67444513  0.11921277  1
  In  In65  1  0.50966501  0.65989106  0.63070288  1
  In  In66  1  0.82607703  0.01088624  0.13134028  1
  In  In67  1  0.84549532  0.00672959  0.63153046  1
  In  In68  1  0.82087711  0.32343378  0.11813415  1
  In  In69  1  0.81765009  0.32632671  0.62941199  1
  In  In70  1  0.82846791  0.64868160  0.11858851  1
  In  In71  1  0.83138401  0.67387987  0.63923762  1
  In  In72  1  0.83403204  0.16730085  0.50253952  1
  In  In73  1  0.83606294  0.83404924  0.50937176  1
  In  In74  1  0.17000557  0.49757275  0.00747290  1
  In  In75  1  0.83156376  0.83299396  -0.00598956  1
  In  In76  1  0.17045656  0.84042889  -0.00866494  1
  In  In77  1  0.16923676  0.16145451  -0.00622302  1
  In  In78  1  0.33574356  0.66941516  0.25911735  1
  In  In79  1  0.49302815  0.83137981  0.50417546  1
  In  In80  1  0.83493484  0.50047625  0.49655486  1
  In  In81  1  0.33576551  0.66336285  0.74546540  1
  In  In82  1  0.66482875  0.00319512  0.75114223  1
  In  In83  1  -0.00156212  0.66899124  0.25168848  1
  In  In84  1  -0.00141087  0.32522282  0.25871053  1
  In  In85  1  0.00069770  0.33050468  0.74449436  1
  Cu  Cu86  1  0.65367888  0.33551379  0.49970867  1
  Cu  Cu87  1  0.16988801  0.16166378  0.74017195  1
  Cu  Cu88  1  -0.00179684  0.00085889  -0.00174067  1
  Cu  Cu89  1  0.16440885  0.83379514  0.25792867  1
  Cu  Cu90  1  0.49896118  0.84551420  0.24699858  1
  Cu  Cu91  1  0.50033914  0.50038587  0.24814514  1
  Cu  Cu92  1  0.16843362  0.16498252  0.26024975  1
  Cu  Cu93  1  0.34345971  0.66180146  0.00302693  1
  Cu  Cu94  1  0.83384070  0.16944421  0.75456745  1
  Cu  Cu95  1  -0.00645157  0.33366828  0.00368908  1
  Cu  Cu96  1  0.50211499  0.82626790  0.75293585  1
  Cu  Cu97  1  0.33412209  0.00907259  0.49916165  1
  Cu  Cu98  1  0.66653066  0.66141319  -0.00151707  1
  Cu  Cu99  1  0.16065453  0.83711419  0.74319615  1
  Cu  Cu100  1  0.82660356  0.49436471  0.24403488  1
  Cu  Cu101  1  0.66394943  0.33520104  0.00143430  1
  Cu  Cu102  1  -0.00453983  0.66103215  -0.00727807  1
  Cu  Cu103  1  0.66183092  0.00261025  0.00712353  1
  Cu  Cu104  1  0.66924959  0.00686995  0.49744975  1
  Cu  Cu105  1  0.49786689  0.17331847  0.24715529  1
  Cu  Cu106  1  0.34349617  0.33045666  -0.00538834  1
  Cu  Cu107  1  0.16849690  0.50235028  0.74276495  1
  Cu  Cu108  1  0.00258638  0.66773569  0.50571931  1
  Cu  Cu109  1  0.82930210  0.83127318  0.24743804  1
  Cu  Cu110  1  0.65940126  0.65565008  0.49981546  1
  Cu  Cu111  1  0.34165870  0.33036491  0.49870282  1
  Cu  Cu112  1  0.83183128  0.16125807  0.24719672  1
  Cu  Cu113  1  0.33820319  0.00739099  -0.00225594  1
  Cu  Cu114  1  0.82953768  0.50258056  0.75276755  1
  Se  Se115  1  0.08226566  0.07396340  0.06053949  1
  Se  Se116  1  0.08405073  0.09152515  0.54376010  1
  Se  Se117  1  0.08119774  0.40158101  0.06628332  1
  Se  Se118  1  0.07459377  0.41721491  0.54790841  1
  Se  Se119  1  0.07794510  0.74299059  0.04982858  1
  Se  Se120  1  0.08587358  0.75310163  0.55608742  1
  Se  Se121  1  0.41809947  0.09097984  0.05339891  1
  Se  Se122  1  0.42084619  0.08679113  0.55344884  1
  Se  Se123  1  0.42054340  0.41700395  0.05027743  1
  Se  Se124  1  0.42050021  0.41684879  0.55344733  1
  Se  Se125  1  0.41999861  0.75360124  0.05312793  1
  Se  Se126  1  0.41110115  0.74028315  0.56736416  1
  Se  Se127  1  0.74971742  0.08539971  0.05559719  1
  Se  Se128  1  0.74243846  0.08092534  0.56664008  1
  Se  Se129  1  0.74971286  0.41928606  0.05312311  1
  Se  Se130  1  0.74085387  0.41394758  0.55611035  1
  Se  Se131  1  0.74337031  0.74730064  0.05916720  1
  Se  Se132  1  0.73805658  0.73878996  0.55863989  1
  Se  Se133  1  0.25808665  0.25379627  0.05458835  1
  Se  Se134  1  0.25303813  0.24936295  0.54955130  1
  Se  Se135  1  0.25997453  0.59050739  0.06677868  1
  Se  Se136  1  0.25136014  0.57663521  0.55115693  1
  Se  Se137  1  0.25365254  0.92875471  0.05787479  1
  Se  Se138  1  0.25203209  0.92178555  0.54951837  1
  Se  Se139  1  0.58153022  0.24879392  0.05350036  1
  Se  Se140  1  0.57762884  0.24683243  0.55379047  1
  Se  Se141  1  0.58211675  0.57974416  0.05290095  1
  Se  Se142  1  0.57831661  0.57496893  0.55507448  1
  Se  Se143  1  0.57718044  0.91668772  0.05526605  1
  Se  Se144  1  0.58861673  0.92634506  0.55890496  1
  Se  Se145  1  0.91408264  0.24434885  0.05402855  1
  Se  Se146  1  0.91817445  0.26384313  0.56087031  1
  Se  Se147  1  0.91653695  0.57693894  0.04791461  1
  Se  Se148  1  0.91523886  0.59208030  0.56353270  1
  Se  Se149  1  0.92077760  0.91910162  0.06008447  1
  Se  Se150  1  0.92895465  0.92782387  0.55919068  1
  Se  Se151  1  0.07865514  0.25533947  0.45404738  1
  Se  Se152  1  0.07384499  0.25776940  0.94099279  1
  Se  Se153  1  0.08330447  0.57969653  0.45449946  1
  Se  Se154  1  0.08443900  0.58350124  0.93782663  1
  Se  Se155  1  0.09077610  0.91357561  0.44792555  1
  Se  Se156  1  0.07047838  0.92026933  0.93346339  1
  Se  Se157  1  0.42418136  0.24657019  0.44460075  1
  Se  Se158  1  0.42122967  0.24654330  0.93746393  1
  Se  Se159  1  0.40613927  0.59926688  0.44762381  1
  Se  Se160  1  0.42032629  0.57423829  0.94955627  1
  Se  Se161  1  0.41548182  0.92672276  0.43891292  1
  Se  Se162  1  0.41678987  0.91342092  0.94979034  1
  Se  Se163  1  0.73995384  0.25613250  0.44238521  1
  Se  Se164  1  0.75036643  0.24826714  0.95258304  1
  Se  Se165  1  0.74133073  0.58516237  0.43486470  1
  Se  Se166  1  0.75102815  0.58301407  0.94197665  1
  Se  Se167  1  0.74483108  0.91870796  0.44256267  1
  Se  Se168  1  0.73773830  0.92583845  0.93959650  1
  Se  Se169  1  0.25135452  0.08980646  0.44287444  1
  Se  Se170  1  0.26127774  0.08131974  0.93183286  1
  Se  Se171  1  0.25677448  0.41459149  0.44654852  1
  Se  Se172  1  0.25531376  0.41063595  0.94030230  1
  Se  Se173  1  0.25269474  0.76012687  0.46113997  1
  Se  Se174  1  0.26217284  0.73938990  0.94176328  1
  Se  Se175  1  0.58388310  0.08902416  0.44681987  1
  Se  Se176  1  0.57977706  0.08517079  0.95059376  1
  Se  Se177  1  0.57726744  0.42195656  0.44307556  1
  Se  Se178  1  0.58296371  0.41781649  0.94489401  1
  Se  Se179  1  0.58947286  0.74819872  0.44141512  1
  Se  Se180  1  0.58186008  0.74975538  0.95099069  1
  Se  Se181  1  0.91710389  0.06945497  0.44456876  1
  Se  Se182  1  0.91301739  0.08582682  0.94929450  1
  Se  Se183  1  0.92098231  0.40332212  0.44029834  1
  Se  Se184  1  0.91410831  0.42084725  0.95155843  1
  Se  Se185  1  0.92232413  0.74428818  0.44328928  1
  Se  Se186  1  0.91939246  0.74308758  0.93264891  1
  Se  Se187  1  0.25197210  0.25389491  0.30601284  1
  Se  Se188  1  0.24897903  0.24857790  0.79370571  1
  Se  Se189  1  0.24366593  0.57937947  0.31472301  1
  Se  Se190  1  0.24612959  0.57544473  0.81180169  1
  Se  Se191  1  0.25259957  0.91830691  0.30500472  1
  Se  Se192  1  0.24714162  0.91195977  0.80016935  1
  Se  Se193  1  0.58216959  0.25543574  0.30151381  1
  Se  Se194  1  0.58546851  0.24557326  0.80323592  1
  Se  Se195  1  0.58382770  0.58579345  0.29960438  1
  Se  Se196  1  0.58454779  0.58373986  0.80348509  1
  Se  Se197  1  0.58578743  0.92485671  0.30140786  1
  Se  Se198  1  0.57904154  0.91032658  0.81379737  1
  Se  Se199  1  0.90968133  0.23176408  0.31680436  1
  Se  Se200  1  0.91195958  0.25349035  0.81498234  1
  Se  Se201  1  0.90742494  0.57032411  0.30766950  1
  Se  Se202  1  0.92129614  0.58392314  0.79977627  1
  Se  Se203  1  0.91343823  0.90776386  0.30518247  1
  Se  Se204  1  0.92195609  0.93858910  0.79465364  1
  Se  Se205  1  0.08279517  0.07978002  0.30828867  1
  Se  Se206  1  0.08483832  0.08780477  0.79957674  1
  Se  Se207  1  0.09008074  0.41662686  0.31349034  1
  Se  Se208  1  0.09078918  0.42184520  0.80764954  1
  Se  Se209  1  0.09488899  0.74264848  0.31716364  1
  Se  Se210  1  0.08008630  0.75073399  0.79602773  1
  Se  Se211  1  0.41701426  0.08692170  0.30129807  1
  Se  Se212  1  0.40535840  0.06091530  0.80343891  1
  Se  Se213  1  0.41570265  0.42014616  0.30325703  1
  Se  Se214  1  0.40620826  0.39484247  0.80107343  1
  Se  Se215  1  0.42664068  0.76504176  0.31425900  1
  Se  Se216  1  0.42178470  0.74654561  0.81428972  1
  Se  Se217  1  0.74467129  0.08111375  0.30180969  1
  Se  Se218  1  0.75203674  0.09112723  0.81534624  1
  Se  Se219  1  0.74372703  0.40788594  0.29447509  1
  Se  Se220  1  0.75003270  0.41543390  0.80534960  1
  Se  Se221  1  0.74643526  0.74558086  0.29843297  1
  Se  Se222  1  0.76701059  0.77001475  0.80302635  1
  Se  Se223  1  0.25070634  0.08429592  0.20155224  1
  Se  Se224  1  0.25458443  0.08025923  0.68709330  1
  Se  Se225  1  0.24606885  0.42918247  0.20451264  1
  Se  Se226  1  0.24977877  0.41645550  0.69233907  1
  Se  Se227  1  0.24241402  0.75676960  0.19236979  1
  Se  Se228  1  0.24381176  0.75307129  0.68702796  1
  Se  Se229  1  0.58041491  0.08595868  0.19494141  1
  Se  Se230  1  0.56821277  0.09200317  0.69791255  1
  Se  Se231  1  0.58157197  0.41521631  0.19349847  1
  Se  Se232  1  0.60275115  0.39143453  0.69219620  1
  Se  Se233  1  0.57921573  0.75506168  0.19702372  1
  Se  Se234  1  0.58733697  0.74361888  0.70223524  1
  Se  Se235  1  0.92226448  0.07753596  0.20092024  1
  Se  Se236  1  0.92177141  0.09668551  0.69794989  1
  Se  Se237  1  0.91396744  0.41414429  0.18966056  1
  Se  Se238  1  0.90784911  0.42509661  0.68771802  1
  Se  Se239  1  0.90829718  0.75253206  0.18427207  1
  Se  Se240  1  0.91291720  0.76241058  0.69995178  1
  Se  Se241  1  0.09145417  0.24064227  0.19204541  1
  Se  Se242  1  0.09549318  0.25166403  0.68212629  1
  Se  Se243  1  0.09029104  0.56890915  0.19996168  1
  Se  Se244  1  0.08302843  0.58929967  0.69728296  1
  Se  Se245  1  0.07801540  0.91525725  0.20503397  1
  Se  Se246  1  0.08660714  0.92628078  0.68793228  1
  Se  Se247  1  0.41268374  0.25625440  0.19416803  1
  Se  Se248  1  0.40935164  0.25680710  0.69581191  1
  Se  Se249  1  0.42079996  0.58515143  0.18932331  1
  Se  Se250  1  0.42747328  0.56613682  0.69639243  1
  Se  Se251  1  0.41120580  0.92527185  0.19587998  1
  Se  Se252  1  0.41897162  0.90901715  0.69961080  1
  Se  Se253  1  0.74969476  0.24694698  0.19569206  1
  Se  Se254  1  0.74479010  0.25031112  0.70602325  1
  Se  Se255  1  0.74536511  0.58320725  0.19469126  1
  Se  Se256  1  0.74480194  0.58521624  0.69940749  1
  Se  Se257  1  0.74881496  0.92021679  0.19709132  1
  Se  Se258  1  0.75464345  0.91389247  0.68986194  1
