# generated using pymatgen
data_In86Cu29Se144
_symmetry_space_group_name_H-M   'P 1'
_cell_length_a   17.58356373
_cell_length_b   17.58238051
_cell_length_c   23.44279893
_cell_angle_alpha   89.99060666
_cell_angle_beta   89.99158534
_cell_angle_gamma   90.00214456
_symmetry_Int_Tables_number   1
_chemical_formula_structural   In86Cu29Se144
_chemical_formula_sum   'In86 Cu29 Se144'
_cell_volume   7247.59682830
_cell_formula_units_Z   1
loop_
 _symmetry_equiv_pos_site_id
 _symmetry_equiv_pos_as_xyz
  1  'x, y, z'
loop_
 _atom_site_type_symbol
 _atom_site_label
 _atom_site_symmetry_multiplicity
 _atom_site_fract_x
 _atom_site_fract_y
 _atom_site_fract_z
 _atom_site_occupancy
  In  In0  1  0.00665063  0.16094865  0.12704275  1
  In  In1  1  0.00518930  0.16630773  0.62269337  1
  In  In2  1  -0.00271076  0.50159811  0.12776230  1
  In  In3  1  -0.00831888  0.50610552  0.63005252  1
  In  In4  1  -0.01116233  0.83807067  0.12743920  1
  In  In5  1  -0.01492781  0.83816635  0.64624764  1
  In  In6  1  0.34047352  0.16978543  0.11648032  1
  In  In7  1  0.33024245  0.18194846  0.62808477  1
  In  In8  1  0.31458440  0.50029428  0.12074612  1
  In  In9  1  0.32380759  0.50459670  0.63133009  1
  In  In10  1  0.34641772  0.83542036  0.11534049  1
  In  In11  1  0.34118651  0.81935752  0.62854539  1
  In  In12  1  0.65659220  0.16345696  0.12271882  1
  In  In13  1  0.66934812  0.15048746  0.62898553  1
  In  In14  1  0.68924815  0.50252161  0.12067774  1
  In  In15  1  0.67447405  0.49540444  0.62153499  1
  In  In16  1  0.66516782  0.83482158  0.12694634  1
  In  In17  1  0.67037097  0.84873644  0.62991249  1
  In  In18  1  0.16353164  0.01137086  0.37830819  1
  In  In19  1  0.16521037  0.01634990  0.87902738  1
  In  In20  1  0.15437983  0.32623505  0.36649363  1
  In  In21  1  0.16658976  0.33119138  0.87733430  1
  In  In22  1  0.16046640  0.67980368  0.37328477  1
  In  In23  1  0.15294026  0.65233663  0.87111165  1
  In  In24  1  0.50057151  -0.01363849  0.37544186  1
  In  In25  1  0.51590137  -0.02164352  0.90013560  1
  In  In26  1  0.49869171  0.34299801  0.36696111  1
  In  In27  1  0.48126166  0.33131804  0.87346741  1
  In  In28  1  0.51034985  0.66660934  0.37350944  1
  In  In29  1  0.50278153  0.69641976  0.87094794  1
  In  In30  1  0.84232604  0.01397418  0.36396559  1
  In  In31  1  0.82137038  -0.01808216  0.85335920  1
  In  In32  1  0.84716660  0.32011563  0.38120605  1
  In  In33  1  0.85235469  0.32932417  0.87662936  1
  In  In34  1  0.83174349  0.66588307  0.37235851  1
  In  In35  1  0.85189452  0.66159450  0.89043299  1
  In  In36  1  -0.00247712  0.16254444  0.37350740  1
  In  In37  1  0.00601793  0.17221536  0.86983623  1
  In  In38  1  -0.00480957  0.49469597  0.37137216  1
  In  In39  1  0.00963855  0.49951632  0.88123053  1
  In  In40  1  0.00029019  0.83545492  0.36509085  1
  In  In41  1  -0.01573133  0.81927588  0.86047873  1
  In  In42  1  0.31608841  0.16825451  0.37799356  1
  In  In43  1  0.32378173  0.16646518  0.88706836  1
  In  In44  1  0.34506331  0.49533323  0.36998495  1
  In  In45  1  0.31901037  0.48952874  0.86923323  1
  In  In46  1  0.33658071  0.84245343  0.38169929  1
  In  In47  1  0.35560222  0.83199342  0.87318434  1
  In  In48  1  0.68374090  0.16971199  0.37153698  1
  In  In49  1  0.66867713  0.13440976  0.87935388  1
  In  In50  1  0.66994978  0.51431205  0.37027415  1
  In  In51  1  0.67606393  0.51276906  0.87924825  1
  In  In52  1  0.66541923  0.83140778  0.36957627  1
  In  In53  1  0.66825247  0.84418991  0.88461430  1
  In  In54  1  0.14810003  0.00038270  0.12094041  1
  In  In55  1  0.15232382  0.00233211  0.62503234  1
  In  In56  1  0.16339136  0.33301305  0.12775283  1
  In  In57  1  0.17126912  0.32491613  0.62683941  1
  In  In58  1  0.16068094  0.65268018  0.11679883  1
  In  In59  1  0.16572081  0.66482858  0.63190428  1
  In  In60  1  0.51214851  0.01097255  0.10853478  1
  In  In61  1  0.51382240  -0.00308782  0.62928735  1
  In  In62  1  0.49769111  0.31722017  0.12474763  1
  In  In63  1  0.49099065  0.32430627  0.63159136  1
  In  In64  1  0.50475017  0.68475934  0.11944360  1
  In  In65  1  0.48635848  0.67652215  0.62880292  1
  In  In66  1  0.83558934  -0.00654088  0.12716318  1
  In  In67  1  0.83046240  0.00212013  0.63070406  1
  In  In68  1  0.83935163  0.35256402  0.12143972  1
  In  In69  1  0.84910790  0.34360474  0.61837489  1
  In  In70  1  0.83483922  0.66520386  0.12786794  1
  In  In71  1  0.84747089  0.67199034  0.62843092  1
  In  In72  1  0.66404945  0.32794973  0.74951520  1
  In  In73  1  0.16701748  0.49970727  0.50637735  1
  In  In74  1  0.49860231  0.50118001  -0.00802669  1
  In  In75  1  0.50551299  0.16625688  0.50513996  1
  In  In76  1  0.32968365  0.66496036  0.24358821  1
  In  In77  1  0.33560340  0.00144241  0.75904004  1
  In  In78  1  0.16326641  0.83779078  0.50119377  1
  In  In79  1  0.32632526  0.00187496  0.25266370  1
  In  In80  1  0.16181829  0.83160730  -0.00457017  1
  In  In81  1  0.67138741  0.67269979  0.75444424  1
  In  In82  1  0.83409414  0.16001667  -0.00110267  1
  In  In83  1  0.83372712  0.83886290  0.50777802  1
  In  In84  1  0.50425058  0.50343874  0.49379439  1
  In  In85  1  0.66973504  0.33310869  0.24518317  1
  Cu  Cu86  1  0.83700845  0.16454289  0.24711740  1
  Cu  Cu87  1  0.49501073  0.16235904  0.75692105  1
  Cu  Cu88  1  0.67307840  -0.00036411  0.50182122  1
  Cu  Cu89  1  0.83956353  0.16733908  0.74958805  1
  Cu  Cu90  1  0.33553627  -0.00122285  0.50152580  1
  Cu  Cu91  1  0.68058048  0.33290090  0.50083775  1
  Cu  Cu92  1  0.67601091  0.67123096  0.00155393  1
  Cu  Cu93  1  0.32578095  0.33474434  -0.00011720  1
  Cu  Cu94  1  0.16301392  0.16931674  0.25049558  1
  Cu  Cu95  1  0.00765282  0.33778006  0.00044502  1
  Cu  Cu96  1  0.33122148  0.66380444  -0.00784217  1
  Cu  Cu97  1  0.84300988  0.49894513  0.75607659  1
  Cu  Cu98  1  0.66636416  0.66928860  0.49369084  1
  Cu  Cu99  1  0.16792288  0.17354851  0.75306811  1
  Cu  Cu100  1  0.00002958  0.66960165  0.50625463  1
  Cu  Cu101  1  0.66644446  0.32618888  -0.00078740  1
  Cu  Cu102  1  0.16930132  0.83242619  0.75199450  1
  Cu  Cu103  1  0.33223618  0.33625153  0.49949015  1
  Cu  Cu104  1  0.49720407  0.49801377  0.24406574  1
  Cu  Cu105  1  0.16038878  0.82877787  0.24245297  1
  Cu  Cu106  1  0.82790177  0.83000376  0.24818158  1
  Cu  Cu107  1  0.49171398  0.50379705  0.75306766  1
  Cu  Cu108  1  0.00064099  0.32591928  0.49454524  1
  Cu  Cu109  1  0.16236899  0.49775301  0.24598497  1
  Cu  Cu110  1  0.16071799  0.49289910  0.75066927  1
  Cu  Cu111  1  0.50395591  0.83486631  0.24744985  1
  Cu  Cu112  1  0.83709947  0.50265054  0.25024906  1
  Cu  Cu113  1  -0.00481739  0.00333592  -0.00319600  1
  Cu  Cu114  1  0.49477805  0.15949187  0.24238780  1
  Se  Se115  1  0.07947572  0.08749081  0.04720370  1
  Se  Se116  1  0.09170234  0.09059458  0.55177066  1
  Se  Se117  1  0.08496488  0.42055169  0.05924889  1
  Se  Se118  1  0.07357416  0.40823037  0.56048643  1
  Se  Se119  1  0.07231723  0.74624311  0.05856767  1
  Se  Se120  1  0.07426720  0.75255838  0.56684001  1
  Se  Se121  1  0.40674333  0.07466735  0.05019581  1
  Se  Se122  1  0.41211539  0.07921298  0.56567346  1
  Se  Se123  1  0.41281559  0.41352247  0.05841912  1
  Se  Se124  1  0.41388500  0.41469989  0.55874196  1
  Se  Se125  1  0.41588958  0.74642106  0.04386797  1
  Se  Se126  1  0.42360412  0.75615162  0.55047069  1
  Se  Se127  1  0.74149356  0.07325288  0.05774734  1
  Se  Se128  1  0.75482046  0.08290746  0.55497638  1
  Se  Se129  1  0.75106580  0.41376342  0.04526587  1
  Se  Se130  1  0.75937087  0.42235413  0.55099463  1
  Se  Se131  1  0.75392185  0.75343034  0.06021160  1
  Se  Se132  1  0.74252255  0.74280347  0.56260965  1
  Se  Se133  1  0.24585295  0.25175166  0.05675117  1
  Se  Se134  1  0.25008555  0.25006363  0.55033769  1
  Se  Se135  1  0.24718824  0.58176921  0.04409668  1
  Se  Se136  1  0.25913451  0.59713183  0.55570793  1
  Se  Se137  1  0.24843364  0.92111961  0.05940480  1
  Se  Se138  1  0.25715813  0.92054574  0.56519017  1
  Se  Se139  1  0.58024341  0.24660010  0.05028110  1
  Se  Se140  1  0.59566345  0.26075072  0.56341831  1
  Se  Se141  1  0.58966981  0.58670567  0.05656350  1
  Se  Se142  1  0.58888690  0.59115601  0.56036262  1
  Se  Se143  1  0.56606437  0.89406474  0.05736256  1
  Se  Se144  1  0.58743988  0.91768954  0.55334883  1
  Se  Se145  1  0.92214949  0.25579880  0.05760142  1
  Se  Se146  1  0.91781720  0.24678291  0.55296387  1
  Se  Se147  1  0.89878407  0.56604462  0.06134097  1
  Se  Se148  1  0.91429094  0.58399068  0.55460223  1
  Se  Se149  1  0.91594531  0.91929395  0.05188286  1
  Se  Se150  1  0.93010545  0.92457791  0.56288119  1
  Se  Se151  1  0.08551773  0.24477249  0.44222803  1
  Se  Se152  1  0.08288829  0.24781552  0.94652466  1
  Se  Se153  1  0.07887239  0.59105430  0.44360575  1
  Se  Se154  1  0.08247400  0.58638394  0.95288100  1
  Se  Se155  1  0.07117548  0.92392395  0.44158509  1
  Se  Se156  1  0.07306207  0.92125947  0.93517697  1
  Se  Se157  1  0.41783007  0.25724832  0.44112855  1
  Se  Se158  1  0.41393497  0.25228939  0.95096016  1
  Se  Se159  1  0.40813717  0.59383438  0.43996529  1
  Se  Se160  1  0.41375897  0.58951716  0.92844435  1
  Se  Se161  1  0.42210601  0.91596057  0.45302596  1
  Se  Se162  1  0.39763433  0.92431081  0.95124201  1
  Se  Se163  1  0.75714882  0.24322837  0.44909308  1
  Se  Se164  1  0.74514248  0.24981135  0.93442499  1
  Se  Se165  1  0.75206760  0.58462461  0.44556721  1
  Se  Se166  1  0.75748776  0.58159869  0.95382312  1
  Se  Se167  1  0.75076371  0.92179062  0.43781672  1
  Se  Se168  1  0.75746305  0.93107554  0.94384090  1
  Se  Se169  1  0.24967006  0.08174536  0.45187086  1
  Se  Se170  1  0.24202366  0.08539357  0.95624489  1
  Se  Se171  1  0.25256282  0.41383815  0.43754685  1
  Se  Se172  1  0.24351671  0.41971879  0.94823263  1
  Se  Se173  1  0.25625473  0.74459440  0.44445139  1
  Se  Se174  1  0.25214525  0.74543304  0.93202007  1
  Se  Se175  1  0.59211365  0.07980964  0.43950975  1
  Se  Se176  1  0.57559921  0.09033114  0.95589752  1
  Se  Se177  1  0.59756029  0.40761410  0.43863450  1
  Se  Se178  1  0.59053429  0.40790450  0.93470075  1
  Se  Se179  1  0.58334711  0.75428430  0.44358429  1
  Se  Se180  1  0.58829119  0.75198356  0.95018507  1
  Se  Se181  1  0.91044114  0.08608633  0.44308142  1
  Se  Se182  1  0.91710935  0.07759678  0.93032918  1
  Se  Se183  1  0.91874794  0.41724980  0.44651659  1
  Se  Se184  1  0.91948392  0.41703138  0.94845234  1
  Se  Se185  1  0.92289916  0.75038195  0.44323489  1
  Se  Se186  1  0.91838780  0.76627782  0.94963819  1
  Se  Se187  1  0.25065993  0.25118374  0.30169833  1
  Se  Se188  1  0.25419229  0.24881463  0.80991757  1
  Se  Se189  1  0.24167130  0.57720917  0.30941199  1
  Se  Se190  1  0.24434672  0.57980286  0.80143002  1
  Se  Se191  1  0.23681645  0.90509042  0.30954926  1
  Se  Se192  1  0.24312987  0.91073012  0.81655002  1
  Se  Se193  1  0.57672913  0.24081713  0.30474173  1
  Se  Se194  1  0.58053886  0.24149882  0.81617059  1
  Se  Se195  1  0.57837257  0.58103899  0.29885928  1
  Se  Se196  1  0.57537261  0.57985614  0.81147915  1
  Se  Se197  1  0.58550873  0.91962818  0.30119215  1
  Se  Se198  1  0.57726491  0.91334624  0.81403464  1
  Se  Se199  1  0.91894878  0.24811585  0.30164650  1
  Se  Se200  1  0.92246840  0.25322217  0.79888858  1
  Se  Se201  1  0.91944435  0.58652473  0.30517451  1
  Se  Se202  1  0.92135678  0.58137785  0.81281384  1
  Se  Se203  1  0.91251685  0.91552653  0.29977391  1
  Se  Se204  1  0.93926276  0.93359769  0.80001063  1
  Se  Se205  1  0.08288041  0.08135191  0.30277203  1
  Se  Se206  1  0.08573857  0.08493514  0.80105275  1
  Se  Se207  1  0.07820152  0.41602477  0.30075302  1
  Se  Se208  1  0.08073383  0.41151301  0.80824205  1
  Se  Se209  1  0.07821304  0.74610765  0.29750912  1
  Se  Se210  1  0.08448413  0.74522433  0.80092933  1
  Se  Se211  1  0.41988661  0.09038621  0.31459421  1
  Se  Se212  1  0.42303826  0.08521280  0.82355450  1
  Se  Se213  1  0.41347339  0.41302016  0.29371862  1
  Se  Se214  1  0.40957573  0.41433614  0.80019377  1
  Se  Se215  1  0.41682816  0.75750919  0.30631479  1
  Se  Se216  1  0.40940451  0.74386582  0.79484194  1
  Se  Se217  1  0.74641419  0.08375950  0.29561564  1
  Se  Se218  1  0.74787903  0.08455631  0.79417943  1
  Se  Se219  1  0.75751112  0.41750451  0.31083918  1
  Se  Se220  1  0.75496301  0.41917947  0.81043213  1
  Se  Se221  1  0.74702338  0.74549986  0.30361991  1
  Se  Se222  1  0.75713211  0.74853831  0.82387740  1
  Se  Se223  1  0.24040551  0.08828313  0.18787867  1
  Se  Se224  1  0.24676183  0.08826343  0.69318027  1
  Se  Se225  1  0.25031785  0.41585024  0.19677564  1
  Se  Se226  1  0.24806246  0.41328963  0.69587347  1
  Se  Se227  1  0.24454502  0.75687492  0.18106550  1
  Se  Se228  1  0.25064228  0.74877023  0.69775636  1
  Se  Se229  1  0.58108835  0.07734583  0.19341036  1
  Se  Se230  1  0.58175073  0.08408027  0.70277334  1
  Se  Se231  1  0.58078360  0.42277378  0.18189287  1
  Se  Se232  1  0.57399893  0.42643565  0.69194999  1
  Se  Se233  1  0.58590162  0.74652950  0.19836311  1
  Se  Se234  1  0.58031153  0.75920209  0.69398224  1
  Se  Se235  1  0.91879804  0.08007450  0.19306191  1
  Se  Se236  1  0.92106496  0.08534243  0.69309246  1
  Se  Se237  1  0.91946645  0.41513828  0.20059980  1
  Se  Se238  1  0.92048405  0.41371722  0.69970315  1
  Se  Se239  1  0.91635127  0.74875333  0.19804640  1
  Se  Se240  1  0.91436011  0.74163619  0.70934619  1
  Se  Se241  1  0.07818307  0.25152762  0.19687372  1
  Se  Se242  1  0.08264287  0.25094068  0.69586748  1
  Se  Se243  1  0.08231564  0.58642918  0.19608525  1
  Se  Se244  1  0.08125204  0.58164969  0.69759419  1
  Se  Se245  1  0.07745503  0.91843465  0.19559434  1
  Se  Se246  1  0.08650916  0.91805262  0.70076812  1
  Se  Se247  1  0.41005310  0.24710813  0.19668884  1
  Se  Se248  1  0.41298231  0.24868243  0.70575174  1
  Se  Se249  1  0.42189412  0.57944052  0.18072626  1
  Se  Se250  1  0.41246472  0.58583806  0.69606279  1
  Se  Se251  1  0.41973656  0.91684699  0.19248440  1
  Se  Se252  1  0.42260272  0.91351880  0.69488428  1
  Se  Se253  1  0.76013141  0.24521353  0.18313484  1
  Se  Se254  1  0.75901057  0.24779505  0.68704691  1
  Se  Se255  1  0.74903403  0.58393208  0.20008647  1
  Se  Se256  1  0.75758347  0.57405436  0.69568481  1
  Se  Se257  1  0.74738500  0.91768433  0.19672603  1
  Se  Se258  1  0.76588580  0.90585536  0.69948424  1
