# generated using pymatgen
data_In86Cu29Se144
_symmetry_space_group_name_H-M   'P 1'
_cell_length_a   17.57757215
_cell_length_b   17.57877816
_cell_length_c   23.43863992
_cell_angle_alpha   90.00203864
_cell_angle_beta   90.01703288
_cell_angle_gamma   89.99503341
_symmetry_Int_Tables_number   1
_chemical_formula_structural   In86Cu29Se144
_chemical_formula_sum   'In86 Cu29 Se144'
_cell_volume   7242.35753175
_cell_formula_units_Z   1
loop_
 _symmetry_equiv_pos_site_id
 _symmetry_equiv_pos_as_xyz
  1  'x, y, z'
loop_
 _atom_site_type_symbol
 _atom_site_label
 _atom_site_symmetry_multiplicity
 _atom_site_fract_x
 _atom_site_fract_y
 _atom_site_fract_z
 _atom_site_occupancy
  In  In0  1  -0.00034567  0.17513383  0.10596125  1
  In  In1  1  0.00957789  0.17103970  0.62364814  1
  In  In2  1  0.01778623  0.49296041  0.11598548  1
  In  In3  1  0.00291990  0.49914893  0.63960381  1
  In  In4  1  -0.00013940  0.83400778  0.11810586  1
  In  In5  1  -0.00875146  0.82605449  0.62142081  1
  In  In6  1  0.33532789  0.16287181  0.13012324  1
  In  In7  1  0.32497072  0.17327049  0.63393304  1
  In  In8  1  0.32064188  0.48695962  0.11625735  1
  In  In9  1  0.32166152  0.49856581  0.62791707  1
  In  In10  1  0.33193820  0.85173657  0.12579970  1
  In  In11  1  0.34917621  0.84367173  0.61261300  1
  In  In12  1  0.67751312  0.15816782  0.13175380  1
  In  In13  1  0.66105276  0.15190735  0.62213340  1
  In  In14  1  0.65605840  0.50887403  0.13110351  1
  In  In15  1  0.67987401  0.50164517  0.62638598  1
  In  In16  1  0.67299033  0.82755100  0.14297596  1
  In  In17  1  0.66571114  0.83445474  0.62210108  1
  In  In18  1  0.17150643  -0.00252644  0.38248302  1
  In  In19  1  0.17622567  -0.00205540  0.88404784  1
  In  In20  1  0.16325701  0.31874447  0.37153469  1
  In  In21  1  0.16544550  0.32939532  0.87835454  1
  In  In22  1  0.17706492  0.68041807  0.37469180  1
  In  In23  1  0.15741663  0.67615121  0.88049278  1
  In  In24  1  0.49305660  -0.01574411  0.35677543  1
  In  In25  1  0.49594219  -0.00456110  0.86894871  1
  In  In26  1  0.49966409  0.33617506  0.36759758  1
  In  In27  1  0.50054685  0.34804015  0.87941887  1
  In  In28  1  0.51040717  0.66767026  0.37449222  1
  In  In29  1  0.49828922  0.65608663  0.87502887  1
  In  In30  1  0.82567332  0.00358852  0.37823057  1
  In  In31  1  0.82626317  0.00694104  0.87768697  1
  In  In32  1  0.81804733  0.32029957  0.37243621  1
  In  In33  1  0.83603677  0.31683857  0.87904909  1
  In  In34  1  0.82672060  0.68014238  0.37435360  1
  In  In35  1  0.84121853  0.67633032  0.86885437  1
  In  In36  1  0.00339549  0.16119236  0.38492529  1
  In  In37  1  -0.00365240  0.17588227  0.88380443  1
  In  In38  1  0.00339647  0.48847464  0.37288426  1
  In  In39  1  0.00651847  0.50618200  0.87159323  1
  In  In40  1  -0.00717674  0.84155462  0.38360333  1
  In  In41  1  0.00293213  0.82451667  0.87576812  1
  In  In42  1  0.33156440  0.15741752  0.36954855  1
  In  In43  1  0.31839559  0.15517105  0.87172660  1
  In  In44  1  0.33980944  0.50214032  0.36931459  1
  In  In45  1  0.34160179  0.49090105  0.88162589  1
  In  In46  1  0.32650472  0.84037519  0.38494981  1
  In  In47  1  0.32309389  0.83793426  0.87568071  1
  In  In48  1  0.67105254  0.16988194  0.37112552  1
  In  In49  1  0.67593875  0.15899040  0.87507280  1
  In  In50  1  0.66300246  0.49472900  0.36535880  1
  In  In51  1  0.65380384  0.50395830  0.87741994  1
  In  In52  1  0.66806842  0.83320523  0.37047162  1
  In  In53  1  0.67414683  0.84322774  0.86824239  1
  In  In54  1  0.17684662  0.00752942  0.11150035  1
  In  In55  1  0.17588090  0.00955495  0.62222485  1
  In  In56  1  0.18290796  0.33988029  0.11158795  1
  In  In57  1  0.16963221  0.33080962  0.63476945  1
  In  In58  1  0.16681609  0.66708826  0.11538471  1
  In  In59  1  0.15891650  0.66641678  0.62582442  1
  In  In60  1  0.50155918  -0.00607282  0.13964369  1
  In  In61  1  0.50906329  -0.00528638  0.63137147  1
  In  In62  1  0.48980544  0.34036153  0.12920961  1
  In  In63  1  0.49384016  0.32060600  0.62505634  1
  In  In64  1  0.51391085  0.67268052  0.12874659  1
  In  In65  1  0.49791464  0.68782338  0.62066547  1
  In  In66  1  0.82850069  -0.00463063  0.11858260  1
  In  In67  1  0.82428662  -0.01077246  0.61697117  1
  In  In68  1  0.84042465  0.32039131  0.12266933  1
  In  In69  1  0.84595925  0.33729760  0.62579880  1
  In  In70  1  0.81956360  0.67366506  0.12717209  1
  In  In71  1  0.82351541  0.67240209  0.63370474  1
  In  In72  1  0.83567496  0.50102495  -0.00047224  1
  In  In73  1  0.50211636  0.50403969  0.48878647  1
  In  In74  1  0.50279111  0.16196874  0.49738889  1
  In  In75  1  0.33708115  0.66894441  0.25065962  1
  In  In76  1  0.00778885  0.33302255  0.23948094  1
  In  In77  1  0.49827865  0.83239419  0.00541579  1
  In  In78  1  -0.00573048  -0.00073470  0.25197355  1
  In  In79  1  0.49742140  0.16692619  0.01147349  1
  In  In80  1  0.33241335  0.66918353  0.74876146  1
  In  In81  1  -0.00436104  0.66705746  0.24005745  1
  In  In82  1  0.16707804  0.50624251  0.50218826  1
  In  In83  1  0.66758465  0.33187915  0.75256881  1
  In  In84  1  0.83456449  0.49978033  0.50640758  1
  In  In85  1  0.00047981  0.00041996  0.74950083  1
  Cu  Cu86  1  0.82922334  0.83229829  0.74464814  1
  Cu  Cu87  1  0.49304851  0.16642673  0.75116859  1
  Cu  Cu88  1  0.82988128  0.50296670  0.24863081  1
  Cu  Cu89  1  0.50443347  0.83649248  0.74472156  1
  Cu  Cu90  1  0.83364434  0.16278654  0.75256236  1
  Cu  Cu91  1  0.49440217  0.49542184  0.24694741  1
  Cu  Cu92  1  0.83693839  0.16788005  0.24849387  1
  Cu  Cu93  1  -0.00056149  0.67241886  0.50140928  1
  Cu  Cu94  1  0.33449195  0.00669464  0.49764240  1
  Cu  Cu95  1  0.66919082  -0.00001189  0.00248778  1
  Cu  Cu96  1  0.50107352  0.17065290  0.25066233  1
  Cu  Cu97  1  0.66744093  0.67431498  0.00495614  1
  Cu  Cu98  1  0.17096825  0.49669956  0.75626167  1
  Cu  Cu99  1  0.66865125  0.67227875  0.49999785  1
  Cu  Cu100  1  0.32755917  0.33141091  0.50363640  1
  Cu  Cu101  1  0.00002313  0.32662946  0.50230465  1
  Cu  Cu102  1  0.66477010  -0.00753321  0.49654259  1
  Cu  Cu103  1  0.33168965  0.66047485  -0.00178452  1
  Cu  Cu104  1  0.16396726  0.17001166  0.75289685  1
  Cu  Cu105  1  0.16667069  0.84098771  0.25371298  1
  Cu  Cu106  1  0.00126834  -0.00107627  0.50504931  1
  Cu  Cu107  1  0.83628636  0.50107440  0.75390165  1
  Cu  Cu108  1  0.16721305  0.83532827  0.75317556  1
  Cu  Cu109  1  0.17632349  0.16385546  0.24546172  1
  Cu  Cu110  1  -0.00261816  0.66980233  -0.00374954  1
  Cu  Cu111  1  0.66804100  0.33671072  -0.00038713  1
  Cu  Cu112  1  0.49992721  0.50210443  0.75342491  1
  Cu  Cu113  1  -0.00246074  -0.00280872  -0.00592964  1
  Cu  Cu114  1  0.33290138  0.32790278  -0.00020643  1
  Se  Se115  1  0.08138664  0.08058897  0.04706487  1
  Se  Se116  1  0.08599715  0.08505671  0.55401075  1
  Se  Se117  1  0.07290354  0.39316139  0.04935792  1
  Se  Se118  1  0.07647588  0.41383228  0.56098402  1
  Se  Se119  1  0.08298719  0.75187428  0.04998447  1
  Se  Se120  1  0.08556393  0.75232304  0.55439808  1
  Se  Se121  1  0.41366240  0.06540283  0.06296454  1
  Se  Se122  1  0.41215793  0.08263039  0.56437808  1
  Se  Se123  1  0.41716312  0.41474032  0.05022894  1
  Se  Se124  1  0.41172460  0.41526132  0.55713385  1
  Se  Se125  1  0.40620401  0.74077315  0.06367073  1
  Se  Se126  1  0.41995977  0.75324429  0.54385797  1
  Se  Se127  1  0.75248341  0.08858071  0.05160394  1
  Se  Se128  1  0.74548268  0.07905037  0.55006198  1
  Se  Se129  1  0.74497853  0.41663661  0.06339350  1
  Se  Se130  1  0.74203669  0.40239168  0.55668005  1
  Se  Se131  1  0.74520827  0.76159172  0.05778067  1
  Se  Se132  1  0.75395487  0.75049868  0.55578682  1
  Se  Se133  1  0.25755774  0.23786729  0.05350101  1
  Se  Se134  1  0.24576649  0.25138085  0.55968502  1
  Se  Se135  1  0.24450453  0.57756229  0.04892362  1
  Se  Se136  1  0.26125154  0.59739824  0.55700705  1
  Se  Se137  1  0.23641410  0.89903698  0.05137446  1
  Se  Se138  1  0.25224493  0.92253942  0.55250718  1
  Se  Se139  1  0.59201507  0.25774538  0.06566662  1
  Se  Se140  1  0.59163846  0.25612329  0.55605233  1
  Se  Se141  1  0.58339878  0.58788333  0.05385098  1
  Se  Se142  1  0.59043882  0.58705230  0.55870129  1
  Se  Se143  1  0.59093008  0.92062467  0.06369751  1
  Se  Se144  1  0.57872013  0.91556790  0.55378169  1
  Se  Se145  1  0.91093464  0.25479786  0.04150520  1
  Se  Se146  1  0.91561647  0.24600602  0.55642303  1
  Se  Se147  1  0.92245334  0.59287913  0.06322307  1
  Se  Se148  1  0.92627947  0.58881194  0.56501588  1
  Se  Se149  1  0.91540071  0.91633028  0.05103594  1
  Se  Se150  1  0.91493977  0.91202029  0.55152347  1
  Se  Se151  1  0.08818763  0.24778145  0.44986942  1
  Se  Se152  1  0.09706423  0.23748383  0.94820085  1
  Se  Se153  1  0.07385639  0.59096517  0.43832961  1
  Se  Se154  1  0.08267657  0.58364833  0.94764718  1
  Se  Se155  1  0.08419103  0.91704194  0.44894421  1
  Se  Se156  1  0.08201095  0.91326053  0.94202426  1
  Se  Se157  1  0.41069710  0.25704848  0.44112743  1
  Se  Se158  1  0.41607615  0.25009658  0.93945408  1
  Se  Se159  1  0.40460412  0.59737530  0.44070763  1
  Se  Se160  1  0.42107094  0.57982425  0.94906237  1
  Se  Se161  1  0.42039853  0.92613915  0.44379807  1
  Se  Se162  1  0.41027493  0.92274781  0.94502032  1
  Se  Se163  1  0.75540453  0.23655096  0.44751811  1
  Se  Se164  1  0.74428091  0.24716322  0.94804805  1
  Se  Se165  1  0.74263679  0.58297471  0.44140805  1
  Se  Se166  1  0.74492535  0.59371911  0.94147382  1
  Se  Se167  1  0.75182123  0.91035022  0.44487277  1
  Se  Se168  1  0.74960562  0.91650223  0.94607535  1
  Se  Se169  1  0.24965619  0.09120668  0.44733558  1
  Se  Se170  1  0.25394074  0.08302791  0.95325424  1
  Se  Se171  1  0.25327914  0.41342994  0.43985706  1
  Se  Se172  1  0.25063790  0.41392458  0.94681198  1
  Se  Se173  1  0.24204729  0.75770127  0.45174875  1
  Se  Se174  1  0.25284560  0.74882201  0.94589686  1
  Se  Se175  1  0.58559686  0.07196729  0.43439812  1
  Se  Se176  1  0.58326734  0.07699668  0.94415373  1
  Se  Se177  1  0.59394469  0.40454724  0.44180725  1
  Se  Se178  1  0.58247067  0.42255072  0.95288643  1
  Se  Se179  1  0.58583820  0.75316009  0.44461281  1
  Se  Se180  1  0.58710759  0.74878190  0.93897388  1
  Se  Se181  1  0.91659073  0.07845689  0.44796666  1
  Se  Se182  1  0.91277922  0.08450943  0.94554240  1
  Se  Se183  1  0.91928435  0.40592116  0.44216294  1
  Se  Se184  1  0.92266853  0.41272366  0.93845329  1
  Se  Se185  1  0.91221672  0.75010835  0.44746049  1
  Se  Se186  1  0.91128556  0.75404023  0.94708883  1
  Se  Se187  1  0.25380060  0.24884557  0.30215043  1
  Se  Se188  1  0.25060384  0.25228540  0.80530866  1
  Se  Se189  1  0.23923068  0.57918515  0.30614835  1
  Se  Se190  1  0.24938165  0.58111346  0.81532231  1
  Se  Se191  1  0.25074448  0.91994935  0.30874995  1
  Se  Se192  1  0.24867289  0.92165566  0.80360702  1
  Se  Se193  1  0.58588704  0.25245653  0.30346670  1
  Se  Se194  1  0.57541303  0.24354804  0.81368691  1
  Se  Se195  1  0.57680581  0.57882411  0.30122471  1
  Se  Se196  1  0.58562631  0.58730176  0.80105163  1
  Se  Se197  1  0.60499562  0.92960790  0.29989604  1
  Se  Se198  1  0.58494795  0.92071650  0.80093185  1
  Se  Se199  1  0.92303382  0.24463270  0.30738034  1
  Se  Se200  1  0.91769975  0.24610287  0.80374919  1
  Se  Se201  1  0.91325622  0.57681863  0.31025693  1
  Se  Se202  1  0.92077742  0.58685999  0.80380074  1
  Se  Se203  1  0.90340357  0.90766825  0.30755203  1
  Se  Se204  1  0.90890004  0.91099781  0.80849601  1
  Se  Se205  1  0.09112515  0.08994237  0.30714441  1
  Se  Se206  1  0.08674912  0.08685171  0.81377188  1
  Se  Se207  1  0.09744306  0.42218638  0.30215586  1
  Se  Se208  1  0.08493334  0.41396633  0.80730763  1
  Se  Se209  1  0.08031826  0.75912885  0.30747871  1
  Se  Se210  1  0.08308219  0.74861005  0.80093559  1
  Se  Se211  1  0.41534619  0.08282037  0.29799159  1
  Se  Se212  1  0.41172374  0.08135011  0.80451979  1
  Se  Se213  1  0.41051228  0.41305697  0.29981564  1
  Se  Se214  1  0.41730848  0.41632237  0.80325023  1
  Se  Se215  1  0.41877899  0.75820177  0.31483838  1
  Se  Se216  1  0.42457998  0.75952725  0.80927342  1
  Se  Se217  1  0.75459749  0.08613311  0.30283771  1
  Se  Se218  1  0.74680650  0.07786301  0.79946030  1
  Se  Se219  1  0.75312968  0.41341435  0.30151648  1
  Se  Se220  1  0.75583576  0.42151244  0.81577164  1
  Se  Se221  1  0.73854667  0.73871572  0.30078900  1
  Se  Se222  1  0.74767350  0.74944747  0.80181591  1
  Se  Se223  1  0.25223484  0.07184954  0.19418524  1
  Se  Se224  1  0.24746504  0.08384576  0.70158716  1
  Se  Se225  1  0.24869797  0.41133729  0.19333020  1
  Se  Se226  1  0.25418447  0.41473937  0.70211114  1
  Se  Se227  1  0.23990086  0.75513867  0.19207437  1
  Se  Se228  1  0.24823036  0.76114853  0.68733566  1
  Se  Se229  1  0.58510898  0.08634096  0.19929406  1
  Se  Se230  1  0.58210842  0.08584672  0.70070296  1
  Se  Se231  1  0.58344592  0.41366915  0.19667902  1
  Se  Se232  1  0.57725541  0.42079191  0.68959838  1
  Se  Se233  1  0.57560278  0.75541788  0.20510867  1
  Se  Se234  1  0.58671666  0.74972079  0.69465012  1
  Se  Se235  1  0.91822013  0.09409534  0.18499519  1
  Se  Se236  1  0.90957848  0.08512840  0.68644362  1
  Se  Se237  1  0.91246328  0.42869883  0.18632163  1
  Se  Se238  1  0.91758938  0.41306576  0.70360162  1
  Se  Se239  1  0.90510377  0.76633247  0.19250047  1
  Se  Se240  1  0.91863439  0.74792569  0.69838487  1
  Se  Se241  1  0.09429985  0.23819124  0.18272496  1
  Se  Se242  1  0.07869037  0.25244812  0.70064272  1
  Se  Se243  1  0.09452507  0.57597828  0.19093267  1
  Se  Se244  1  0.09117568  0.58347908  0.70214613  1
  Se  Se245  1  0.08739034  0.91618515  0.18922598  1
  Se  Se246  1  0.08848939  0.91172378  0.68751534  1
  Se  Se247  1  0.41438564  0.25061908  0.19695536  1
  Se  Se248  1  0.41231065  0.25487383  0.70143067  1
  Se  Se249  1  0.41676925  0.57620606  0.18437626  1
  Se  Se250  1  0.42485143  0.58066869  0.68735237  1
  Se  Se251  1  0.42268818  0.90160036  0.20210149  1
  Se  Se252  1  0.41423048  0.91746642  0.69543506  1
  Se  Se253  1  0.75383851  0.25385935  0.19701517  1
  Se  Se254  1  0.75409098  0.24315162  0.68933920  1
  Se  Se255  1  0.74601128  0.58773100  0.19773298  1
  Se  Se256  1  0.74888286  0.58167321  0.70233789  1
  Se  Se257  1  0.74434169  0.93517452  0.19640250  1
  Se  Se258  1  0.74601764  0.91799558  0.69403590  1
