# generated using pymatgen
data_In86Cu29Se144
_symmetry_space_group_name_H-M   'P 1'
_cell_length_a   17.57219984
_cell_length_b   17.57721455
_cell_length_c   23.42435407
_cell_angle_alpha   90.01760246
_cell_angle_beta   89.99394876
_cell_angle_gamma   90.02440052
_symmetry_Int_Tables_number   1
_chemical_formula_structural   In86Cu29Se144
_chemical_formula_sum   'In86 Cu29 Se144'
_cell_volume   7235.08685626
_cell_formula_units_Z   1
loop_
 _symmetry_equiv_pos_site_id
 _symmetry_equiv_pos_as_xyz
  1  'x, y, z'
loop_
 _atom_site_type_symbol
 _atom_site_label
 _atom_site_symmetry_multiplicity
 _atom_site_fract_x
 _atom_site_fract_y
 _atom_site_fract_z
 _atom_site_occupancy
  In  In0  1  0.01624268  0.15955395  0.12571767  1
  In  In1  1  -0.01486505  0.16733353  0.62371177  1
  In  In2  1  -0.01602424  0.49706325  0.12522895  1
  In  In3  1  0.01656951  0.49963154  0.62153873  1
  In  In4  1  0.00315692  0.83665578  0.12537435  1
  In  In5  1  0.00029321  0.83248219  0.62365948  1
  In  In6  1  0.33055460  0.16014844  0.11941398  1
  In  In7  1  0.35011041  0.15676860  0.63694443  1
  In  In8  1  0.34526675  0.50921426  0.12439154  1
  In  In9  1  0.33554294  0.50943014  0.63576475  1
  In  In10  1  0.34388770  0.82738930  0.13340710  1
  In  In11  1  0.33459476  0.83178916  0.62275591  1
  In  In12  1  0.64750909  0.17324399  0.12154921  1
  In  In13  1  0.66011252  0.15899772  0.63174280  1
  In  In14  1  0.67372338  0.49947399  0.12621430  1
  In  In15  1  0.64739338  0.50956764  0.64319394  1
  In  In16  1  0.66000283  0.84802569  0.13336000  1
  In  In17  1  0.66806537  0.83391912  0.62013603  1
  In  In18  1  0.16547583  -0.01551247  0.37897214  1
  In  In19  1  0.17854548  0.01128823  0.86219008  1
  In  In20  1  0.16812190  0.34918640  0.37915924  1
  In  In21  1  0.17354679  0.31716742  0.87637914  1
  In  In22  1  0.17056981  0.66239511  0.38365231  1
  In  In23  1  0.16812367  0.66449869  0.86855480  1
  In  In24  1  0.50012807  -0.00065168  0.37930072  1
  In  In25  1  0.49773843  -0.00012678  0.87098710  1
  In  In26  1  0.48784981  0.32137800  0.38612280  1
  In  In27  1  0.49330341  0.31830893  0.85533871  1
  In  In28  1  0.51111441  0.68240196  0.37334076  1
  In  In29  1  0.50744171  0.67747465  0.86652780  1
  In  In30  1  0.81757126  0.01158505  0.38253682  1
  In  In31  1  0.82734222  -0.00905710  0.86282105  1
  In  In32  1  0.82793854  0.31196385  0.37255580  1
  In  In33  1  0.82715405  0.34089788  0.87105145  1
  In  In34  1  0.82204243  0.68181215  0.38494341  1
  In  In35  1  0.83091263  0.66466065  0.86351539  1
  In  In36  1  -0.01882146  0.16438670  0.37259080  1
  In  In37  1  0.01604284  0.16948133  0.87397858  1
  In  In38  1  0.01125983  0.50349092  0.37504914  1
  In  In39  1  -0.00829527  0.50471841  0.87139357  1
  In  In40  1  0.00096501  0.83182639  0.38686217  1
  In  In41  1  -0.00391465  0.82830102  0.86417440  1
  In  In42  1  0.35113420  0.16936523  0.38254499  1
  In  In43  1  0.33659428  0.16077233  0.86684238  1
  In  In44  1  0.31811109  0.50055028  0.38383327  1
  In  In45  1  0.35591428  0.50781338  0.85369370  1
  In  In46  1  0.33688473  0.83334620  0.37882527  1
  In  In47  1  0.34195797  0.84641287  0.86629427  1
  In  In48  1  0.67292146  0.15639835  0.38569904  1
  In  In49  1  0.65422484  0.15453148  0.86271735  1
  In  In50  1  0.65226676  0.50900423  0.37863427  1
  In  In51  1  0.65051462  0.49395759  0.85140337  1
  In  In52  1  0.65770345  0.83572848  0.38117511  1
  In  In53  1  0.65450268  0.82416554  0.86885241  1
  In  In54  1  0.17145657  0.01464603  0.12369157  1
  In  In55  1  0.17939213  -0.01368569  0.63007034  1
  In  In56  1  0.17585008  0.31788122  0.12647843  1
  In  In57  1  0.17477724  0.34890373  0.62022294  1
  In  In58  1  0.17143925  0.68067147  0.12455058  1
  In  In59  1  0.16984241  0.66570164  0.62476355  1
  In  In60  1  0.49673215  -0.00011148  0.12531622  1
  In  In61  1  0.50451512  0.00234394  0.62892654  1
  In  In62  1  0.50874287  0.31448224  0.12065635  1
  In  In63  1  0.50609532  0.32195069  0.64060223  1
  In  In64  1  0.49689483  0.67553775  0.13048618  1
  In  In65  1  0.49322122  0.67450477  0.62908787  1
  In  In66  1  0.83171292  -0.00970014  0.12716081  1
  In  In67  1  0.83066955  -0.00125876  0.62354085  1
  In  In68  1  0.83116349  0.34493761  0.12831322  1
  In  In69  1  0.82754488  0.31625791  0.61962088  1
  In  In70  1  0.82500168  0.65622566  0.12649319  1
  In  In71  1  0.81748599  0.68783055  0.62843833  1
  In  In72  1  0.66567068  0.33382585  0.24850960  1
  In  In73  1  0.50025674  0.49070615  -0.01048239  1
  In  In74  1  0.16737343  0.83931288  0.00201756  1
  In  In75  1  0.82636256  0.82810914  -0.00651382  1
  In  In76  1  0.83030518  0.16645485  -0.00412010  1
  In  In77  1  0.16695016  0.16321931  0.50574759  1
  In  In78  1  0.82635443  0.50067034  -0.00079008  1
  In  In79  1  0.33214023  0.33837054  0.25751565  1
  In  In80  1  -0.00456694  0.66750038  0.24728825  1
  In  In81  1  0.49436638  0.50247173  0.51377040  1
  In  In82  1  -0.00221858  0.00002127  0.25002052  1
  In  In83  1  0.83460139  0.49402715  0.50443629  1
  In  In84  1  0.00124426  0.33317122  0.75078944  1
  In  In85  1  0.16946319  0.49138805  -0.01369698  1
  Cu  Cu86  1  0.00090496  0.33047566  0.50036412  1
  Cu  Cu87  1  0.82318011  0.83702834  0.25921521  1
  Cu  Cu88  1  0.50213843  0.15951971  0.25326057  1
  Cu  Cu89  1  -0.00378990  -0.00528508  0.50215160  1
  Cu  Cu90  1  0.16799532  0.16851845  0.24913578  1
  Cu  Cu91  1  0.83019887  0.50222155  0.25239366  1
  Cu  Cu92  1  0.33818632  -0.00476874  0.50580856  1
  Cu  Cu93  1  0.66285506  0.00125172  0.50475930  1
  Cu  Cu94  1  0.49930766  0.83743211  0.74520796  1
  Cu  Cu95  1  0.50128225  0.83904179  0.25444212  1
  Cu  Cu96  1  0.17050500  0.50385950  0.74850643  1
  Cu  Cu97  1  0.33341631  0.66687166  0.50417411  1
  Cu  Cu98  1  0.00645926  0.32737062  0.00471254  1
  Cu  Cu99  1  0.16860418  0.16645023  0.74626656  1
  Cu  Cu100  1  0.49754921  0.51034017  0.25200661  1
  Cu  Cu101  1  0.33430890  0.67461214  0.00172336  1
  Cu  Cu102  1  0.33869657  0.32431193  -0.00892918  1
  Cu  Cu103  1  0.16639184  0.82772418  0.74528397  1
  Cu  Cu104  1  0.83985063  0.50457414  0.74225205  1
  Cu  Cu105  1  0.83379775  0.83714515  0.74254564  1
  Cu  Cu106  1  0.17912698  0.83008408  0.25545274  1
  Cu  Cu107  1  0.66293752  0.32899462  0.50909794  1
  Cu  Cu108  1  0.66084000  0.66373873  -0.00583102  1
  Cu  Cu109  1  0.82905490  0.15986134  0.74545975  1
  Cu  Cu110  1  0.00642362  0.00284650  -0.00784620  1
  Cu  Cu111  1  0.16612836  0.50443049  0.25461362  1
  Cu  Cu112  1  0.65333976  0.00310480  0.00011647  1
  Cu  Cu113  1  0.33916430  0.00510302  -0.00690123  1
  Cu  Cu114  1  0.00202454  0.66584319  0.50496721  1
  Se  Se115  1  0.08846409  0.08373804  0.04781309  1
  Se  Se116  1  0.07669904  0.07257650  0.56485343  1
  Se  Se117  1  0.08311222  0.41428573  0.06214623  1
  Se  Se118  1  0.08685068  0.41655795  0.54646511  1
  Se  Se119  1  0.07139371  0.74257511  0.05380656  1
  Se  Se120  1  0.08718749  0.74972050  0.55631063  1
  Se  Se121  1  0.42118361  0.08583597  0.05233613  1
  Se  Se122  1  0.41944488  0.08194731  0.55646326  1
  Se  Se123  1  0.41028589  0.40462343  0.05788217  1
  Se  Se124  1  0.41331526  0.40741022  0.57225970  1
  Se  Se125  1  0.41959562  0.75347343  0.05553444  1
  Se  Se126  1  0.41969789  0.75185841  0.55216735  1
  Se  Se127  1  0.74428257  0.07410942  0.05837338  1
  Se  Se128  1  0.74659541  0.08600743  0.55801491  1
  Se  Se129  1  0.73500637  0.40291523  0.05173762  1
  Se  Se130  1  0.73588868  0.41718499  0.56827934  1
  Se  Se131  1  0.73821451  0.74225727  0.05924468  1
  Se  Se132  1  0.75310902  0.75922437  0.54716090  1
  Se  Se133  1  0.25346239  0.24815018  0.04930814  1
  Se  Se134  1  0.25775483  0.24528153  0.56808811  1
  Se  Se135  1  0.25271682  0.58730244  0.05367380  1
  Se  Se136  1  0.25451582  0.57921863  0.55783637  1
  Se  Se137  1  0.26264147  0.92590458  0.05985777  1
  Se  Se138  1  0.24908138  0.91088406  0.55091173  1
  Se  Se139  1  0.58433520  0.24965112  0.04140470  1
  Se  Se140  1  0.57928181  0.24642733  0.56205757  1
  Se  Se141  1  0.58420241  0.58175163  0.05735166  1
  Se  Se142  1  0.59233912  0.59526411  0.56069887  1
  Se  Se143  1  0.57880728  0.91399852  0.05561907  1
  Se  Se144  1  0.57863802  0.91719140  0.55572370  1
  Se  Se145  1  0.91967264  0.25289523  0.06271315  1
  Se  Se146  1  0.91360449  0.24589745  0.54652727  1
  Se  Se147  1  0.92221035  0.59487117  0.05282197  1
  Se  Se148  1  0.91886248  0.58793932  0.56507236  1
  Se  Se149  1  0.92510184  0.92270628  0.05080903  1
  Se  Se150  1  0.91212611  0.91227852  0.55549176  1
  Se  Se151  1  0.07943933  0.24868266  0.43844110  1
  Se  Se152  1  0.08987403  0.24628728  0.95083110  1
  Se  Se153  1  0.08400981  0.58111149  0.45105951  1
  Se  Se154  1  0.07524310  0.59044300  0.94200697  1
  Se  Se155  1  0.08617591  0.91258191  0.45452998  1
  Se  Se156  1  0.08221291  0.92030930  0.93185138  1
  Se  Se157  1  0.41361542  0.24776729  0.46156219  1
  Se  Se158  1  0.42140776  0.24516925  0.93526199  1
  Se  Se159  1  0.41480252  0.58835338  0.44191275  1
  Se  Se160  1  0.41202397  0.59301174  0.93938842  1
  Se  Se161  1  0.42075026  0.91344783  0.44879403  1
  Se  Se162  1  0.41972744  0.91542164  0.94469012  1
  Se  Se163  1  0.74776847  0.25019474  0.45261765  1
  Se  Se164  1  0.74236417  0.25068837  0.93315547  1
  Se  Se165  1  0.74114297  0.58585210  0.44922953  1
  Se  Se166  1  0.73743396  0.58305673  0.93272555  1
  Se  Se167  1  0.74593832  0.91853922  0.44868444  1
  Se  Se168  1  0.73648331  0.92420983  0.94037927  1
  Se  Se169  1  0.25647281  0.07442810  0.44331725  1
  Se  Se170  1  0.25087092  0.08493484  0.94137385  1
  Se  Se171  1  0.25923403  0.40482912  0.45330841  1
  Se  Se172  1  0.27213034  0.41342946  0.92884301  1
  Se  Se173  1  0.25133205  0.75075662  0.44798679  1
  Se  Se174  1  0.25449713  0.75035424  0.93886684  1
  Se  Se175  1  0.57842645  0.08484793  0.45081376  1
  Se  Se176  1  0.57715666  0.08622112  0.94224808  1
  Se  Se177  1  0.58499033  0.40957384  0.44778238  1
  Se  Se178  1  0.58853272  0.40514883  0.92883678  1
  Se  Se179  1  0.58268721  0.75043398  0.45302153  1
  Se  Se180  1  0.57752657  0.75232041  0.94718537  1
  Se  Se181  1  0.91576916  0.08110279  0.44923286  1
  Se  Se182  1  0.91928160  0.07606349  0.93346403  1
  Se  Se183  1  0.92068728  0.40919204  0.43684769  1
  Se  Se184  1  0.92622935  0.40661188  0.94498493  1
  Se  Se185  1  0.91698201  0.74825982  0.45291948  1
  Se  Se186  1  0.92079824  0.73942398  0.93874106  1
  Se  Se187  1  0.24469884  0.24358952  0.31578673  1
  Se  Se188  1  0.25246085  0.24979694  0.79938775  1
  Se  Se189  1  0.24935834  0.58507856  0.30839356  1
  Se  Se190  1  0.25542276  0.58860236  0.79949556  1
  Se  Se191  1  0.25614985  0.91898335  0.30736806  1
  Se  Se192  1  0.24863075  0.91489306  0.79740392  1
  Se  Se193  1  0.57701060  0.24681981  0.31249638  1
  Se  Se194  1  0.60004066  0.25664254  0.79452261  1
  Se  Se195  1  0.58500001  0.59097234  0.30273626  1
  Se  Se196  1  0.59058377  0.60218186  0.79507936  1
  Se  Se197  1  0.58544674  0.92209699  0.30785307  1
  Se  Se198  1  0.58345367  0.91731888  0.80209286  1
  Se  Se199  1  0.91825658  0.25254075  0.29923678  1
  Se  Se200  1  0.90893308  0.23991734  0.80889767  1
  Se  Se201  1  0.90718889  0.58421676  0.31463736  1
  Se  Se202  1  0.92208240  0.58664045  0.79687662  1
  Se  Se203  1  0.91226077  0.91226324  0.31534068  1
  Se  Se204  1  0.92060744  0.91786812  0.79713627  1
  Se  Se205  1  0.09036875  0.08712837  0.31237261  1
  Se  Se206  1  0.08072483  0.08522397  0.79775888  1
  Se  Se207  1  0.08351298  0.41679618  0.30282897  1
  Se  Se208  1  0.09406111  0.42186928  0.81242925  1
  Se  Se209  1  0.08609967  0.75469782  0.30939572  1
  Se  Se210  1  0.08344045  0.74482290  0.80018539  1
  Se  Se211  1  0.41568380  0.08211952  0.30829821  1
  Se  Se212  1  0.41257802  0.07334642  0.79899972  1
  Se  Se213  1  0.42615450  0.42682980  0.31593875  1
  Se  Se214  1  0.43751886  0.42430385  0.78840526  1
  Se  Se215  1  0.41736522  0.75267483  0.30562442  1
  Se  Se216  1  0.41551123  0.75323869  0.80000603  1
  Se  Se217  1  0.75595772  0.09740703  0.30645476  1
  Se  Se218  1  0.74500261  0.07535762  0.79712218  1
  Se  Se219  1  0.75059804  0.42405729  0.31532740  1
  Se  Se220  1  0.75703790  0.42032965  0.79576818  1
  Se  Se221  1  0.74120144  0.75094237  0.30940145  1
  Se  Se222  1  0.75200652  0.75684037  0.80171234  1
  Se  Se223  1  0.25417978  0.08636745  0.19790371  1
  Se  Se224  1  0.25151298  0.07897610  0.69712168  1
  Se  Se225  1  0.24652298  0.42699325  0.18992948  1
  Se  Se226  1  0.25208998  0.41604324  0.69941458  1
  Se  Se227  1  0.25629249  0.74417742  0.19986758  1
  Se  Se228  1  0.25444533  0.74684017  0.69359021  1
  Se  Se229  1  0.58381708  0.08258681  0.19407384  1
  Se  Se230  1  0.57288165  0.08823903  0.70387106  1
  Se  Se231  1  0.56870347  0.42319428  0.18959862  1
  Se  Se232  1  0.57706340  0.41648333  0.70945175  1
  Se  Se233  1  0.58363659  0.75493866  0.19815034  1
  Se  Se234  1  0.58514786  0.75510398  0.69304935  1
  Se  Se235  1  0.91077847  0.09043160  0.18891913  1
  Se  Se236  1  0.91707254  0.07919983  0.69529873  1
  Se  Se237  1  0.91498340  0.41769587  0.20221886  1
  Se  Se238  1  0.91399643  0.41685487  0.68354054  1
  Se  Se239  1  0.90152817  0.76241301  0.19142334  1
  Se  Se240  1  0.91908209  0.74935779  0.69501710  1
  Se  Se241  1  0.08399033  0.25130765  0.19735272  1
  Se  Se242  1  0.08921695  0.24807365  0.68517142  1
  Se  Se243  1  0.08830567  0.57798877  0.18689390  1
  Se  Se244  1  0.08443440  0.58410406  0.69601150  1
  Se  Se245  1  0.09830140  0.91020080  0.19370209  1
  Se  Se246  1  0.08283661  0.91436825  0.69488503  1
  Se  Se247  1  0.41996739  0.24512397  0.19630346  1
  Se  Se248  1  0.41714606  0.24597270  0.70891034  1
  Se  Se249  1  0.41277848  0.59206222  0.19913678  1
  Se  Se250  1  0.42880361  0.58226368  0.70065652  1
  Se  Se251  1  0.41641190  0.92092771  0.19931061  1
  Se  Se252  1  0.41299429  0.91770613  0.69256965  1
  Se  Se253  1  0.75274356  0.24329683  0.18731741  1
  Se  Se254  1  0.74798342  0.24878945  0.69652378  1
  Se  Se255  1  0.74384397  0.58396713  0.20090408  1
  Se  Se256  1  0.75141900  0.58894957  0.69560797  1
  Se  Se257  1  0.74795303  0.92436275  0.20278969  1
  Se  Se258  1  0.74561563  0.91890750  0.69308977  1
