# generated using pymatgen
data_In86Cu29Se144
_symmetry_space_group_name_H-M   'P 1'
_cell_length_a   17.57909051
_cell_length_b   17.57749487
_cell_length_c   23.43733462
_cell_angle_alpha   89.98127355
_cell_angle_beta   90.01614380
_cell_angle_gamma   89.98527906
_symmetry_Int_Tables_number   1
_chemical_formula_structural   In86Cu29Se144
_chemical_formula_sum   'In86 Cu29 Se144'
_cell_volume   7242.05048330
_cell_formula_units_Z   1
loop_
 _symmetry_equiv_pos_site_id
 _symmetry_equiv_pos_as_xyz
  1  'x, y, z'
loop_
 _atom_site_type_symbol
 _atom_site_label
 _atom_site_symmetry_multiplicity
 _atom_site_fract_x
 _atom_site_fract_y
 _atom_site_fract_z
 _atom_site_occupancy
  In  In0  1  0.01824923  0.17838582  0.12117579  1
  In  In1  1  0.00339601  0.18481239  0.62361210  1
  In  In2  1  -0.00125744  0.50742721  0.14088533  1
  In  In3  1  -0.00555204  0.49646189  0.61880356  1
  In  In4  1  -0.00958952  0.82050542  0.11676347  1
  In  In5  1  -0.00658033  0.83735439  0.62377177  1
  In  In6  1  0.32972319  0.16971282  0.12164880  1
  In  In7  1  0.34415676  0.17812559  0.62436898  1
  In  In8  1  0.33266420  0.46309661  0.12248528  1
  In  In9  1  0.32575102  0.49654371  0.62003522  1
  In  In10  1  0.34657009  0.84493810  0.12305715  1
  In  In11  1  0.33946443  0.81743880  0.62307124  1
  In  In12  1  0.66886614  0.18616276  0.12141811  1
  In  In13  1  0.67242047  0.17224517  0.62249215  1
  In  In14  1  0.66871529  0.50463639  0.12608755  1
  In  In15  1  0.67775761  0.49078584  0.63226928  1
  In  In16  1  0.65238169  0.81177069  0.12271549  1
  In  In17  1  0.66583418  0.82815108  0.62238786  1
  In  In18  1  0.17280047  -0.00668589  0.36711750  1
  In  In19  1  0.17403950  -0.00473082  0.88593846  1
  In  In20  1  0.16671482  0.34896763  0.35509916  1
  In  In21  1  0.15366303  0.33450081  0.87643418  1
  In  In22  1  0.14537391  0.65958243  0.36472484  1
  In  In23  1  0.17790928  0.65969761  0.88201038  1
  In  In24  1  0.48546114  -0.00292211  0.36880483  1
  In  In25  1  0.49730405  0.00411756  0.88550141  1
  In  In26  1  0.50268451  0.33411692  0.36281322  1
  In  In27  1  0.50000374  0.33623469  0.87998357  1
  In  In28  1  0.51559942  0.66635463  0.36849163  1
  In  In29  1  0.51026391  0.65616523  0.88562257  1
  In  In30  1  0.83485431  0.00038393  0.38275459  1
  In  In31  1  0.82157791  -0.00596118  0.87842678  1
  In  In32  1  0.83126440  0.33691763  0.37624987  1
  In  In33  1  0.84292837  0.34524900  0.87217002  1
  In  In34  1  0.83936193  0.66661646  0.37740239  1
  In  In35  1  0.81962186  0.67567321  0.87794783  1
  In  In36  1  -0.00576626  0.16200280  0.37562993  1
  In  In37  1  -0.00015989  0.18630725  0.87995762  1
  In  In38  1  -0.00692804  0.49978753  0.37500899  1
  In  In39  1  -0.00222993  0.48214711  0.87638101  1
  In  In40  1  -0.01074660  0.82148430  0.37090099  1
  In  In41  1  -0.00504950  0.83399630  0.88279394  1
  In  In42  1  0.32640427  0.17493743  0.35744794  1
  In  In43  1  0.31857326  0.18867706  0.89596629  1
  In  In44  1  0.33458048  0.48213072  0.36940411  1
  In  In45  1  0.33843257  0.49931091  0.87876510  1
  In  In46  1  0.33346949  0.84022852  0.36761726  1
  In  In47  1  0.33626183  0.82774062  0.88851432  1
  In  In48  1  0.67036483  0.18081470  0.37241757  1
  In  In49  1  0.65387352  0.17038104  0.87970503  1
  In  In50  1  0.70051505  0.52494448  0.34187664  1
  In  In51  1  0.67058835  0.50256410  0.87432220  1
  In  In52  1  0.67409290  0.82637291  0.37868650  1
  In  In53  1  0.67485605  0.81922223  0.88236159  1
  In  In54  1  0.18216660  0.01302554  0.11841230  1
  In  In55  1  0.16739978  -0.00887732  0.62872532  1
  In  In56  1  0.18236362  0.31490719  0.14966148  1
  In  In57  1  0.15041244  0.35136696  0.64199011  1
  In  In58  1  0.14868112  0.65619127  0.12838272  1
  In  In59  1  0.17731495  0.65418014  0.62101322  1
  In  In60  1  0.48587535  -0.01119771  0.12229916  1
  In  In61  1  0.51403888  -0.00362315  0.62438649  1
  In  In62  1  0.49883107  0.33673387  0.11299694  1
  In  In63  1  0.49559223  0.34068871  0.63601366  1
  In  In64  1  0.51109087  0.67203903  0.12147012  1
  In  In65  1  0.50396857  0.67868687  0.62226471  1
  In  In66  1  0.84605448  -0.00965751  0.12342561  1
  In  In67  1  0.82416142  -0.00054395  0.61556607  1
  In  In68  1  0.82491516  0.35958265  0.14650820  1
  In  In69  1  0.83391397  0.33801524  0.62132616  1
  In  In70  1  0.82750346  0.65656995  0.13251836  1
  In  In71  1  0.82997852  0.65987344  0.62207296  1
  In  In72  1  0.16226723  0.49564370  0.00847544  1
  In  In73  1  0.83856320  0.16523906  0.00152140  1
  In  In74  1  0.16446094  0.17114279  0.49670174  1
  In  In75  1  -0.00912625  0.01059969  0.76159583  1
  In  In76  1  0.33265327  0.66138467  0.24217262  1
  In  In77  1  0.65914612  -0.00305694  0.24577350  1
  In  In78  1  0.33994792  0.65517795  0.75921063  1
  In  In79  1  -0.00274941  0.65946428  0.74364995  1
  In  In80  1  0.00850321  0.00655221  0.24751460  1
  In  In81  1  0.16157045  0.82722696  0.48525693  1
  In  In82  1  0.66552282  0.00774262  0.74983147  1
  In  In83  1  0.50778983  0.49957663  0.49212735  1
  In  In84  1  0.33367929  0.00907041  0.74893209  1
  In  In85  1  0.50427795  0.16380059  0.49839339  1
  Cu  Cu86  1  -0.00282873  0.33873638  0.49849873  1
  Cu  Cu87  1  0.33512618  0.66290975  0.49774500  1
  Cu  Cu88  1  0.82914385  0.82529504  0.24829734  1
  Cu  Cu89  1  0.16435416  0.82741521  0.75705492  1
  Cu  Cu90  1  0.50844548  0.83290036  0.75160637  1
  Cu  Cu91  1  -0.00839832  0.00404384  0.50092180  1
  Cu  Cu92  1  -0.00195842  0.66446890  0.49649448  1
  Cu  Cu93  1  0.17056033  0.84261611  0.24179417  1
  Cu  Cu94  1  0.49282281  0.18070006  0.76039060  1
  Cu  Cu95  1  0.83458981  0.17118198  0.25075938  1
  Cu  Cu96  1  -0.00969311  0.66213245  0.00611947  1
  Cu  Cu97  1  0.67048198  0.34100218  0.49533996  1
  Cu  Cu98  1  0.66494501  -0.00660898  0.49768999  1
  Cu  Cu99  1  0.67196491  0.66409536  0.49513507  1
  Cu  Cu100  1  0.83261745  0.50031707  0.74793895  1
  Cu  Cu101  1  0.32609812  0.33095793  0.49292188  1
  Cu  Cu102  1  0.16970552  0.17754103  0.75784490  1
  Cu  Cu103  1  0.66628125  -0.00839968  0.00420855  1
  Cu  Cu104  1  0.33279785  0.66841421  0.00814414  1
  Cu  Cu105  1  0.33357323  -0.00842306  0.49414865  1
  Cu  Cu106  1  0.49457708  0.16787300  0.24168646  1
  Cu  Cu107  1  0.33502472  0.00066464  0.00368045  1
  Cu  Cu108  1  0.00643983  -0.00668164  0.00252794  1
  Cu  Cu109  1  0.67133632  0.66228394  0.00246981  1
  Cu  Cu110  1  0.49933673  0.49247169  0.24086002  1
  Cu  Cu111  1  0.50607664  0.50312422  0.75688422  1
  Cu  Cu112  1  0.66977743  0.34437728  0.00098504  1
  Cu  Cu113  1  -0.00105611  0.33636036  0.00828479  1
  Cu  Cu114  1  0.83433800  0.17778764  0.74449441  1
  Se  Se115  1  0.08409026  0.08391792  0.05247247  1
  Se  Se116  1  0.07936229  0.07485466  0.56077094  1
  Se  Se117  1  0.07738536  0.41047756  0.07367081  1
  Se  Se118  1  0.08596079  0.41430357  0.55459631  1
  Se  Se119  1  0.08353699  0.74240622  0.05212957  1
  Se  Se120  1  0.08063471  0.74314024  0.55930626  1
  Se  Se121  1  0.41810440  0.08520101  0.05555893  1
  Se  Se122  1  0.40961490  0.07168382  0.55819526  1
  Se  Se123  1  0.41921695  0.41950297  0.04193958  1
  Se  Se124  1  0.41511805  0.40733075  0.55085078  1
  Se  Se125  1  0.42076606  0.75217774  0.05579601  1
  Se  Se126  1  0.41909680  0.74844767  0.54689350  1
  Se  Se127  1  0.74644065  0.07535335  0.06271704  1
  Se  Se128  1  0.74127852  0.08520151  0.54977880  1
  Se  Se129  1  0.75586359  0.41893767  0.05889628  1
  Se  Se130  1  0.75223143  0.42299954  0.55154340  1
  Se  Se131  1  0.75345471  0.74404598  0.05937569  1
  Se  Se132  1  0.75070148  0.74758535  0.55389430  1
  Se  Se133  1  0.24283460  0.25845709  0.06024770  1
  Se  Se134  1  0.25034208  0.25893848  0.56083815  1
  Se  Se135  1  0.25582121  0.58484308  0.06675528  1
  Se  Se136  1  0.25065622  0.57660839  0.54507089  1
  Se  Se137  1  0.25129215  0.91360229  0.05415617  1
  Se  Se138  1  0.25281761  0.91236186  0.55517507  1
  Se  Se139  1  0.58682368  0.25269583  0.04543857  1
  Se  Se140  1  0.58459410  0.26561363  0.55642917  1
  Se  Se141  1  0.58402677  0.58021554  0.05299527  1
  Se  Se142  1  0.59223539  0.58601871  0.55925282  1
  Se  Se143  1  0.58205126  0.91157131  0.05927038  1
  Se  Se144  1  0.58213168  0.91098460  0.55194665  1
  Se  Se145  1  0.91167117  0.26023791  0.06778581  1
  Se  Se146  1  0.91605017  0.25227357  0.55167564  1
  Se  Se147  1  0.91642308  0.57644847  0.06376039  1
  Se  Se148  1  0.91458049  0.58245437  0.55161564  1
  Se  Se149  1  0.91528599  0.91072033  0.04705524  1
  Se  Se150  1  0.91300101  0.91495300  0.55254044  1
  Se  Se151  1  0.07884014  0.26177837  0.43602417  1
  Se  Se152  1  0.08342951  0.25366222  0.95512570  1
  Se  Se153  1  0.08171960  0.58068988  0.44485378  1
  Se  Se154  1  0.07268951  0.58478478  0.94323418  1
  Se  Se155  1  0.06982873  0.92795753  0.43598445  1
  Se  Se156  1  0.08803786  0.90858836  0.94841666  1
  Se  Se157  1  0.41050673  0.25073218  0.43712508  1
  Se  Se158  1  0.43872354  0.23435177  0.94656247  1
  Se  Se159  1  0.41274222  0.58622980  0.43272718  1
  Se  Se160  1  0.41124463  0.58623441  0.94913740  1
  Se  Se161  1  0.41836522  0.90927157  0.44356414  1
  Se  Se162  1  0.41907852  0.91513479  0.95184232  1
  Se  Se163  1  0.75188193  0.24921907  0.44813235  1
  Se  Se164  1  0.74941503  0.25811421  0.94164368  1
  Se  Se165  1  0.74895329  0.57873553  0.43840329  1
  Se  Se166  1  0.75462149  0.58027412  0.94715214  1
  Se  Se167  1  0.75353086  0.91263302  0.44720141  1
  Se  Se168  1  0.75085755  0.91047333  0.95107566  1
  Se  Se169  1  0.25798534  0.07912063  0.43840705  1
  Se  Se170  1  0.24745444  0.08459040  0.95411648  1
  Se  Se171  1  0.24268408  0.41274720  0.43916806  1
  Se  Se172  1  0.25109712  0.41148286  0.94401007  1
  Se  Se173  1  0.25481104  0.73645219  0.43064661  1
  Se  Se174  1  0.24660793  0.74784456  0.95340771  1
  Se  Se175  1  0.58959545  0.07457507  0.43391407  1
  Se  Se176  1  0.58835308  0.08064882  0.95198817  1
  Se  Se177  1  0.59443342  0.41457504  0.42884404  1
  Se  Se178  1  0.58553490  0.42391019  0.94450715  1
  Se  Se179  1  0.58399968  0.74655067  0.44602693  1
  Se  Se180  1  0.58429766  0.74877042  0.95231518  1
  Se  Se181  1  0.91061466  0.09086858  0.45018611  1
  Se  Se182  1  0.92742496  0.07363740  0.93833379  1
  Se  Se183  1  0.91069804  0.42079831  0.44705539  1
  Se  Se184  1  0.91451368  0.41669813  0.95345059  1
  Se  Se185  1  0.91416656  0.75445083  0.45079952  1
  Se  Se186  1  0.91314168  0.74645505  0.94734394  1
  Se  Se187  1  0.25455267  0.26669642  0.29244128  1
  Se  Se188  1  0.25200149  0.25792776  0.81248938  1
  Se  Se189  1  0.24636027  0.57546787  0.30762327  1
  Se  Se190  1  0.23814481  0.56625599  0.80643625  1
  Se  Se191  1  0.25685580  0.92184230  0.29434789  1
  Se  Se192  1  0.25161845  0.90831645  0.80983113  1
  Se  Se193  1  0.58199845  0.24373051  0.29782035  1
  Se  Se194  1  0.58689811  0.25801775  0.80704377  1
  Se  Se195  1  0.57905500  0.57934954  0.29354462  1
  Se  Se196  1  0.58840629  0.59036536  0.80575339  1
  Se  Se197  1  0.57849868  0.90634610  0.30991929  1
  Se  Se198  1  0.58012889  0.91765977  0.81347936  1
  Se  Se199  1  0.91464459  0.24861825  0.30958948  1
  Se  Se200  1  0.91845428  0.25362620  0.80342785  1
  Se  Se201  1  0.93985168  0.60775022  0.30947475  1
  Se  Se202  1  0.91086856  0.57779934  0.81229467  1
  Se  Se203  1  0.90804733  0.91635484  0.30263613  1
  Se  Se204  1  0.90396225  0.90682899  0.80767637  1
  Se  Se205  1  0.09829078  0.09665275  0.30762502  1
  Se  Se206  1  0.09469219  0.09054931  0.81640691  1
  Se  Se207  1  0.05293060  0.40611705  0.29909396  1
  Se  Se208  1  0.08078639  0.41583916  0.80223072  1
  Se  Se209  1  0.08765530  0.76529116  0.30028813  1
  Se  Se210  1  0.08551809  0.74539796  0.81410969  1
  Se  Se211  1  0.41484210  0.08584934  0.29851147  1
  Se  Se212  1  0.41530530  0.09403811  0.81634927  1
  Se  Se213  1  0.41456281  0.41055221  0.29402425  1
  Se  Se214  1  0.42048113  0.42068703  0.80802779  1
  Se  Se215  1  0.42084311  0.75006864  0.30449215  1
  Se  Se216  1  0.42587832  0.75536389  0.81279703  1
  Se  Se217  1  0.75534228  0.08347255  0.30624780  1
  Se  Se218  1  0.75881607  0.09847556  0.80945612  1
  Se  Se219  1  0.73574758  0.39454566  0.30255611  1
  Se  Se220  1  0.75070854  0.41684025  0.80387524  1
  Se  Se221  1  0.75046469  0.74454585  0.30653044  1
  Se  Se222  1  0.74650826  0.75230394  0.80162854  1
  Se  Se223  1  0.25337645  0.08612765  0.19506116  1
  Se  Se224  1  0.23897705  0.09851909  0.68942700  1
  Se  Se225  1  0.22859501  0.43983090  0.19620197  1
  Se  Se226  1  0.26611695  0.40798810  0.69353875  1
  Se  Se227  1  0.24422565  0.75531259  0.18314785  1
  Se  Se228  1  0.24571164  0.74964983  0.69677325  1
  Se  Se229  1  0.57917834  0.09124492  0.18213013  1
  Se  Se230  1  0.56949773  0.10165592  0.69442520  1
  Se  Se231  1  0.58351863  0.41126075  0.18638088  1
  Se  Se232  1  0.58599948  0.41774401  0.70043500  1
  Se  Se233  1  0.58378812  0.74037608  0.20262171  1
  Se  Se234  1  0.58729585  0.74892008  0.69690357  1
  Se  Se235  1  0.91276964  0.09365036  0.18811595  1
  Se  Se236  1  0.90954912  0.09057831  0.68634379  1
  Se  Se237  1  0.93255350  0.41089816  0.21132547  1
  Se  Se238  1  0.91653867  0.41827378  0.69309952  1
  Se  Se239  1  0.91607021  0.74680992  0.19435679  1
  Se  Se240  1  0.90805240  0.75757163  0.69272235  1
  Se  Se241  1  0.07626334  0.24691965  0.20660708  1
  Se  Se242  1  0.07824930  0.25140607  0.70393509  1
  Se  Se243  1  0.07463993  0.59593380  0.21042905  1
  Se  Se244  1  0.09415891  0.57147635  0.69012853  1
  Se  Se245  1  0.08452324  0.91488091  0.17993451  1
  Se  Se246  1  0.08349202  0.91169686  0.70157340  1
  Se  Se247  1  0.41866168  0.25530365  0.18600971  1
  Se  Se248  1  0.40926233  0.25790307  0.70234933  1
  Se  Se249  1  0.41886087  0.57138226  0.17954128  1
  Se  Se250  1  0.42746930  0.57643722  0.68760293  1
  Se  Se251  1  0.41986393  0.91425190  0.20278428  1
  Se  Se252  1  0.42329760  0.90932854  0.69261359  1
  Se  Se253  1  0.74890026  0.25284415  0.19893641  1
  Se  Se254  1  0.74754895  0.25735352  0.69197496  1
  Se  Se255  1  0.75310941  0.57068677  0.20384068  1
  Se  Se256  1  0.74938598  0.58711612  0.69788102  1
  Se  Se257  1  0.75354029  0.90807076  0.18768655  1
  Se  Se258  1  0.75374807  0.91514607  0.69254184  1
