# generated using pymatgen
data_In86Cu29Se144
_symmetry_space_group_name_H-M   'P 1'
_cell_length_a   17.64031868
_cell_length_b   17.63332548
_cell_length_c   23.50156231
_cell_angle_alpha   90.00327245
_cell_angle_beta   90.01605061
_cell_angle_gamma   90.01103248
_symmetry_Int_Tables_number   1
_chemical_formula_structural   In86Cu29Se144
_chemical_formula_sum   'In86 Cu29 Se144'
_cell_volume   7310.33633169
_cell_formula_units_Z   1
loop_
 _symmetry_equiv_pos_site_id
 _symmetry_equiv_pos_as_xyz
  1  'x, y, z'
loop_
 _atom_site_type_symbol
 _atom_site_label
 _atom_site_symmetry_multiplicity
 _atom_site_fract_x
 _atom_site_fract_y
 _atom_site_fract_z
 _atom_site_occupancy
  In  In0  1  -0.01021598  0.15314277  0.10555137  1
  In  In1  1  0.01298373  0.16544559  0.62571113  1
  In  In2  1  -0.00983343  0.51834596  0.12251983  1
  In  In3  1  -0.00984683  0.50824117  0.63284881  1
  In  In4  1  0.00836367  0.83432609  0.10972006  1
  In  In5  1  -0.00386942  0.81972238  0.61136397  1
  In  In6  1  0.32400177  0.17163463  0.12842817  1
  In  In7  1  0.34079902  0.17869997  0.61543250  1
  In  In8  1  0.32555404  0.50138440  0.13704048  1
  In  In9  1  0.34226483  0.49218593  0.62798951  1
  In  In10  1  0.27334967  0.87128834  0.18440949  1
  In  In11  1  0.31607353  0.82041309  0.61393405  1
  In  In12  1  0.67562741  0.15734391  0.12644825  1
  In  In13  1  0.66082639  0.17689165  0.62930547  1
  In  In14  1  0.68083071  0.51069792  0.12651285  1
  In  In15  1  0.65936119  0.49415897  0.61742677  1
  In  In16  1  0.66908616  0.81770000  0.13219393  1
  In  In17  1  0.66738463  0.83249336  0.61649672  1
  In  In18  1  0.16527069  -0.00186443  0.36937993  1
  In  In19  1  0.15156000  0.00458418  0.89727294  1
  In  In20  1  0.16306296  0.32065320  0.37747776  1
  In  In21  1  0.16467860  0.33447349  0.86655171  1
  In  In22  1  0.17242939  0.66778626  0.37606496  1
  In  In23  1  0.17441201  0.67074539  0.87111343  1
  In  In24  1  0.49011370  0.01130434  0.38104562  1
  In  In25  1  0.49250317  0.00223161  0.87369182  1
  In  In26  1  0.49147324  0.34260569  0.38595621  1
  In  In27  1  0.50302943  0.32492552  0.85599226  1
  In  In28  1  0.50294866  0.66345361  0.38075035  1
  In  In29  1  0.48785343  0.67555581  0.87011421  1
  In  In30  1  0.83461473  -0.02555581  0.36643237  1
  In  In31  1  0.86199894  -0.01728773  0.89554954  1
  In  In32  1  0.83806606  0.34052851  0.37641412  1
  In  In33  1  0.83651626  0.33507071  0.87287304  1
  In  In34  1  0.82509399  0.68009646  0.37180631  1
  In  In35  1  0.85333266  0.64433229  0.89341892  1
  In  In36  1  0.01426666  0.16078703  0.37511782  1
  In  In37  1  -0.00499192  0.17443092  0.88304413  1
  In  In38  1  -0.01197378  0.51595003  0.38609844  1
  In  In39  1  -0.00308458  0.49021991  0.86505689  1
  In  In40  1  -0.00748999  0.83899777  0.36978568  1
  In  In41  1  0.01668908  0.81473928  0.89254040  1
  In  In42  1  0.32739433  0.16816523  0.37232062  1
  In  In43  1  0.32475675  0.16202641  0.87356569  1
  In  In44  1  0.34180115  0.50791460  0.37067331  1
  In  In45  1  0.33713371  0.50186653  0.86717273  1
  In  In46  1  0.33336001  0.83229290  0.37511806  1
  In  In47  1  0.32086514  0.82682523  0.87395641  1
  In  In48  1  0.66315674  0.15343836  0.37515055  1
  In  In49  1  0.67902481  0.17818351  0.86929516  1
  In  In50  1  0.66610582  0.50403895  0.37968098  1
  In  In51  1  0.67703629  0.49505005  0.87240175  1
  In  In52  1  0.67952421  0.81800743  0.37983965  1
  In  In53  1  0.67613936  0.83986803  0.87122067  1
  In  In54  1  0.16460181  0.00719711  0.11527241  1
  In  In55  1  0.16311878  0.00017229  0.61476219  1
  In  In56  1  0.17568860  0.33035209  0.12245206  1
  In  In57  1  0.17684232  0.32860037  0.63126178  1
  In  In58  1  0.16008345  0.70351574  0.13611231  1
  In  In59  1  0.16054990  0.67318266  0.63070406  1
  In  In60  1  0.49374509  -0.02080322  0.13243312  1
  In  In61  1  0.49210903  -0.00444310  0.61180426  1
  In  In62  1  0.49298648  0.32720105  0.12774795  1
  In  In63  1  0.49712553  0.33266779  0.62355120  1
  In  In64  1  0.48715539  0.67327438  0.13734365  1
  In  In65  1  0.49057626  0.65699129  0.61480444  1
  In  In66  1  0.84404707  0.00075725  0.11830154  1
  In  In67  1  0.84353608  -0.01088345  0.62185288  1
  In  In68  1  0.84258928  0.34208939  0.11654931  1
  In  In69  1  0.82190996  0.34214934  0.63468891  1
  In  In70  1  0.83428309  0.66412171  0.11895364  1
  In  In71  1  0.84071252  0.66669696  0.61655656  1
  In  In72  1  -0.00312510  0.67413600  0.25205193  1
  In  In73  1  0.32837026  0.00181490  0.75212402  1
  In  In74  1  0.16231104  0.50364841  0.00241909  1
  In  In75  1  0.00288357  -0.00073975  0.75669343  1
  In  In76  1  0.66947065  0.01049101  0.75236554  1
  In  In77  1  0.00903746  0.33658836  0.24725665  1
  In  In78  1  0.50280858  0.82626614  0.00753875  1
  In  In79  1  0.66305726  -0.00185460  0.25049464  1
  In  In80  1  0.50496726  0.16507895  0.00019128  1
  In  In81  1  0.16372920  0.50226900  0.50057881  1
  In  In82  1  0.66340392  0.66361417  0.74703525  1
  In  In83  1  0.66405757  0.33476906  0.25565142  1
  In  In84  1  0.50440930  0.50476732  -0.00766862  1
  In  In85  1  0.83299990  0.16294246  0.50521408  1
  Cu  Cu86  1  0.16623441  0.16437297  0.24894444  1
  Cu  Cu87  1  0.16070475  0.83418607  0.75054687  1
  Cu  Cu88  1  0.66274368  -0.00347481  0.49652414  1
  Cu  Cu89  1  0.33667000  0.66427504  0.49680872  1
  Cu  Cu90  1  0.49890828  0.49847770  0.74078860  1
  Cu  Cu91  1  0.17176026  0.17311679  0.74958887  1
  Cu  Cu92  1  0.83529866  0.82202065  0.74716119  1
  Cu  Cu93  1  0.16320825  0.49938286  0.25429413  1
  Cu  Cu94  1  0.84522702  0.16551703  0.24160129  1
  Cu  Cu95  1  0.33296295  -0.00774938  0.00988865  1
  Cu  Cu96  1  0.32590889  0.00195698  0.49260562  1
  Cu  Cu97  1  0.83358526  0.49747659  0.75168203  1
  Cu  Cu98  1  0.32989416  0.33008964  0.50340349  1
  Cu  Cu99  1  -0.00176792  -0.00625676  0.49432369  1
  Cu  Cu100  1  0.49968620  0.83115148  0.26182639  1
  Cu  Cu101  1  0.67188190  0.66678609  0.49877193  1
  Cu  Cu102  1  0.50131779  0.49521829  0.25903486  1
  Cu  Cu103  1  0.83768973  0.16678151  0.75850088  1
  Cu  Cu104  1  -0.00071771  0.33709761  0.50143903  1
  Cu  Cu105  1  0.32113493  0.67819842  0.00655832  1
  Cu  Cu106  1  0.33896772  0.33679465  -0.00087665  1
  Cu  Cu107  1  0.00151694  0.33626602  -0.00789490  1
  Cu  Cu108  1  0.66641029  0.33176786  0.50485773  1
  Cu  Cu109  1  0.66936922  0.66708454  0.00260325  1
  Cu  Cu110  1  0.67693354  0.33440439  -0.00324765  1
  Cu  Cu111  1  0.48643182  0.16812122  0.25225049  1
  Cu  Cu112  1  0.49029461  0.83312307  0.74458542  1
  Cu  Cu113  1  0.17001080  0.50470873  0.74676791  1
  Cu  Cu114  1  0.67760984  0.00323403  -0.00009509  1
  Se  Se115  1  0.10154438  0.10287149  0.04662766  1
  Se  Se116  1  0.07585909  0.08132852  0.54857343  1
  Se  Se117  1  0.07259838  0.41201529  0.06256210  1
  Se  Se118  1  0.08007566  0.41225770  0.56482923  1
  Se  Se119  1  0.06789910  0.71994503  0.05435942  1
  Se  Se120  1  0.10590743  0.76244797  0.55389568  1
  Se  Se121  1  0.41847521  0.07527760  0.06300074  1
  Se  Se122  1  0.40959314  0.08319271  0.54826550  1
  Se  Se123  1  0.41407982  0.42017766  0.05832476  1
  Se  Se124  1  0.41626060  0.41511464  0.55193436  1
  Se  Se125  1  0.40368760  0.75367185  0.06733591  1
  Se  Se126  1  0.41679827  0.75229613  0.55046229  1
  Se  Se127  1  0.75762671  0.08807323  0.05304120  1
  Se  Se128  1  0.74044645  0.07218905  0.56393230  1
  Se  Se129  1  0.74853525  0.42134259  0.05492032  1
  Se  Se130  1  0.75304547  0.41510827  0.55385439  1
  Se  Se131  1  0.74942885  0.75335702  0.05395369  1
  Se  Se132  1  0.75403771  0.75085415  0.55240054  1
  Se  Se133  1  0.25609696  0.25192907  0.05019022  1
  Se  Se134  1  0.24073821  0.24809404  0.55148028  1
  Se  Se135  1  0.24916990  0.59015306  0.06594240  1
  Se  Se136  1  0.25712563  0.58683360  0.56159444  1
  Se  Se137  1  0.26671763  0.91127903  0.07484174  1
  Se  Se138  1  0.24711735  0.91792538  0.54876360  1
  Se  Se139  1  0.59566384  0.25841692  0.06004428  1
  Se  Se140  1  0.58106584  0.24810214  0.55414470  1
  Se  Se141  1  0.58143652  0.59376299  0.06131587  1
  Se  Se142  1  0.58515031  0.58417833  0.55028498  1
  Se  Se143  1  0.59612776  0.92330675  0.06033625  1
  Se  Se144  1  0.58062484  0.91171149  0.54961688  1
  Se  Se145  1  0.91648078  0.25553233  0.04747615  1
  Se  Se146  1  0.91986072  0.25649022  0.56415850  1
  Se  Se147  1  0.91344225  0.58558099  0.04583860  1
  Se  Se148  1  0.91890688  0.57590510  0.55282642  1
  Se  Se149  1  0.92739322  0.92514222  0.04778842  1
  Se  Se150  1  0.91453978  0.91047856  0.54711969  1
  Se  Se151  1  0.07821558  0.24907533  0.45009145  1
  Se  Se152  1  0.09106457  0.25684918  0.94245613  1
  Se  Se153  1  0.07533147  0.60225248  0.44969631  1
  Se  Se154  1  0.07968707  0.58333544  0.93275058  1
  Se  Se155  1  0.08190824  0.91606695  0.43831387  1
  Se  Se156  1  0.08494601  0.90773398  0.96013021  1
  Se  Se157  1  0.41029552  0.24793782  0.44492568  1
  Se  Se158  1  0.41754488  0.25614970  0.93883885  1
  Se  Se159  1  0.42005443  0.57649697  0.44871755  1
  Se  Se160  1  0.40202004  0.59893098  0.94562447  1
  Se  Se161  1  0.41335447  0.91798183  0.44456532  1
  Se  Se162  1  0.41153299  0.91745819  0.94392541  1
  Se  Se163  1  0.74455868  0.25296328  0.44053760  1
  Se  Se164  1  0.75796949  0.24951222  0.94463870  1
  Se  Se165  1  0.75490179  0.58707824  0.44260671  1
  Se  Se166  1  0.74366089  0.57712642  0.94841003  1
  Se  Se167  1  0.75037670  0.91664892  0.44534744  1
  Se  Se168  1  0.75167044  0.91219345  0.94767730  1
  Se  Se169  1  0.24276003  0.08488795  0.43919148  1
  Se  Se170  1  0.26054620  0.07714782  0.94934972  1
  Se  Se171  1  0.25338709  0.41230491  0.43990287  1
  Se  Se172  1  0.25745528  0.41750276  0.94090180  1
  Se  Se173  1  0.25320109  0.74826169  0.44620744  1
  Se  Se174  1  0.23968237  0.75654800  0.94914529  1
  Se  Se175  1  0.58095800  0.08666825  0.45053833  1
  Se  Se176  1  0.59356359  0.07570672  0.93793047  1
  Se  Se177  1  0.58783487  0.41629453  0.44784826  1
  Se  Se178  1  0.58626417  0.40242412  0.93692789  1
  Se  Se179  1  0.58543845  0.74934021  0.44774198  1
  Se  Se180  1  0.59090618  0.74286317  0.93745610  1
  Se  Se181  1  0.91503475  0.07706103  0.43681149  1
  Se  Se182  1  0.92895138  0.08455745  0.95392210  1
  Se  Se183  1  0.91492409  0.41864511  0.44958745  1
  Se  Se184  1  0.91647903  0.42052394  0.94227743  1
  Se  Se185  1  0.91908990  0.75025325  0.43802617  1
  Se  Se186  1  0.89469515  0.76742417  0.94161885  1
  Se  Se187  1  0.24487551  0.25213868  0.30192344  1
  Se  Se188  1  0.25681279  0.25292908  0.80369715  1
  Se  Se189  1  0.24823286  0.58234811  0.30602730  1
  Se  Se190  1  0.25363311  0.58642151  0.80211448  1
  Se  Se191  1  0.25049387  0.91235823  0.30481508  1
  Se  Se192  1  0.23104652  0.92081075  0.81321985  1
  Se  Se193  1  0.57342379  0.24198583  0.31173141  1
  Se  Se194  1  0.58827925  0.23699016  0.79740211  1
  Se  Se195  1  0.58380105  0.58142313  0.30851298  1
  Se  Se196  1  0.57215276  0.57491055  0.81049047  1
  Se  Se197  1  0.58026453  0.91471649  0.31906252  1
  Se  Se198  1  0.57255198  0.90981613  0.80420064  1
  Se  Se199  1  0.91624540  0.24541014  0.30832421  1
  Se  Se200  1  0.92367172  0.25215408  0.80592956  1
  Se  Se201  1  0.90708497  0.57917193  0.30582641  1
  Se  Se202  1  0.91402486  0.58470029  0.80385571  1
  Se  Se203  1  0.92892759  0.92512281  0.29347032  1
  Se  Se204  1  0.91528784  0.90146740  0.80919557  1
  Se  Se205  1  0.08146975  0.08033052  0.29887047  1
  Se  Se206  1  0.09446109  0.09175763  0.81263577  1
  Se  Se207  1  0.08265970  0.42838419  0.31917508  1
  Se  Se208  1  0.08661709  0.41736803  0.79675652  1
  Se  Se209  1  0.09463692  0.75853721  0.30691777  1
  Se  Se210  1  0.08102851  0.74968138  0.80642533  1
  Se  Se211  1  0.40873191  0.08025945  0.30448708  1
  Se  Se212  1  0.42571365  0.09488016  0.80288206  1
  Se  Se213  1  0.41478335  0.41023723  0.30613702  1
  Se  Se214  1  0.41765748  0.41764745  0.79942478  1
  Se  Se215  1  0.41783161  0.74374363  0.31179360  1
  Se  Se216  1  0.40634775  0.75476277  0.80073943  1
  Se  Se217  1  0.76188084  0.09037334  0.30471942  1
  Se  Se218  1  0.77075051  0.07577398  0.81850667  1
  Se  Se219  1  0.75909355  0.42587475  0.30623355  1
  Se  Se220  1  0.74914339  0.41123222  0.80081913  1
  Se  Se221  1  0.75002485  0.75666272  0.29639440  1
  Se  Se222  1  0.75655206  0.74483422  0.80960852  1
  Se  Se223  1  0.24657987  0.08130734  0.19293480  1
  Se  Se224  1  0.24267337  0.08854277  0.68688769  1
  Se  Se225  1  0.24214081  0.41275622  0.19993279  1
  Se  Se226  1  0.25397428  0.41796757  0.69753444  1
  Se  Se227  1  0.27603245  0.72497874  0.19858276  1
  Se  Se228  1  0.24837271  0.75364698  0.69872055  1
  Se  Se229  1  0.57015107  0.09147961  0.19149475  1
  Se  Se230  1  0.57185459  0.08041540  0.68682821  1
  Se  Se231  1  0.57799622  0.42239519  0.18934034  1
  Se  Se232  1  0.58467072  0.41500227  0.69176633  1
  Se  Se233  1  0.57826436  0.75080973  0.20242442  1
  Se  Se234  1  0.57481410  0.75522219  0.68740524  1
  Se  Se235  1  0.92591601  0.08157344  0.18956469  1
  Se  Se236  1  0.91131648  0.08735317  0.69281989  1
  Se  Se237  1  0.91262957  0.42735214  0.19418058  1
  Se  Se238  1  0.91808100  0.41369014  0.69947938  1
  Se  Se239  1  0.91655750  0.75968779  0.18359780  1
  Se  Se240  1  0.91953062  0.74721012  0.68949962  1
  Se  Se241  1  0.08527970  0.24012835  0.18493454  1
  Se  Se242  1  0.08339134  0.25153045  0.69750292  1
  Se  Se243  1  0.09020610  0.58152242  0.19185169  1
  Se  Se244  1  0.08183138  0.58619186  0.69768301  1
  Se  Se245  1  0.10781139  0.89540836  0.17911768  1
  Se  Se246  1  0.08404426  0.91333823  0.68792037  1
  Se  Se247  1  0.40805239  0.25364304  0.19740036  1
  Se  Se248  1  0.40991728  0.25469495  0.69164638  1
  Se  Se249  1  0.41819562  0.57540575  0.20197842  1
  Se  Se250  1  0.41579806  0.58788874  0.69463944  1
  Se  Se251  1  0.41596806  0.91461570  0.20979648  1
  Se  Se252  1  0.40981706  0.91193457  0.68571872  1
  Se  Se253  1  0.75948385  0.24995014  0.19109358  1
  Se  Se254  1  0.75375293  0.24226393  0.69922045  1
  Se  Se255  1  0.74775700  0.59974041  0.19524632  1
  Se  Se256  1  0.75456914  0.57587699  0.68781924  1
  Se  Se257  1  0.75533501  0.91649348  0.18872003  1
  Se  Se258  1  0.75521958  0.90889841  0.69409460  1
