# generated using pymatgen
data_In86Cu29Se144
_symmetry_space_group_name_H-M   'P 1'
_cell_length_a   17.57272485
_cell_length_b   17.57319309
_cell_length_c   23.42808050
_cell_angle_alpha   89.96868402
_cell_angle_beta   89.97492048
_cell_angle_gamma   90.01505068
_symmetry_Int_Tables_number   1
_chemical_formula_structural   In86Cu29Se144
_chemical_formula_sum   'In86 Cu29 Se144'
_cell_volume   7234.79743816
_cell_formula_units_Z   1
loop_
 _symmetry_equiv_pos_site_id
 _symmetry_equiv_pos_as_xyz
  1  'x, y, z'
loop_
 _atom_site_type_symbol
 _atom_site_label
 _atom_site_symmetry_multiplicity
 _atom_site_fract_x
 _atom_site_fract_y
 _atom_site_fract_z
 _atom_site_occupancy
  In  In0  1  -0.00516937  0.18067656  0.12132901  1
  In  In1  1  -0.00839052  0.15861866  0.61726770  1
  In  In2  1  0.01230283  0.51213792  0.10707461  1
  In  In3  1  -0.01230495  0.49978124  0.62561699  1
  In  In4  1  0.00291472  0.81727731  0.12896180  1
  In  In5  1  0.00833223  0.84587366  0.62020352  1
  In  In6  1  0.33325448  0.16738721  0.13589591  1
  In  In7  1  0.31630177  0.16854112  0.61832286  1
  In  In8  1  0.33501032  0.50614106  0.12767156  1
  In  In9  1  0.35313978  0.49735439  0.62290410  1
  In  In10  1  0.33231998  0.82605981  0.12892497  1
  In  In11  1  0.34239964  0.82237290  0.63113019  1
  In  In12  1  0.66959908  0.15889663  0.12788425  1
  In  In13  1  0.68028549  0.16543776  0.62370979  1
  In  In14  1  0.66931407  0.50438812  0.12554750  1
  In  In15  1  0.65819898  0.51296980  0.63335034  1
  In  In16  1  0.65438755  0.83673390  0.12977344  1
  In  In17  1  0.65602956  0.81908565  0.61542503  1
  In  In18  1  0.18035535  -0.00137354  0.37046658  1
  In  In19  1  0.16127221  -0.00285568  0.87295979  1
  In  In20  1  0.16558496  0.32836550  0.37269828  1
  In  In21  1  0.17461055  0.33809577  0.88044735  1
  In  In22  1  0.17184169  0.66772902  0.35371749  1
  In  In23  1  0.17731379  0.65978243  0.88468280  1
  In  In24  1  0.49062306  -0.01703963  0.37252164  1
  In  In25  1  0.48331821  -0.00055116  0.87250165  1
  In  In26  1  0.49469807  0.34935776  0.37775573  1
  In  In27  1  0.50946493  0.33233682  0.87615607  1
  In  In28  1  0.50566251  0.66550998  0.37241784  1
  In  In29  1  0.49793544  0.66785485  0.88124820  1
  In  In30  1  0.82113034  0.00721719  0.37537102  1
  In  In31  1  0.84723065  -0.00696013  0.87403938  1
  In  In32  1  0.83128100  0.32805688  0.37893940  1
  In  In33  1  0.82074260  0.34747550  0.88869488  1
  In  In34  1  0.84266713  0.67990727  0.36663794  1
  In  In35  1  0.81730522  0.66576664  0.87630196  1
  In  In36  1  -0.00471715  0.17187766  0.38053358  1
  In  In37  1  0.00111648  0.15304882  0.87572900  1
  In  In38  1  0.00770752  0.50926653  0.36439024  1
  In  In39  1  -0.00273420  0.49802061  0.88882313  1
  In  In40  1  -0.00595452  0.81506173  0.37509183  1
  In  In41  1  0.00293580  0.84881757  0.87344837  1
  In  In42  1  0.32941563  0.15740679  0.37198516  1
  In  In43  1  0.34046368  0.16295688  0.87268965  1
  In  In44  1  0.34462129  0.51619090  0.35754200  1
  In  In45  1  0.32492077  0.51061985  0.88696457  1
  In  In46  1  0.33340059  0.84195728  0.36988574  1
  In  In47  1  0.33549395  0.83186687  0.88123508  1
  In  In48  1  0.68454595  0.16221040  0.37476275  1
  In  In49  1  0.66201063  0.18201852  0.87139991  1
  In  In50  1  0.64682204  0.50314758  0.37222284  1
  In  In51  1  0.66139564  0.50224513  0.88065082  1
  In  In52  1  0.66505224  0.83172154  0.37445554  1
  In  In53  1  0.66707379  0.81501843  0.87500438  1
  In  In54  1  0.18136722  -0.00724797  0.13133101  1
  In  In55  1  0.15759527  0.00176029  0.62881487  1
  In  In56  1  0.16648817  0.37707981  0.13462916  1
  In  In57  1  0.18255645  0.32925404  0.61757361  1
  In  In58  1  0.16688654  0.66194682  0.12714471  1
  In  In59  1  0.17186660  0.68270335  0.62553026  1
  In  In60  1  0.50519176  -0.00798289  0.13116396  1
  In  In61  1  0.50066438  -0.02192122  0.62326291  1
  In  In62  1  0.48464245  0.34239494  0.13371493  1
  In  In63  1  0.49538132  0.35894226  0.62334867  1
  In  In64  1  0.49369751  0.66529142  0.12989126  1
  In  In65  1  0.50049826  0.66567057  0.62389605  1
  In  In66  1  0.82256286  0.00350162  0.12632187  1
  In  In67  1  0.84007388  0.00764005  0.61860274  1
  In  In68  1  0.83998801  0.33463065  0.11238083  1
  In  In69  1  0.83565074  0.32153847  0.62733235  1
  In  In70  1  0.84261063  0.65680471  0.13152363  1
  In  In71  1  0.82219357  0.65791537  0.61937641  1
  In  In72  1  0.17222699  0.50374147  0.48771022  1
  In  In73  1  0.00319120  0.34113124  0.25173982  1
  In  In74  1  0.16466009  0.17189174  0.00370728  1
  In  In75  1  0.50378315  0.16462829  0.49726585  1
  In  In76  1  0.16684732  0.83566689  0.49294494  1
  In  In77  1  -0.00181488  -0.00531376  0.24347260  1
  In  In78  1  0.66032264  0.33458759  0.24631297  1
  In  In79  1  0.33882298  0.33228623  0.75062051  1
  In  In80  1  0.83482688  0.83038711  0.00082221  1
  In  In81  1  0.83095197  0.50017637  0.49764258  1
  In  In82  1  0.00083058  0.67118909  0.74896797  1
  In  In83  1  0.66727560  -0.00311738  0.74440191  1
  In  In84  1  0.00263859  0.32308854  0.75861004  1
  In  In85  1  0.50367498  0.16874667  -0.00113792  1
  Cu  Cu86  1  0.33527204  -0.00807619  0.00429737  1
  Cu  Cu87  1  0.66343262  0.66543905  0.49751860  1
  Cu  Cu88  1  0.50004743  0.83261658  0.25043278  1
  Cu  Cu89  1  0.33115393  -0.00291528  0.49706113  1
  Cu  Cu90  1  0.67039470  -0.00743305  0.49968533  1
  Cu  Cu91  1  0.00448060  0.66824910  0.00180829  1
  Cu  Cu92  1  0.83460426  0.16447080  0.74718973  1
  Cu  Cu93  1  0.00332268  -0.00056196  0.00040030  1
  Cu  Cu94  1  0.82339427  0.49831841  0.75803679  1
  Cu  Cu95  1  0.17753162  0.83653646  0.75308882  1
  Cu  Cu96  1  0.83094744  0.50027213  0.24844626  1
  Cu  Cu97  1  0.49813991  0.82612372  0.75080612  1
  Cu  Cu98  1  0.66555445  -0.00022708  0.00480199  1
  Cu  Cu99  1  0.66722511  0.33429505  0.49891153  1
  Cu  Cu100  1  0.66263530  0.66420611  0.00393629  1
  Cu  Cu101  1  -0.00255575  0.00400736  0.49818323  1
  Cu  Cu102  1  0.50299897  0.50901436  0.75429261  1
  Cu  Cu103  1  0.82409993  0.83492959  0.24817154  1
  Cu  Cu104  1  0.32854520  0.34264318  0.00919735  1
  Cu  Cu105  1  0.16242129  0.15677801  0.74507611  1
  Cu  Cu106  1  0.49700230  0.16587999  0.74931310  1
  Cu  Cu107  1  0.17325677  0.50938906  0.75537298  1
  Cu  Cu108  1  0.16566173  0.16652023  0.24992575  1
  Cu  Cu109  1  0.34093927  0.66218481  0.49643444  1
  Cu  Cu110  1  0.83253830  0.83280860  0.74745578  1
  Cu  Cu111  1  0.50557768  0.15919985  0.25673908  1
  Cu  Cu112  1  0.66288885  0.33861355  0.00239767  1
  Cu  Cu113  1  0.33442845  0.66830598  0.00852381  1
  Cu  Cu114  1  0.00722832  0.33282448  0.49974479  1
  Se  Se115  1  0.08153384  0.07533109  0.06555170  1
  Se  Se116  1  0.08542996  0.08221238  0.55257628  1
  Se  Se117  1  0.06941262  0.39592608  0.05536965  1
  Se  Se118  1  0.08122956  0.41827237  0.55929614  1
  Se  Se119  1  0.08795475  0.74942532  0.05514573  1
  Se  Se120  1  0.07657448  0.74348246  0.55237677  1
  Se  Se121  1  0.41252513  0.08119854  0.06009778  1
  Se  Se122  1  0.41414373  0.07386627  0.55940625  1
  Se  Se123  1  0.41886671  0.42391403  0.05612572  1
  Se  Se124  1  0.40488464  0.40758747  0.54603069  1
  Se  Se125  1  0.42066426  0.75327548  0.05720962  1
  Se  Se126  1  0.41737509  0.74852877  0.55359713  1
  Se  Se127  1  0.75001932  0.08612892  0.05129241  1
  Se  Se128  1  0.75060559  0.08281539  0.54938942  1
  Se  Se129  1  0.74818182  0.42138606  0.05443079  1
  Se  Se130  1  0.74522972  0.41343784  0.56403204  1
  Se  Se131  1  0.74571292  0.74505002  0.06368468  1
  Se  Se132  1  0.75101167  0.74652390  0.54905041  1
  Se  Se133  1  0.25129318  0.25845086  0.06806596  1
  Se  Se134  1  0.25002697  0.24932219  0.54234025  1
  Se  Se135  1  0.24840456  0.58052032  0.05549721  1
  Se  Se136  1  0.25580671  0.58951019  0.55911334  1
  Se  Se137  1  0.25047122  0.91010474  0.05649913  1
  Se  Se138  1  0.25410334  0.91666141  0.56202343  1
  Se  Se139  1  0.58473494  0.25857530  0.06557028  1
  Se  Se140  1  0.58717858  0.25642421  0.56255225  1
  Se  Se141  1  0.57918047  0.58390074  0.05967942  1
  Se  Se142  1  0.58228737  0.58095860  0.55355619  1
  Se  Se143  1  0.58017523  0.91612950  0.05343300  1
  Se  Se144  1  0.58134434  0.90992063  0.54697978  1
  Se  Se145  1  0.90992279  0.24015997  0.04528116  1
  Se  Se146  1  0.91760085  0.25317925  0.55132291  1
  Se  Se147  1  0.91088759  0.58738570  0.04810631  1
  Se  Se148  1  0.92747762  0.59233982  0.55110554  1
  Se  Se149  1  0.92357225  0.92033166  0.06323633  1
  Se  Se150  1  0.91778184  0.91741919  0.55154602  1
  Se  Se151  1  0.08750709  0.24836946  0.44576215  1
  Se  Se152  1  0.07504328  0.25598365  0.93911972  1
  Se  Se153  1  0.08242493  0.59982974  0.43501182  1
  Se  Se154  1  0.08708861  0.58124516  0.95050562  1
  Se  Se155  1  0.07403421  0.92514560  0.43387259  1
  Se  Se156  1  0.08766999  0.91622953  0.94884240  1
  Se  Se157  1  0.41197195  0.25096342  0.43882733  1
  Se  Se158  1  0.40437569  0.26116155  0.94527516  1
  Se  Se159  1  0.42040131  0.57934784  0.44052462  1
  Se  Se160  1  0.41741319  0.58514525  0.95254317  1
  Se  Se161  1  0.41368291  0.90881079  0.44946184  1
  Se  Se162  1  0.42247917  0.91473765  0.94976939  1
  Se  Se163  1  0.75179482  0.24861500  0.45077832  1
  Se  Se164  1  0.74122813  0.24935211  0.94885972  1
  Se  Se165  1  0.74380558  0.58749719  0.43494051  1
  Se  Se166  1  0.74822488  0.58233578  0.95063791  1
  Se  Se167  1  0.75320285  0.91178075  0.44341376  1
  Se  Se168  1  0.74314603  0.92028891  0.93966634  1
  Se  Se169  1  0.24743857  0.08129956  0.44712607  1
  Se  Se170  1  0.25813047  0.07985136  0.94556389  1
  Se  Se171  1  0.26216722  0.41888312  0.42844514  1
  Se  Se172  1  0.24383350  0.42238287  0.95374032  1
  Se  Se173  1  0.25432025  0.73814100  0.43705765  1
  Se  Se174  1  0.25193039  0.75088224  0.95153364  1
  Se  Se175  1  0.59030115  0.07213077  0.43704816  1
  Se  Se176  1  0.58928528  0.07577619  0.93621877  1
  Se  Se177  1  0.58288998  0.41938969  0.45022435  1
  Se  Se178  1  0.57622100  0.41882099  0.94974351  1
  Se  Se179  1  0.58077691  0.75096548  0.44514585  1
  Se  Se180  1  0.58270823  0.75135718  0.95109507  1
  Se  Se181  1  0.91143039  0.08476475  0.44420410  1
  Se  Se182  1  0.91595805  0.07849964  0.94827703  1
  Se  Se183  1  0.93098969  0.41474612  0.43768874  1
  Se  Se184  1  0.91591596  0.41493883  0.95398254  1
  Se  Se185  1  0.91010884  0.74841977  0.44943885  1
  Se  Se186  1  0.92492468  0.74404734  0.93605536  1
  Se  Se187  1  0.24962146  0.24646450  0.30507123  1
  Se  Se188  1  0.23946777  0.24074445  0.80618679  1
  Se  Se189  1  0.26738719  0.60072339  0.28480036  1
  Se  Se190  1  0.25788088  0.58980232  0.80722716  1
  Se  Se191  1  0.24565541  0.91236377  0.29833711  1
  Se  Se192  1  0.25584135  0.91924914  0.81098671  1
  Se  Se193  1  0.58027830  0.24512947  0.31642537  1
  Se  Se194  1  0.57886429  0.25383968  0.79761480  1
  Se  Se195  1  0.58000994  0.58412457  0.29727874  1
  Se  Se196  1  0.58532166  0.58990475  0.81062072  1
  Se  Se197  1  0.58543043  0.91689519  0.30329078  1
  Se  Se198  1  0.57971532  0.91015727  0.80944963  1
  Se  Se199  1  0.90919125  0.24577206  0.30393296  1
  Se  Se200  1  0.90393020  0.24306150  0.81671956  1
  Se  Se201  1  0.91559066  0.58447216  0.30037363  1
  Se  Se202  1  0.91375096  0.57779288  0.81126666  1
  Se  Se203  1  0.90827071  0.91188471  0.30908643  1
  Se  Se204  1  0.91881494  0.91590818  0.79669033  1
  Se  Se205  1  0.08186312  0.08880813  0.30838245  1
  Se  Se206  1  0.07921153  0.07730435  0.80122848  1
  Se  Se207  1  0.10473473  0.43159094  0.30094264  1
  Se  Se208  1  0.09055464  0.42687466  0.81000843  1
  Se  Se209  1  0.07734592  0.75199756  0.29928817  1
  Se  Se210  1  0.09299164  0.75492813  0.81216439  1
  Se  Se211  1  0.41655435  0.07610840  0.30593445  1
  Se  Se212  1  0.41108123  0.08176552  0.79747220  1
  Se  Se213  1  0.41613231  0.41218203  0.29886258  1
  Se  Se214  1  0.42024379  0.42630090  0.81350430  1
  Se  Se215  1  0.41928675  0.75346253  0.30865874  1
  Se  Se216  1  0.41537664  0.74855305  0.80986869  1
  Se  Se217  1  0.75219178  0.08512428  0.29718649  1
  Se  Se218  1  0.75336991  0.08464793  0.80993852  1
  Se  Se219  1  0.75435680  0.42102475  0.31101034  1
  Se  Se220  1  0.74095512  0.41438269  0.81027531  1
  Se  Se221  1  0.74391495  0.74809534  0.30195075  1
  Se  Se222  1  0.75032920  0.74766414  0.79878204  1
  Se  Se223  1  0.25210722  0.08024176  0.20228779  1
  Se  Se224  1  0.25240887  0.08019347  0.69280242  1
  Se  Se225  1  0.28152865  0.40029514  0.19725111  1
  Se  Se226  1  0.24615455  0.42436969  0.69263390  1
  Se  Se227  1  0.26086777  0.73132179  0.19779886  1
  Se  Se228  1  0.25506229  0.74644740  0.70211079  1
  Se  Se229  1  0.58578381  0.08069318  0.19724985  1
  Se  Se230  1  0.57524179  0.08720441  0.68528284  1
  Se  Se231  1  0.57064551  0.43330756  0.19697955  1
  Se  Se232  1  0.58133844  0.42079864  0.70010611  1
  Se  Se233  1  0.58151029  0.74616055  0.19805882  1
  Se  Se234  1  0.58361766  0.74734733  0.69527784  1
  Se  Se235  1  0.91116421  0.09355770  0.19075302  1
  Se  Se236  1  0.91892257  0.08162505  0.69539250  1
  Se  Se237  1  0.91226623  0.42384189  0.18730037  1
  Se  Se238  1  0.90897353  0.41874792  0.70109181  1
  Se  Se239  1  0.91265054  0.75058183  0.20022108  1
  Se  Se240  1  0.91170466  0.75418187  0.68366516  1
  Se  Se241  1  0.09418875  0.25165222  0.18817091  1
  Se  Se242  1  0.08956582  0.24611950  0.68646466  1
  Se  Se243  1  0.07643825  0.57855662  0.19029819  1
  Se  Se244  1  0.09032301  0.57762680  0.68875789  1
  Se  Se245  1  0.09426565  0.90138127  0.19488821  1
  Se  Se246  1  0.08597701  0.91161583  0.69984238  1
  Se  Se247  1  0.42454059  0.24309315  0.20196707  1
  Se  Se248  1  0.42208376  0.24494942  0.68324180  1
  Se  Se249  1  0.39272295  0.60539038  0.20008323  1
  Se  Se250  1  0.41752643  0.58511982  0.69653601  1
  Se  Se251  1  0.41450644  0.91457431  0.19643077  1
  Se  Se252  1  0.41649066  0.91402356  0.70012105  1
  Se  Se253  1  0.75825990  0.25202294  0.18918729  1
  Se  Se254  1  0.74858571  0.25009880  0.69947612  1
  Se  Se255  1  0.74698362  0.58589865  0.19818388  1
  Se  Se256  1  0.75156880  0.58646023  0.70014065  1
  Se  Se257  1  0.74377040  0.91940546  0.19464328  1
  Se  Se258  1  0.75378423  0.90824143  0.68197578  1
