# generated using pymatgen
data_In86Cu29Se144
_symmetry_space_group_name_H-M   'P 1'
_cell_length_a   17.58102365
_cell_length_b   17.58109319
_cell_length_c   23.43625065
_cell_angle_alpha   89.99650269
_cell_angle_beta   90.02696399
_cell_angle_gamma   90.00237026
_symmetry_Int_Tables_number   1
_chemical_formula_structural   In86Cu29Se144
_chemical_formula_sum   'In86 Cu29 Se144'
_cell_volume   7243.99461946
_cell_formula_units_Z   1
loop_
 _symmetry_equiv_pos_site_id
 _symmetry_equiv_pos_as_xyz
  1  'x, y, z'
loop_
 _atom_site_type_symbol
 _atom_site_label
 _atom_site_symmetry_multiplicity
 _atom_site_fract_x
 _atom_site_fract_y
 _atom_site_fract_z
 _atom_site_occupancy
  In  In0  1  0.00987880  0.16022316  0.14469815  1
  In  In1  1  0.00239892  0.18306461  0.62453011  1
  In  In2  1  -0.01599161  0.49628327  0.12050352  1
  In  In3  1  -0.00450285  0.49203941  0.61516104  1
  In  In4  1  0.01202306  0.83611263  0.11704145  1
  In  In5  1  0.00382101  0.82494516  0.62084198  1
  In  In6  1  0.33091574  0.16545892  0.12590729  1
  In  In7  1  0.32597354  0.16414525  0.62295636  1
  In  In8  1  0.34438578  0.49056733  0.13447776  1
  In  In9  1  0.34246195  0.50568329  0.61127626  1
  In  In10  1  0.32064239  0.84701974  0.13582793  1
  In  In11  1  0.33150963  0.83371610  0.62289764  1
  In  In12  1  0.67293361  0.18557154  0.12794276  1
  In  In13  1  0.66183132  0.14982840  0.62118175  1
  In  In14  1  0.66363380  0.49167014  0.12286988  1
  In  In15  1  0.66665445  0.49907087  0.61786103  1
  In  In16  1  0.66975159  0.82392202  0.12346302  1
  In  In17  1  0.66653307  0.85110830  0.62708280  1
  In  In18  1  0.16189716  0.00315975  0.37017097  1
  In  In19  1  0.17702904  -0.00712763  0.88138963  1
  In  In20  1  0.16898270  0.33953158  0.35745407  1
  In  In21  1  0.15321762  0.33213983  0.87862461  1
  In  In22  1  0.17724311  0.65453424  0.37993829  1
  In  In23  1  0.18376151  0.66698589  0.87324729  1
  In  In24  1  0.48330491  0.00169287  0.37967662  1
  In  In25  1  0.50504074  0.00134748  0.87298142  1
  In  In26  1  0.50153670  0.34214058  0.37079278  1
  In  In27  1  0.49681731  0.33486733  0.88562870  1
  In  In28  1  0.48945858  0.67710542  0.38388831  1
  In  In29  1  0.48424219  0.67096484  0.87538970  1
  In  In30  1  0.85457668  0.00098579  0.36585973  1
  In  In31  1  0.82425940  0.00083542  0.87795873  1
  In  In32  1  0.83444567  0.33270747  0.36968273  1
  In  In33  1  0.85159205  0.33137238  0.87976273  1
  In  In34  1  0.82283427  0.66586361  0.37591218  1
  In  In35  1  0.84743345  0.65723587  0.89333588  1
  In  In36  1  -0.00867917  0.16209164  0.35812284  1
  In  In37  1  0.00336969  0.18587075  0.87897569  1
  In  In38  1  0.00960848  0.49019011  0.37675730  1
  In  In39  1  0.00352781  0.48176719  0.88052454  1
  In  In40  1  0.00651611  0.85398383  0.36856979  1
  In  In41  1  0.01023477  0.82223943  0.89693764  1
  In  In42  1  0.32265525  0.16657735  0.36070582  1
  In  In43  1  0.34177998  0.15890786  0.88421132  1
  In  In44  1  0.32929740  0.49906175  0.37318445  1
  In  In45  1  0.33009565  0.51319396  0.87571139  1
  In  In46  1  0.33098857  0.83510740  0.37717172  1
  In  In47  1  0.32839002  0.83093886  0.87026548  1
  In  In48  1  0.66482325  0.18654690  0.37022196  1
  In  In49  1  0.66822322  0.15201831  0.87823917  1
  In  In50  1  0.67378582  0.49460498  0.38121450  1
  In  In51  1  0.66745506  0.49960397  0.88094377  1
  In  In52  1  0.66692698  0.82228243  0.37652990  1
  In  In53  1  0.66777859  0.84354763  0.87879027  1
  In  In54  1  0.16947463  0.00159438  0.13043063  1
  In  In55  1  0.18539302  0.00298310  0.62291817  1
  In  In56  1  0.17465782  0.32610152  0.13397902  1
  In  In57  1  0.15522886  0.32639343  0.62009056  1
  In  In58  1  0.16384816  0.68341609  0.12020792  1
  In  In59  1  0.17769774  0.67949158  0.61537768  1
  In  In60  1  0.47742871  0.00035461  0.12780489  1
  In  In61  1  0.50226672  -0.00500368  0.62520568  1
  In  In62  1  0.50039772  0.33333947  0.12582780  1
  In  In63  1  0.48823766  0.34516368  0.61786262  1
  In  In64  1  0.50084517  0.65359107  0.12573184  1
  In  In65  1  0.48962449  0.65756568  0.61828664  1
  In  In66  1  0.85094610  0.00439399  0.13402716  1
  In  In67  1  0.81992501  -0.00294912  0.62434066  1
  In  In68  1  0.82575324  0.32870796  0.14023263  1
  In  In69  1  0.84178594  0.33857799  0.61679806  1
  In  In70  1  0.84783496  0.66729601  0.10889024  1
  In  In71  1  0.84369244  0.66069632  0.62192087  1
  In  In72  1  0.00558444  0.66446336  0.75037513  1
  In  In73  1  0.83630614  0.83096189  0.50033016  1
  In  In74  1  0.16508313  0.50128719  0.00305481  1
  In  In75  1  0.49659532  0.17431254  0.49491188  1
  In  In76  1  0.83847380  0.16875418  0.00851580  1
  In  In77  1  0.67007168  0.32477603  0.75076872  1
  In  In78  1  0.66622816  0.66181840  0.25190559  1
  In  In79  1  0.16830955  0.17141982  0.48919028  1
  In  In80  1  -0.00124443  0.00140967  0.75589876  1
  In  In81  1  0.49824207  0.83234705  -0.00120537  1
  In  In82  1  0.00124623  0.66543576  0.24306770  1
  In  In83  1  0.66329223  0.67187746  0.75125596  1
  In  In84  1  0.32803603  0.33153796  0.74311643  1
  In  In85  1  0.66483074  0.00440417  0.24637738  1
  Cu  Cu86  1  0.00530130  0.00913535  0.49298368  1
  Cu  Cu87  1  0.66239331  0.00414992  0.00070973  1
  Cu  Cu88  1  0.49579047  0.49970562  0.25116686  1
  Cu  Cu89  1  0.66739707  0.33596176  0.00454271  1
  Cu  Cu90  1  0.16901547  0.16640490  0.74845606  1
  Cu  Cu91  1  0.83323485  0.16568596  0.75386706  1
  Cu  Cu92  1  0.67119827  0.33673347  0.49557451  1
  Cu  Cu93  1  0.82928892  0.83691543  0.75902087  1
  Cu  Cu94  1  0.67065341  0.00266098  0.49804910  1
  Cu  Cu95  1  0.33421223  0.33251488  0.00882936  1
  Cu  Cu96  1  0.82966058  0.49937954  0.24960336  1
  Cu  Cu97  1  0.32342421  0.00471471  0.00585040  1
  Cu  Cu98  1  0.67053159  0.65764610  0.00396216  1
  Cu  Cu99  1  0.84116415  0.49199293  0.74604557  1
  Cu  Cu100  1  0.16562527  0.83236283  0.25065789  1
  Cu  Cu101  1  0.16891182  0.50199545  0.24987825  1
  Cu  Cu102  1  0.49417018  0.17354276  0.25006999  1
  Cu  Cu103  1  0.33604094  0.66787015  0.00113457  1
  Cu  Cu104  1  0.17333378  0.83982481  0.74809721  1
  Cu  Cu105  1  0.00584137  0.00529067  0.00771862  1
  Cu  Cu106  1  0.49275512  0.83655912  0.74951677  1
  Cu  Cu107  1  -0.00470765  0.33265165  0.49306374  1
  Cu  Cu108  1  0.16496575  0.50224049  0.74855413  1
  Cu  Cu109  1  0.33121889  0.66815179  0.49762244  1
  Cu  Cu110  1  0.49237552  0.83238705  0.25860268  1
  Cu  Cu111  1  0.00264121  0.66261310  0.49727007  1
  Cu  Cu112  1  0.50125633  0.15593966  0.75158989  1
  Cu  Cu113  1  0.49119842  0.50197432  0.74503507  1
  Cu  Cu114  1  0.66089327  0.66349665  0.50041664  1
  Se  Se115  1  0.08397274  0.08760368  0.06457715  1
  Se  Se116  1  0.08271082  0.08432536  0.56007562  1
  Se  Se117  1  0.08309008  0.40829272  0.06441798  1
  Se  Se118  1  0.08245283  0.41158741  0.54785444  1
  Se  Se119  1  0.07723960  0.74418673  0.04544661  1
  Se  Se120  1  0.08323628  0.75152036  0.54745142  1
  Se  Se121  1  0.41522636  0.08602396  0.05171879  1
  Se  Se122  1  0.41273183  0.07989742  0.55554173  1
  Se  Se123  1  0.41966863  0.41963314  0.05548567  1
  Se  Se124  1  0.41207551  0.41401494  0.54213417  1
  Se  Se125  1  0.41068231  0.74970253  0.06549557  1
  Se  Se126  1  0.41502325  0.75018598  0.55319300  1
  Se  Se127  1  0.74400674  0.07756876  0.06532463  1
  Se  Se128  1  0.75533084  0.08553217  0.54959781  1
  Se  Se129  1  0.75562518  0.40935412  0.06113222  1
  Se  Se130  1  0.75360025  0.41973351  0.55170416  1
  Se  Se131  1  0.75005719  0.74932567  0.05097179  1
  Se  Se132  1  0.74171081  0.74410328  0.56306314  1
  Se  Se133  1  0.24795320  0.24890489  0.05650158  1
  Se  Se134  1  0.25879626  0.25952137  0.55284779  1
  Se  Se135  1  0.25951507  0.58639914  0.06382651  1
  Se  Se136  1  0.24638349  0.58287549  0.54927219  1
  Se  Se137  1  0.24452035  0.91414042  0.05586650  1
  Se  Se138  1  0.24205379  0.90812640  0.55338350  1
  Se  Se139  1  0.58353000  0.25024232  0.05473174  1
  Se  Se140  1  0.59095804  0.25917565  0.55959253  1
  Se  Se141  1  0.58233072  0.57777845  0.05428519  1
  Se  Se142  1  0.57830066  0.57777763  0.55231718  1
  Se  Se143  1  0.58410143  0.92335133  0.06313256  1
  Se  Se144  1  0.58607036  0.92057152  0.55072468  1
  Se  Se145  1  0.92427361  0.25101059  0.07391417  1
  Se  Se146  1  0.91660370  0.24694331  0.54875929  1
  Se  Se147  1  0.92512720  0.58100845  0.04274564  1
  Se  Se148  1  0.91525283  0.58073049  0.54779291  1
  Se  Se149  1  0.91860915  0.92307291  0.05741149  1
  Se  Se150  1  0.92679051  0.92830956  0.55790836  1
  Se  Se151  1  0.07409251  0.25502172  0.42996783  1
  Se  Se152  1  0.08336162  0.25365161  0.95443361  1
  Se  Se153  1  0.08574308  0.57767425  0.44569326  1
  Se  Se154  1  0.08322589  0.58953340  0.93508914  1
  Se  Se155  1  0.08735903  0.92041062  0.44622347  1
  Se  Se156  1  0.08874235  0.92130157  0.95273242  1
  Se  Se157  1  0.40452708  0.25486705  0.43162387  1
  Se  Se158  1  0.41671829  0.24970310  0.95200711  1
  Se  Se159  1  0.41229339  0.58104788  0.44494692  1
  Se  Se160  1  0.41814850  0.58224894  0.94901287  1
  Se  Se161  1  0.42453109  0.90436267  0.44692393  1
  Se  Se162  1  0.40604837  0.92503621  0.94342618  1
  Se  Se163  1  0.75291894  0.25201558  0.44378111  1
  Se  Se164  1  0.74590126  0.25373616  0.94183782  1
  Se  Se165  1  0.75051721  0.58462128  0.44983587  1
  Se  Se166  1  0.75402059  0.57305372  0.95145058  1
  Se  Se167  1  0.75127927  0.92233879  0.43709562  1
  Se  Se168  1  0.74881519  0.91977695  0.95204430  1
  Se  Se169  1  0.26094341  0.07531537  0.43966332  1
  Se  Se170  1  0.24384624  0.08945622  0.94953056  1
  Se  Se171  1  0.23655326  0.41729667  0.43477463  1
  Se  Se172  1  0.25816852  0.41096771  0.94162812  1
  Se  Se173  1  0.24605795  0.75142768  0.44584669  1
  Se  Se174  1  0.25432733  0.75199220  0.94700161  1
  Se  Se175  1  0.59031647  0.08252436  0.43695728  1
  Se  Se176  1  0.57673968  0.08479189  0.94873575  1
  Se  Se177  1  0.58129630  0.41700890  0.44638691  1
  Se  Se178  1  0.58421307  0.41797443  0.94903538  1
  Se  Se179  1  0.58261646  0.75326648  0.45025522  1
  Se  Se180  1  0.59127529  0.73857957  0.94133287  1
  Se  Se181  1  0.91961667  0.08813021  0.44048821  1
  Se  Se182  1  0.92512172  0.07958517  0.94187680  1
  Se  Se183  1  0.91208267  0.41933321  0.44142766  1
  Se  Se184  1  0.91789876  0.41497139  0.95367346  1
  Se  Se185  1  0.92626746  0.74673416  0.43543996  1
  Se  Se186  1  0.90118091  0.76503312  0.95411503  1
  Se  Se187  1  0.22502486  0.23084453  0.29427274  1
  Se  Se188  1  0.24754619  0.24596381  0.81262676  1
  Se  Se189  1  0.25274749  0.58608340  0.30050363  1
  Se  Se190  1  0.25276349  0.58430969  0.79761997  1
  Se  Se191  1  0.24781577  0.91517562  0.30623086  1
  Se  Se192  1  0.25430672  0.92360619  0.80243187  1
  Se  Se193  1  0.57960263  0.25837560  0.29884446  1
  Se  Se194  1  0.57468685  0.24204116  0.81213197  1
  Se  Se195  1  0.57549265  0.57864596  0.31486510  1
  Se  Se196  1  0.57404733  0.57618429  0.80812306  1
  Se  Se197  1  0.57991013  0.91250343  0.31186608  1
  Se  Se198  1  0.58160062  0.91146112  0.80500100  1
  Se  Se199  1  0.91976589  0.26141196  0.29706079  1
  Se  Se200  1  0.91853610  0.25091068  0.80174774  1
  Se  Se201  1  0.91058334  0.58075795  0.30875345  1
  Se  Se202  1  0.91413564  0.57486557  0.80959209  1
  Se  Se203  1  0.91546147  0.90943854  0.29445765  1
  Se  Se204  1  0.91824234  0.90671912  0.81906154  1
  Se  Se205  1  0.07025918  0.06657889  0.29879251  1
  Se  Se206  1  0.08986908  0.09131722  0.81400385  1
  Se  Se207  1  0.07608365  0.41988537  0.29359049  1
  Se  Se208  1  0.08578847  0.41687941  0.80234654  1
  Se  Se209  1  0.08832339  0.74855748  0.31088516  1
  Se  Se210  1  0.09106537  0.76124692  0.80909269  1
  Se  Se211  1  0.41779485  0.08366076  0.30213432  1
  Se  Se212  1  0.41383977  0.08018013  0.80696138  1
  Se  Se213  1  0.41066977  0.41547591  0.30212977  1
  Se  Se214  1  0.41789781  0.41860987  0.80809965  1
  Se  Se215  1  0.40902422  0.74556941  0.30689396  1
  Se  Se216  1  0.41148069  0.74881908  0.80021975  1
  Se  Se217  1  0.75061205  0.08779237  0.31248835  1
  Se  Se218  1  0.74887412  0.08034290  0.80267162  1
  Se  Se219  1  0.74515304  0.41817069  0.30368843  1
  Se  Se220  1  0.75759022  0.41910392  0.80912722  1
  Se  Se221  1  0.76091605  0.76013435  0.30096067  1
  Se  Se222  1  0.75807766  0.74750097  0.81749796  1
  Se  Se223  1  0.27648667  0.06029454  0.19264068  1
  Se  Se224  1  0.25558635  0.08411588  0.69949385  1
  Se  Se225  1  0.25412969  0.41511027  0.20080159  1
  Se  Se226  1  0.24185822  0.42364720  0.68323938  1
  Se  Se227  1  0.24780172  0.74711962  0.19805959  1
  Se  Se228  1  0.25060387  0.75032689  0.69531804  1
  Se  Se229  1  0.57175545  0.09230160  0.18708209  1
  Se  Se230  1  0.58556995  0.07562919  0.69706906  1
  Se  Se231  1  0.58112001  0.41885251  0.19667788  1
  Se  Se232  1  0.57831314  0.42009776  0.69320330  1
  Se  Se233  1  0.57239408  0.75672732  0.19513166  1
  Se  Se234  1  0.57462094  0.75761103  0.68771339  1
  Se  Se235  1  0.90263292  0.10035684  0.20600508  1
  Se  Se236  1  0.91274743  0.08758890  0.68944592  1
  Se  Se237  1  0.91717603  0.41771604  0.19927922  1
  Se  Se238  1  0.92388175  0.41113121  0.69223784  1
  Se  Se239  1  0.91245928  0.75633609  0.18512219  1
  Se  Se240  1  0.90746874  0.75902178  0.69588403  1
  Se  Se241  1  0.10612511  0.23715697  0.20736054  1
  Se  Se242  1  0.08444946  0.25277856  0.70048019  1
  Se  Se243  1  0.09079610  0.57523179  0.18256272  1
  Se  Se244  1  0.08856736  0.58000237  0.68277469  1
  Se  Se245  1  0.08254237  0.91399346  0.19527154  1
  Se  Se246  1  0.08580449  0.91428569  0.69011775  1
  Se  Se247  1  0.41182424  0.25477267  0.19345398  1
  Se  Se248  1  0.42851843  0.24121163  0.68955029  1
  Se  Se249  1  0.41509357  0.58843053  0.20074013  1
  Se  Se250  1  0.40791836  0.58352734  0.69268891  1
  Se  Se251  1  0.41231467  0.91815965  0.20536596  1
  Se  Se252  1  0.41260104  0.91918907  0.69295488  1
  Se  Se253  1  0.74332237  0.24895086  0.20993549  1
  Se  Se254  1  0.75657997  0.23988443  0.68569575  1
  Se  Se255  1  0.75921315  0.58351425  0.18547104  1
  Se  Se256  1  0.75691810  0.57658011  0.69351172  1
  Se  Se257  1  0.75392133  0.90981212  0.19059821  1
  Se  Se258  1  0.74973295  0.91975877  0.70311285  1
