# generated using pymatgen
data_In86Cu29Se144
_symmetry_space_group_name_H-M   'P 1'
_cell_length_a   17.58445770
_cell_length_b   17.58248621
_cell_length_c   23.44812995
_cell_angle_alpha   90.00543743
_cell_angle_beta   90.00430205
_cell_angle_gamma   89.99451637
_symmetry_Int_Tables_number   1
_chemical_formula_structural   In86Cu29Se144
_chemical_formula_sum   'In86 Cu29 Se144'
_cell_volume   7249.65720726
_cell_formula_units_Z   1
loop_
 _symmetry_equiv_pos_site_id
 _symmetry_equiv_pos_as_xyz
  1  'x, y, z'
loop_
 _atom_site_type_symbol
 _atom_site_label
 _atom_site_symmetry_multiplicity
 _atom_site_fract_x
 _atom_site_fract_y
 _atom_site_fract_z
 _atom_site_occupancy
  In  In0  1  0.01439788  0.15895632  0.11964664  1
  In  In1  1  -0.00094755  0.16083400  0.62393519  1
  In  In2  1  -0.01060732  0.50647115  0.13229172  1
  In  In3  1  -0.01090048  0.49542978  0.62625242  1
  In  In4  1  -0.01463119  0.83742061  0.12670995  1
  In  In5  1  0.00329989  0.84016158  0.61622820  1
  In  In6  1  0.33291677  0.16485523  0.12626763  1
  In  In7  1  0.31544139  0.16163815  0.61768338  1
  In  In8  1  0.33832894  0.49493130  0.13158679  1
  In  In9  1  0.34657429  0.49923812  0.62278527  1
  In  In10  1  0.34113419  0.82350450  0.13836146  1
  In  In11  1  0.33872802  0.84660515  0.62163227  1
  In  In12  1  0.66149823  0.17579218  0.13196423  1
  In  In13  1  0.65941838  0.15016869  0.62411320  1
  In  In14  1  0.66808598  0.50211226  0.12562694  1
  In  In15  1  0.67008501  0.50632131  0.62243720  1
  In  In16  1  0.66876519  0.83905714  0.13226604  1
  In  In17  1  0.69938571  0.85013388  0.60783088  1
  In  In18  1  0.17210456  -0.00512035  0.37931685  1
  In  In19  1  0.17938824  0.00655401  0.86904598  1
  In  In20  1  0.16509122  0.32737989  0.37286875  1
  In  In21  1  0.14866992  0.32361245  0.87462768  1
  In  In22  1  0.16592171  0.68782536  0.35429468  1
  In  In23  1  0.16489161  0.66545413  0.87958178  1
  In  In24  1  0.49628492  0.00047635  0.36539352  1
  In  In25  1  0.50042702  -0.00182936  0.88232299  1
  In  In26  1  0.50538477  0.33724866  0.36447624  1
  In  In27  1  0.49845100  0.33520098  0.88918974  1
  In  In28  1  0.50253251  0.66671990  0.36092416  1
  In  In29  1  0.50845515  0.66454402  0.89494921  1
  In  In30  1  0.83221775  0.00671376  0.37962384  1
  In  In31  1  0.82915744  -0.00845401  0.86626400  1
  In  In32  1  0.82464937  0.31910015  0.36837825  1
  In  In33  1  0.84559963  0.32954348  0.87911476  1
  In  In34  1  0.83711937  0.67743688  0.36255730  1
  In  In35  1  0.82344352  0.67719866  0.88630577  1
  In  In36  1  -0.00834755  0.17351462  0.38248057  1
  In  In37  1  0.00233813  0.16957516  0.87251470  1
  In  In38  1  -0.00013390  0.49817274  0.36745456  1
  In  In39  1  0.00078640  0.48392367  0.87706420  1
  In  In40  1  0.00119427  0.83493172  0.37252657  1
  In  In41  1  -0.01272005  0.83663985  0.87819672  1
  In  In42  1  0.32841482  0.16042758  0.37065929  1
  In  In43  1  0.34012612  0.15978667  0.88503320  1
  In  In44  1  0.33591951  0.50108195  0.36285325  1
  In  In45  1  0.33933602  0.50607739  0.88490640  1
  In  In46  1  0.32203259  0.83372646  0.36050766  1
  In  In47  1  0.33128288  0.84808876  0.87978317  1
  In  In48  1  0.67975112  0.17737421  0.36889498  1
  In  In49  1  0.66466694  0.15293953  0.87911345  1
  In  In50  1  0.66621012  0.49751177  0.36504880  1
  In  In51  1  0.66756720  0.50288713  0.89105914  1
  In  In52  1  0.67574016  0.83625589  0.36363045  1
  In  In53  1  0.66541142  0.83751353  0.88287544  1
  In  In54  1  0.15752600  0.01563994  0.12086709  1
  In  In55  1  0.16414106  -0.00040706  0.62154400  1
  In  In56  1  0.17456452  0.32421954  0.13355491  1
  In  In57  1  0.16211344  0.29845271  0.61119165  1
  In  In58  1  0.16519111  0.67506097  0.14307045  1
  In  In59  1  0.15426082  0.66789572  0.61483570  1
  In  In60  1  0.50310076  0.00212503  0.12603339  1
  In  In61  1  0.50117897  -0.00180425  0.63615000  1
  In  In62  1  0.49668322  0.33029031  0.12542949  1
  In  In63  1  0.50310899  0.33296207  0.62371063  1
  In  In64  1  0.50487249  0.66920287  0.12818113  1
  In  In65  1  0.50123478  0.66099095  0.62515949  1
  In  In66  1  0.83383083  -0.03006212  0.12265080  1
  In  In67  1  0.83064426  -0.00074601  0.62482156  1
  In  In68  1  0.82238280  0.34362069  0.13442871  1
  In  In69  1  0.84667517  0.34123643  0.62576568  1
  In  In70  1  0.83713762  0.67417695  0.13546071  1
  In  In71  1  0.83025184  0.68309947  0.61844199  1
  In  In72  1  0.32756887  0.32595275  0.74283131  1
  In  In73  1  0.82991149  0.16595198  0.00245427  1
  In  In74  1  0.16931080  0.49353155  0.00450885  1
  In  In75  1  -0.00477537  0.67153170  0.74551715  1
  In  In76  1  0.83337915  0.50041376  0.49349327  1
  In  In77  1  0.50534721  0.49554056  0.49403736  1
  In  In78  1  0.67282078  0.32617680  0.75316403  1
  In  In79  1  0.49954894  0.83161596  0.48577379  1
  In  In80  1  0.50383210  0.16918177  0.49508986  1
  In  In81  1  0.32502601  0.67948874  0.76425921  1
  In  In82  1  0.16512852  0.50384749  0.48606816  1
  In  In83  1  0.66331728  0.67855139  0.74810369  1
  In  In84  1  0.16998006  0.83538031  0.00419325  1
  In  In85  1  0.00211092  -0.00227461  0.24696896  1
  Cu  Cu86  1  0.66967310  -0.00295604  0.49662560  1
  Cu  Cu87  1  0.16500395  0.83825731  0.74525955  1
  Cu  Cu88  1  0.34147248  0.66343703  0.01240784  1
  Cu  Cu89  1  0.50396610  0.83724614  0.24733042  1
  Cu  Cu90  1  0.32611311  0.67438872  0.48892218  1
  Cu  Cu91  1  -0.00205524  0.00207387  0.50011275  1
  Cu  Cu92  1  0.50409358  0.84003782  0.75447023  1
  Cu  Cu93  1  0.83227949  0.49704262  0.24909703  1
  Cu  Cu94  1  0.16093784  0.16063750  0.74586428  1
  Cu  Cu95  1  0.49903196  0.49989760  0.75757314  1
  Cu  Cu96  1  0.33908891  0.00021000  0.00413297  1
  Cu  Cu97  1  -0.00167099  0.68063487  0.49189200  1
  Cu  Cu98  1  0.33071226  0.32555902  0.00839296  1
  Cu  Cu99  1  0.50025497  0.49824883  0.24150039  1
  Cu  Cu100  1  0.84025424  0.16271709  0.74905702  1
  Cu  Cu101  1  0.66521878  -0.00294679  0.00226358  1
  Cu  Cu102  1  0.49339347  0.15853057  0.75706616  1
  Cu  Cu103  1  0.49870031  0.16715717  0.24793695  1
  Cu  Cu104  1  0.16608489  0.48327982  0.74785753  1
  Cu  Cu105  1  -0.01049283  0.66554298  0.00634078  1
  Cu  Cu106  1  -0.00381638  0.33404784  0.00254187  1
  Cu  Cu107  1  0.16464618  0.16852903  0.25032947  1
  Cu  Cu108  1  0.66200335  0.33706694  0.00973975  1
  Cu  Cu109  1  0.32472618  0.00477966  0.49930335  1
  Cu  Cu110  1  0.00523680  0.32819196  0.50094066  1
  Cu  Cu111  1  0.16804265  0.49402548  0.25166522  1
  Cu  Cu112  1  0.83779153  0.50380198  0.75550071  1
  Cu  Cu113  1  0.83907718  0.16103438  0.24904337  1
  Cu  Cu114  1  0.67340410  0.67194275  0.01339115  1
  Se  Se115  1  0.07713765  0.07729924  0.04214021  1
  Se  Se116  1  0.08401459  0.08451446  0.55222691  1
  Se  Se117  1  0.07731749  0.41029703  0.06596065  1
  Se  Se118  1  0.08250506  0.41660398  0.55830227  1
  Se  Se119  1  0.08066167  0.74066654  0.06138661  1
  Se  Se120  1  0.08636369  0.75815123  0.54574283  1
  Se  Se121  1  0.41969888  0.08589844  0.05723437  1
  Se  Se122  1  0.41754845  0.07422921  0.55761297  1
  Se  Se123  1  0.41205519  0.41480834  0.05642960  1
  Se  Se124  1  0.41069438  0.40448621  0.55111108  1
  Se  Se125  1  0.42051534  0.75493133  0.05988400  1
  Se  Se126  1  0.41181313  0.74249527  0.55389442  1
  Se  Se127  1  0.74404652  0.07672160  0.06545023  1
  Se  Se128  1  0.74790253  0.08228086  0.55257667  1
  Se  Se129  1  0.75214430  0.41903620  0.05533772  1
  Se  Se130  1  0.74514913  0.41093358  0.55802213  1
  Se  Se131  1  0.75612033  0.75682333  0.06442835  1
  Se  Se132  1  0.73731467  0.73679948  0.54575902  1
  Se  Se133  1  0.24307369  0.24345426  0.05642850  1
  Se  Se134  1  0.26680681  0.25677818  0.54339369  1
  Se  Se135  1  0.24835863  0.59054758  0.06598215  1
  Se  Se136  1  0.25878696  0.58847189  0.55481674  1
  Se  Se137  1  0.25952571  0.92044035  0.06671545  1
  Se  Se138  1  0.24817958  0.91456700  0.55211882  1
  Se  Se139  1  0.58067141  0.24695457  0.05564003  1
  Se  Se140  1  0.59582525  0.25734541  0.55739829  1
  Se  Se141  1  0.58458862  0.58569007  0.05729487  1
  Se  Se142  1  0.59251839  0.59401664  0.55119680  1
  Se  Se143  1  0.58449671  0.91469498  0.05849218  1
  Se  Se144  1  0.58062362  0.92202000  0.55531903  1
  Se  Se145  1  0.91594262  0.25666632  0.06551736  1
  Se  Se146  1  0.91860209  0.25215430  0.55696354  1
  Se  Se147  1  0.90816496  0.58367510  0.06090930  1
  Se  Se148  1  0.92557148  0.59453232  0.55419565  1
  Se  Se149  1  0.93449487  0.92771365  0.04941404  1
  Se  Se150  1  0.91172473  0.91860206  0.55173225  1
  Se  Se151  1  0.08926104  0.24703730  0.44744305  1
  Se  Se152  1  0.07739736  0.24696949  0.95128046  1
  Se  Se153  1  0.07610257  0.59929799  0.43207608  1
  Se  Se154  1  0.07266155  0.58656397  0.94687473  1
  Se  Se155  1  0.07843510  0.91890230  0.44377819  1
  Se  Se156  1  0.08823174  0.91878189  0.93568274  1
  Se  Se157  1  0.41593595  0.25641177  0.43401421  1
  Se  Se158  1  0.41760631  0.24710136  0.95301056  1
  Se  Se159  1  0.41208380  0.59123287  0.43742970  1
  Se  Se160  1  0.42142289  0.57758734  0.95757537  1
  Se  Se161  1  0.40308080  0.92550828  0.43726728  1
  Se  Se162  1  0.41976545  0.91278468  0.95284634  1
  Se  Se163  1  0.75465100  0.24725078  0.44784404  1
  Se  Se164  1  0.73819690  0.25973265  0.94152086  1
  Se  Se165  1  0.74732531  0.58811951  0.43254268  1
  Se  Se166  1  0.75223906  0.58701371  0.95522901  1
  Se  Se167  1  0.74940896  0.91268716  0.44184719  1
  Se  Se168  1  0.75357684  0.92141834  0.94693540  1
  Se  Se169  1  0.24490039  0.09023018  0.44643818  1
  Se  Se170  1  0.25118479  0.07867779  0.95010286  1
  Se  Se171  1  0.26208518  0.41352599  0.43691479  1
  Se  Se172  1  0.25397397  0.40208148  0.93952650  1
  Se  Se173  1  0.24323506  0.75526247  0.43513807  1
  Se  Se174  1  0.26306033  0.73845108  0.94549955  1
  Se  Se175  1  0.58967863  0.07582861  0.43546367  1
  Se  Se176  1  0.58088403  0.08388199  0.95280670  1
  Se  Se177  1  0.59819883  0.40443584  0.44065452  1
  Se  Se178  1  0.57904825  0.42137304  0.95472054  1
  Se  Se179  1  0.59113365  0.74059539  0.43312569  1
  Se  Se180  1  0.59072466  0.75376361  0.95602418  1
  Se  Se181  1  0.91267984  0.08733306  0.45072755  1
  Se  Se182  1  0.91373993  0.08111032  0.93637574  1
  Se  Se183  1  0.92545947  0.40748113  0.43965833  1
  Se  Se184  1  0.91307746  0.41923996  0.95170447  1
  Se  Se185  1  0.90911031  0.75710287  0.43961459  1
  Se  Se186  1  0.91396078  0.75522175  0.95208869  1
  Se  Se187  1  0.25128316  0.25048682  0.30241439  1
  Se  Se188  1  0.24249971  0.23992512  0.80905363  1
  Se  Se189  1  0.24727730  0.58564131  0.30122883  1
  Se  Se190  1  0.23891818  0.56665674  0.81030772  1
  Se  Se191  1  0.24828620  0.93067940  0.29897982  1
  Se  Se192  1  0.25371276  0.91373495  0.80023308  1
  Se  Se193  1  0.58609351  0.24811951  0.30043798  1
  Se  Se194  1  0.57173147  0.24686367  0.81214336  1
  Se  Se195  1  0.58447188  0.57966324  0.29612285  1
  Se  Se196  1  0.58166759  0.58105090  0.81333027  1
  Se  Se197  1  0.58568848  0.92083138  0.30168171  1
  Se  Se198  1  0.58576030  0.91921481  0.81163348  1
  Se  Se199  1  0.92015840  0.24691921  0.30209858  1
  Se  Se200  1  0.91691121  0.25108430  0.80322820  1
  Se  Se201  1  0.91564138  0.58044118  0.30197931  1
  Se  Se202  1  0.91411357  0.58545545  0.81667038  1
  Se  Se203  1  0.90654486  0.91584029  0.30669479  1
  Se  Se204  1  0.92256475  0.91613481  0.80110616  1
  Se  Se205  1  0.08309084  0.09022159  0.31215350  1
  Se  Se206  1  0.08248212  0.08097929  0.80565803  1
  Se  Se207  1  0.08364827  0.41109042  0.30408278  1
  Se  Se208  1  0.07723746  0.40821405  0.80106815  1
  Se  Se209  1  0.05676413  0.74564838  0.29323671  1
  Se  Se210  1  0.09188839  0.75426393  0.80786073  1
  Se  Se211  1  0.41312798  0.08416752  0.29943581  1
  Se  Se212  1  0.41225996  0.07663957  0.81110859  1
  Se  Se213  1  0.41783758  0.41527587  0.29695494  1
  Se  Se214  1  0.41577015  0.41621921  0.81056510  1
  Se  Se215  1  0.41719226  0.75426806  0.29938005  1
  Se  Se216  1  0.43139242  0.75541690  0.81874599  1
  Se  Se217  1  0.75332723  0.08228885  0.30370964  1
  Se  Se218  1  0.75104585  0.08916123  0.80475741  1
  Se  Se219  1  0.74988866  0.41064961  0.30092170  1
  Se  Se220  1  0.75353814  0.42606084  0.81400531  1
  Se  Se221  1  0.73797537  0.73876283  0.29468446  1
  Se  Se222  1  0.75740506  0.76182155  0.80749361  1
  Se  Se223  1  0.24436605  0.08424426  0.19444055  1
  Se  Se224  1  0.24860203  0.07985200  0.69387785  1
  Se  Se225  1  0.25379052  0.41302702  0.19902445  1
  Se  Se226  1  0.24404943  0.41726680  0.67899363  1
  Se  Se227  1  0.25009124  0.75480395  0.20823973  1
  Se  Se228  1  0.24273287  0.75193605  0.68597758  1
  Se  Se229  1  0.58532721  0.08338384  0.19775451  1
  Se  Se230  1  0.58394400  0.08197062  0.70375187  1
  Se  Se231  1  0.58442104  0.41353389  0.19089023  1
  Se  Se232  1  0.58058680  0.42505852  0.69579732  1
  Se  Se233  1  0.58742192  0.74951155  0.19881590  1
  Se  Se234  1  0.57443518  0.76389357  0.68521099  1
  Se  Se235  1  0.91075130  0.08347832  0.18212634  1
  Se  Se236  1  0.91831519  0.07852896  0.69371973  1
  Se  Se237  1  0.92027328  0.41182248  0.20065683  1
  Se  Se238  1  0.91944780  0.41721718  0.70392230  1
  Se  Se239  1  0.93851162  0.73996811  0.20208061  1
  Se  Se240  1  0.90706141  0.76596526  0.69087450  1
  Se  Se241  1  0.07751488  0.24665038  0.19556986  1
  Se  Se242  1  0.08103674  0.24825638  0.69405878  1
  Se  Se243  1  0.08427549  0.57711572  0.19911856  1
  Se  Se244  1  0.09025385  0.57367830  0.69153804  1
  Se  Se245  1  0.09316035  0.90976330  0.18684505  1
  Se  Se246  1  0.08082209  0.91733574  0.69115910  1
  Se  Se247  1  0.41351301  0.24975642  0.19560923  1
  Se  Se248  1  0.42368912  0.23557608  0.68748716  1
  Se  Se249  1  0.41562406  0.58789406  0.19544913  1
  Se  Se250  1  0.41653959  0.58445474  0.70283903  1
  Se  Se251  1  0.41908997  0.92216476  0.19753819  1
  Se  Se252  1  0.41331708  0.91586109  0.70124770  1
  Se  Se253  1  0.75214917  0.24821677  0.20119797  1
  Se  Se254  1  0.75846427  0.24188901  0.68749961  1
  Se  Se255  1  0.75118587  0.58214609  0.19612016  1
  Se  Se256  1  0.76110044  0.58283512  0.69330618  1
  Se  Se257  1  0.75313125  0.91639686  0.20344219  1
  Se  Se258  1  0.73907999  0.92576293  0.69406395  1
