# generated using pymatgen
data_In86Cu29Se144
_symmetry_space_group_name_H-M   'P 1'
_cell_length_a   17.58152467
_cell_length_b   17.58425687
_cell_length_c   23.43815780
_cell_angle_alpha   89.98880292
_cell_angle_beta   89.99576470
_cell_angle_gamma   89.99351907
_symmetry_Int_Tables_number   1
_chemical_formula_structural   In86Cu29Se144
_chemical_formula_sum   'In86 Cu29 Se144'
_cell_volume   7246.09486169
_cell_formula_units_Z   1
loop_
 _symmetry_equiv_pos_site_id
 _symmetry_equiv_pos_as_xyz
  1  'x, y, z'
loop_
 _atom_site_type_symbol
 _atom_site_label
 _atom_site_symmetry_multiplicity
 _atom_site_fract_x
 _atom_site_fract_y
 _atom_site_fract_z
 _atom_site_occupancy
  In  In0  1  0.01408721  0.16797398  0.11732959  1
  In  In1  1  0.01372280  0.16492562  0.63083467  1
  In  In2  1  0.00662507  0.51255732  0.12327796  1
  In  In3  1  -0.00965383  0.51103022  0.63007065  1
  In  In4  1  -0.00946643  0.82469025  0.12183487  1
  In  In5  1  -0.01193258  0.83430571  0.62348121  1
  In  In6  1  0.34367074  0.16742283  0.13532654  1
  In  In7  1  0.31746768  0.16555841  0.62450432  1
  In  In8  1  0.34595797  0.48355656  0.14439800  1
  In  In9  1  0.34577036  0.50663777  0.62172536  1
  In  In10  1  0.34542450  0.81793315  0.13209373  1
  In  In11  1  0.34115842  0.82525317  0.63019060  1
  In  In12  1  0.63861619  0.16429717  0.12920242  1
  In  In13  1  0.67817391  0.17322680  0.63019163  1
  In  In14  1  0.67703937  0.50800760  0.11851190  1
  In  In15  1  0.65978042  0.49559419  0.62107036  1
  In  In16  1  0.66488164  0.82892054  0.12688728  1
  In  In17  1  0.66213076  0.83036393  0.61531841  1
  In  In18  1  0.18082027  0.00442763  0.37341623  1
  In  In19  1  0.19056299  -0.00075029  0.87180199  1
  In  In20  1  0.17531476  0.32556591  0.38040455  1
  In  In21  1  0.15573873  0.33343070  0.87376784  1
  In  In22  1  0.17061981  0.66273574  0.35788647  1
  In  In23  1  0.17098946  0.67862869  0.85814305  1
  In  In24  1  0.48485243  -0.00980159  0.36228577  1
  In  In25  1  0.49444826  0.01122895  0.88621882  1
  In  In26  1  0.49531843  0.34620179  0.36770084  1
  In  In27  1  0.50553132  0.32906674  0.88161094  1
  In  In28  1  0.50679542  0.66297712  0.37049099  1
  In  In29  1  0.49634364  0.67509291  0.88814711  1
  In  In30  1  0.81831985  -0.00363891  0.37358188  1
  In  In31  1  0.82166615  0.00054312  0.87985046  1
  In  In32  1  0.84300374  0.33459188  0.37750665  1
  In  In33  1  0.84845674  0.34752111  0.86536046  1
  In  In34  1  0.82619018  0.66613273  0.37648317  1
  In  In35  1  0.83882729  0.66149331  0.88181472  1
  In  In36  1  0.00952823  0.17866578  0.37725950  1
  In  In37  1  0.00343270  0.18143566  0.87302724  1
  In  In38  1  -0.01674648  0.49983750  0.38046409  1
  In  In39  1  0.00038120  0.50413091  0.87121387  1
  In  In40  1  -0.00045752  0.81859906  0.37693293  1
  In  In41  1  0.00464995  0.81885131  0.87337353  1
  In  In42  1  0.32296851  0.15558707  0.35581476  1
  In  In43  1  0.33881977  0.16265646  0.88092991  1
  In  In44  1  0.35839572  0.51719164  0.34784209  1
  In  In45  1  0.33272941  0.51185716  0.87773141  1
  In  In46  1  0.34034485  0.83655497  0.36766319  1
  In  In47  1  0.34068508  0.83971628  0.87146375  1
  In  In48  1  0.66851172  0.15921431  0.36393094  1
  In  In49  1  0.65621141  0.16577603  0.87543581  1
  In  In50  1  0.64823435  0.51172524  0.38208750  1
  In  In51  1  0.67092150  0.49500998  0.88401066  1
  In  In52  1  0.66359754  0.82795201  0.37557576  1
  In  In53  1  0.66529276  0.83921003  0.88867625  1
  In  In54  1  0.18033606  0.01802575  0.12364756  1
  In  In55  1  0.16943873  0.01745741  0.62608669  1
  In  In56  1  0.19170339  0.32414078  0.13440490  1
  In  In57  1  0.16414069  0.31554696  0.62714165  1
  In  In58  1  0.17173133  0.64802790  0.14324259  1
  In  In59  1  0.16730321  0.67380405  0.63702083  1
  In  In60  1  0.49987875  -0.00415580  0.13251630  1
  In  In61  1  0.49868248  -0.01597765  0.62473200  1
  In  In62  1  0.49283137  0.33057301  0.11734270  1
  In  In63  1  0.50135047  0.34852044  0.62532894  1
  In  In64  1  0.49798977  0.66064097  0.12497922  1
  In  In65  1  0.49483601  0.66482736  0.61883294  1
  In  In66  1  0.83289883  -0.02181847  0.12307107  1
  In  In67  1  0.84150921  -0.00570975  0.62095860  1
  In  In68  1  0.81958164  0.34151433  0.12224139  1
  In  In69  1  0.82116956  0.34227993  0.63676901  1
  In  In70  1  0.83473786  0.66434104  0.12578753  1
  In  In71  1  0.83833955  0.67252528  0.61879200  1
  In  In72  1  0.00573075  0.33940667  0.24696588  1
  In  In73  1  0.66544179  0.66587959  0.75370335  1
  In  In74  1  0.82608053  0.16880875  -0.00427391  1
  In  In75  1  0.33141155  0.33493574  0.74824765  1
  In  In76  1  0.49763346  0.16846037  0.49128229  1
  In  In77  1  0.00238065  -0.00581783  0.24780751  1
  In  In78  1  0.17107590  0.49619929  0.49708101  1
  In  In79  1  0.17112649  0.83596418  0.49933113  1
  In  In80  1  0.83701190  0.16719567  0.50332992  1
  In  In81  1  0.66268322  0.33670840  0.24967504  1
  In  In82  1  0.66285533  0.00584144  0.75407345  1
  In  In83  1  0.16675794  0.49644174  0.00234135  1
  In  In84  1  0.16713708  0.83218427  -0.00165260  1
  In  In85  1  0.00462290  -0.00018842  0.74874839  1
  Cu  Cu86  1  0.66243133  0.33895347  0.00041994  1
  Cu  Cu87  1  0.66130430  -0.01096475  0.49543880  1
  Cu  Cu88  1  -0.00004504  0.00012527  0.50322845  1
  Cu  Cu89  1  0.33774510  0.66291131  0.00527524  1
  Cu  Cu90  1  0.34127121  -0.00034144  0.00524907  1
  Cu  Cu91  1  0.33505856  0.00343922  0.49199344  1
  Cu  Cu92  1  0.49380646  0.16564384  0.75688290  1
  Cu  Cu93  1  0.83359574  0.15651414  0.24396664  1
  Cu  Cu94  1  0.83637626  0.50540215  0.75355713  1
  Cu  Cu95  1  0.50171109  0.50317669  0.74658161  1
  Cu  Cu96  1  0.66814824  0.67096805  0.00602406  1
  Cu  Cu97  1  0.16346114  0.49860990  0.74970171  1
  Cu  Cu98  1  0.66619100  0.66405011  0.49795159  1
  Cu  Cu99  1  0.82751895  0.82290330  0.24864121  1
  Cu  Cu100  1  0.00116919  0.33488197  0.50291464  1
  Cu  Cu101  1  -0.00090272  0.33908735  -0.00584827  1
  Cu  Cu102  1  -0.00593445  0.66208051  0.49935663  1
  Cu  Cu103  1  0.16830483  0.83833287  0.24877745  1
  Cu  Cu104  1  0.66573133  -0.00180169  0.00846680  1
  Cu  Cu105  1  0.83301462  0.83120898  0.74836180  1
  Cu  Cu106  1  0.33794007  0.32671465  0.00496603  1
  Cu  Cu107  1  0.00003744  0.66561991  0.00054754  1
  Cu  Cu108  1  0.33963048  0.66484829  0.49369470  1
  Cu  Cu109  1  0.33655596  0.33866949  0.49877157  1
  Cu  Cu110  1  0.49155449  0.83314890  0.75449270  1
  Cu  Cu111  1  0.50440011  0.82701132  0.24935408  1
  Cu  Cu112  1  0.66771559  0.33716126  0.50022377  1
  Cu  Cu113  1  0.82777100  0.50836593  0.25313322  1
  Cu  Cu114  1  0.00541134  -0.00134089  0.00356030  1
  Se  Se115  1  0.09261675  0.08419222  0.04846150  1
  Se  Se116  1  0.08319376  0.08662006  0.55199107  1
  Se  Se117  1  0.07973668  0.40490087  0.06397148  1
  Se  Se118  1  0.08086721  0.41551565  0.56396041  1
  Se  Se119  1  0.08798088  0.73602705  0.06240426  1
  Se  Se120  1  0.07857653  0.74296857  0.55673934  1
  Se  Se121  1  0.42079680  0.08267217  0.06262806  1
  Se  Se122  1  0.41358277  0.08011373  0.55816042  1
  Se  Se123  1  0.40971381  0.42309100  0.05515447  1
  Se  Se124  1  0.42077839  0.42162162  0.55048525  1
  Se  Se125  1  0.42217871  0.75021684  0.05294375  1
  Se  Se126  1  0.41509033  0.75243286  0.55094131  1
  Se  Se127  1  0.74633067  0.08245182  0.06647137  1
  Se  Se128  1  0.73876481  0.07246582  0.55633129  1
  Se  Se129  1  0.75312440  0.42201850  0.04572368  1
  Se  Se130  1  0.75149843  0.41623914  0.55583839  1
  Se  Se131  1  0.75515637  0.75230335  0.05772758  1
  Se  Se132  1  0.74939377  0.74935328  0.55098343  1
  Se  Se133  1  0.25744096  0.24178583  0.05858799  1
  Se  Se134  1  0.25256478  0.25484111  0.55054146  1
  Se  Se135  1  0.25713105  0.58270889  0.06361407  1
  Se  Se136  1  0.25307827  0.59580357  0.55749638  1
  Se  Se137  1  0.25943757  0.91533098  0.06197971  1
  Se  Se138  1  0.25882200  0.92626671  0.55921389  1
  Se  Se139  1  0.58156149  0.25043654  0.05064475  1
  Se  Se140  1  0.58823634  0.25323311  0.55835999  1
  Se  Se141  1  0.58318216  0.58325032  0.05319110  1
  Se  Se142  1  0.58144294  0.58261258  0.55340304  1
  Se  Se143  1  0.58128299  0.91493107  0.05997373  1
  Se  Se144  1  0.57441763  0.90985562  0.54828857  1
  Se  Se145  1  0.91921991  0.25860643  0.05759974  1
  Se  Se146  1  0.92176276  0.25611673  0.56628774  1
  Se  Se147  1  0.91635574  0.58154520  0.05294283  1
  Se  Se148  1  0.91103420  0.57814109  0.55133174  1
  Se  Se149  1  0.92012015  0.91154603  0.04891907  1
  Se  Se150  1  0.91365785  0.91243434  0.54690949  1
  Se  Se151  1  0.08719372  0.25257426  0.45270416  1
  Se  Se152  1  0.08541372  0.25083616  0.94970347  1
  Se  Se153  1  0.08231393  0.59173494  0.43892287  1
  Se  Se154  1  0.08828251  0.59465926  0.93875609  1
  Se  Se155  1  0.07890844  0.92457173  0.43773373  1
  Se  Se156  1  0.08044757  0.92328768  0.93621838  1
  Se  Se157  1  0.40659890  0.25591998  0.43291497  1
  Se  Se158  1  0.42151039  0.24580126  0.94867391  1
  Se  Se159  1  0.41715235  0.57969238  0.43788965  1
  Se  Se160  1  0.41961543  0.57853583  0.95124688  1
  Se  Se161  1  0.41636876  0.91520136  0.44327568  1
  Se  Se162  1  0.41819453  0.91402225  0.94787443  1
  Se  Se163  1  0.74181546  0.25126595  0.43969380  1
  Se  Se164  1  0.74366629  0.26347011  0.93548898  1
  Se  Se165  1  0.74881617  0.57817660  0.44634407  1
  Se  Se166  1  0.74833974  0.58750045  0.94868184  1
  Se  Se167  1  0.75085740  0.90903858  0.44582189  1
  Se  Se168  1  0.75346549  0.91850134  0.95563676  1
  Se  Se169  1  0.25384949  0.09230949  0.44332963  1
  Se  Se170  1  0.25555573  0.07981554  0.95059740  1
  Se  Se171  1  0.26799462  0.42336122  0.43312923  1
  Se  Se172  1  0.25863393  0.40571763  0.94115148  1
  Se  Se173  1  0.25334299  0.74176348  0.43610500  1
  Se  Se174  1  0.25741421  0.73914981  0.94144973  1
  Se  Se175  1  0.58766009  0.07377978  0.43540585  1
  Se  Se176  1  0.58802502  0.08479238  0.95244022  1
  Se  Se177  1  0.57795174  0.41189389  0.44583926  1
  Se  Se178  1  0.57556059  0.42263703  0.95005154  1
  Se  Se179  1  0.58019203  0.74622068  0.44520517  1
  Se  Se180  1  0.58284774  0.75522670  0.95471355  1
  Se  Se181  1  0.92236505  0.07823959  0.43669908  1
  Se  Se182  1  0.92464975  0.07914710  0.94143972  1
  Se  Se183  1  0.91185248  0.41511099  0.45427426  1
  Se  Se184  1  0.91812494  0.42572629  0.94398538  1
  Se  Se185  1  0.91185199  0.74782324  0.44717364  1
  Se  Se186  1  0.91875136  0.75209437  0.94792531  1
  Se  Se187  1  0.24348033  0.25479234  0.30003038  1
  Se  Se188  1  0.24782142  0.24563377  0.81150196  1
  Se  Se189  1  0.24386550  0.57249301  0.29275129  1
  Se  Se190  1  0.25105571  0.57938076  0.80136981  1
  Se  Se191  1  0.25280216  0.91939486  0.30192755  1
  Se  Se192  1  0.23401402  0.89148571  0.80649114  1
  Se  Se193  1  0.57249506  0.24268618  0.30526810  1
  Se  Se194  1  0.57938953  0.25071534  0.80458541  1
  Se  Se195  1  0.57660408  0.57159534  0.29971391  1
  Se  Se196  1  0.57615617  0.57863492  0.81473257  1
  Se  Se197  1  0.58436954  0.91201462  0.30467110  1
  Se  Se198  1  0.57564917  0.91243822  0.81313915  1
  Se  Se199  1  0.91033131  0.24088840  0.30274224  1
  Se  Se200  1  0.91454047  0.24731943  0.80293352  1
  Se  Se201  1  0.91495071  0.58634057  0.30762058  1
  Se  Se202  1  0.91862204  0.59204998  0.80431693  1
  Se  Se203  1  0.90907501  0.90660417  0.30808800  1
  Se  Se204  1  0.90802340  0.91450241  0.81025013  1
  Se  Se205  1  0.08740295  0.08882771  0.30711598  1
  Se  Se206  1  0.09149979  0.08581711  0.81288653  1
  Se  Se207  1  0.08336320  0.42045114  0.31996833  1
  Se  Se208  1  0.08009326  0.41705580  0.80321319  1
  Se  Se209  1  0.08327126  0.75509669  0.30034737  1
  Se  Se210  1  0.07676904  0.75100756  0.79409483  1
  Se  Se211  1  0.42626465  0.09081256  0.29636845  1
  Se  Se212  1  0.41409732  0.07840171  0.80745739  1
  Se  Se213  1  0.40828097  0.40135967  0.28812093  1
  Se  Se214  1  0.42160468  0.42294094  0.80954723  1
  Se  Se215  1  0.41842207  0.74575856  0.30349617  1
  Se  Se216  1  0.41787209  0.74247074  0.80880027  1
  Se  Se217  1  0.74903157  0.07474851  0.29573340  1
  Se  Se218  1  0.75874664  0.09595874  0.80746673  1
  Se  Se219  1  0.75481281  0.42095675  0.31306642  1
  Se  Se220  1  0.74921591  0.42507099  0.80598392  1
  Se  Se221  1  0.74300160  0.74356787  0.30457207  1
  Se  Se222  1  0.75125989  0.75996182  0.81350486  1
  Se  Se223  1  0.25932707  0.08134062  0.20111791  1
  Se  Se224  1  0.25272549  0.08457740  0.70082738  1
  Se  Se225  1  0.21470015  0.44811723  0.18838614  1
  Se  Se226  1  0.24440493  0.42533519  0.68449552  1
  Se  Se227  1  0.24969999  0.74882052  0.19921590  1
  Se  Se228  1  0.25571259  0.75158893  0.70045179  1
  Se  Se229  1  0.58203139  0.07635503  0.20406406  1
  Se  Se230  1  0.57218819  0.09077105  0.68865793  1
  Se  Se231  1  0.58253958  0.42180405  0.18176079  1
  Se  Se232  1  0.58729500  0.41715974  0.69914651  1
  Se  Se233  1  0.58407308  0.74277539  0.19398345  1
  Se  Se234  1  0.57665317  0.75785007  0.69358355  1
  Se  Se235  1  0.91715174  0.08499923  0.18191601  1
  Se  Se236  1  0.90761377  0.08831556  0.69142600  1
  Se  Se237  1  0.90529057  0.42487656  0.19196323  1
  Se  Se238  1  0.91707685  0.42000860  0.69865670  1
  Se  Se239  1  0.91834191  0.74555324  0.19740662  1
  Se  Se240  1  0.91523096  0.74817671  0.69544613  1
  Se  Se241  1  0.09386989  0.23864049  0.19626757  1
  Se  Se242  1  0.08479902  0.24859023  0.70344762  1
  Se  Se243  1  0.06513088  0.58853221  0.20483338  1
  Se  Se244  1  0.08139493  0.58505830  0.69763485  1
  Se  Se245  1  0.09128100  0.91136384  0.18159737  1
  Se  Se246  1  0.08934808  0.91183447  0.68354613  1
  Se  Se247  1  0.40382553  0.27818851  0.19686688  1
  Se  Se248  1  0.42296558  0.24506807  0.68764553  1
  Se  Se249  1  0.40597831  0.59567047  0.19731603  1
  Se  Se250  1  0.41845272  0.58849469  0.69611817  1
  Se  Se251  1  0.41605279  0.91070109  0.20020401  1
  Se  Se252  1  0.41293600  0.91946637  0.69989507  1
  Se  Se253  1  0.75229893  0.24081108  0.18911691  1
  Se  Se254  1  0.74715270  0.25231197  0.70430691  1
  Se  Se255  1  0.74628058  0.58781377  0.19609808  1
  Se  Se256  1  0.75451847  0.58104481  0.68981207  1
  Se  Se257  1  0.74827811  0.91256452  0.19791138  1
  Se  Se258  1  0.74994055  0.91163082  0.69090340  1
