# generated using pymatgen
data_In86Cu29Se144
_symmetry_space_group_name_H-M   'P 1'
_cell_length_a   17.58348194
_cell_length_b   17.58635870
_cell_length_c   23.43253346
_cell_angle_alpha   89.99194290
_cell_angle_beta   90.00320927
_cell_angle_gamma   89.96920550
_symmetry_Int_Tables_number   1
_chemical_formula_structural   In86Cu29Se144
_chemical_formula_sum   'In86 Cu29 Se144'
_cell_volume   7246.02761747
_cell_formula_units_Z   1
loop_
 _symmetry_equiv_pos_site_id
 _symmetry_equiv_pos_as_xyz
  1  'x, y, z'
loop_
 _atom_site_type_symbol
 _atom_site_label
 _atom_site_symmetry_multiplicity
 _atom_site_fract_x
 _atom_site_fract_y
 _atom_site_fract_z
 _atom_site_occupancy
  In  In0  1  0.01480827  0.17060663  0.11929910  1
  In  In1  1  0.00051111  0.16234350  0.63177565  1
  In  In2  1  0.00983651  0.49466457  0.13027088  1
  In  In3  1  0.00848785  0.49329286  0.63056212  1
  In  In4  1  -0.01329871  0.83746622  0.12221765  1
  In  In5  1  -0.00072032  0.82922731  0.63092129  1
  In  In6  1  0.32154577  0.16842217  0.12230889  1
  In  In7  1  0.34521852  0.15858843  0.63104611  1
  In  In8  1  0.33540470  0.50605407  0.11303289  1
  In  In9  1  0.33343713  0.50293254  0.63288555  1
  In  In10  1  0.34721960  0.83639617  0.12497157  1
  In  In11  1  0.32577022  0.84368502  0.63801880  1
  In  In12  1  0.67626099  0.17317707  0.12437421  1
  In  In13  1  0.66237724  0.17222831  0.62872592  1
  In  In14  1  0.65329298  0.49582755  0.12228307  1
  In  In15  1  0.64940765  0.49882787  0.62995103  1
  In  In16  1  0.66259134  0.82718673  0.11336613  1
  In  In17  1  0.67910431  0.83415793  0.62940209  1
  In  In18  1  0.16593618  -0.01650235  0.37846572  1
  In  In19  1  0.17567997  0.00588942  0.86625024  1
  In  In20  1  0.16951946  0.34754703  0.37888062  1
  In  In21  1  0.16839453  0.33275715  0.87377648  1
  In  In22  1  0.16237815  0.67067698  0.38286042  1
  In  In23  1  0.16188893  0.65891325  0.87268372  1
  In  In24  1  0.50686460  0.01266871  0.37714634  1
  In  In25  1  0.49641095  -0.01410149  0.85724175  1
  In  In26  1  0.50058195  0.33174010  0.38132035  1
  In  In27  1  0.50794164  0.35246918  0.86383094  1
  In  In28  1  0.48568281  0.66342962  0.37786063  1
  In  In29  1  0.49065445  0.66679982  0.87187530  1
  In  In30  1  0.82745828  -0.00331762  0.38117140  1
  In  In31  1  0.82142343  -0.01434284  0.86304611  1
  In  In32  1  0.83299540  0.32893336  0.36787954  1
  In  In33  1  0.82811755  0.32733695  0.86689539  1
  In  In34  1  0.84715988  0.66587827  0.37556539  1
  In  In35  1  0.84581467  0.66795329  0.87059086  1
  In  In36  1  -0.00980037  0.16723451  0.37579031  1
  In  In37  1  0.00938407  0.17483889  0.86657304  1
  In  In38  1  0.00657132  0.51042414  0.36937533  1
  In  In39  1  0.01049824  0.50764438  0.86848576  1
  In  In40  1  0.01776021  0.82271893  0.39152235  1
  In  In41  1  -0.01277279  0.82596114  0.86226593  1
  In  In42  1  0.34828398  0.16923233  0.37863013  1
  In  In43  1  0.32533023  0.15998046  0.86961346  1
  In  In44  1  0.33265395  0.49742953  0.38626763  1
  In  In45  1  0.33424468  0.49649498  0.87218581  1
  In  In46  1  0.32056508  0.82496121  0.37454580  1
  In  In47  1  0.35070553  0.83737278  0.85718449  1
  In  In48  1  0.65579872  0.16821066  0.38035725  1
  In  In49  1  0.66445882  0.17087016  0.87274753  1
  In  In50  1  0.66357919  0.48958233  0.37415523  1
  In  In51  1  0.65783066  0.48314629  0.87570164  1
  In  In52  1  0.66758231  0.84547417  0.38100854  1
  In  In53  1  0.65829250  0.83383618  0.87318656  1
  In  In54  1  0.16781267  0.01296677  0.12181213  1
  In  In55  1  0.16990038  -0.00785276  0.62781546  1
  In  In56  1  0.16662158  0.33090869  0.11672205  1
  In  In57  1  0.15968285  0.34385304  0.62873213  1
  In  In58  1  0.17048538  0.65318449  0.12245978  1
  In  In59  1  0.16619515  0.66607124  0.62890693  1
  In  In60  1  0.49946837  -0.01547310  0.12407113  1
  In  In61  1  0.48922522  0.00541469  0.63611824  1
  In  In62  1  0.50429348  0.34818175  0.12351299  1
  In  In63  1  0.50085598  0.33484782  0.63145000  1
  In  In64  1  0.49816432  0.66725375  0.11700957  1
  In  In65  1  0.49486148  0.64807639  0.63103520  1
  In  In66  1  0.83856553  -0.00598182  0.11835867  1
  In  In67  1  0.85247130  -0.03405248  0.65648658  1
  In  In68  1  0.83172995  0.34225121  0.12990084  1
  In  In69  1  0.83352163  0.33312916  0.63339767  1
  In  In70  1  0.83256406  0.68090990  0.12379559  1
  In  In71  1  0.83649909  0.68850903  0.62959981  1
  In  In72  1  0.83400140  0.50434892  -0.00377238  1
  In  In73  1  0.33503629  0.33443574  0.25142940  1
  In  In74  1  0.16805216  0.83241656  -0.00929045  1
  In  In75  1  0.83608751  0.16542412  -0.01134341  1
  In  In76  1  0.83491205  0.50391907  0.49758065  1
  In  In77  1  0.49577958  0.17037532  -0.00350158  1
  In  In78  1  0.66603706  0.66386000  0.75120790  1
  In  In79  1  0.82918297  0.15708047  0.50380865  1
  In  In80  1  0.49351714  0.83060422  0.50372889  1
  In  In81  1  0.33439142  0.66720410  0.24527453  1
  In  In82  1  0.66585373  0.00297406  0.25497774  1
  In  In83  1  0.16973013  0.16100121  0.51287693  1
  In  In84  1  0.66503212  0.66381944  0.24437374  1
  In  In85  1  -0.00102349  0.00261354  0.24895443  1
  Cu  Cu86  1  0.50338297  0.17075448  0.25437873  1
  Cu  Cu87  1  0.16255534  0.83102794  0.25676726  1
  Cu  Cu88  1  0.33531343  0.66559791  -0.00553266  1
  Cu  Cu89  1  0.33420142  -0.00251632  0.50759413  1
  Cu  Cu90  1  0.16532153  0.82953831  0.75186824  1
  Cu  Cu91  1  0.00466668  0.33486842  0.50171442  1
  Cu  Cu92  1  0.83218057  0.16875910  0.75021671  1
  Cu  Cu93  1  0.83555842  0.49909012  0.75112677  1
  Cu  Cu94  1  0.32658856  0.66276096  0.50638630  1
  Cu  Cu95  1  0.00143908  0.66813392  -0.00599595  1
  Cu  Cu96  1  0.34003897  0.33921261  0.50637806  1
  Cu  Cu97  1  0.66249391  -0.00795771  -0.00849859  1
  Cu  Cu98  1  0.83818012  0.49793467  0.25111648  1
  Cu  Cu99  1  0.49666652  0.17247785  0.75370603  1
  Cu  Cu100  1  0.16654769  0.16987690  0.24516852  1
  Cu  Cu101  1  0.16482281  0.50061297  0.25069368  1
  Cu  Cu102  1  0.16810231  0.16944318  0.74481353  1
  Cu  Cu103  1  0.33014919  0.33505108  -0.00545239  1
  Cu  Cu104  1  0.66509523  0.66621258  0.51162804  1
  Cu  Cu105  1  0.67070671  -0.00030624  0.50830691  1
  Cu  Cu106  1  0.00359964  0.33616559  -0.00350074  1
  Cu  Cu107  1  0.83629052  0.17921421  0.24816091  1
  Cu  Cu108  1  0.33580860  -0.00364318  -0.01223938  1
  Cu  Cu109  1  -0.00203901  -0.00421435  -0.00461265  1
  Cu  Cu110  1  0.16924949  0.49923857  0.75147089  1
  Cu  Cu111  1  0.00215684  0.66823311  0.50403208  1
  Cu  Cu112  1  0.65692328  0.33696742  0.50548912  1
  Cu  Cu113  1  0.83439558  0.83222003  0.25000781  1
  Cu  Cu114  1  0.66380255  0.67062021  -0.00437853  1
  Se  Se115  1  0.08116123  0.08015013  0.04741038  1
  Se  Se116  1  0.07094362  0.06985208  0.56010070  1
  Se  Se117  1  0.08399300  0.41998367  0.05222273  1
  Se  Se118  1  0.08541505  0.42184061  0.55163560  1
  Se  Se119  1  0.08014871  0.74771218  0.05799781  1
  Se  Se120  1  0.08456448  0.75032305  0.55917867  1
  Se  Se121  1  0.40975250  0.07518546  0.05614036  1
  Se  Se122  1  0.42102373  0.08141251  0.55486492  1
  Se  Se123  1  0.41528141  0.41399729  0.05034272  1
  Se  Se124  1  0.41964811  0.42173065  0.56288789  1
  Se  Se125  1  0.41415185  0.75100595  0.05024667  1
  Se  Se126  1  0.40720635  0.74293371  0.56679811  1
  Se  Se127  1  0.74196599  0.07442424  0.05140358  1
  Se  Se128  1  0.75080275  0.07264281  0.57257394  1
  Se  Se129  1  0.74500579  0.41240854  0.05430056  1
  Se  Se130  1  0.74689339  0.41427800  0.55973196  1
  Se  Se131  1  0.75263802  0.75060489  0.04693845  1
  Se  Se132  1  0.75169477  0.75421212  0.55300238  1
  Se  Se133  1  0.24888849  0.24822362  0.04767199  1
  Se  Se134  1  0.25930434  0.25737333  0.56558772  1
  Se  Se135  1  0.24763068  0.58336234  0.04474918  1
  Se  Se136  1  0.24611839  0.57805556  0.56045599  1
  Se  Se137  1  0.25512080  0.92169719  0.05461833  1
  Se  Se138  1  0.25133048  0.91137345  0.55611801  1
  Se  Se139  1  0.58915633  0.25600556  0.05675791  1
  Se  Se140  1  0.57817332  0.24958248  0.55762623  1
  Se  Se141  1  0.58487814  0.58569977  0.05116131  1
  Se  Se142  1  0.57817949  0.57955339  0.55396559  1
  Se  Se143  1  0.57854290  0.91277496  0.04813643  1
  Se  Se144  1  0.58371442  0.91948175  0.56368726  1
  Se  Se145  1  0.91962918  0.25733326  0.05587996  1
  Se  Se146  1  0.92151748  0.25510739  0.55806935  1
  Se  Se147  1  0.92359911  0.59022620  0.05988121  1
  Se  Se148  1  0.92002997  0.58935617  0.56402683  1
  Se  Se149  1  0.91215653  0.91267184  0.04486650  1
  Se  Se150  1  0.90663474  0.90849590  0.56575156  1
  Se  Se151  1  0.08316029  0.24940265  0.44376437  1
  Se  Se152  1  0.08469749  0.24888118  0.94445177  1
  Se  Se153  1  0.08122673  0.58149327  0.44861526  1
  Se  Se154  1  0.08483169  0.58014254  0.94793122  1
  Se  Se155  1  0.08536353  0.92013364  0.45487209  1
  Se  Se156  1  0.07721990  0.91969729  0.93090211  1
  Se  Se157  1  0.41879083  0.25156966  0.45261286  1
  Se  Se158  1  0.40973017  0.25675131  0.93289853  1
  Se  Se159  1  0.41466718  0.58359734  0.45303534  1
  Se  Se160  1  0.41743735  0.57913240  0.94297505  1
  Se  Se161  1  0.41039091  0.92198622  0.43874251  1
  Se  Se162  1  0.42071186  0.91450890  0.93678962  1
  Se  Se163  1  0.74415014  0.25934959  0.44681727  1
  Se  Se164  1  0.73901564  0.26243368  0.94555978  1
  Se  Se165  1  0.74055088  0.59323059  0.43985787  1
  Se  Se166  1  0.74226460  0.59040899  0.93373072  1
  Se  Se167  1  0.75218340  0.91520283  0.45435224  1
  Se  Se168  1  0.75008184  0.91002561  0.94195491  1
  Se  Se169  1  0.25711739  0.07874031  0.44300226  1
  Se  Se170  1  0.24704733  0.08265463  0.94525761  1
  Se  Se171  1  0.24901841  0.41735805  0.45535611  1
  Se  Se172  1  0.24607175  0.41991032  0.94346811  1
  Se  Se173  1  0.24818738  0.75027563  0.45189022  1
  Se  Se174  1  0.26176310  0.74791393  0.93113439  1
  Se  Se175  1  0.58725866  0.08247304  0.45398864  1
  Se  Se176  1  0.58118078  0.07536487  0.93620670  1
  Se  Se177  1  0.57911292  0.42165027  0.44908687  1
  Se  Se178  1  0.57364970  0.41654367  0.94996319  1
  Se  Se179  1  0.58766328  0.74247330  0.44268283  1
  Se  Se180  1  0.57722651  0.74854718  0.94032778  1
  Se  Se181  1  0.92728119  0.07038762  0.44679198  1
  Se  Se182  1  0.92282828  0.07464891  0.92983288  1
  Se  Se183  1  0.92273012  0.40990466  0.43867458  1
  Se  Se184  1  0.92067569  0.41136352  0.93548155  1
  Se  Se185  1  0.91506293  0.74942513  0.45036930  1
  Se  Se186  1  0.91730514  0.75238545  0.94454650  1
  Se  Se187  1  0.24440225  0.24429036  0.31253949  1
  Se  Se188  1  0.24908604  0.25019752  0.80227832  1
  Se  Se189  1  0.24719054  0.57916068  0.31091353  1
  Se  Se190  1  0.25138596  0.58412217  0.80466620  1
  Se  Se191  1  0.24996840  0.91540474  0.30335152  1
  Se  Se192  1  0.25203167  0.91640753  0.79905313  1
  Se  Se193  1  0.58428016  0.25396434  0.30832665  1
  Se  Se194  1  0.58472598  0.25403089  0.80362730  1
  Se  Se195  1  0.57567638  0.58019983  0.30921668  1
  Se  Se196  1  0.57644035  0.57190073  0.80736123  1
  Se  Se197  1  0.57322905  0.90899518  0.30793511  1
  Se  Se198  1  0.60233269  0.92375647  0.79512926  1
  Se  Se199  1  0.92622929  0.25453007  0.30118809  1
  Se  Se200  1  0.91907070  0.25319318  0.80036538  1
  Se  Se201  1  0.91900357  0.58705639  0.29997714  1
  Se  Se202  1  0.92080904  0.58363915  0.80003732  1
  Se  Se203  1  0.91249978  0.91312395  0.31135970  1
  Se  Se204  1  0.92140793  0.92410454  0.79669344  1
  Se  Se205  1  0.09145526  0.08936202  0.31062246  1
  Se  Se206  1  0.08650340  0.08469913  0.79959169  1
  Se  Se207  1  0.08405582  0.41569911  0.30483603  1
  Se  Se208  1  0.08407963  0.41395740  0.80317648  1
  Se  Se209  1  0.08042041  0.74733937  0.30892492  1
  Se  Se210  1  0.08243068  0.74429578  0.80362376  1
  Se  Se211  1  0.41999216  0.08524469  0.30476876  1
  Se  Se212  1  0.41342900  0.08252187  0.80095318  1
  Se  Se213  1  0.42118035  0.42579815  0.31130903  1
  Se  Se214  1  0.40254165  0.40711750  0.79968823  1
  Se  Se215  1  0.42313604  0.75929494  0.30537768  1
  Se  Se216  1  0.42396057  0.74434831  0.79199114  1
  Se  Se217  1  0.76017958  0.09722885  0.31055628  1
  Se  Se218  1  0.74820237  0.08891466  0.80553038  1
  Se  Se219  1  0.75167020  0.41782502  0.30377469  1
  Se  Se220  1  0.74880734  0.41833251  0.80261278  1
  Se  Se221  1  0.75089994  0.75553104  0.31044979  1
  Se  Se222  1  0.75762011  0.75541742  0.80652858  1
  Se  Se223  1  0.25088555  0.08379107  0.19679656  1
  Se  Se224  1  0.24989747  0.08152586  0.69367717  1
  Se  Se225  1  0.24827968  0.42553464  0.18876495  1
  Se  Se226  1  0.25029410  0.41367713  0.69854621  1
  Se  Se227  1  0.24075345  0.75888493  0.18775704  1
  Se  Se228  1  0.24995514  0.74626551  0.69953998  1
  Se  Se229  1  0.57961269  0.09136334  0.18896275  1
  Se  Se230  1  0.57874537  0.09043279  0.69778225  1
  Se  Se231  1  0.58695398  0.41485569  0.19862890  1
  Se  Se232  1  0.59211577  0.40643992  0.70151701  1
  Se  Se233  1  0.57458519  0.75907881  0.19009104  1
  Se  Se234  1  0.57890005  0.75092523  0.68693219  1
  Se  Se235  1  0.90927232  0.09417317  0.18616861  1
  Se  Se236  1  0.91824537  0.08349729  0.70252995  1
  Se  Se237  1  0.92264491  0.41486330  0.19748664  1
  Se  Se238  1  0.91995556  0.41521216  0.69827993  1
  Se  Se239  1  0.91965658  0.75118140  0.19711625  1
  Se  Se240  1  0.91801544  0.75244063  0.70548309  1
  Se  Se241  1  0.08615945  0.25494832  0.19244520  1
  Se  Se242  1  0.08114764  0.25283120  0.69462858  1
  Se  Se243  1  0.08454217  0.58779632  0.19769321  1
  Se  Se244  1  0.08340709  0.58240145  0.69884420  1
  Se  Se245  1  0.08980170  0.91136839  0.18874678  1
  Se  Se246  1  0.08463155  0.91499525  0.69778948  1
  Se  Se247  1  0.42288856  0.24437145  0.18829598  1
  Se  Se248  1  0.41251714  0.25362431  0.69898408  1
  Se  Se249  1  0.42505862  0.57386495  0.19004079  1
  Se  Se250  1  0.41406457  0.58067788  0.70646559  1
  Se  Se251  1  0.41037557  0.92503481  0.19795390  1
  Se  Se252  1  0.42223254  0.91107969  0.70334985  1
  Se  Se253  1  0.74744082  0.25752476  0.19680920  1
  Se  Se254  1  0.74716821  0.25252831  0.69879074  1
  Se  Se255  1  0.75965209  0.57429732  0.18586520  1
  Se  Se256  1  0.75822643  0.57771267  0.68624144  1
  Se  Se257  1  0.75259078  0.91120777  0.18991106  1
  Se  Se258  1  0.72694333  0.92800416  0.70738067  1
