# generated using pymatgen
data_In86Cu29Se144
_symmetry_space_group_name_H-M   'P 1'
_cell_length_a   17.58373630
_cell_length_b   17.58710332
_cell_length_c   23.44866333
_cell_angle_alpha   89.96176931
_cell_angle_beta   90.00039724
_cell_angle_gamma   90.00895065
_symmetry_Int_Tables_number   1
_chemical_formula_structural   In86Cu29Se144
_chemical_formula_sum   'In86 Cu29 Se144'
_cell_volume   7251.42678101
_cell_formula_units_Z   1
loop_
 _symmetry_equiv_pos_site_id
 _symmetry_equiv_pos_as_xyz
  1  'x, y, z'
loop_
 _atom_site_type_symbol
 _atom_site_label
 _atom_site_symmetry_multiplicity
 _atom_site_fract_x
 _atom_site_fract_y
 _atom_site_fract_z
 _atom_site_occupancy
  In  In0  1  0.02586786  0.16990065  0.11935896  1
  In  In1  1  -0.01062508  0.15153702  0.61570207  1
  In  In2  1  -0.00333263  0.49644073  0.12754187  1
  In  In3  1  0.01419684  0.50449109  0.62937816  1
  In  In4  1  -0.00635580  0.83929116  0.12062160  1
  In  In5  1  -0.00024482  0.83684612  0.62502578  1
  In  In6  1  0.31961399  0.17431248  0.13293753  1
  In  In7  1  0.31872383  0.16758033  0.61990581  1
  In  In8  1  0.32159680  0.47983398  0.10024793  1
  In  In9  1  0.34951416  0.50526968  0.61992308  1
  In  In10  1  0.34377894  0.82828125  0.12872630  1
  In  In11  1  0.34041961  0.82792769  0.62115612  1
  In  In12  1  0.65497401  0.16012250  0.13133337  1
  In  In13  1  0.66550232  0.14868006  0.62042624  1
  In  In14  1  0.67369427  0.51044898  0.12115360  1
  In  In15  1  0.66554227  0.52479000  0.62273546  1
  In  In16  1  0.67839069  0.82186340  0.14109775  1
  In  In17  1  0.66959024  0.82794686  0.61709747  1
  In  In18  1  0.17591792  -0.00738596  0.38446081  1
  In  In19  1  0.16749804  0.00589616  0.86660351  1
  In  In20  1  0.15795435  0.32564176  0.36331152  1
  In  In21  1  0.17292649  0.33500232  0.88853386  1
  In  In22  1  0.17927803  0.67070987  0.38217045  1
  In  In23  1  0.16581775  0.66704033  0.87151436  1
  In  In24  1  0.49204266  -0.01104828  0.37297510  1
  In  In25  1  0.49465708  -0.00675482  0.86389331  1
  In  In26  1  0.49630927  0.35309402  0.36793942  1
  In  In27  1  0.49448960  0.34536484  0.88273739  1
  In  In28  1  0.50274799  0.65136375  0.39641837  1
  In  In29  1  0.49462331  0.66184982  0.86415729  1
  In  In30  1  0.82914622  -0.00568451  0.37644445  1
  In  In31  1  0.82449826  -0.01407808  0.86527724  1
  In  In32  1  0.83589912  0.32042257  0.37155418  1
  In  In33  1  0.84675223  0.33986113  0.88016098  1
  In  In34  1  0.81926099  0.68236716  0.38278665  1
  In  In35  1  0.83505104  0.67129215  0.87625099  1
  In  In36  1  -0.00301887  0.16558784  0.37694255  1
  In  In37  1  0.00866599  0.17175424  0.87234612  1
  In  In38  1  0.01179945  0.49514458  0.36665299  1
  In  In39  1  -0.00424071  0.50859678  0.88361636  1
  In  In40  1  -0.00314076  0.83758488  0.38405738  1
  In  In41  1  -0.01069489  0.82059317  0.86505372  1
  In  In42  1  0.32420710  0.15688840  0.37197931  1
  In  In43  1  0.33208117  0.15830346  0.87476290  1
  In  In44  1  0.35240811  0.50314721  0.36197738  1
  In  In45  1  0.31843764  0.51791587  0.89870115  1
  In  In46  1  0.32944492  0.82968619  0.38890900  1
  In  In47  1  0.33050543  0.83374420  0.86456661  1
  In  In48  1  0.68730764  0.16540621  0.37557274  1
  In  In49  1  0.66818903  0.15490465  0.87133067  1
  In  In50  1  0.65068928  0.51197068  0.37431636  1
  In  In51  1  0.65694618  0.51802973  0.88133724  1
  In  In52  1  0.65571631  0.82167791  0.37922935  1
  In  In53  1  0.67174654  0.83860128  0.86783416  1
  In  In54  1  0.16307692  0.00920649  0.12513902  1
  In  In55  1  0.16734002  -0.00219548  0.62462935  1
  In  In56  1  0.17570246  0.33710549  0.12905533  1
  In  In57  1  0.17978583  0.33213613  0.62117936  1
  In  In58  1  0.17887337  0.64403779  0.12400301  1
  In  In59  1  0.15688856  0.67566506  0.63488207  1
  In  In60  1  0.49908676  -0.00215794  0.13777553  1
  In  In61  1  0.51553941  -0.01516373  0.63269067  1
  In  In62  1  0.48473375  0.34572289  0.13443424  1
  In  In63  1  0.49105624  0.34612417  0.61796314  1
  In  In64  1  0.50474471  0.66671225  0.12436541  1
  In  In65  1  0.50181170  0.67113173  0.61995236  1
  In  In66  1  0.83060337  -0.01073259  0.12295831  1
  In  In67  1  0.83280996  -0.00578430  0.62087411  1
  In  In68  1  0.82973119  0.35261210  0.12779612  1
  In  In69  1  0.84437551  0.32963985  0.61987478  1
  In  In70  1  0.83032053  0.66506644  0.12138347  1
  In  In71  1  0.81804570  0.68518375  0.63610935  1
  In  In72  1  0.00290579  0.33318209  0.75337900  1
  In  In73  1  0.66526656  0.33194592  0.75856191  1
  In  In74  1  0.66889969  0.33069788  0.25155072  1
  In  In75  1  0.83336818  0.50165447  0.49998957  1
  In  In76  1  0.49302131  0.17224370  0.00626468  1
  In  In77  1  0.17333929  0.50115946  0.49765837  1
  In  In78  1  0.33447738  0.33489843  0.75450104  1
  In  In79  1  -0.00596123  0.66606720  0.24571082  1
  In  In80  1  0.83705544  0.17246122  -0.00227078  1
  In  In81  1  -0.00451504  0.00089081  0.25433067  1
  In  In82  1  0.50165111  0.16313071  0.49858465  1
  In  In83  1  0.16218562  0.83115680  -0.00675136  1
  In  In84  1  0.33909537  0.66303788  0.25015819  1
  In  In85  1  0.50258491  0.83143449  0.00562466  1
  Cu  Cu86  1  0.00723365  0.34007883  0.00442246  1
  Cu  Cu87  1  0.50022054  0.15882977  0.25671945  1
  Cu  Cu88  1  0.83026265  0.50764400  0.24879995  1
  Cu  Cu89  1  0.49309482  0.16016565  0.74855000  1
  Cu  Cu90  1  0.50418567  0.50923407  0.74680864  1
  Cu  Cu91  1  0.00287584  0.32143944  0.49439613  1
  Cu  Cu92  1  0.16999790  0.83427561  0.25961741  1
  Cu  Cu93  1  0.50385498  0.83081671  0.74248625  1
  Cu  Cu94  1  0.33324478  -0.00085355  0.50488192  1
  Cu  Cu95  1  0.17195706  0.50849279  0.75632255  1
  Cu  Cu96  1  0.67150458  0.67295389  -0.00038595  1
  Cu  Cu97  1  0.15914573  0.16068028  0.74440077  1
  Cu  Cu98  1  0.17542498  0.16584614  0.24757894  1
  Cu  Cu99  1  0.17018183  0.83870900  0.74483285  1
  Cu  Cu100  1  0.66503808  -0.00515793  -0.00340454  1
  Cu  Cu101  1  0.84498198  0.16227850  0.25138581  1
  Cu  Cu102  1  0.67532726  -0.00532783  0.49785749  1
  Cu  Cu103  1  0.00291160  0.66644495  -0.00153033  1
  Cu  Cu104  1  0.82499664  0.15592049  0.74335279  1
  Cu  Cu105  1  0.66665898  0.33699617  0.49227026  1
  Cu  Cu106  1  0.49861903  0.83348296  0.25654660  1
  Cu  Cu107  1  -0.00413995  0.67140130  0.50666875  1
  Cu  Cu108  1  0.33133070  0.33295702  0.49207366  1
  Cu  Cu109  1  0.00397524  -0.00047379  0.50180425  1
  Cu  Cu110  1  0.83494327  0.83368928  0.74488549  1
  Cu  Cu111  1  -0.00496440  -0.00038551  -0.00180366  1
  Cu  Cu112  1  0.32662523  0.00160761  -0.00084727  1
  Cu  Cu113  1  0.66891998  0.34062908  0.00418109  1
  Cu  Cu114  1  0.83640825  0.51010117  0.75639148  1
  Se  Se115  1  0.08662994  0.07840553  0.04568819  1
  Se  Se116  1  0.08931621  0.08375939  0.55258686  1
  Se  Se117  1  0.08803138  0.42074005  0.06114915  1
  Se  Se118  1  0.07723775  0.40711924  0.55530412  1
  Se  Se119  1  0.08230605  0.74141733  0.06370314  1
  Se  Se120  1  0.08425943  0.75178435  0.55716857  1
  Se  Se121  1  0.40925802  0.07371946  0.06347756  1
  Se  Se122  1  0.41742049  0.07730567  0.56505809  1
  Se  Se123  1  0.43218098  0.41377179  0.04674956  1
  Se  Se124  1  0.41306875  0.41941565  0.54272936  1
  Se  Se125  1  0.40574746  0.73737569  0.05326947  1
  Se  Se126  1  0.43746848  0.76635144  0.54844650  1
  Se  Se127  1  0.74063669  0.08371716  0.05442078  1
  Se  Se128  1  0.75533924  0.08262366  0.54934863  1
  Se  Se129  1  0.75508134  0.42587617  0.05118596  1
  Se  Se130  1  0.74149666  0.41221485  0.56218384  1
  Se  Se131  1  0.74932673  0.75700384  0.05680209  1
  Se  Se132  1  0.75220415  0.74270006  0.55001870  1
  Se  Se133  1  0.23905163  0.24083785  0.05803975  1
  Se  Se134  1  0.24811815  0.25055597  0.54509845  1
  Se  Se135  1  0.25593604  0.58756647  0.04263170  1
  Se  Se136  1  0.24933340  0.59072366  0.56551113  1
  Se  Se137  1  0.25314026  0.91562371  0.06025892  1
  Se  Se138  1  0.25119064  0.91392730  0.55754436  1
  Se  Se139  1  0.58990490  0.26064536  0.06342068  1
  Se  Se140  1  0.59004631  0.25773936  0.55891121  1
  Se  Se141  1  0.58764501  0.58963508  0.05248495  1
  Se  Se142  1  0.56188212  0.56591263  0.55400230  1
  Se  Se143  1  0.59024338  0.92210051  0.06509992  1
  Se  Se144  1  0.58687098  0.91775398  0.55123786  1
  Se  Se145  1  0.92242932  0.25954546  0.06346755  1
  Se  Se146  1  0.91458399  0.24406559  0.54817526  1
  Se  Se147  1  0.92167450  0.58548771  0.05799359  1
  Se  Se148  1  0.92114006  0.58623744  0.56586025  1
  Se  Se149  1  0.91157994  0.91558234  0.04826862  1
  Se  Se150  1  0.91779354  0.91436300  0.55181529  1
  Se  Se151  1  0.09027555  0.24396083  0.44139936  1
  Se  Se152  1  0.07963662  0.25087582  0.94814747  1
  Se  Se153  1  0.07188877  0.58992456  0.44374686  1
  Se  Se154  1  0.08987121  0.58638977  0.94631823  1
  Se  Se155  1  0.08686159  0.91334624  0.45029377  1
  Se  Se156  1  0.07289426  0.92103102  0.93385917  1
  Se  Se157  1  0.41662434  0.25323612  0.43502966  1
  Se  Se158  1  0.40210652  0.25703825  0.94369871  1
  Se  Se159  1  0.38367567  0.59379655  0.44389519  1
  Se  Se160  1  0.43960081  0.57507422  0.94211484  1
  Se  Se161  1  0.41702561  0.91826335  0.45142241  1
  Se  Se162  1  0.40981547  0.92075200  0.94256374  1
  Se  Se163  1  0.75588495  0.25178016  0.44933782  1
  Se  Se164  1  0.73899412  0.25836286  0.93826116  1
  Se  Se165  1  0.73527818  0.59059012  0.44919218  1
  Se  Se166  1  0.75461054  0.58709151  0.94661669  1
  Se  Se167  1  0.74938511  0.90603515  0.44234376  1
  Se  Se168  1  0.75033257  0.91402272  0.94461760  1
  Se  Se169  1  0.25173876  0.08433355  0.45185464  1
  Se  Se170  1  0.24457780  0.08205899  0.94371524  1
  Se  Se171  1  0.25207365  0.41203096  0.43051262  1
  Se  Se172  1  0.25412982  0.41313009  0.95692401  1
  Se  Se173  1  0.23989764  0.75519099  0.45742357  1
  Se  Se174  1  0.26167862  0.74620279  0.94056136  1
  Se  Se175  1  0.59374170  0.07662964  0.43762864  1
  Se  Se176  1  0.57867984  0.07563844  0.94264273  1
  Se  Se177  1  0.57990421  0.41970829  0.44421989  1
  Se  Se178  1  0.58718923  0.42008523  0.94665708  1
  Se  Se179  1  0.55931828  0.76326096  0.45424044  1
  Se  Se180  1  0.58809091  0.74851845  0.93769444  1
  Se  Se181  1  0.91865884  0.07547561  0.44203827  1
  Se  Se182  1  0.91683609  0.07857904  0.93450249  1
  Se  Se183  1  0.92540585  0.41110913  0.43956288  1
  Se  Se184  1  0.91904950  0.42115605  0.95347771  1
  Se  Se185  1  0.91395881  0.75154843  0.44987915  1
  Se  Se186  1  0.91929218  0.75193191  0.94768603  1
  Se  Se187  1  0.25676584  0.24984701  0.30195547  1
  Se  Se188  1  0.23621138  0.24355723  0.80679054  1
  Se  Se189  1  0.23976716  0.57752228  0.30767391  1
  Se  Se190  1  0.26044369  0.58471929  0.80994237  1
  Se  Se191  1  0.25553576  0.91251270  0.31258703  1
  Se  Se192  1  0.25164986  0.92301853  0.79966893  1
  Se  Se193  1  0.57982411  0.24176082  0.31549829  1
  Se  Se194  1  0.56646849  0.24110599  0.81392030  1
  Se  Se195  1  0.56274022  0.58736610  0.30816818  1
  Se  Se196  1  0.59206882  0.59011790  0.79823234  1
  Se  Se197  1  0.58547224  0.91534972  0.30765997  1
  Se  Se198  1  0.58419513  0.91593742  0.79888501  1
  Se  Se199  1  0.92556620  0.24992051  0.30117452  1
  Se  Se200  1  0.90195214  0.23995473  0.80426486  1
  Se  Se201  1  0.90686588  0.58306970  0.31582458  1
  Se  Se202  1  0.92364354  0.58927306  0.80846712  1
  Se  Se203  1  0.90810217  0.90227191  0.30558683  1
  Se  Se204  1  0.91939421  0.91676992  0.79830292  1
  Se  Se205  1  0.09487755  0.08446044  0.30954949  1
  Se  Se206  1  0.07426235  0.08236361  0.79982423  1
  Se  Se207  1  0.08259185  0.41371727  0.29490211  1
  Se  Se208  1  0.09354209  0.42163769  0.81373141  1
  Se  Se209  1  0.08498634  0.75190623  0.31237727  1
  Se  Se210  1  0.09079785  0.75382785  0.80181965  1
  Se  Se211  1  0.41256103  0.07670974  0.30606303  1
  Se  Se212  1  0.40747532  0.07915808  0.80091161  1
  Se  Se213  1  0.41116857  0.40934841  0.29020109  1
  Se  Se214  1  0.42310650  0.43083215  0.80778195  1
  Se  Se215  1  0.41934835  0.75221234  0.31637249  1
  Se  Se216  1  0.41767204  0.75276654  0.79894683  1
  Se  Se217  1  0.75808015  0.08147095  0.30193861  1
  Se  Se218  1  0.74245834  0.07433448  0.79884212  1
  Se  Se219  1  0.75420008  0.42586680  0.31386525  1
  Se  Se220  1  0.75765551  0.42485944  0.81442477  1
  Se  Se221  1  0.73557057  0.74187711  0.30611761  1
  Se  Se222  1  0.75471250  0.75114295  0.80337315  1
  Se  Se223  1  0.25293409  0.07281556  0.19841118  1
  Se  Se224  1  0.25060748  0.08368895  0.69422025  1
  Se  Se225  1  0.26717680  0.41943602  0.19107782  1
  Se  Se226  1  0.24682446  0.42825463  0.69213655  1
  Se  Se227  1  0.23971362  0.75296766  0.19188824  1
  Se  Se228  1  0.25485634  0.75223266  0.69493412  1
  Se  Se229  1  0.58680124  0.07677989  0.20586387  1
  Se  Se230  1  0.58497347  0.08356734  0.69855981  1
  Se  Se231  1  0.58616767  0.42603758  0.19313074  1
  Se  Se232  1  0.58132000  0.41981741  0.69142509  1
  Se  Se233  1  0.57608596  0.74921862  0.19891526  1
  Se  Se234  1  0.58848441  0.74808348  0.69039576  1
  Se  Se235  1  0.91995409  0.09016133  0.18144682  1
  Se  Se236  1  0.91463091  0.07768218  0.69264933  1
  Se  Se237  1  0.91465320  0.42005738  0.20218637  1
  Se  Se238  1  0.91007241  0.42592965  0.69454049  1
  Se  Se239  1  0.90609015  0.76285739  0.19231494  1
  Se  Se240  1  0.92327240  0.74902680  0.69660440  1
  Se  Se241  1  0.09016955  0.25009145  0.19702555  1
  Se  Se242  1  0.08515540  0.24719345  0.68440620  1
  Se  Se243  1  0.09195890  0.57321397  0.19802528  1
  Se  Se244  1  0.08175586  0.58586470  0.70517466  1
  Se  Se245  1  0.08887748  0.90838392  0.19454471  1
  Se  Se246  1  0.08165599  0.92029546  0.69491321  1
  Se  Se247  1  0.42444853  0.23864925  0.19498730  1
  Se  Se248  1  0.42153666  0.24623731  0.68816282  1
  Se  Se249  1  0.41068605  0.57631324  0.17878774  1
  Se  Se250  1  0.41848770  0.58961461  0.69328258  1
  Se  Se251  1  0.41227913  0.91316921  0.20226368  1
  Se  Se252  1  0.41518117  0.91528656  0.69442211  1
  Se  Se253  1  0.76117924  0.24082584  0.18974325  1
  Se  Se254  1  0.75118450  0.24733610  0.68827984  1
  Se  Se255  1  0.74824924  0.59079473  0.19635506  1
  Se  Se256  1  0.74905482  0.58595897  0.70116797  1
  Se  Se257  1  0.74226491  0.93111182  0.19726495  1
  Se  Se258  1  0.74881348  0.91257736  0.68928807  1
