# generated using pymatgen
data_In86Cu29Se144
_symmetry_space_group_name_H-M   'P 1'
_cell_length_a   17.58363839
_cell_length_b   17.58991144
_cell_length_c   23.44771612
_cell_angle_alpha   90.00651950
_cell_angle_beta   89.98555938
_cell_angle_gamma   89.97646421
_symmetry_Int_Tables_number   1
_chemical_formula_structural   In86Cu29Se144
_chemical_formula_sum   'In86 Cu29 Se144'
_cell_volume   7252.25207613
_cell_formula_units_Z   1
loop_
 _symmetry_equiv_pos_site_id
 _symmetry_equiv_pos_as_xyz
  1  'x, y, z'
loop_
 _atom_site_type_symbol
 _atom_site_label
 _atom_site_symmetry_multiplicity
 _atom_site_fract_x
 _atom_site_fract_y
 _atom_site_fract_z
 _atom_site_occupancy
  In  In0  1  -0.01534936  0.16667271  0.12538318  1
  In  In1  1  -0.00119169  0.16485331  0.62532041  1
  In  In2  1  0.00538656  0.48895184  0.11991372  1
  In  In3  1  -0.02068285  0.47933467  0.61898068  1
  In  In4  1  0.00962894  0.83598483  0.12417280  1
  In  In5  1  -0.00247460  0.84757743  0.63012503  1
  In  In6  1  0.34492471  0.17508307  0.13399613  1
  In  In7  1  0.34402374  0.18467235  0.61501698  1
  In  In8  1  0.33689948  0.49705199  0.12704175  1
  In  In9  1  0.33288691  0.49959345  0.62196361  1
  In  In10  1  0.31871961  0.82710556  0.12654076  1
  In  In11  1  0.32527970  0.82665503  0.62846897  1
  In  In12  1  0.67047715  0.15936978  0.14307652  1
  In  In13  1  0.67682216  0.17584864  0.60765546  1
  In  In14  1  0.65455507  0.51425916  0.13715054  1
  In  In15  1  0.67615879  0.50884154  0.61696677  1
  In  In16  1  0.66866435  0.83337686  0.13153154  1
  In  In17  1  0.66746567  0.82136894  0.62162155  1
  In  In18  1  0.17038005  0.01810905  0.37426214  1
  In  In19  1  0.14229785  0.00401790  0.87994528  1
  In  In20  1  0.17096192  0.33006663  0.37986391  1
  In  In21  1  0.17519877  0.34042098  0.86674781  1
  In  In22  1  0.16597126  0.65170609  0.37616246  1
  In  In23  1  0.17557971  0.65209176  0.88319465  1
  In  In24  1  0.52010975  0.00806359  0.37181665  1
  In  In25  1  0.50420984  0.00707146  0.87423715  1
  In  In26  1  0.50285773  0.33383354  0.37526730  1
  In  In27  1  0.50582312  0.34907320  0.87417544  1
  In  In28  1  0.48993373  0.65545175  0.36745757  1
  In  In29  1  0.48801474  0.66077284  0.86964127  1
  In  In30  1  0.82687318  -0.00075204  0.37879395  1
  In  In31  1  0.85276190  0.00814947  0.87248361  1
  In  In32  1  0.81550341  0.34565366  0.38539821  1
  In  In33  1  0.83301347  0.31967834  0.87278429  1
  In  In34  1  0.82688797  0.66831399  0.37753013  1
  In  In35  1  0.82782827  0.66435063  0.86676893  1
  In  In36  1  0.00368096  0.16102773  0.37929668  1
  In  In37  1  -0.01731803  0.16053028  0.85410841  1
  In  In38  1  -0.00044740  0.50109735  0.38587469  1
  In  In39  1  0.01437939  0.50475213  0.87140343  1
  In  In40  1  -0.02179462  0.83677370  0.37924938  1
  In  In41  1  -0.00013243  0.84643103  0.87618367  1
  In  In42  1  0.32422782  0.17956381  0.38087193  1
  In  In43  1  0.32235837  0.17094159  0.86896174  1
  In  In44  1  0.33429709  0.49904617  0.37607312  1
  In  In45  1  0.33344631  0.49884968  0.87376909  1
  In  In46  1  0.34426405  0.82916276  0.37143249  1
  In  In47  1  0.33290050  0.81499706  0.87638233  1
  In  In48  1  0.66638710  0.17082755  0.38116325  1
  In  In49  1  0.67448538  0.17907623  0.87622925  1
  In  In50  1  0.66428755  0.49584269  0.37266184  1
  In  In51  1  0.64944648  0.50130390  0.87974270  1
  In  In52  1  0.68021817  0.84058125  0.36722533  1
  In  In53  1  0.67896951  0.83190939  0.87479947  1
  In  In54  1  0.16361953  -0.01418337  0.12573447  1
  In  In55  1  0.15099739  0.00131570  0.62814667  1
  In  In56  1  0.17185703  0.34542519  0.12205240  1
  In  In57  1  0.16511284  0.33608202  0.62217873  1
  In  In58  1  0.17336912  0.66724619  0.12192171  1
  In  In59  1  0.18029059  0.66216494  0.63010311  1
  In  In60  1  0.51280736  0.01128143  0.13464249  1
  In  In61  1  0.50242405  0.00903609  0.61547020  1
  In  In62  1  0.49054706  0.33669377  0.13682524  1
  In  In63  1  0.49595343  0.33399637  0.61802803  1
  In  In64  1  0.51194451  0.64923941  0.13199725  1
  In  In65  1  0.50769264  0.65480106  0.62645779  1
  In  In66  1  0.82889060  0.00765119  0.13529677  1
  In  In67  1  0.84722832  0.01801439  0.60366489  1
  In  In68  1  0.83736557  0.32426311  0.12671775  1
  In  In69  1  0.84119985  0.33246576  0.62278297  1
  In  In70  1  0.81172880  0.66467476  0.12665521  1
  In  In71  1  0.81615325  0.64961200  0.61659448  1
  In  In72  1  0.32736046  -0.00345341  0.74432633  1
  In  In73  1  -0.00028909  0.66230980  0.74970631  1
  In  In74  1  0.49912538  0.82510282  0.00184843  1
  In  In75  1  -0.00476303  0.66887248  0.25243195  1
  In  In76  1  -0.00278756  0.33261501  0.24874892  1
  In  In77  1  0.83719487  0.83635655  0.00348842  1
  In  In78  1  0.83418171  0.50037769  -0.00020357  1
  In  In79  1  0.16082652  0.16843486  -0.00131567  1
  In  In80  1  0.67189742  -0.00322819  0.74642842  1
  In  In81  1  0.67470664  0.33984658  0.73961592  1
  In  In82  1  0.16310312  0.83440977  0.50762929  1
  In  In83  1  0.49949378  0.17371228  0.01310861  1
  In  In84  1  0.33719498  -0.00204457  0.24962948  1
  In  In85  1  0.50539285  0.83503765  0.49295975  1
  Cu  Cu86  1  0.50006053  0.17449075  0.74006361  1
  Cu  Cu87  1  0.00001466  0.32593342  0.50028195  1
  Cu  Cu88  1  0.33975497  0.33957520  -0.00209810  1
  Cu  Cu89  1  0.83104161  0.82966744  0.74734131  1
  Cu  Cu90  1  0.33246864  0.65615430  0.00075252  1
  Cu  Cu91  1  0.17529826  0.49797497  0.25022650  1
  Cu  Cu92  1  0.66321858  0.33611816  0.49685361  1
  Cu  Cu93  1  0.50300760  0.82359090  0.25094680  1
  Cu  Cu94  1  0.50268358  0.82246255  0.74606427  1
  Cu  Cu95  1  0.32891711  -0.00968976  0.00306787  1
  Cu  Cu96  1  0.49115652  0.50403490  0.74942142  1
  Cu  Cu97  1  0.33472760  0.66318679  0.49947429  1
  Cu  Cu98  1  0.15998130  0.82989716  0.24819721  1
  Cu  Cu99  1  0.83267506  0.16787042  0.25838814  1
  Cu  Cu100  1  0.00668804  0.33089448  -0.00376928  1
  Cu  Cu101  1  0.49682677  0.49580887  0.25458293  1
  Cu  Cu102  1  0.83020267  0.83885218  0.25225823  1
  Cu  Cu103  1  -0.00094588  0.66322153  0.50209864  1
  Cu  Cu104  1  0.00314021  0.66834610  0.00075194  1
  Cu  Cu105  1  0.33342922  0.01268563  0.49809387  1
  Cu  Cu106  1  -0.00016288  0.00202067  0.49978118  1
  Cu  Cu107  1  0.67444290  0.01048847  0.00852118  1
  Cu  Cu108  1  0.16493597  0.17479858  0.74548980  1
  Cu  Cu109  1  0.67080804  0.33480701  0.00073082  1
  Cu  Cu110  1  0.33184536  0.34163501  0.49800187  1
  Cu  Cu111  1  0.16373574  0.16790791  0.25477466  1
  Cu  Cu112  1  0.66516938  0.66187247  0.49439305  1
  Cu  Cu113  1  0.17020370  0.49892750  0.74703647  1
  Cu  Cu114  1  0.16759548  0.83099292  0.75530464  1
  Se  Se115  1  0.07722890  0.07896915  0.06201575  1
  Se  Se116  1  0.08438056  0.08432760  0.55293655  1
  Se  Se117  1  0.08921522  0.41647230  0.04700625  1
  Se  Se118  1  0.07910839  0.41558712  0.55243961  1
  Se  Se119  1  0.08583375  0.74942443  0.05587468  1
  Se  Se120  1  0.07544263  0.74151280  0.56685698  1
  Se  Se121  1  0.40789519  0.07088635  0.06264134  1
  Se  Se122  1  0.42125593  0.09296915  0.54907474  1
  Se  Se123  1  0.42204491  0.41479506  0.05777549  1
  Se  Se124  1  0.41801710  0.42287427  0.55067307  1
  Se  Se125  1  0.41007885  0.73784736  0.06360351  1
  Se  Se126  1  0.41379491  0.74842480  0.55714591  1
  Se  Se127  1  0.75262406  0.09325158  0.06392853  1
  Se  Se128  1  0.73802324  0.07360585  0.54460405  1
  Se  Se129  1  0.74754246  0.41492248  0.06400793  1
  Se  Se130  1  0.75012191  0.41058833  0.55567679  1
  Se  Se131  1  0.73548029  0.74691358  0.05121534  1
  Se  Se132  1  0.74821761  0.74525048  0.54810863  1
  Se  Se133  1  0.26231927  0.25243117  0.05623131  1
  Se  Se134  1  0.24828354  0.25559947  0.55013971  1
  Se  Se135  1  0.24913397  0.57486019  0.05679719  1
  Se  Se136  1  0.24811016  0.58329309  0.55232017  1
  Se  Se137  1  0.24391050  0.90806797  0.05271924  1
  Se  Se138  1  0.25937601  0.92935823  0.56050643  1
  Se  Se139  1  0.59489797  0.25854197  0.06897701  1
  Se  Se140  1  0.57807429  0.25195949  0.54894445  1
  Se  Se141  1  0.58941102  0.58233939  0.05361906  1
  Se  Se142  1  0.58126668  0.58024409  0.54871935  1
  Se  Se143  1  0.58834849  0.92512405  0.05820071  1
  Se  Se144  1  0.59410203  0.92185295  0.55481458  1
  Se  Se145  1  0.91967127  0.25405319  0.05068781  1
  Se  Se146  1  0.91501213  0.24354563  0.55297546  1
  Se  Se147  1  0.92108746  0.59395993  0.06323754  1
  Se  Se148  1  0.91324536  0.57796648  0.55222210  1
  Se  Se149  1  0.92077416  0.92896695  0.06284759  1
  Se  Se150  1  0.92026902  0.91046972  0.54902384  1
  Se  Se151  1  0.08601213  0.24659753  0.44586204  1
  Se  Se152  1  0.08049532  0.25335496  0.93025713  1
  Se  Se153  1  0.08708795  0.58168084  0.45262562  1
  Se  Se154  1  0.08389481  0.57858201  0.95136268  1
  Se  Se155  1  0.08201019  0.92196278  0.43923783  1
  Se  Se156  1  0.08086567  0.91341564  0.95186179  1
  Se  Se157  1  0.41577777  0.25583345  0.44624395  1
  Se  Se158  1  0.41410692  0.25175792  0.93884616  1
  Se  Se159  1  0.41856733  0.58125321  0.44645170  1
  Se  Se160  1  0.41803301  0.57844663  0.94512857  1
  Se  Se161  1  0.41055024  0.92974053  0.43854763  1
  Se  Se162  1  0.41403928  0.92187149  0.93944641  1
  Se  Se163  1  0.75272678  0.24780546  0.45375020  1
  Se  Se164  1  0.75487127  0.24921046  0.95174667  1
  Se  Se165  1  0.75025434  0.57647520  0.44329546  1
  Se  Se166  1  0.74319979  0.59128605  0.94210200  1
  Se  Se167  1  0.75959451  0.90189815  0.44589687  1
  Se  Se168  1  0.74810899  0.93171643  0.94265702  1
  Se  Se169  1  0.24346226  0.09359327  0.45041954  1
  Se  Se170  1  0.25655103  0.07529129  0.94116488  1
  Se  Se171  1  0.24508923  0.42332613  0.44578276  1
  Se  Se172  1  0.25117701  0.41548545  0.94394031  1
  Se  Se173  1  0.25484340  0.74887399  0.44306106  1
  Se  Se174  1  0.25029362  0.74513713  0.95075721  1
  Se  Se175  1  0.58642673  0.08379236  0.44990798  1
  Se  Se176  1  0.59001328  0.08538093  0.94683999  1
  Se  Se177  1  0.58009786  0.42154900  0.44631283  1
  Se  Se178  1  0.58018533  0.41640246  0.95462263  1
  Se  Se179  1  0.58815066  0.74189184  0.43117841  1
  Se  Se180  1  0.58707186  0.74449202  0.93565992  1
  Se  Se181  1  0.91469143  0.08283939  0.44576219  1
  Se  Se182  1  0.92655003  0.09218374  0.94198469  1
  Se  Se183  1  0.91670032  0.41345168  0.44937407  1
  Se  Se184  1  0.92436043  0.41279279  0.93726072  1
  Se  Se185  1  0.91393597  0.74413533  0.44913017  1
  Se  Se186  1  0.92006382  0.74123380  0.93906711  1
  Se  Se187  1  0.24726622  0.25354806  0.30321666  1
  Se  Se188  1  0.25393339  0.25471410  0.79578032  1
  Se  Se189  1  0.25401194  0.58478546  0.30406220  1
  Se  Se190  1  0.25033113  0.58244719  0.80372757  1
  Se  Se191  1  0.24155344  0.90977646  0.31034179  1
  Se  Se192  1  0.24563197  0.91447510  0.81596957  1
  Se  Se193  1  0.60941542  0.27313690  0.31270656  1
  Se  Se194  1  0.58038066  0.24929940  0.80441147  1
  Se  Se195  1  0.58387114  0.58168957  0.30245126  1
  Se  Se196  1  0.57925739  0.58247117  0.80335188  1
  Se  Se197  1  0.58238045  0.91192666  0.30245278  1
  Se  Se198  1  0.57549916  0.90765015  0.80756999  1
  Se  Se199  1  0.91180260  0.25107788  0.31667650  1
  Se  Se200  1  0.91773165  0.26377508  0.79396815  1
  Se  Se201  1  0.91212541  0.57416807  0.31109624  1
  Se  Se202  1  0.90804577  0.56882367  0.80532516  1
  Se  Se203  1  0.91349477  0.92219370  0.30458160  1
  Se  Se204  1  0.91404926  0.91249342  0.80113924  1
  Se  Se205  1  0.07925915  0.08231313  0.30197709  1
  Se  Se206  1  0.08668879  0.08510341  0.79801019  1
  Se  Se207  1  0.08712393  0.42420624  0.30907673  1
  Se  Se208  1  0.08456115  0.41748015  0.79962069  1
  Se  Se209  1  0.08428887  0.75667357  0.31692786  1
  Se  Se210  1  0.08755247  0.74905070  0.81501385  1
  Se  Se211  1  0.41465819  0.08792001  0.31587310  1
  Se  Se212  1  0.42324386  0.09082507  0.80176574  1
  Se  Se213  1  0.41296364  0.41283218  0.30731739  1
  Se  Se214  1  0.41519866  0.41488697  0.80315633  1
  Se  Se215  1  0.41177062  0.74406285  0.29808445  1
  Se  Se216  1  0.41231802  0.74777007  0.79875002  1
  Se  Se217  1  0.74699199  0.08498670  0.31004416  1
  Se  Se218  1  0.75565977  0.09063845  0.80793696  1
  Se  Se219  1  0.74239617  0.40745883  0.30363261  1
  Se  Se220  1  0.74803640  0.42182245  0.81608013  1
  Se  Se221  1  0.75232251  0.74537103  0.30040557  1
  Se  Se222  1  0.74578465  0.74842180  0.79899633  1
  Se  Se223  1  0.24223748  0.08811755  0.19011171  1
  Se  Se224  1  0.24745781  0.09444045  0.68446240  1
  Se  Se225  1  0.25537969  0.41130020  0.19754234  1
  Se  Se226  1  0.25184195  0.41573144  0.69150188  1
  Se  Se227  1  0.24555288  0.74473900  0.20051571  1
  Se  Se228  1  0.25149235  0.74802402  0.70349008  1
  Se  Se229  1  0.57532468  0.09191334  0.21086860  1
  Se  Se230  1  0.58476946  0.09301449  0.68709305  1
  Se  Se231  1  0.58279407  0.41623703  0.20017073  1
  Se  Se232  1  0.57553066  0.42794434  0.68768154  1
  Se  Se233  1  0.58846010  0.74426280  0.19612974  1
  Se  Se234  1  0.58812306  0.74242267  0.69347404  1
  Se  Se235  1  0.91734778  0.08693906  0.20337404  1
  Se  Se236  1  0.91965518  0.07196303  0.68919467  1
  Se  Se237  1  0.90942010  0.42808098  0.19228568  1
  Se  Se238  1  0.90859636  0.41313357  0.70078718  1
  Se  Se239  1  0.90692411  0.75813014  0.18799159  1
  Se  Se240  1  0.91009703  0.74824301  0.68621892  1
  Se  Se241  1  0.09050827  0.24585879  0.18648828  1
  Se  Se242  1  0.08009554  0.25425002  0.69089796  1
  Se  Se243  1  0.08702783  0.57567152  0.19290245  1
  Se  Se244  1  0.08425701  0.57248181  0.68573407  1
  Se  Se245  1  0.07784780  0.91862057  0.20116809  1
  Se  Se246  1  0.08499776  0.91556703  0.70364787  1
  Se  Se247  1  0.42758877  0.24089429  0.20711098  1
  Se  Se248  1  0.41462155  0.26032622  0.69418204  1
  Se  Se249  1  0.41559301  0.58065017  0.19840741  1
  Se  Se250  1  0.41043709  0.58719275  0.69302193  1
  Se  Se251  1  0.42538979  0.90495365  0.18745749  1
  Se  Se252  1  0.42852314  0.91047433  0.68697965  1
  Se  Se253  1  0.75537377  0.25312566  0.20162228  1
  Se  Se254  1  0.75838873  0.23575609  0.69047850  1
  Se  Se255  1  0.75661149  0.57736922  0.20210857  1
  Se  Se256  1  0.74547436  0.58118247  0.69724789  1
  Se  Se257  1  0.74397697  0.92165279  0.19967079  1
  Se  Se258  1  0.75909062  0.91168424  0.68277673  1
