# generated using pymatgen
data_In86Cu29Se144
_symmetry_space_group_name_H-M   'P 1'
_cell_length_a   17.58017163
_cell_length_b   17.58580216
_cell_length_c   23.45092921
_cell_angle_alpha   90.01096362
_cell_angle_beta   90.00423166
_cell_angle_gamma   89.98765070
_symmetry_Int_Tables_number   1
_chemical_formula_structural   In86Cu29Se144
_chemical_formula_sum   'In86 Cu29 Se144'
_cell_volume   7250.12226247
_cell_formula_units_Z   1
loop_
 _symmetry_equiv_pos_site_id
 _symmetry_equiv_pos_as_xyz
  1  'x, y, z'
loop_
 _atom_site_type_symbol
 _atom_site_label
 _atom_site_symmetry_multiplicity
 _atom_site_fract_x
 _atom_site_fract_y
 _atom_site_fract_z
 _atom_site_occupancy
  In  In0  1  -0.00908857  0.15120977  0.12956345  1
  In  In1  1  -0.01767808  0.15604405  0.62037295  1
  In  In2  1  0.01341920  0.50835335  0.11800448  1
  In  In3  1  0.00412103  0.51200600  0.61998044  1
  In  In4  1  0.00109579  0.83513477  0.12354087  1
  In  In5  1  -0.01318015  0.84759494  0.63813258  1
  In  In6  1  0.33608611  0.16677561  0.13396251  1
  In  In7  1  0.33548365  0.15561698  0.62171259  1
  In  In8  1  0.33191846  0.50002681  0.12285053  1
  In  In9  1  0.33103061  0.49553968  0.61918878  1
  In  In10  1  0.33302357  0.83505391  0.11731688  1
  In  In11  1  0.34031118  0.84544108  0.63373753  1
  In  In12  1  0.67749253  0.17509858  0.13115670  1
  In  In13  1  0.68292846  0.18069078  0.62182766  1
  In  In14  1  0.66341427  0.49576107  0.12285295  1
  In  In15  1  0.66691292  0.50378342  0.62375092  1
  In  In16  1  0.66509732  0.82811525  0.11356724  1
  In  In17  1  0.67493327  0.80113635  0.63690034  1
  In  In18  1  0.16245507  -0.01036821  0.36102242  1
  In  In19  1  0.14216582  -0.03424447  0.84851796  1
  In  In20  1  0.18129557  0.33240111  0.37347119  1
  In  In21  1  0.16611954  0.33982970  0.88210337  1
  In  In22  1  0.15095010  0.67248350  0.37211904  1
  In  In23  1  0.15183245  0.67897315  0.88016234  1
  In  In24  1  0.50191901  0.00910958  0.37550463  1
  In  In25  1  0.48334816  -0.00724326  0.86541336  1
  In  In26  1  0.50352837  0.32987345  0.37391532  1
  In  In27  1  0.51394415  0.33613656  0.87154011  1
  In  In28  1  0.49235111  0.66132911  0.38169738  1
  In  In29  1  0.50776999  0.65717554  0.88041337  1
  In  In30  1  0.84911080  -0.00969573  0.39592596  1
  In  In31  1  0.82775184  -0.01792601  0.87275916  1
  In  In32  1  0.82302961  0.34010921  0.38150499  1
  In  In33  1  0.83864818  0.35104119  0.87124875  1
  In  In34  1  0.84252840  0.65701123  0.38521426  1
  In  In35  1  0.83442394  0.66380799  0.87065413  1
  In  In36  1  -0.00240611  0.15372524  0.37986637  1
  In  In37  1  0.00768228  0.16143163  0.87118721  1
  In  In38  1  -0.00682775  0.50752844  0.37940933  1
  In  In39  1  -0.01963588  0.51121011  0.88852262  1
  In  In40  1  -0.00138961  0.83053230  0.36753875  1
  In  In41  1  -0.00287933  0.82375660  0.87141224  1
  In  In42  1  0.33820784  0.17098111  0.36823171  1
  In  In43  1  0.33769737  0.15895726  0.87364169  1
  In  In44  1  0.34483993  0.49230549  0.38131171  1
  In  In45  1  0.32923411  0.50699358  0.88555073  1
  In  In46  1  0.31786646  0.83567809  0.36838652  1
  In  In47  1  0.32389626  0.83825807  0.88245559  1
  In  In48  1  0.65662718  0.16937260  0.38614055  1
  In  In49  1  0.66306003  0.17031331  0.86462612  1
  In  In50  1  0.68146607  0.49234290  0.38669977  1
  In  In51  1  0.66752023  0.50207922  0.87113647  1
  In  In52  1  0.66823330  0.84351325  0.37930855  1
  In  In53  1  0.68093290  0.81994527  0.88095760  1
  In  In54  1  0.17384741  -0.01010137  0.13303060  1
  In  In55  1  0.16351819  -0.00307769  0.63277998  1
  In  In56  1  0.16949034  0.35106940  0.12670714  1
  In  In57  1  0.15404794  0.34295679  0.62160827  1
  In  In58  1  0.15820464  0.66309561  0.12096614  1
  In  In59  1  0.17009606  0.66421405  0.63008536  1
  In  In60  1  0.49450577  -0.01095741  0.11840284  1
  In  In61  1  0.48979803  -0.00228077  0.62170400  1
  In  In62  1  0.49634785  0.34024997  0.13176018  1
  In  In63  1  0.51779217  0.34830763  0.61674547  1
  In  In64  1  0.49777369  0.66438677  0.11415916  1
  In  In65  1  0.52706987  0.66707712  0.62725351  1
  In  In66  1  0.84630642  -0.00420918  0.12651084  1
  In  In67  1  0.85103087  0.00676611  0.61391411  1
  In  In68  1  0.82377278  0.33019279  0.12783018  1
  In  In69  1  0.81936684  0.32720570  0.62329553  1
  In  In70  1  0.84800513  0.67724885  0.12187710  1
  In  In71  1  0.83179719  0.66969261  0.62167398  1
  In  In72  1  0.67002522  0.66312002  0.25414946  1
  In  In73  1  -0.00533514  0.32859628  0.74668822  1
  In  In74  1  0.67022540  0.00737769  0.25239470  1
  In  In75  1  0.16473310  0.16937626  0.50060306  1
  In  In76  1  0.50299753  0.16828924  -0.00810199  1
  In  In77  1  0.33683742  0.32967177  0.75561559  1
  In  In78  1  0.50147823  0.83092785  0.50735550  1
  In  In79  1  0.32647273  0.66543505  0.24224788  1
  In  In80  1  0.33445258  0.67372766  0.75243657  1
  In  In81  1  0.16699283  0.16524724  -0.00429672  1
  In  In82  1  0.15868012  0.83147929  0.49569864  1
  In  In83  1  0.83360251  0.16854008  0.00207835  1
  In  In84  1  0.66963367  -0.00245710  0.74585371  1
  In  In85  1  0.00311471  0.33402708  0.24477143  1
  Cu  Cu86  1  0.33159609  0.00261158  0.49576161  1
  Cu  Cu87  1  0.67015689  -0.00098187  0.50587516  1
  Cu  Cu88  1  0.83080730  0.50513937  0.74781073  1
  Cu  Cu89  1  0.83734039  0.50463685  0.25675943  1
  Cu  Cu90  1  0.50595878  0.50707848  0.74793851  1
  Cu  Cu91  1  0.67435970  0.65826704  -0.00322258  1
  Cu  Cu92  1  -0.00310104  0.66873288  0.50076386  1
  Cu  Cu93  1  0.32594437  -0.00453312  -0.00408320  1
  Cu  Cu94  1  0.50448575  0.17255806  0.74387735  1
  Cu  Cu95  1  0.83576041  0.82578800  0.74930174  1
  Cu  Cu96  1  0.66813558  0.34154589  -0.00145977  1
  Cu  Cu97  1  0.17016628  0.50301606  0.24665816  1
  Cu  Cu98  1  0.66521818  -0.00512350  -0.00299610  1
  Cu  Cu99  1  0.33943308  0.33062169  0.49363888  1
  Cu  Cu100  1  0.66344003  0.33358831  0.50131679  1
  Cu  Cu101  1  0.15869291  0.50272592  0.75297798  1
  Cu  Cu102  1  0.83814863  0.83413809  0.25146844  1
  Cu  Cu103  1  0.33340908  0.66852090  -0.00027966  1
  Cu  Cu104  1  0.16675278  0.15595027  0.74660740  1
  Cu  Cu105  1  0.50589411  0.48870850  0.25345009  1
  Cu  Cu106  1  -0.00425932  0.34351230  0.50060351  1
  Cu  Cu107  1  0.33287179  0.65747770  0.50641915  1
  Cu  Cu108  1  0.33402629  0.34318907  0.00525578  1
  Cu  Cu109  1  0.49182184  0.83326768  0.24144706  1
  Cu  Cu110  1  0.82796604  0.16990571  0.25977045  1
  Cu  Cu111  1  0.16786868  0.16461705  0.25364399  1
  Cu  Cu112  1  0.00003892  -0.01120931  -0.00309293  1
  Cu  Cu113  1  0.50205666  0.16719449  0.25440479  1
  Cu  Cu114  1  -0.00294424  0.66790739  -0.00161518  1
  Se  Se115  1  0.07637725  0.07510942  0.05567996  1
  Se  Se116  1  0.07955137  0.07315917  0.55679217  1
  Se  Se117  1  0.08392686  0.41253426  0.05267770  1
  Se  Se118  1  0.08397429  0.42633806  0.54883984  1
  Se  Se119  1  0.08043071  0.75086144  0.05289060  1
  Se  Se120  1  0.07637252  0.74671439  0.56353008  1
  Se  Se121  1  0.40643449  0.08246556  0.05198360  1
  Se  Se122  1  0.41810627  0.08320366  0.54765376  1
  Se  Se123  1  0.42347074  0.42092348  0.05677027  1
  Se  Se124  1  0.41659970  0.41452088  0.55264689  1
  Se  Se125  1  0.41846337  0.75387428  0.04985504  1
  Se  Se126  1  0.40815743  0.74130227  0.56702399  1
  Se  Se127  1  0.74155533  0.07435698  0.06057862  1
  Se  Se128  1  0.75415990  0.08625831  0.55439274  1
  Se  Se129  1  0.75370696  0.41722123  0.05535962  1
  Se  Se130  1  0.74810799  0.41765358  0.55379837  1
  Se  Se131  1  0.75353646  0.74468139  0.05222356  1
  Se  Se132  1  0.74178995  0.74226918  0.55123332  1
  Se  Se133  1  0.25747073  0.25338093  0.05961058  1
  Se  Se134  1  0.25684196  0.26040168  0.56054576  1
  Se  Se135  1  0.25122691  0.58565972  0.05619226  1
  Se  Se136  1  0.24191271  0.57963930  0.55661519  1
  Se  Se137  1  0.24232889  0.91604113  0.05200265  1
  Se  Se138  1  0.25457053  0.92059216  0.55618200  1
  Se  Se139  1  0.59059179  0.25443110  0.05741035  1
  Se  Se140  1  0.58351616  0.24536248  0.55403879  1
  Se  Se141  1  0.58679582  0.58064599  0.05237688  1
  Se  Se142  1  0.57134173  0.57099388  0.55422277  1
  Se  Se143  1  0.57935763  0.91321176  0.04901869  1
  Se  Se144  1  0.59472701  0.91633162  0.56732310  1
  Se  Se145  1  0.92541951  0.25450379  0.06311155  1
  Se  Se146  1  0.91877269  0.25861307  0.55710569  1
  Se  Se147  1  0.91731914  0.58276945  0.05401425  1
  Se  Se148  1  0.91264995  0.58344106  0.55151343  1
  Se  Se149  1  0.91195875  0.91130431  0.05129511  1
  Se  Se150  1  0.92048202  0.90739155  0.55170094  1
  Se  Se151  1  0.07574006  0.26215080  0.43933174  1
  Se  Se152  1  0.06947786  0.25748867  0.94424892  1
  Se  Se153  1  0.08240537  0.58753380  0.44620812  1
  Se  Se154  1  0.08345779  0.58289052  0.94740422  1
  Se  Se155  1  0.07443299  0.92835009  0.43964809  1
  Se  Se156  1  0.08284166  0.90960698  0.93983506  1
  Se  Se157  1  0.41992586  0.24409886  0.44253605  1
  Se  Se158  1  0.40770959  0.26415210  0.93878233  1
  Se  Se159  1  0.41924106  0.57762307  0.45371745  1
  Se  Se160  1  0.41988465  0.58245730  0.95132993  1
  Se  Se161  1  0.41015296  0.91474899  0.43926891  1
  Se  Se162  1  0.41897399  0.91748668  0.94710306  1
  Se  Se163  1  0.74902234  0.24942085  0.44948247  1
  Se  Se164  1  0.74245452  0.25467568  0.93901237  1
  Se  Se165  1  0.74171693  0.59569307  0.44931712  1
  Se  Se166  1  0.75638033  0.57701246  0.94098208  1
  Se  Se167  1  0.75058018  0.91170535  0.45439583  1
  Se  Se168  1  0.75446270  0.91058347  0.95124911  1
  Se  Se169  1  0.24901014  0.07878056  0.43540710  1
  Se  Se170  1  0.24673087  0.07157391  0.93292774  1
  Se  Se171  1  0.25101058  0.41623211  0.44759038  1
  Se  Se172  1  0.24603849  0.42137874  0.95149511  1
  Se  Se173  1  0.25796273  0.73905296  0.44338364  1
  Se  Se174  1  0.24560638  0.74965108  0.94860865  1
  Se  Se175  1  0.58100631  0.07675220  0.45290431  1
  Se  Se176  1  0.58968964  0.07304408  0.93365026  1
  Se  Se177  1  0.58158315  0.41482501  0.44471164  1
  Se  Se178  1  0.58304856  0.42158271  0.94401234  1
  Se  Se179  1  0.58825275  0.74461022  0.44221558  1
  Se  Se180  1  0.58902897  0.74452779  0.94785676  1
  Se  Se181  1  0.91123609  0.09638058  0.45639286  1
  Se  Se182  1  0.92045041  0.07472274  0.94020853  1
  Se  Se183  1  0.91025392  0.42378756  0.44628576  1
  Se  Se184  1  0.91516833  0.41065040  0.95174746  1
  Se  Se185  1  0.92134664  0.75560509  0.44367592  1
  Se  Se186  1  0.91216880  0.74819439  0.94301429  1
  Se  Se187  1  0.25356776  0.25194136  0.29900727  1
  Se  Se188  1  0.23668667  0.24084430  0.80995072  1
  Se  Se189  1  0.24775764  0.57884638  0.31328047  1
  Se  Se190  1  0.24346139  0.58042611  0.81078311  1
  Se  Se191  1  0.25555295  0.92056153  0.29403223  1
  Se  Se192  1  0.27034557  0.92903414  0.80502392  1
  Se  Se193  1  0.58941712  0.24694087  0.30591073  1
  Se  Se194  1  0.58629421  0.25715115  0.79567382  1
  Se  Se195  1  0.57839371  0.57491173  0.31361105  1
  Se  Se196  1  0.58833177  0.58981232  0.80186365  1
  Se  Se197  1  0.57417019  0.90951993  0.30373730  1
  Se  Se198  1  0.58995627  0.91116890  0.81475918  1
  Se  Se199  1  0.91589631  0.25147001  0.31308654  1
  Se  Se200  1  0.90747397  0.24153297  0.81022778  1
  Se  Se201  1  0.92110727  0.59098384  0.30471552  1
  Se  Se202  1  0.92063346  0.58057707  0.80245813  1
  Se  Se203  1  0.91100073  0.92339544  0.30846495  1
  Se  Se204  1  0.91595407  0.91222961  0.80233554  1
  Se  Se205  1  0.07881717  0.08538626  0.30335189  1
  Se  Se206  1  0.07546686  0.07813787  0.79603591  1
  Se  Se207  1  0.08980137  0.42265728  0.30913075  1
  Se  Se208  1  0.08073051  0.41863151  0.81051945  1
  Se  Se209  1  0.10084065  0.77075517  0.30173241  1
  Se  Se210  1  0.08624663  0.75195649  0.80027464  1
  Se  Se211  1  0.41785330  0.07981111  0.30226996  1
  Se  Se212  1  0.42013424  0.09139746  0.79738529  1
  Se  Se213  1  0.41578775  0.41138673  0.30548379  1
  Se  Se214  1  0.42182014  0.43105935  0.80956938  1
  Se  Se215  1  0.42057500  0.75157834  0.30624739  1
  Se  Se216  1  0.42154939  0.75371942  0.81926308  1
  Se  Se217  1  0.75584895  0.08526024  0.32187101  1
  Se  Se218  1  0.76056535  0.08665933  0.80660675  1
  Se  Se219  1  0.75081061  0.42025858  0.30492710  1
  Se  Se220  1  0.74948190  0.41878425  0.80019668  1
  Se  Se221  1  0.75629232  0.75764970  0.31257363  1
  Se  Se222  1  0.74865692  0.74416478  0.80045152  1
  Se  Se223  1  0.25123076  0.08229441  0.19771716  1
  Se  Se224  1  0.25625560  0.07943130  0.69439067  1
  Se  Se225  1  0.25769658  0.41938739  0.19892567  1
  Se  Se226  1  0.24154839  0.42001856  0.69695777  1
  Se  Se227  1  0.23869087  0.75933938  0.18758754  1
  Se  Se228  1  0.24220447  0.76497689  0.69536132  1
  Se  Se229  1  0.57529454  0.08805662  0.18628406  1
  Se  Se230  1  0.58264512  0.08992712  0.68435344  1
  Se  Se231  1  0.59259414  0.41191252  0.19781153  1
  Se  Se232  1  0.58816980  0.41930510  0.69739231  1
  Se  Se233  1  0.57810709  0.75085878  0.18990078  1
  Se  Se234  1  0.55890010  0.77025688  0.70029630  1
  Se  Se235  1  0.90581481  0.08382283  0.20411343  1
  Se  Se236  1  0.91705801  0.07634582  0.69721035  1
  Se  Se237  1  0.91215290  0.42668461  0.18944446  1
  Se  Se238  1  0.91179987  0.42480399  0.68640777  1
  Se  Se239  1  0.92253298  0.75253955  0.19811111  1
  Se  Se240  1  0.91862312  0.74129137  0.69554516  1
  Se  Se241  1  0.09262960  0.24042469  0.18588967  1
  Se  Se242  1  0.08910661  0.23887273  0.68625947  1
  Se  Se243  1  0.08258326  0.58512266  0.19763288  1
  Se  Se244  1  0.08069002  0.58639600  0.69729705  1
  Se  Se245  1  0.05625330  0.94341252  0.18727838  1
  Se  Se246  1  0.08895976  0.91112475  0.70095981  1
  Se  Se247  1  0.41986346  0.25116382  0.19904073  1
  Se  Se248  1  0.42178405  0.25186278  0.68432838  1
  Se  Se249  1  0.43030414  0.57602838  0.19402363  1
  Se  Se250  1  0.41768526  0.57940703  0.68901414  1
  Se  Se251  1  0.40983656  0.91839135  0.19120327  1
  Se  Se252  1  0.42855106  0.91791778  0.70156632  1
  Se  Se253  1  0.74878585  0.25546776  0.20605177  1
  Se  Se254  1  0.75241618  0.25135463  0.70233920  1
  Se  Se255  1  0.75989137  0.58089588  0.18966795  1
  Se  Se256  1  0.74830280  0.58764641  0.69299625  1
  Se  Se257  1  0.75031020  0.90766976  0.19117414  1
  Se  Se258  1  0.75964119  0.90830240  0.68571126  1
