# generated using pymatgen
data_In86Cu29Se144
_symmetry_space_group_name_H-M   'P 1'
_cell_length_a   17.58163499
_cell_length_b   17.58070229
_cell_length_c   23.44656197
_cell_angle_alpha   90.00130564
_cell_angle_beta   89.99209112
_cell_angle_gamma   89.98807280
_symmetry_Int_Tables_number   1
_chemical_formula_structural   In86Cu29Se144
_chemical_formula_sum   'In86 Cu29 Se144'
_cell_volume   7247.27323934
_cell_formula_units_Z   1
loop_
 _symmetry_equiv_pos_site_id
 _symmetry_equiv_pos_as_xyz
  1  'x, y, z'
loop_
 _atom_site_type_symbol
 _atom_site_label
 _atom_site_symmetry_multiplicity
 _atom_site_fract_x
 _atom_site_fract_y
 _atom_site_fract_z
 _atom_site_occupancy
  In  In0  1  -0.00394038  0.16373286  0.11023136  1
  In  In1  1  -0.00480861  0.17112322  0.63972534  1
  In  In2  1  -0.00316610  0.50837767  0.12040502  1
  In  In3  1  0.00006834  0.50180037  0.62791058  1
  In  In4  1  -0.01148920  0.83474513  0.12671333  1
  In  In5  1  -0.00513746  0.83376104  0.62618543  1
  In  In6  1  0.35006089  0.18815448  0.10753821  1
  In  In7  1  0.33046310  0.16663671  0.62806523  1
  In  In8  1  0.31882386  0.48890179  0.11981369  1
  In  In9  1  0.33443941  0.51507428  0.62522341  1
  In  In10  1  0.33245205  0.83072030  0.12780515  1
  In  In11  1  0.32182050  0.81943200  0.61696238  1
  In  In12  1  0.66438091  0.16382296  0.10640736  1
  In  In13  1  0.67604031  0.16202936  0.64132623  1
  In  In14  1  0.67557146  0.51279603  0.11209595  1
  In  In15  1  0.67884187  0.49370812  0.63625403  1
  In  In16  1  0.67019943  0.81811171  0.12580492  1
  In  In17  1  0.66823116  0.82950212  0.62832880  1
  In  In18  1  0.15917449  -0.01708399  0.37497178  1
  In  In19  1  0.16352282  0.01316028  0.87621792  1
  In  In20  1  0.17448342  0.32937569  0.37191736  1
  In  In21  1  0.15747909  0.33983513  0.87957072  1
  In  In22  1  0.15186962  0.67214848  0.37988628  1
  In  In23  1  0.15595185  0.65695422  0.86692873  1
  In  In24  1  0.49284547  -0.00687670  0.37420703  1
  In  In25  1  0.51305860  0.00160058  0.88317631  1
  In  In26  1  0.49991706  0.34730301  0.36808702  1
  In  In27  1  0.51305799  0.32435352  0.88363483  1
  In  In28  1  0.51382128  0.66778705  0.37595398  1
  In  In29  1  0.49639623  0.65899975  0.86976427  1
  In  In30  1  0.82762591  -0.00492246  0.37885923  1
  In  In31  1  0.83028838  -0.00610651  0.87717546  1
  In  In32  1  0.84512155  0.34223759  0.37149597  1
  In  In33  1  0.83380305  0.33721730  0.87553012  1
  In  In34  1  0.84494918  0.66142023  0.37694345  1
  In  In35  1  0.83271156  0.66792299  0.87395982  1
  In  In36  1  -0.00730905  0.16642262  0.36968182  1
  In  In37  1  -0.00279453  0.16696923  0.87471729  1
  In  In38  1  -0.01304477  0.51659146  0.38408394  1
  In  In39  1  0.00033927  0.50088180  0.87492901  1
  In  In40  1  0.01926765  0.81789001  0.39601281  1
  In  In41  1  -0.01260526  0.82020475  0.86461708  1
  In  In42  1  0.32933111  0.17160639  0.36497184  1
  In  In43  1  0.33252636  0.15951593  0.89215069  1
  In  In44  1  0.32638023  0.48836743  0.36914632  1
  In  In45  1  0.32669508  0.50633517  0.87991518  1
  In  In46  1  0.32957199  0.83274806  0.38255238  1
  In  In47  1  0.34393568  0.82649600  0.87288882  1
  In  In48  1  0.67199976  0.16972882  0.37214770  1
  In  In49  1  0.66606897  0.16295627  0.88025576  1
  In  In50  1  0.66832966  0.51378162  0.37312789  1
  In  In51  1  0.66939509  0.50113993  0.87442891  1
  In  In52  1  0.68499428  0.81690143  0.38940158  1
  In  In53  1  0.68008571  0.84776992  0.86801377  1
  In  In54  1  0.15747353  0.00009871  0.11946412  1
  In  In55  1  0.15821596  -0.01533265  0.62083380  1
  In  In56  1  0.17421732  0.34687991  0.12007505  1
  In  In57  1  0.15207789  0.33139209  0.62744524  1
  In  In58  1  0.16053520  0.64492282  0.13301954  1
  In  In59  1  0.16465311  0.66474270  0.62612484  1
  In  In60  1  0.49701136  0.01279899  0.11743801  1
  In  In61  1  0.51592545  -0.00517863  0.63226846  1
  In  In62  1  0.48726114  0.32999889  0.11825474  1
  In  In63  1  0.50986967  0.34381234  0.62856693  1
  In  In64  1  0.52015330  0.67222364  0.12520607  1
  In  In65  1  0.49343574  0.67271570  0.63130736  1
  In  In66  1  0.82335551  -0.00659084  0.10365545  1
  In  In67  1  0.84295023  -0.01452293  0.63724693  1
  In  In68  1  0.83658544  0.33714233  0.11040531  1
  In  In69  1  0.82995631  0.34055529  0.63634267  1
  In  In70  1  0.83107297  0.66500572  0.12167585  1
  In  In71  1  0.83515948  0.66682376  0.62927768  1
  In  In72  1  0.33388109  0.00499151  0.24851716  1
  In  In73  1  0.66462618  -0.00300801  0.23635405  1
  In  In74  1  0.50306091  0.16137778  0.50089823  1
  In  In75  1  0.00602357  0.35276596  0.23648361  1
  In  In76  1  0.16464127  0.83033336  0.00433100  1
  In  In77  1  0.33038161  -0.00502780  0.75262612  1
  In  In78  1  0.33505643  0.33527799  0.75977864  1
  In  In79  1  0.50237590  0.50788141  0.49719281  1
  In  In80  1  0.16622764  0.15954096  0.49499102  1
  In  In81  1  0.83826086  0.15947623  0.50606150  1
  In  In82  1  0.66433579  0.33860638  0.24520621  1
  In  In83  1  0.50823983  0.83781740  -0.00137577  1
  In  In84  1  -0.00122936  -0.00484484  0.25033734  1
  In  In85  1  0.33036690  0.66320013  0.24986299  1
  Cu  Cu86  1  0.32677298  0.66722403  0.50012795  1
  Cu  Cu87  1  0.33169113  0.33708092  0.49425091  1
  Cu  Cu88  1  0.83960049  0.50547673  0.75413641  1
  Cu  Cu89  1  0.32671475  0.34164851  -0.00249383  1
  Cu  Cu90  1  0.83463430  0.16617866  0.23749822  1
  Cu  Cu91  1  0.15953074  0.16713735  0.75585564  1
  Cu  Cu92  1  0.17209053  0.17182712  0.24230288  1
  Cu  Cu93  1  -0.00002854  0.34552533  0.50198996  1
  Cu  Cu94  1  0.33767133  -0.01059469  0.49998236  1
  Cu  Cu95  1  0.67175266  0.66930515  -0.00440061  1
  Cu  Cu96  1  -0.00378704  0.66477714  -0.00601342  1
  Cu  Cu97  1  0.83069850  0.16866866  0.76104359  1
  Cu  Cu98  1  0.51071583  0.83513419  0.25351932  1
  Cu  Cu99  1  0.33138216  0.66247958  0.00056734  1
  Cu  Cu100  1  0.67217422  0.66686624  0.50465470  1
  Cu  Cu101  1  0.50551422  0.16747235  0.75810324  1
  Cu  Cu102  1  0.83101397  0.83338672  0.74894944  1
  Cu  Cu103  1  0.49463801  0.49962175  0.24382556  1
  Cu  Cu104  1  0.16287848  0.82872231  0.74409149  1
  Cu  Cu105  1  0.67701777  0.33583331  0.50847925  1
  Cu  Cu106  1  -0.00238703  0.66620782  0.50857021  1
  Cu  Cu107  1  0.50911286  0.50130454  0.75199738  1
  Cu  Cu108  1  0.66668707  -0.01319077  0.50532113  1
  Cu  Cu109  1  -0.00017082  -0.00369666  -0.00733693  1
  Cu  Cu110  1  0.16781244  0.50167211  0.75170680  1
  Cu  Cu111  1  0.50293743  0.82908816  0.75164916  1
  Cu  Cu112  1  -0.00120044  0.33146854  -0.00530511  1
  Cu  Cu113  1  0.83775825  0.81906537  0.25491548  1
  Cu  Cu114  1  0.66469353  0.33989687  -0.00491604  1
  Se  Se115  1  0.08283689  0.07985540  0.04572371  1
  Se  Se116  1  0.07443074  0.08660883  0.56373222  1
  Se  Se117  1  0.07424953  0.41462365  0.05562192  1
  Se  Se118  1  0.08711269  0.42192085  0.55633565  1
  Se  Se119  1  0.07501220  0.73816092  0.06197448  1
  Se  Se120  1  0.08264963  0.75110272  0.55947994  1
  Se  Se121  1  0.41207932  0.08274789  0.04684432  1
  Se  Se122  1  0.41046086  0.07280451  0.56220035  1
  Se  Se123  1  0.41372027  0.42282545  0.05055490  1
  Se  Se124  1  0.41337202  0.41161494  0.55687260  1
  Se  Se125  1  0.41366477  0.74488298  0.05779097  1
  Se  Se126  1  0.41736266  0.74437578  0.55241394  1
  Se  Se127  1  0.75522738  0.09044936  0.04131214  1
  Se  Se128  1  0.74272998  0.07410307  0.56410543  1
  Se  Se129  1  0.75195288  0.42216420  0.04575748  1
  Se  Se130  1  0.75782282  0.42090935  0.55936659  1
  Se  Se131  1  0.75404852  0.75285336  0.04972827  1
  Se  Se132  1  0.75383308  0.75078664  0.55871815  1
  Se  Se133  1  0.24305424  0.25495333  0.04970523  1
  Se  Se134  1  0.25515761  0.25504575  0.55602751  1
  Se  Se135  1  0.24417369  0.58415151  0.05420696  1
  Se  Se136  1  0.24644033  0.58185254  0.55336943  1
  Se  Se137  1  0.26060863  0.92223244  0.05764991  1
  Se  Se138  1  0.24710820  0.91308133  0.55129853  1
  Se  Se139  1  0.58024384  0.25827141  0.04949641  1
  Se  Se140  1  0.59399301  0.25163200  0.56189862  1
  Se  Se141  1  0.58163274  0.58977052  0.04634476  1
  Se  Se142  1  0.59158716  0.58556712  0.56508083  1
  Se  Se143  1  0.59606858  0.92396420  0.06294780  1
  Se  Se144  1  0.57931107  0.90828040  0.55739739  1
  Se  Se145  1  0.91189347  0.24617543  0.04400210  1
  Se  Se146  1  0.92358804  0.25920429  0.56148280  1
  Se  Se147  1  0.91151617  0.58320150  0.04922876  1
  Se  Se148  1  0.91356152  0.58064006  0.55892394  1
  Se  Se149  1  0.92025356  0.91073268  0.04744326  1
  Se  Se150  1  0.91438596  0.91881238  0.55724537  1
  Se  Se151  1  0.07137819  0.25685611  0.44127661  1
  Se  Se152  1  0.08390937  0.24594998  0.94504074  1
  Se  Se153  1  0.08161656  0.58445690  0.45296391  1
  Se  Se154  1  0.08521745  0.58211962  0.94609146  1
  Se  Se155  1  0.07956696  0.92728687  0.45475670  1
  Se  Se156  1  0.07823750  0.91102369  0.93483719  1
  Se  Se157  1  0.41548141  0.25544539  0.43915881  1
  Se  Se158  1  0.41320827  0.25682150  0.94853529  1
  Se  Se159  1  0.40614584  0.59006182  0.43552578  1
  Se  Se160  1  0.41787397  0.58469131  0.94610759  1
  Se  Se161  1  0.42384973  0.90889638  0.44759854  1
  Se  Se162  1  0.40816138  0.92322708  0.94314780  1
  Se  Se163  1  0.75135038  0.25554408  0.44350079  1
  Se  Se164  1  0.74883061  0.25508503  0.94369857  1
  Se  Se165  1  0.75118977  0.58475745  0.44612488  1
  Se  Se166  1  0.75388146  0.58255217  0.94407204  1
  Se  Se167  1  0.75870469  0.91219367  0.45395454  1
  Se  Se168  1  0.74673387  0.91737265  0.94931915  1
  Se  Se169  1  0.26364646  0.07213056  0.43625349  1
  Se  Se170  1  0.24420956  0.07678178  0.95312262  1
  Se  Se171  1  0.24433970  0.41760466  0.44503608  1
  Se  Se172  1  0.24126674  0.42411302  0.94609862  1
  Se  Se173  1  0.24322735  0.75103493  0.44722032  1
  Se  Se174  1  0.25296596  0.74285145  0.93969676  1
  Se  Se175  1  0.59683787  0.07203631  0.44083598  1
  Se  Se176  1  0.57384140  0.09619372  0.95201599  1
  Se  Se177  1  0.59484931  0.40932111  0.44378267  1
  Se  Se178  1  0.58033143  0.42674936  0.94585152  1
  Se  Se179  1  0.58339004  0.74793066  0.45254593  1
  Se  Se180  1  0.59003564  0.74768256  0.93413643  1
  Se  Se181  1  0.92874698  0.07360739  0.44280757  1
  Se  Se182  1  0.91544918  0.08153799  0.94262836  1
  Se  Se183  1  0.90987651  0.42169415  0.44958855  1
  Se  Se184  1  0.91698285  0.41997690  0.94493132  1
  Se  Se185  1  0.91383880  0.74776144  0.45223582  1
  Se  Se186  1  0.91354654  0.75223393  0.94542153  1
  Se  Se187  1  0.25330100  0.25623202  0.29535588  1
  Se  Se188  1  0.24700325  0.23938426  0.81476586  1
  Se  Se189  1  0.23753007  0.58047554  0.31065778  1
  Se  Se190  1  0.25411768  0.58441272  0.80253242  1
  Se  Se191  1  0.24690423  0.90678638  0.30329380  1
  Se  Se192  1  0.23874820  0.90502773  0.81192151  1
  Se  Se193  1  0.57708362  0.24449630  0.30663628  1
  Se  Se194  1  0.59026824  0.25177102  0.80730194  1
  Se  Se195  1  0.57697931  0.57916954  0.30114598  1
  Se  Se196  1  0.59114823  0.58757618  0.80330036  1
  Se  Se197  1  0.59280536  0.91231677  0.31367562  1
  Se  Se198  1  0.57803863  0.91874352  0.80558080  1
  Se  Se199  1  0.91347696  0.24889778  0.29589916  1
  Se  Se200  1  0.91850380  0.25471788  0.80646479  1
  Se  Se201  1  0.92149994  0.58447539  0.30111109  1
  Se  Se202  1  0.92264875  0.58957544  0.80633224  1
  Se  Se203  1  0.91187029  0.90729994  0.31309654  1
  Se  Se204  1  0.91393372  0.91837977  0.80256709  1
  Se  Se205  1  0.09509775  0.09134881  0.30574615  1
  Se  Se206  1  0.07564068  0.07947056  0.80319985  1
  Se  Se207  1  0.07887353  0.42052563  0.31856881  1
  Se  Se208  1  0.08386500  0.41800556  0.80392095  1
  Se  Se209  1  0.08002813  0.75826997  0.30823521  1
  Se  Se210  1  0.08009521  0.74522939  0.79878423  1
  Se  Se211  1  0.43184601  0.09343007  0.30454479  1
  Se  Se212  1  0.41796470  0.08826466  0.81190242  1
  Se  Se213  1  0.41229323  0.41604176  0.29646679  1
  Se  Se214  1  0.42829374  0.42402212  0.81533072  1
  Se  Se215  1  0.42278614  0.75679739  0.30902539  1
  Se  Se216  1  0.41563930  0.74466454  0.79967414  1
  Se  Se217  1  0.75848121  0.08719592  0.30111269  1
  Se  Se218  1  0.74726360  0.08101442  0.80953522  1
  Se  Se219  1  0.75601473  0.42587964  0.30544859  1
  Se  Se220  1  0.75347801  0.42047974  0.80436404  1
  Se  Se221  1  0.75141967  0.74137209  0.30985512  1
  Se  Se222  1  0.74888493  0.74949259  0.80333864  1
  Se  Se223  1  0.24739224  0.08857981  0.18247470  1
  Se  Se224  1  0.23774659  0.08727180  0.69274762  1
  Se  Se225  1  0.24108511  0.42361639  0.19885490  1
  Se  Se226  1  0.24873294  0.41926632  0.69141948  1
  Se  Se227  1  0.23831606  0.75364521  0.19150313  1
  Se  Se228  1  0.25155209  0.74542320  0.69621088  1
  Se  Se229  1  0.57781885  0.09968303  0.18871758  1
  Se  Se230  1  0.58525090  0.08083645  0.70456651  1
  Se  Se231  1  0.57800419  0.42563247  0.18126748  1
  Se  Se232  1  0.59092208  0.41221606  0.70348493  1
  Se  Se233  1  0.59240350  0.74747563  0.20379883  1
  Se  Se234  1  0.58592824  0.74570617  0.69813180  1
  Se  Se235  1  0.91021863  0.07845435  0.18191566  1
  Se  Se236  1  0.90947356  0.08603931  0.70240006  1
  Se  Se237  1  0.89637421  0.42846606  0.18755133  1
  Se  Se238  1  0.92117124  0.41902852  0.70038012  1
  Se  Se239  1  0.91804900  0.74244205  0.19421512  1
  Se  Se240  1  0.91766375  0.75018143  0.69822530  1
  Se  Se241  1  0.08301173  0.24327591  0.18398604  1
  Se  Se242  1  0.08029348  0.25635117  0.70491227  1
  Se  Se243  1  0.07401815  0.57211883  0.20171785  1
  Se  Se244  1  0.08373511  0.58385085  0.69736952  1
  Se  Se245  1  0.09220393  0.90622871  0.19240101  1
  Se  Se246  1  0.07897862  0.91734630  0.69776549  1
  Se  Se247  1  0.41236040  0.25280994  0.19330628  1
  Se  Se248  1  0.42577295  0.24449755  0.69412007  1
  Se  Se249  1  0.42040513  0.58382626  0.18244510  1
  Se  Se250  1  0.42010685  0.57990505  0.69966137  1
  Se  Se251  1  0.43103062  0.91177326  0.19177391  1
  Se  Se252  1  0.41760729  0.90628958  0.68961983  1
  Se  Se253  1  0.75194494  0.24717508  0.18225694  1
  Se  Se254  1  0.75059258  0.25475743  0.70498747  1
  Se  Se255  1  0.73501391  0.59640531  0.18975677  1
  Se  Se256  1  0.75251800  0.58683075  0.70152249  1
  Se  Se257  1  0.76703855  0.90552364  0.19041360  1
  Se  Se258  1  0.74206615  0.91769125  0.70015816  1
