# generated using pymatgen
data_In86Cu29Se144
_symmetry_space_group_name_H-M   'P 1'
_cell_length_a   17.58127267
_cell_length_b   17.57420610
_cell_length_c   23.43718224
_cell_angle_alpha   89.99158087
_cell_angle_beta   90.00294209
_cell_angle_gamma   90.00985170
_symmetry_Int_Tables_number   1
_chemical_formula_structural   In86Cu29Se144
_chemical_formula_sum   'In86 Cu29 Se144'
_cell_volume   7241.54793821
_cell_formula_units_Z   1
loop_
 _symmetry_equiv_pos_site_id
 _symmetry_equiv_pos_as_xyz
  1  'x, y, z'
loop_
 _atom_site_type_symbol
 _atom_site_label
 _atom_site_symmetry_multiplicity
 _atom_site_fract_x
 _atom_site_fract_y
 _atom_site_fract_z
 _atom_site_occupancy
  In  In0  1  0.00864070  0.16475310  0.12158893  1
  In  In1  1  -0.00159644  0.16106949  0.62877069  1
  In  In2  1  0.01107003  0.50480482  0.11954593  1
  In  In3  1  -0.00474226  0.50364887  0.63193129  1
  In  In4  1  -0.00704482  0.84101292  0.13365192  1
  In  In5  1  -0.00237735  0.83366182  0.62925273  1
  In  In6  1  0.32738255  0.16003586  0.11895497  1
  In  In7  1  0.33461859  0.16304849  0.62531865  1
  In  In8  1  0.32168397  0.51242295  0.11442600  1
  In  In9  1  0.32199768  0.49244533  0.63314611  1
  In  In10  1  0.35654541  0.83478642  0.11835139  1
  In  In11  1  0.34845776  0.84671137  0.61590335  1
  In  In12  1  0.66203947  0.16992325  0.13488860  1
  In  In13  1  0.66316078  0.17298680  0.61835406  1
  In  In14  1  0.67452227  0.49469049  0.13379094  1
  In  In15  1  0.67031568  0.47736575  0.61778843  1
  In  In16  1  0.65555673  0.85153561  0.14144774  1
  In  In17  1  0.66784990  0.85298523  0.61999123  1
  In  In18  1  0.16281084  0.00404222  0.36880638  1
  In  In19  1  0.17658447  -0.00058906  0.87238687  1
  In  In20  1  0.15277940  0.31954599  0.37630796  1
  In  In21  1  0.16642444  0.33094077  0.86920593  1
  In  In22  1  0.16312741  0.68085842  0.37096953  1
  In  In23  1  0.15164534  0.67040872  0.87779709  1
  In  In24  1  0.50332838  -0.00467841  0.37740092  1
  In  In25  1  0.50359737  0.00619973  0.87694179  1
  In  In26  1  0.50533448  0.31324755  0.38303729  1
  In  In27  1  0.48367939  0.32040332  0.86372667  1
  In  In28  1  0.52009976  0.67198743  0.37163618  1
  In  In29  1  0.50414046  0.67446539  0.88225445  1
  In  In30  1  0.84201966  0.00585630  0.36922643  1
  In  In31  1  0.83777223  0.01660586  0.85622618  1
  In  In32  1  0.81963042  0.34094037  0.39580170  1
  In  In33  1  0.83798858  0.32178907  0.85067482  1
  In  In34  1  0.82719224  0.66210085  0.36753446  1
  In  In35  1  0.84344254  0.65927673  0.87546664  1
  In  In36  1  0.00341240  0.15775648  0.38417776  1
  In  In37  1  0.00414237  0.17286363  0.86333458  1
  In  In38  1  -0.01183949  0.49012962  0.37462226  1
  In  In39  1  0.01016962  0.50534396  0.85648327  1
  In  In40  1  -0.01108998  0.83273340  0.35798956  1
  In  In41  1  0.00841053  0.83841293  0.86816127  1
  In  In42  1  0.35826957  0.12100936  0.41360634  1
  In  In43  1  0.33533258  0.16304119  0.87607887  1
  In  In44  1  0.33352873  0.49704634  0.37725150  1
  In  In45  1  0.33160210  0.48347077  0.87003493  1
  In  In46  1  0.33235087  0.85953590  0.37487365  1
  In  In47  1  0.33819739  0.84833562  0.87619846  1
  In  In48  1  0.66887869  0.16673234  0.37679015  1
  In  In49  1  0.66029674  0.15757738  0.86376734  1
  In  In50  1  0.67576184  0.50610408  0.37244401  1
  In  In51  1  0.67680511  0.49338138  0.87404839  1
  In  In52  1  0.66557799  0.82637633  0.36873773  1
  In  In53  1  0.65337838  0.84228771  0.88319558  1
  In  In54  1  0.16084561  0.01525165  0.12789738  1
  In  In55  1  0.16068181  0.01004998  0.63083131  1
  In  In56  1  0.16595033  0.33714474  0.11119479  1
  In  In57  1  0.17824926  0.32550839  0.64604738  1
  In  In58  1  0.16934809  0.65694268  0.11844886  1
  In  In59  1  0.15525837  0.65615230  0.63169440  1
  In  In60  1  0.50124853  0.00176174  0.12764548  1
  In  In61  1  0.49395567  0.01112159  0.61913537  1
  In  In62  1  0.51355771  0.32783990  0.12604231  1
  In  In63  1  0.51944989  0.31066178  0.63457559  1
  In  In64  1  0.49740742  0.67853218  0.12551113  1
  In  In65  1  0.50068875  0.68017921  0.62185255  1
  In  In66  1  0.83683358  0.00046602  0.13841165  1
  In  In67  1  0.80734961  0.03173471  0.65334312  1
  In  In68  1  0.82676882  0.32260497  0.12558697  1
  In  In69  1  0.82562945  0.32827533  0.62120246  1
  In  In70  1  0.82658981  0.67934676  0.14306335  1
  In  In71  1  0.84807519  0.66179379  0.62252370  1
  In  In72  1  -0.00875092  0.32986837  0.24859499  1
  In  In73  1  0.49176878  0.49408794  -0.00229321  1
  In  In74  1  0.16324377  0.84698450  0.50466255  1
  In  In75  1  0.84059714  0.49825295  -0.00600678  1
  In  In76  1  0.33214771  0.32507832  0.25448826  1
  In  In77  1  0.83276354  0.83922439  0.49510251  1
  In  In78  1  0.50176657  0.49710577  0.50135468  1
  In  In79  1  0.17251127  0.83591055  -0.00231605  1
  In  In80  1  0.67036351  0.66606649  0.75907301  1
  In  In81  1  0.82933692  0.84371972  0.01174004  1
  In  In82  1  0.16489226  0.49379577  0.51122116  1
  In  In83  1  0.83475516  0.16427489  -0.00479506  1
  In  In84  1  0.32838740  0.67034673  0.75005535  1
  In  In85  1  0.33344971  0.67100714  0.23864313  1
  Cu  Cu86  1  0.50596714  0.84919326  0.74829119  1
  Cu  Cu87  1  0.50941081  0.49375699  0.25079958  1
  Cu  Cu88  1  -0.00321972  0.32434667  0.50665588  1
  Cu  Cu89  1  0.33968345  0.67797675  0.50142250  1
  Cu  Cu90  1  0.49653510  0.83541218  0.25119812  1
  Cu  Cu91  1  0.67270999  0.66876464  0.49463640  1
  Cu  Cu92  1  0.16565080  0.50521095  0.24173768  1
  Cu  Cu93  1  -0.00044775  0.65711337  0.49644656  1
  Cu  Cu94  1  0.66578445  0.00003337  0.00329024  1
  Cu  Cu95  1  0.66141275  0.00804018  0.50217519  1
  Cu  Cu96  1  0.50007185  0.15811125  0.25895707  1
  Cu  Cu97  1  0.17173658  0.83126336  0.75048265  1
  Cu  Cu98  1  0.32981495  0.32566077  -0.00670587  1
  Cu  Cu99  1  0.32942805  0.33038683  0.51198294  1
  Cu  Cu100  1  0.83516647  0.50090280  0.25574341  1
  Cu  Cu101  1  0.49958612  0.49245503  0.74624603  1
  Cu  Cu102  1  0.83009075  0.17240638  0.25560184  1
  Cu  Cu103  1  0.17243293  0.16195355  0.75317827  1
  Cu  Cu104  1  0.83437121  0.83043046  0.74661391  1
  Cu  Cu105  1  0.00508428  0.33523740  -0.01401152  1
  Cu  Cu106  1  0.66246061  0.32272982  -0.00396363  1
  Cu  Cu107  1  0.82938774  0.49643347  0.74623641  1
  Cu  Cu108  1  0.16344236  0.83790253  0.24661457  1
  Cu  Cu109  1  -0.00702550  -0.00295976  0.50515958  1
  Cu  Cu110  1  0.34284896  0.00089079  -0.00112951  1
  Cu  Cu111  1  -0.00367240  0.66798745  -0.00098666  1
  Cu  Cu112  1  0.65634765  0.67194739  0.00774010  1
  Cu  Cu113  1  0.17098271  0.16470831  0.25395739  1
  Cu  Cu114  1  0.49731141  0.16370549  0.74690573  1
  Se  Se115  1  0.09250253  0.09378196  0.04983643  1
  Se  Se116  1  0.08001111  0.08044356  0.55446464  1
  Se  Se117  1  0.08029274  0.42046496  0.04512005  1
  Se  Se118  1  0.07743641  0.40252843  0.56937001  1
  Se  Se119  1  0.07439377  0.75108910  0.05858291  1
  Se  Se120  1  0.07698800  0.74041038  0.55570989  1
  Se  Se121  1  0.42312197  0.08467898  0.05548271  1
  Se  Se122  1  0.41755701  0.09647888  0.54770937  1
  Se  Se123  1  0.40587787  0.40262562  0.06248396  1
  Se  Se124  1  0.41290758  0.41259765  0.56685001  1
  Se  Se125  1  0.40052083  0.72612152  0.05268619  1
  Se  Se126  1  0.42841583  0.76127462  0.54722215  1
  Se  Se127  1  0.74777199  0.07987179  0.06302383  1
  Se  Se128  1  0.75175342  0.08054616  0.55786322  1
  Se  Se129  1  0.74339800  0.40753101  0.05233601  1
  Se  Se130  1  0.75718388  0.41480651  0.54510016  1
  Se  Se131  1  0.73794581  0.74951474  0.06736204  1
  Se  Se132  1  0.74813538  0.74658740  0.56126135  1
  Se  Se133  1  0.24706550  0.24528317  0.05042932  1
  Se  Se134  1  0.24282567  0.25069751  0.56384055  1
  Se  Se135  1  0.23795185  0.58026434  0.04115449  1
  Se  Se136  1  0.26007263  0.59535940  0.56001866  1
  Se  Se137  1  0.25906226  0.92580532  0.06123283  1
  Se  Se138  1  0.25748432  0.93711241  0.55679555  1
  Se  Se139  1  0.58533068  0.24103171  0.05426975  1
  Se  Se140  1  0.58256632  0.25434372  0.54690575  1
  Se  Se141  1  0.58608761  0.57754291  0.06257685  1
  Se  Se142  1  0.59386204  0.59123663  0.56040434  1
  Se  Se143  1  0.58425563  0.91610047  0.05805702  1
  Se  Se144  1  0.57697103  0.92162641  0.55154492  1
  Se  Se145  1  0.92517267  0.26235064  0.05272831  1
  Se  Se146  1  0.91409730  0.24042722  0.55805085  1
  Se  Se147  1  0.91201623  0.59421067  0.06176060  1
  Se  Se148  1  0.91854511  0.57421559  0.55087612  1
  Se  Se149  1  0.92783095  0.93643196  0.05945704  1
  Se  Se150  1  0.91074942  0.92222258  0.56636266  1
  Se  Se151  1  0.08286638  0.24426465  0.45401307  1
  Se  Se152  1  0.08538630  0.24438988  0.93930946  1
  Se  Se153  1  0.08693975  0.58250068  0.43784690  1
  Se  Se154  1  0.07007258  0.58081755  0.94210875  1
  Se  Se155  1  0.06599124  0.91723205  0.43792083  1
  Se  Se156  1  0.07822522  0.92502602  0.94283980  1
  Se  Se157  1  0.40863087  0.25195193  0.45165302  1
  Se  Se158  1  0.42087135  0.24533567  0.94627053  1
  Se  Se159  1  0.41469240  0.59362639  0.43976773  1
  Se  Se160  1  0.40676763  0.58505343  0.93610595  1
  Se  Se161  1  0.41134521  0.92666062  0.45001984  1
  Se  Se162  1  0.42680058  0.91649571  0.94802784  1
  Se  Se163  1  0.75790291  0.23250315  0.45085719  1
  Se  Se164  1  0.74820478  0.25447001  0.93240283  1
  Se  Se165  1  0.75705507  0.58358206  0.44583556  1
  Se  Se166  1  0.73919050  0.59595647  0.94604553  1
  Se  Se167  1  0.74012674  0.92833755  0.43806633  1
  Se  Se168  1  0.75186678  0.93072847  0.93952497  1
  Se  Se169  1  0.22297659  0.08927912  0.44611786  1
  Se  Se170  1  0.25433920  0.07867744  0.94591429  1
  Se  Se171  1  0.25299677  0.40706038  0.44454584  1
  Se  Se172  1  0.24782589  0.41187496  0.94320946  1
  Se  Se173  1  0.25318973  0.75259805  0.44267826  1
  Se  Se174  1  0.25865150  0.74585367  0.93551969  1
  Se  Se175  1  0.57936536  0.08733358  0.44475634  1
  Se  Se176  1  0.59026285  0.08708439  0.94601412  1
  Se  Se177  1  0.59218363  0.41245854  0.43983382  1
  Se  Se178  1  0.58485273  0.40709145  0.93625557  1
  Se  Se179  1  0.58715724  0.75487498  0.44763478  1
  Se  Se180  1  0.57648010  0.75846181  0.95502935  1
  Se  Se181  1  0.91083688  0.08065462  0.44989803  1
  Se  Se182  1  0.92492792  0.07733552  0.93597093  1
  Se  Se183  1  0.92156465  0.41606556  0.45444952  1
  Se  Se184  1  0.91691574  0.40701714  0.92700054  1
  Se  Se185  1  0.92472504  0.74451153  0.43897161  1
  Se  Se186  1  0.91789467  0.75479005  0.94367116  1
  Se  Se187  1  0.25002213  0.23691617  0.31893409  1
  Se  Se188  1  0.25592138  0.24698331  0.80560154  1
  Se  Se189  1  0.24728778  0.58023715  0.30559814  1
  Se  Se190  1  0.24311708  0.58265448  0.81274920  1
  Se  Se191  1  0.24581014  0.92151128  0.29946672  1
  Se  Se192  1  0.25579246  0.91557685  0.80067560  1
  Se  Se193  1  0.58417194  0.24754908  0.30439846  1
  Se  Se194  1  0.58090777  0.25017867  0.79946237  1
  Se  Se195  1  0.58932098  0.58268640  0.30151658  1
  Se  Se196  1  0.57169802  0.57308815  0.81174378  1
  Se  Se197  1  0.58249957  0.91539072  0.30475192  1
  Se  Se198  1  0.58987189  0.92570679  0.80620815  1
  Se  Se199  1  0.91075097  0.24881301  0.31902490  1
  Se  Se200  1  0.90254535  0.21982505  0.79055445  1
  Se  Se201  1  0.92300737  0.58299253  0.30488674  1
  Se  Se202  1  0.91215999  0.58447392  0.79673691  1
  Se  Se203  1  0.91831162  0.92755353  0.29493282  1
  Se  Se204  1  0.91706286  0.91411282  0.80204735  1
  Se  Se205  1  0.07600607  0.08764088  0.30207775  1
  Se  Se206  1  0.08825387  0.07704782  0.80472788  1
  Se  Se207  1  0.09055169  0.42178938  0.30423509  1
  Se  Se208  1  0.06103135  0.38938480  0.80417502  1
  Se  Se209  1  0.08230878  0.74991864  0.29652312  1
  Se  Se210  1  0.08369297  0.74920793  0.79942946  1
  Se  Se211  1  0.41196514  0.08235738  0.31392623  1
  Se  Se212  1  0.41782021  0.08136600  0.80538880  1
  Se  Se213  1  0.42731239  0.41856047  0.31176397  1
  Se  Se214  1  0.41024098  0.41093874  0.79445767  1
  Se  Se215  1  0.41475291  0.75375964  0.31182719  1
  Se  Se216  1  0.42865182  0.75871534  0.80495815  1
  Se  Se217  1  0.74883426  0.08395833  0.30494883  1
  Se  Se218  1  0.74791731  0.09009937  0.79021724  1
  Se  Se219  1  0.75785017  0.41315793  0.31005581  1
  Se  Se220  1  0.74438463  0.41351737  0.79747538  1
  Se  Se221  1  0.75821284  0.75626513  0.30250826  1
  Se  Se222  1  0.75776676  0.76030924  0.81803741  1
  Se  Se223  1  0.25452394  0.08485549  0.19772771  1
  Se  Se224  1  0.25586653  0.07998320  0.69790580  1
  Se  Se225  1  0.24721988  0.41999852  0.18899928  1
  Se  Se226  1  0.23475624  0.43397977  0.70783487  1
  Se  Se227  1  0.24264703  0.76285246  0.18120474  1
  Se  Se228  1  0.24811337  0.75942768  0.68090075  1
  Se  Se229  1  0.58387626  0.07964769  0.20045081  1
  Se  Se230  1  0.58130087  0.08701949  0.68889744  1
  Se  Se231  1  0.59094831  0.40771756  0.19862547  1
  Se  Se232  1  0.58885591  0.41346602  0.69638353  1
  Se  Se233  1  0.57947917  0.74864920  0.19983746  1
  Se  Se234  1  0.58538885  0.75947657  0.69502850  1
  Se  Se235  1  0.91617320  0.10193485  0.19383074  1
  Se  Se236  1  0.93833260  0.05780592  0.69532537  1
  Se  Se237  1  0.90870172  0.42646626  0.18492510  1
  Se  Se238  1  0.90949509  0.41275474  0.69163283  1
  Se  Se239  1  0.92833873  0.74633975  0.20136345  1
  Se  Se240  1  0.91784649  0.74540526  0.69696077  1
  Se  Se241  1  0.09691705  0.25161909  0.19247948  1
  Se  Se242  1  0.08270548  0.24078235  0.70122066  1
  Se  Se243  1  0.08117809  0.59066001  0.19334275  1
  Se  Se244  1  0.08399313  0.57522978  0.70346713  1
  Se  Se245  1  0.08315429  0.92599338  0.19474660  1
  Se  Se246  1  0.08742224  0.91206467  0.69455440  1
  Se  Se247  1  0.42469902  0.23977193  0.19312379  1
  Se  Se248  1  0.41288680  0.25032505  0.69580745  1
  Se  Se249  1  0.42431819  0.56810711  0.18922366  1
  Se  Se250  1  0.42576919  0.58271435  0.68946967  1
  Se  Se251  1  0.41506073  0.91888290  0.19720977  1
  Se  Se252  1  0.41816505  0.92451116  0.69337767  1
  Se  Se253  1  0.74639597  0.25537829  0.20192514  1
  Se  Se254  1  0.74928153  0.24433585  0.69220176  1
  Se  Se255  1  0.74807472  0.58273078  0.20279663  1
  Se  Se256  1  0.74918607  0.58106536  0.68764524  1
  Se  Se257  1  0.76048485  0.91120316  0.20278760  1
  Se  Se258  1  0.74438122  0.91317448  0.70163680  1
