# generated using pymatgen
data_In86Cu29Se144
_symmetry_space_group_name_H-M   'P 1'
_cell_length_a   17.57390561
_cell_length_b   17.58234135
_cell_length_c   23.43188892
_cell_angle_alpha   90.00754418
_cell_angle_beta   89.99574792
_cell_angle_gamma   90.00891194
_symmetry_Int_Tables_number   1
_chemical_formula_structural   In86Cu29Se144
_chemical_formula_sum   'In86 Cu29 Se144'
_cell_volume   7240.22873116
_cell_formula_units_Z   1
loop_
 _symmetry_equiv_pos_site_id
 _symmetry_equiv_pos_as_xyz
  1  'x, y, z'
loop_
 _atom_site_type_symbol
 _atom_site_label
 _atom_site_symmetry_multiplicity
 _atom_site_fract_x
 _atom_site_fract_y
 _atom_site_fract_z
 _atom_site_occupancy
  In  In0  1  0.00269286  0.17591038  0.12053219  1
  In  In1  1  -0.01362160  0.15880711  0.61960702  1
  In  In2  1  -0.01267232  0.50533011  0.13283340  1
  In  In3  1  0.00626403  0.50248459  0.61538595  1
  In  In4  1  -0.00638886  0.83177917  0.12883117  1
  In  In5  1  0.00724202  0.82658660  0.64117831  1
  In  In6  1  0.33305644  0.17595317  0.12594291  1
  In  In7  1  0.34770073  0.15535960  0.62900140  1
  In  In8  1  0.33582207  0.49679926  0.12652293  1
  In  In9  1  0.33463225  0.50201260  0.62371486  1
  In  In10  1  0.32569952  0.83086898  0.12712320  1
  In  In11  1  0.34205529  0.82614432  0.63164093  1
  In  In12  1  0.66900381  0.15036425  0.12658226  1
  In  In13  1  0.65168470  0.13570707  0.59827217  1
  In  In14  1  0.67439790  0.50655887  0.12424743  1
  In  In15  1  0.66500123  0.49522109  0.61006619  1
  In  In16  1  0.65949107  0.83736533  0.13763121  1
  In  In17  1  0.65546740  0.85398769  0.62238799  1
  In  In18  1  0.17226923  -0.00348688  0.38482601  1
  In  In19  1  0.17423818  0.01088957  0.86453709  1
  In  In20  1  0.18070044  0.34189374  0.36703752  1
  In  In21  1  0.16623312  0.32223726  0.87381961  1
  In  In22  1  0.16091471  0.65638674  0.37041096  1
  In  In23  1  0.17570815  0.67982111  0.86000008  1
  In  In24  1  0.52450036  -0.02552952  0.41750041  1
  In  In25  1  0.50523995  -0.00094205  0.85796468  1
  In  In26  1  0.49339918  0.34566270  0.38114463  1
  In  In27  1  0.50604417  0.34589516  0.87381225  1
  In  In28  1  0.49341400  0.66548206  0.37011044  1
  In  In29  1  0.49397709  0.67087163  0.87505244  1
  In  In30  1  0.82922393  0.01541707  0.38830513  1
  In  In31  1  0.83719542  0.00549577  0.87015560  1
  In  In32  1  0.84240071  0.32466107  0.37504446  1
  In  In33  1  0.83351405  0.33487862  0.88548862  1
  In  In34  1  0.82444957  0.66281273  0.37005262  1
  In  In35  1  0.84070428  0.65577194  0.87747908  1
  In  In36  1  -0.01185720  0.16446994  0.37836316  1
  In  In37  1  0.00088705  0.17043294  0.87845937  1
  In  In38  1  0.00216187  0.49815791  0.37418653  1
  In  In39  1  -0.00700055  0.50095055  0.87643855  1
  In  In40  1  0.01095523  0.83021271  0.37715256  1
  In  In41  1  0.01179521  0.84237128  0.85454826  1
  In  In42  1  0.33584763  0.17605085  0.37624025  1
  In  In43  1  0.32887933  0.16090178  0.86404724  1
  In  In44  1  0.33167267  0.50066576  0.37405831  1
  In  In45  1  0.34451608  0.51075519  0.86652002  1
  In  In46  1  0.37142844  0.82262549  0.38479452  1
  In  In47  1  0.34110008  0.84219235  0.84829170  1
  In  In48  1  0.66552805  0.15220861  0.38734259  1
  In  In49  1  0.67361394  0.16258028  0.87744948  1
  In  In50  1  0.65512411  0.51545511  0.38241612  1
  In  In51  1  0.66980146  0.50027291  0.88781448  1
  In  In52  1  0.65518567  0.82778744  0.36535699  1
  In  In53  1  0.65762065  0.84554612  0.87048024  1
  In  In54  1  0.15626155  0.00280702  0.11972840  1
  In  In55  1  0.17059774  -0.01064305  0.64130411  1
  In  In56  1  0.17426874  0.32553973  0.12963999  1
  In  In57  1  0.16648564  0.34855570  0.62488412  1
  In  In58  1  0.16623058  0.66194299  0.13245772  1
  In  In59  1  0.17783134  0.66103115  0.63007180  1
  In  In60  1  0.50514625  0.00522726  0.12957673  1
  In  In61  1  0.49750485  -0.00457320  0.61775700  1
  In  In62  1  0.48092649  0.33453067  0.13048600  1
  In  In63  1  0.49323682  0.32720999  0.61811337  1
  In  In64  1  0.51342676  0.65968384  0.13912749  1
  In  In65  1  0.49302669  0.65814236  0.61605356  1
  In  In66  1  0.81746250  0.00243206  0.12212445  1
  In  In67  1  0.82837192  0.00559469  0.62605546  1
  In  In68  1  0.83922049  0.34084994  0.12431519  1
  In  In69  1  0.82705696  0.32510818  0.61431760  1
  In  In70  1  0.84022288  0.65974511  0.13451492  1
  In  In71  1  0.84063353  0.66242778  0.62144634  1
  In  In72  1  0.17331319  0.82999986  0.50981254  1
  In  In73  1  0.33997748  -0.00466657  0.26008972  1
  In  In74  1  0.83048122  0.83470620  0.50958178  1
  In  In75  1  0.66683820  0.32694394  0.74773361  1
  In  In76  1  0.83154462  0.83162236  -0.00311946  1
  In  In77  1  0.16731114  0.83410815  -0.01745540  1
  In  In78  1  0.16825070  0.16828504  0.50552681  1
  In  In79  1  0.00228518  0.33418729  0.75131762  1
  In  In80  1  0.16232969  0.49613955  -0.00163236  1
  In  In81  1  0.50065608  0.83488256  -0.00081889  1
  In  In82  1  0.66604959  0.67298586  0.74785144  1
  In  In83  1  0.50132315  0.17192321  0.00029874  1
  In  In84  1  0.66691581  0.33433739  0.25564580  1
  In  In85  1  -0.00462258  -0.00254332  0.25511369  1
  Cu  Cu86  1  -0.00621448  0.01525361  -0.00329277  1
  Cu  Cu87  1  0.16304155  0.49662749  0.24948297  1
  Cu  Cu88  1  0.82872451  0.83387559  0.74362686  1
  Cu  Cu89  1  0.32997209  0.33300055  0.00220924  1
  Cu  Cu90  1  0.82639611  0.15893870  0.74766398  1
  Cu  Cu91  1  0.82884036  0.16163512  0.25634903  1
  Cu  Cu92  1  0.66097755  0.66993970  0.49343407  1
  Cu  Cu93  1  0.49402419  0.50004778  0.25468161  1
  Cu  Cu94  1  0.83293813  0.50136272  0.25331678  1
  Cu  Cu95  1  0.00229488  0.33363237  0.49742263  1
  Cu  Cu96  1  0.17218931  0.82281991  0.25572363  1
  Cu  Cu97  1  0.67064049  0.66240886  0.00951244  1
  Cu  Cu98  1  0.50176034  0.16331060  0.25431940  1
  Cu  Cu99  1  0.16799411  0.16561584  0.24949124  1
  Cu  Cu100  1  0.49956322  0.16192248  0.73791600  1
  Cu  Cu101  1  0.00158028  0.66876593  0.00159969  1
  Cu  Cu102  1  0.34465601  0.66276720  -0.00430921  1
  Cu  Cu103  1  0.33059889  0.00468571  -0.01147501  1
  Cu  Cu104  1  0.83644819  0.49831848  0.74875283  1
  Cu  Cu105  1  0.83140919  0.83131688  0.25145052  1
  Cu  Cu106  1  0.49674974  0.50330915  0.74710175  1
  Cu  Cu107  1  0.33097385  0.66351642  0.49911629  1
  Cu  Cu108  1  -0.00513784  0.33476853  0.00182531  1
  Cu  Cu109  1  0.17433689  0.50680462  0.74468067  1
  Cu  Cu110  1  -0.00256042  0.65924203  0.49711129  1
  Cu  Cu111  1  0.33081197  0.34267829  0.49984809  1
  Cu  Cu112  1  0.67704753  0.33656430  0.49051863  1
  Cu  Cu113  1  0.66632090  0.33637247  0.00566224  1
  Cu  Cu114  1  0.16858358  0.17005887  0.74794949  1
  Se  Se115  1  0.08341602  0.09040311  0.05110977  1
  Se  Se116  1  0.08641056  0.07242963  0.56521373  1
  Se  Se117  1  0.07551491  0.41231385  0.06442507  1
  Se  Se118  1  0.08764536  0.41732941  0.54745770  1
  Se  Se119  1  0.08439892  0.75090441  0.05748153  1
  Se  Se120  1  0.07422298  0.73905245  0.56057912  1
  Se  Se121  1  0.40862217  0.07591313  0.05708119  1
  Se  Se122  1  0.43821774  0.10230819  0.55149479  1
  Se  Se123  1  0.41465942  0.41681314  0.05295190  1
  Se  Se124  1  0.41936650  0.42222599  0.55328429  1
  Se  Se125  1  0.41491886  0.74427622  0.06132342  1
  Se  Se126  1  0.41259281  0.74991277  0.55176405  1
  Se  Se127  1  0.75000421  0.08723650  0.04887539  1
  Se  Se128  1  0.76440446  0.07883106  0.54296345  1
  Se  Se129  1  0.75269336  0.42013632  0.05625736  1
  Se  Se130  1  0.75960244  0.42056962  0.54618178  1
  Se  Se131  1  0.74677563  0.74861077  0.06664582  1
  Se  Se132  1  0.73453578  0.74222211  0.56421838  1
  Se  Se133  1  0.24780318  0.24659786  0.05238466  1
  Se  Se134  1  0.25991236  0.25797765  0.56431701  1
  Se  Se135  1  0.25375573  0.59167733  0.05378850  1
  Se  Se136  1  0.24793599  0.58114524  0.55331758  1
  Se  Se137  1  0.25360922  0.92258591  0.05137633  1
  Se  Se138  1  0.26012202  0.92583149  0.56402098  1
  Se  Se139  1  0.58676191  0.25805424  0.06802509  1
  Se  Se140  1  0.60354483  0.26589868  0.56043769  1
  Se  Se141  1  0.58017403  0.58266024  0.05854093  1
  Se  Se142  1  0.58035621  0.58172611  0.54681663  1
  Se  Se143  1  0.59193853  0.92469033  0.05785833  1
  Se  Se144  1  0.58015407  0.91954440  0.54220302  1
  Se  Se145  1  0.91037230  0.25016573  0.05379151  1
  Se  Se146  1  0.91856178  0.24801564  0.54807321  1
  Se  Se147  1  0.91818263  0.58828500  0.05615087  1
  Se  Se148  1  0.91157994  0.57652513  0.54903363  1
  Se  Se149  1  0.92454982  0.92530406  0.05689680  1
  Se  Se150  1  0.92768925  0.91483781  0.56865772  1
  Se  Se151  1  0.08533085  0.25461383  0.43696664  1
  Se  Se152  1  0.08104167  0.25488831  0.94821411  1
  Se  Se153  1  0.08537613  0.57902427  0.44605571  1
  Se  Se154  1  0.08424020  0.59537304  0.93748080  1
  Se  Se155  1  0.07697303  0.92116249  0.45157684  1
  Se  Se156  1  0.07202610  0.93205712  0.93616474  1
  Se  Se157  1  0.41390208  0.25779290  0.44845435  1
  Se  Se158  1  0.41033249  0.25639471  0.93742927  1
  Se  Se159  1  0.41562671  0.58264007  0.44310390  1
  Se  Se160  1  0.42683937  0.57721327  0.94511081  1
  Se  Se161  1  0.39636352  0.92622974  0.45769135  1
  Se  Se162  1  0.41102079  0.92157195  0.93330113  1
  Se  Se163  1  0.75536146  0.24487628  0.44268273  1
  Se  Se164  1  0.74332378  0.25264345  0.94789709  1
  Se  Se165  1  0.75224465  0.58672394  0.44834333  1
  Se  Se166  1  0.75613180  0.58549319  0.95176394  1
  Se  Se167  1  0.74393449  0.91225890  0.43975742  1
  Se  Se168  1  0.74263945  0.92509210  0.94132153  1
  Se  Se169  1  0.26267331  0.07976885  0.44773655  1
  Se  Se170  1  0.24661006  0.09119355  0.94099636  1
  Se  Se171  1  0.24594698  0.42214080  0.44585264  1
  Se  Se172  1  0.25721696  0.41424890  0.93670930  1
  Se  Se173  1  0.25251477  0.74525826  0.43772566  1
  Se  Se174  1  0.27153925  0.74792345  0.93369626  1
  Se  Se175  1  0.56097769  0.10618334  0.45901937  1
  Se  Se176  1  0.58090721  0.07423765  0.94022784  1
  Se  Se177  1  0.58422779  0.42030403  0.44837124  1
  Se  Se178  1  0.58151058  0.41748123  0.95209385  1
  Se  Se179  1  0.57674597  0.74987507  0.44004458  1
  Se  Se180  1  0.59712067  0.74234337  0.94340934  1
  Se  Se181  1  0.93132368  0.07454186  0.45283583  1
  Se  Se182  1  0.90723384  0.09318720  0.94304055  1
  Se  Se183  1  0.91784529  0.41495990  0.44282373  1
  Se  Se184  1  0.91514726  0.42346155  0.95038549  1
  Se  Se185  1  0.91855645  0.74648288  0.44275399  1
  Se  Se186  1  0.93073468  0.75242361  0.93712480  1
  Se  Se187  1  0.25452811  0.24824877  0.30049863  1
  Se  Se188  1  0.25168476  0.25546834  0.79923979  1
  Se  Se189  1  0.24862491  0.57973228  0.30184175  1
  Se  Se190  1  0.25839197  0.58933327  0.79837946  1
  Se  Se191  1  0.24779824  0.90343250  0.31759991  1
  Se  Se192  1  0.22310581  0.90049974  0.80196902  1
  Se  Se193  1  0.57927821  0.24494681  0.31680855  1
  Se  Se194  1  0.57361117  0.23820016  0.80788184  1
  Se  Se195  1  0.58243542  0.58432266  0.30180940  1
  Se  Se196  1  0.58483885  0.57414846  0.80934109  1
  Se  Se197  1  0.57102136  0.93160879  0.31905064  1
  Se  Se198  1  0.57470924  0.90327759  0.79290028  1
  Se  Se199  1  0.91966413  0.24480031  0.30068344  1
  Se  Se200  1  0.90207888  0.24744982  0.80607132  1
  Se  Se201  1  0.91788823  0.58413350  0.30663595  1
  Se  Se202  1  0.91917487  0.58147664  0.80116052  1
  Se  Se203  1  0.90654309  0.91005472  0.31717450  1
  Se  Se204  1  0.91048108  0.91893283  0.79874353  1
  Se  Se205  1  0.09343181  0.08503335  0.31217441  1
  Se  Se206  1  0.08046919  0.09452628  0.80435575  1
  Se  Se207  1  0.08161122  0.41249075  0.30345973  1
  Se  Se208  1  0.09470761  0.42828942  0.80833828  1
  Se  Se209  1  0.07897736  0.74496444  0.30361320  1
  Se  Se210  1  0.06578872  0.72974144  0.79911293  1
  Se  Se211  1  0.42771438  0.08420613  0.31921419  1
  Se  Se212  1  0.41533202  0.08214471  0.79639707  1
  Se  Se213  1  0.41154640  0.41307949  0.30397028  1
  Se  Se214  1  0.41883880  0.41499201  0.80126403  1
  Se  Se215  1  0.40970649  0.74426648  0.29905031  1
  Se  Se216  1  0.42902236  0.74785678  0.79738124  1
  Se  Se217  1  0.74653189  0.07974651  0.31003264  1
  Se  Se218  1  0.74178542  0.07848717  0.80251228  1
  Se  Se219  1  0.75268947  0.42563622  0.31693334  1
  Se  Se220  1  0.75463856  0.42159822  0.80975625  1
  Se  Se221  1  0.74501695  0.74711918  0.30122315  1
  Se  Se222  1  0.75907345  0.75587009  0.81376004  1
  Se  Se223  1  0.24645743  0.07996259  0.19168230  1
  Se  Se224  1  0.25428208  0.08550892  0.69816615  1
  Se  Se225  1  0.25030467  0.41679552  0.19487280  1
  Se  Se226  1  0.25524336  0.41747847  0.69603222  1
  Se  Se227  1  0.25352928  0.74405139  0.19778510  1
  Se  Se228  1  0.23537155  0.76552668  0.69314533  1
  Se  Se229  1  0.58646343  0.08098698  0.20230906  1
  Se  Se230  1  0.58558005  0.07949317  0.68694004  1
  Se  Se231  1  0.57669382  0.42109399  0.19264829  1
  Se  Se232  1  0.58065317  0.42328835  0.68948695  1
  Se  Se233  1  0.57864814  0.75646958  0.20465924  1
  Se  Se234  1  0.57625990  0.75284860  0.68313078  1
  Se  Se235  1  0.91068500  0.08634993  0.19066607  1
  Se  Se236  1  0.91712804  0.08050553  0.69754585  1
  Se  Se237  1  0.91476883  0.41401520  0.20213183  1
  Se  Se238  1  0.91070588  0.41577568  0.68631038  1
  Se  Se239  1  0.91994985  0.74995255  0.20087144  1
  Se  Se240  1  0.90997673  0.74269515  0.69764180  1
  Se  Se241  1  0.08344072  0.24746851  0.19622673  1
  Se  Se242  1  0.08525932  0.24450706  0.68529075  1
  Se  Se243  1  0.07895056  0.58312867  0.19824698  1
  Se  Se244  1  0.08177972  0.57935997  0.69099694  1
  Se  Se245  1  0.09408724  0.90818167  0.19651226  1
  Se  Se246  1  0.07544628  0.92085409  0.70747236  1
  Se  Se247  1  0.41455573  0.24430785  0.20271825  1
  Se  Se248  1  0.41646805  0.25467960  0.69564276  1
  Se  Se249  1  0.41300000  0.58193739  0.19667364  1
  Se  Se250  1  0.41471393  0.58747347  0.69428316  1
  Se  Se251  1  0.42315709  0.90878779  0.19091473  1
  Se  Se252  1  0.41694758  0.92350456  0.69299881  1
  Se  Se253  1  0.75374974  0.24405606  0.19302489  1
  Se  Se254  1  0.74918352  0.23647962  0.68446144  1
  Se  Se255  1  0.74762948  0.58441245  0.20096858  1
  Se  Se256  1  0.75002373  0.57276792  0.68907016  1
  Se  Se257  1  0.75220950  0.91970099  0.19901727  1
  Se  Se258  1  0.74630151  0.91988817  0.69414047  1
