# generated using pymatgen
data_In86Cu29Se144
_symmetry_space_group_name_H-M   'P 1'
_cell_length_a   17.58300389
_cell_length_b   17.58095589
_cell_length_c   23.44407466
_cell_angle_alpha   90.00840871
_cell_angle_beta   90.03840354
_cell_angle_gamma   90.00991657
_symmetry_Int_Tables_number   1
_chemical_formula_structural   In86Cu29Se144
_chemical_formula_sum   'In86 Cu29 Se144'
_cell_volume   7247.17158119
_cell_formula_units_Z   1
loop_
 _symmetry_equiv_pos_site_id
 _symmetry_equiv_pos_as_xyz
  1  'x, y, z'
loop_
 _atom_site_type_symbol
 _atom_site_label
 _atom_site_symmetry_multiplicity
 _atom_site_fract_x
 _atom_site_fract_y
 _atom_site_fract_z
 _atom_site_occupancy
  In  In0  1  0.00755440  0.17148081  0.12277504  1
  In  In1  1  0.00136725  0.15902466  0.62592563  1
  In  In2  1  -0.00730611  0.50830162  0.12740723  1
  In  In3  1  0.00484134  0.49194572  0.62197393  1
  In  In4  1  -0.00406249  0.82282554  0.12016842  1
  In  In5  1  0.01075039  0.84118626  0.62038736  1
  In  In6  1  0.32849729  0.18129845  0.13706444  1
  In  In7  1  0.34443037  0.17815530  0.61085664  1
  In  In8  1  0.35249116  0.48722263  0.14757522  1
  In  In9  1  0.32946024  0.49903775  0.61625956  1
  In  In10  1  0.32828662  0.84076935  0.13627354  1
  In  In11  1  0.33438465  0.83467489  0.61731324  1
  In  In12  1  0.67499045  0.16769380  0.12250888  1
  In  In13  1  0.66714552  0.17946773  0.62892367  1
  In  In14  1  0.65496023  0.48589260  0.10088930  1
  In  In15  1  0.66368508  0.49488963  0.63181354  1
  In  In16  1  0.67215640  0.82374818  0.12108502  1
  In  In17  1  0.65996539  0.81716777  0.61820185  1
  In  In18  1  0.17955712  -0.00909027  0.38201682  1
  In  In19  1  0.15390077  0.00913611  0.87805646  1
  In  In20  1  0.17077231  0.33511889  0.37644384  1
  In  In21  1  0.16205312  0.32006863  0.87411373  1
  In  In22  1  0.16478772  0.66366637  0.37421346  1
  In  In23  1  0.18381784  0.67026078  0.87990561  1
  In  In24  1  0.48716490  0.00959775  0.38510160  1
  In  In25  1  0.50800861  -0.00176810  0.87261659  1
  In  In26  1  0.47093101  0.30364926  0.33498982  1
  In  In27  1  0.51164874  0.34719594  0.86884977  1
  In  In28  1  0.50332902  0.68031874  0.37620122  1
  In  In29  1  0.49695587  0.65150350  0.87547633  1
  In  In30  1  0.82094331  -0.00601376  0.37610671  1
  In  In31  1  0.84609368  -0.01300999  0.88098731  1
  In  In32  1  0.83138691  0.33536107  0.36315779  1
  In  In33  1  0.80672553  0.35236058  0.90192770  1
  In  In34  1  0.84226073  0.66393971  0.37461100  1
  In  In35  1  0.82354801  0.67919112  0.87913456  1
  In  In36  1  -0.00057395  0.18340924  0.37053013  1
  In  In37  1  0.00026480  0.16092373  0.88023966  1
  In  In38  1  0.00332557  0.51066055  0.36427036  1
  In  In39  1  -0.00212358  0.48330016  0.87690771  1
  In  In40  1  0.01092950  0.82502186  0.38148353  1
  In  In41  1  -0.01071596  0.84791929  0.87634281  1
  In  In42  1  0.33771114  0.16563635  0.37392909  1
  In  In43  1  0.31888992  0.16905647  0.87734589  1
  In  In44  1  0.32448545  0.48263571  0.36405673  1
  In  In45  1  0.34695662  0.49846522  0.87809402  1
  In  In46  1  0.33119514  0.83359806  0.37540824  1
  In  In47  1  0.33066541  0.81944394  0.87857196  1
  In  In48  1  0.63736019  0.17425937  0.37507903  1
  In  In49  1  0.66379363  0.18152110  0.88132124  1
  In  In50  1  0.66792639  0.49636328  0.37226521  1
  In  In51  1  0.66216360  0.50032150  0.87856836  1
  In  In52  1  0.66284234  0.82848357  0.39414182  1
  In  In53  1  0.68579237  0.83479930  0.86195947  1
  In  In54  1  0.17515116  0.00699601  0.12300490  1
  In  In55  1  0.16258976  -0.00234131  0.61861634  1
  In  In56  1  0.17487233  0.32491334  0.13161381  1
  In  In57  1  0.18412216  0.34485719  0.60596232  1
  In  In58  1  0.16372627  0.66951654  0.13360373  1
  In  In59  1  0.17221651  0.66988108  0.61393959  1
  In  In60  1  0.49468109  0.00242329  0.13423916  1
  In  In61  1  0.49448817  -0.00725320  0.61924313  1
  In  In62  1  0.49807204  0.34293795  0.13392489  1
  In  In63  1  0.50263271  0.33052618  0.62506229  1
  In  In64  1  0.50626450  0.64542009  0.13294353  1
  In  In65  1  0.51291472  0.67513251  0.61709544  1
  In  In66  1  0.83438785  -0.00348619  0.11534552  1
  In  In67  1  0.85143022  -0.00273414  0.63310706  1
  In  In68  1  0.83283220  0.33633379  0.12146026  1
  In  In69  1  0.82742046  0.32394972  0.63125547  1
  In  In70  1  0.83770236  0.66941329  0.11709495  1
  In  In71  1  0.81490338  0.67544385  0.63229473  1
  In  In72  1  0.00445094  -0.00052958  0.24758037  1
  In  In73  1  0.83548254  0.16353770  0.50361995  1
  In  In74  1  0.49085498  0.17807001  0.01162868  1
  In  In75  1  0.66983181  0.66329100  0.25118708  1
  In  In76  1  0.49595389  0.49494557  0.49323145  1
  In  In77  1  0.16788725  0.50214670  0.00874086  1
  In  In78  1  0.66139761  0.00676814  0.25298736  1
  In  In79  1  0.50054838  0.82988062  -0.00025852  1
  In  In80  1  0.66931610  0.00006254  0.74921377  1
  In  In81  1  0.33162831  -0.00138002  0.73982103  1
  In  In82  1  0.34234676  0.66437145  0.73920489  1
  In  In83  1  -0.00570191  0.31893357  0.75401688  1
  In  In84  1  0.83483736  0.50816686  0.49927569  1
  In  In85  1  -0.00218388  0.67087634  0.75371177  1
  Cu  Cu86  1  0.00299330  -0.00589498  0.00154169  1
  Cu  Cu87  1  0.33293492  0.66801027  0.00941324  1
  Cu  Cu88  1  0.83151158  0.50011520  0.24104744  1
  Cu  Cu89  1  0.00163502  0.00053561  0.49994775  1
  Cu  Cu90  1  0.16764405  0.17133562  0.74902285  1
  Cu  Cu91  1  0.66873599  -0.00524807  0.50455654  1
  Cu  Cu92  1  0.32823735  0.66383094  0.49363421  1
  Cu  Cu93  1  0.32202973  -0.00231631  0.00196513  1
  Cu  Cu94  1  0.50472728  0.49091661  0.75159658  1
  Cu  Cu95  1  0.16908371  0.16633240  0.25185762  1
  Cu  Cu96  1  0.00816992  0.33909556  0.49421522  1
  Cu  Cu97  1  0.83769891  0.82945466  0.24699757  1
  Cu  Cu98  1  -0.00128152  0.32418914  0.00274793  1
  Cu  Cu99  1  0.83104618  0.17451415  0.24697349  1
  Cu  Cu100  1  0.16275277  0.49660969  0.24947466  1
  Cu  Cu101  1  0.16578278  0.82819913  0.25661333  1
  Cu  Cu102  1  0.83082312  0.17017754  0.76023929  1
  Cu  Cu103  1  0.49208181  0.17112677  0.74888091  1
  Cu  Cu104  1  0.66240878  0.32957968  0.49790911  1
  Cu  Cu105  1  0.67219991  0.66942197  -0.00399475  1
  Cu  Cu106  1  0.33157766  0.33371597  0.00817217  1
  Cu  Cu107  1  0.16087143  0.84467268  0.75030023  1
  Cu  Cu108  1  0.66880475  0.00082593  -0.00271802  1
  Cu  Cu109  1  0.17439398  0.49796701  0.74053193  1
  Cu  Cu110  1  -0.00027013  0.66989299  0.49791315  1
  Cu  Cu111  1  0.33348897  -0.00012635  0.49886057  1
  Cu  Cu112  1  0.00383669  0.66884817  -0.00020195  1
  Cu  Cu113  1  0.82501858  0.49681844  0.75845877  1
  Cu  Cu114  1  0.49693854  0.83960875  0.25699391  1
  Se  Se115  1  0.08302549  0.08011426  0.05594114  1
  Se  Se116  1  0.08268520  0.08711991  0.55134714  1
  Se  Se117  1  0.07833205  0.40669091  0.06366270  1
  Se  Se118  1  0.08780215  0.42621936  0.54652048  1
  Se  Se119  1  0.08945409  0.74590473  0.05526756  1
  Se  Se120  1  0.08561176  0.75342171  0.55035974  1
  Se  Se121  1  0.40332867  0.07669424  0.06233276  1
  Se  Se122  1  0.42135035  0.08136828  0.55016405  1
  Se  Se123  1  0.41330295  0.41875725  0.06028573  1
  Se  Se124  1  0.40887914  0.40197788  0.55228250  1
  Se  Se125  1  0.41708989  0.74744887  0.06851789  1
  Se  Se126  1  0.41058510  0.74065123  0.55381574  1
  Se  Se127  1  0.75084529  0.08337489  0.05152753  1
  Se  Se128  1  0.74625564  0.07598018  0.56681836  1
  Se  Se129  1  0.76642590  0.42548810  0.04778888  1
  Se  Se130  1  0.74698718  0.40751521  0.55637854  1
  Se  Se131  1  0.75533252  0.75451936  0.04756667  1
  Se  Se132  1  0.75494293  0.74906431  0.55011939  1
  Se  Se133  1  0.24924233  0.24525619  0.05588932  1
  Se  Se134  1  0.23684409  0.23336820  0.54833774  1
  Se  Se135  1  0.26022657  0.58302248  0.07107894  1
  Se  Se136  1  0.24658787  0.57921727  0.54708467  1
  Se  Se137  1  0.24794761  0.90991493  0.05797160  1
  Se  Se138  1  0.24885740  0.91620688  0.55172106  1
  Se  Se139  1  0.59003067  0.26469311  0.06142920  1
  Se  Se140  1  0.58263489  0.24636004  0.55382857  1
  Se  Se141  1  0.58059924  0.59237584  0.04635496  1
  Se  Se142  1  0.59377425  0.57827572  0.55398345  1
  Se  Se143  1  0.58749264  0.92588450  0.06142569  1
  Se  Se144  1  0.58171407  0.91129087  0.55441133  1
  Se  Se145  1  0.91355130  0.24336572  0.05636218  1
  Se  Se146  1  0.92659129  0.26288211  0.55770726  1
  Se  Se147  1  0.91955251  0.58346416  0.04923104  1
  Se  Se148  1  0.92292824  0.59409137  0.56495284  1
  Se  Se149  1  0.91679888  0.90937887  0.05166065  1
  Se  Se150  1  0.91826186  0.91918375  0.55388234  1
  Se  Se151  1  0.08565852  0.24833412  0.44464127  1
  Se  Se152  1  0.08470481  0.24525296  0.94850182  1
  Se  Se153  1  0.07766165  0.58257424  0.44352542  1
  Se  Se154  1  0.08156649  0.58631132  0.93817225  1
  Se  Se155  1  0.08580380  0.91637871  0.44760174  1
  Se  Se156  1  0.08625478  0.91287643  0.94542868  1
  Se  Se157  1  0.43237040  0.25032599  0.43223351  1
  Se  Se158  1  0.40936487  0.25996989  0.93980111  1
  Se  Se159  1  0.40768413  0.58574204  0.43249576  1
  Se  Se160  1  0.41305684  0.58566283  0.95227806  1
  Se  Se161  1  0.41575841  0.91107397  0.44805273  1
  Se  Se162  1  0.40862411  0.92484245  0.94129492  1
  Se  Se163  1  0.74945001  0.25215625  0.43923001  1
  Se  Se164  1  0.74910696  0.24062875  0.95778896  1
  Se  Se165  1  0.74005761  0.59390129  0.44110017  1
  Se  Se166  1  0.75323476  0.58257693  0.94385522  1
  Se  Se167  1  0.75577773  0.91350125  0.45353191  1
  Se  Se168  1  0.74665502  0.91339081  0.94381797  1
  Se  Se169  1  0.25276462  0.08613866  0.44587784  1
  Se  Se170  1  0.24384528  0.08443139  0.94745898  1
  Se  Se171  1  0.25406265  0.41557730  0.44563495  1
  Se  Se172  1  0.25156984  0.41158946  0.94258314  1
  Se  Se173  1  0.24504684  0.75056391  0.44282469  1
  Se  Se174  1  0.25086711  0.75224955  0.95679961  1
  Se  Se175  1  0.58820260  0.07898741  0.44974396  1
  Se  Se176  1  0.57899887  0.08232830  0.94826313  1
  Se  Se177  1  0.58474743  0.40484351  0.43446086  1
  Se  Se178  1  0.57720404  0.42116286  0.94807931  1
  Se  Se179  1  0.57660767  0.74617898  0.45706270  1
  Se  Se180  1  0.59023259  0.74799387  0.93401761  1
  Se  Se181  1  0.92281021  0.07825302  0.43615909  1
  Se  Se182  1  0.91769252  0.07879976  0.94953033  1
  Se  Se183  1  0.91862058  0.41431141  0.43736176  1
  Se  Se184  1  0.92029100  0.41700232  0.95480594  1
  Se  Se185  1  0.91404967  0.75150083  0.44583685  1
  Se  Se186  1  0.92159388  0.75013475  0.94296231  1
  Se  Se187  1  0.25065087  0.24963262  0.30668901  1
  Se  Se188  1  0.25205772  0.25385988  0.80117978  1
  Se  Se189  1  0.24500063  0.58028751  0.30411842  1
  Se  Se190  1  0.25071706  0.57779309  0.80443963  1
  Se  Se191  1  0.25045780  0.91665909  0.30315941  1
  Se  Se192  1  0.24864329  0.91476075  0.81185450  1
  Se  Se193  1  0.60641620  0.27054287  0.29785597  1
  Se  Se194  1  0.58020028  0.24713606  0.80441514  1
  Se  Se195  1  0.57340938  0.57946149  0.30847428  1
  Se  Se196  1  0.58276262  0.57997110  0.80377162  1
  Se  Se197  1  0.58305639  0.91225848  0.31772108  1
  Se  Se198  1  0.57466759  0.90476553  0.80290235  1
  Se  Se199  1  0.91959810  0.25641928  0.29596590  1
  Se  Se200  1  0.90143292  0.25318562  0.82527618  1
  Se  Se201  1  0.91085181  0.58550258  0.29693336  1
  Se  Se202  1  0.91329215  0.57364464  0.81307961  1
  Se  Se203  1  0.91312413  0.91177803  0.30922807  1
  Se  Se204  1  0.91553311  0.91987501  0.79881573  1
  Se  Se205  1  0.08993492  0.08588959  0.31294205  1
  Se  Se206  1  0.08241402  0.09083279  0.80262122  1
  Se  Se207  1  0.08218175  0.41294679  0.30578599  1
  Se  Se208  1  0.09244848  0.42051926  0.80189842  1
  Se  Se209  1  0.07778817  0.74460720  0.30387853  1
  Se  Se210  1  0.09478835  0.75546398  0.81320926  1
  Se  Se211  1  0.42233588  0.08277736  0.30521313  1
  Se  Se212  1  0.41759932  0.08688025  0.80945301  1
  Se  Se213  1  0.42068862  0.42732362  0.29129189  1
  Se  Se214  1  0.41228539  0.41417567  0.80201861  1
  Se  Se215  1  0.41476047  0.75139431  0.30551961  1
  Se  Se216  1  0.42422121  0.75266562  0.80716906  1
  Se  Se217  1  0.75414057  0.09806011  0.31207945  1
  Se  Se218  1  0.75076718  0.08643841  0.81798061  1
  Se  Se219  1  0.74873287  0.42187065  0.29830029  1
  Se  Se220  1  0.74534985  0.41124270  0.81169457  1
  Se  Se221  1  0.75246227  0.76076501  0.31169121  1
  Se  Se222  1  0.75718147  0.74469790  0.79491422  1
  Se  Se223  1  0.25205844  0.08273280  0.19845843  1
  Se  Se224  1  0.24517822  0.09423576  0.68469185  1
  Se  Se225  1  0.24966283  0.41053549  0.20258085  1
  Se  Se226  1  0.25553500  0.41385487  0.68880810  1
  Se  Se227  1  0.25131495  0.74841044  0.20155389  1
  Se  Se228  1  0.24079635  0.76030748  0.69204858  1
  Se  Se229  1  0.57509880  0.10067963  0.19434966  1
  Se  Se230  1  0.57235353  0.08839307  0.69069099  1
  Se  Se231  1  0.58269651  0.43979445  0.18916096  1
  Se  Se232  1  0.58687123  0.40519737  0.69807354  1
  Se  Se233  1  0.57726918  0.76085941  0.19448355  1
  Se  Se234  1  0.58919349  0.74011336  0.69627331  1
  Se  Se235  1  0.90731257  0.08599208  0.19075986  1
  Se  Se236  1  0.91516239  0.09447174  0.70215676  1
  Se  Se237  1  0.91833957  0.41483246  0.19307412  1
  Se  Se238  1  0.90960019  0.42258671  0.69552894  1
  Se  Se239  1  0.91682727  0.74442545  0.19385209  1
  Se  Se240  1  0.91686288  0.75948144  0.68913627  1
  Se  Se241  1  0.08327384  0.24759206  0.19882425  1
  Se  Se242  1  0.09134342  0.25340638  0.68525985  1
  Se  Se243  1  0.07983662  0.58265097  0.19804903  1
  Se  Se244  1  0.09038438  0.58277149  0.68959097  1
  Se  Se245  1  0.09072358  0.90618279  0.18908290  1
  Se  Se246  1  0.08040136  0.92699459  0.69555203  1
  Se  Se247  1  0.42325031  0.25244528  0.20111146  1
  Se  Se248  1  0.41140084  0.25213483  0.69244536  1
  Se  Se249  1  0.40540498  0.60219046  0.20409888  1
  Se  Se250  1  0.43219026  0.56984435  0.68349124  1
  Se  Se251  1  0.41414129  0.92281542  0.20392525  1
  Se  Se252  1  0.42615159  0.90026970  0.69399747  1
  Se  Se253  1  0.74841765  0.25562475  0.19246585  1
  Se  Se254  1  0.74688600  0.25148742  0.70568378  1
  Se  Se255  1  0.74950282  0.57917746  0.18103135  1
  Se  Se256  1  0.74839900  0.57760606  0.69826498  1
  Se  Se257  1  0.75376725  0.91287129  0.19279356  1
  Se  Se258  1  0.75126221  0.91082121  0.68573760  1
