# generated using pymatgen
data_In86Cu29Se144
_symmetry_space_group_name_H-M   'P 1'
_cell_length_a   17.57179782
_cell_length_b   17.56831971
_cell_length_c   23.42635253
_cell_angle_alpha   89.96336599
_cell_angle_beta   89.99676668
_cell_angle_gamma   89.99648381
_symmetry_Int_Tables_number   1
_chemical_formula_structural   In86Cu29Se144
_chemical_formula_sum   'In86 Cu29 Se144'
_cell_volume   7231.87662081
_cell_formula_units_Z   1
loop_
 _symmetry_equiv_pos_site_id
 _symmetry_equiv_pos_as_xyz
  1  'x, y, z'
loop_
 _atom_site_type_symbol
 _atom_site_label
 _atom_site_symmetry_multiplicity
 _atom_site_fract_x
 _atom_site_fract_y
 _atom_site_fract_z
 _atom_site_occupancy
  In  In0  1  -0.00048903  0.16548272  0.12859317  1
  In  In1  1  0.01097766  0.18359862  0.60609384  1
  In  In2  1  -0.00204225  0.52181016  0.12856832  1
  In  In3  1  0.02932073  0.54034863  0.57801152  1
  In  In4  1  -0.01373070  0.81079636  0.11108765  1
  In  In5  1  0.00166938  0.81234946  0.62194132  1
  In  In6  1  0.34059242  0.17590672  0.13018443  1
  In  In7  1  0.34994550  0.17985601  0.61488285  1
  In  In8  1  0.34184078  0.49992839  0.14164286  1
  In  In9  1  0.32796831  0.51024250  0.63160934  1
  In  In10  1  0.32891874  0.82380157  0.12039429  1
  In  In11  1  0.32878560  0.82440480  0.61697058  1
  In  In12  1  0.67576535  0.17153680  0.12827315  1
  In  In13  1  0.65811789  0.16005629  0.61455300  1
  In  In14  1  0.66856734  0.50507580  0.12669930  1
  In  In15  1  0.67981051  0.50617752  0.61919455  1
  In  In16  1  0.66300755  0.82402936  0.11932062  1
  In  In17  1  0.66116002  0.84001579  0.63297937  1
  In  In18  1  0.17448186  0.00152657  0.39143271  1
  In  In19  1  0.15632826  -0.00767661  0.86871010  1
  In  In20  1  0.16715909  0.33466464  0.38756092  1
  In  In21  1  0.17058411  0.32502747  0.86973963  1
  In  In22  1  0.16019401  0.65752532  0.38229917  1
  In  In23  1  0.17646008  0.67287516  0.86595588  1
  In  In24  1  0.49457406  -0.00866975  0.39051165  1
  In  In25  1  0.49365810  -0.01982914  0.87393202  1
  In  In26  1  0.49542604  0.33994891  0.36672150  1
  In  In27  1  0.50347472  0.34827668  0.87286311  1
  In  In28  1  0.50495622  0.67379366  0.36809715  1
  In  In29  1  0.50227765  0.66434092  0.87462567  1
  In  In30  1  0.84307331  -0.00725266  0.37532719  1
  In  In31  1  0.81762563  0.00059175  0.86705563  1
  In  In32  1  0.82359508  0.35136071  0.39086780  1
  In  In33  1  0.83613405  0.33695631  0.87689711  1
  In  In34  1  0.82242109  0.66271281  0.36787108  1
  In  In35  1  0.83119055  0.66587033  0.87467007  1
  In  In36  1  -0.00345976  0.17606017  0.39588833  1
  In  In37  1  -0.00156213  0.16696228  0.86790897  1
  In  In38  1  -0.02451943  0.51933745  0.40254097  1
  In  In39  1  -0.01755058  0.49818627  0.87853761  1
  In  In40  1  0.00478366  0.83078740  0.37547366  1
  In  In41  1  0.01049585  0.81876782  0.87735977  1
  In  In42  1  0.32452976  0.18069111  0.38702558  1
  In  In43  1  0.33134678  0.17046041  0.86505135  1
  In  In44  1  0.33204373  0.49153385  0.36480428  1
  In  In45  1  0.33777576  0.50949886  0.86541161  1
  In  In46  1  0.33770044  0.82543605  0.38559673  1
  In  In47  1  0.34204171  0.81864075  0.88181362  1
  In  In48  1  0.65163518  0.17375388  0.38390614  1
  In  In49  1  0.67379289  0.16871038  0.86489013  1
  In  In50  1  0.67741301  0.51757368  0.36229242  1
  In  In51  1  0.65611951  0.50687453  0.88459721  1
  In  In52  1  0.66207690  0.79783197  0.37788396  1
  In  In53  1  0.66731744  0.82860233  0.87385228  1
  In  In54  1  0.18254455  -0.00944491  0.13206638  1
  In  In55  1  0.18142747  -0.00560962  0.60729205  1
  In  In56  1  0.17418746  0.34392300  0.13234954  1
  In  In57  1  0.17219668  0.36027975  0.60621515  1
  In  In58  1  0.15890762  0.67354076  0.13307745  1
  In  In59  1  0.17040525  0.67189135  0.61842352  1
  In  In60  1  0.50909441  -0.00603107  0.12348939  1
  In  In61  1  0.50690681  0.01217149  0.61842549  1
  In  In62  1  0.48892688  0.35740021  0.14810020  1
  In  In63  1  0.49865290  0.31492739  0.62675881  1
  In  In64  1  0.50178291  0.66477213  0.13119960  1
  In  In65  1  0.50022451  0.66803134  0.62792358  1
  In  In66  1  0.84622337  -0.00666816  0.12588558  1
  In  In67  1  0.81691916  -0.00041443  0.62681022  1
  In  In68  1  0.81074868  0.34229509  0.13567630  1
  In  In69  1  0.84950289  0.34743016  0.60760329  1
  In  In70  1  0.83486960  0.67039287  0.12391528  1
  In  In71  1  0.83830533  0.66125173  0.62693354  1
  In  In72  1  0.00309181  0.34132943  0.27129550  1
  In  In73  1  0.33345684  0.00046908  0.26515931  1
  In  In74  1  0.00905633  -0.00955714  0.26453046  1
  In  In75  1  0.83012626  0.83226614  0.50068855  1
  In  In76  1  0.50158377  0.16431683  0.00088355  1
  In  In77  1  0.66336240  -0.00346973  0.24631113  1
  In  In78  1  0.66471789  0.33568762  0.74266764  1
  In  In79  1  0.16252400  0.15888054  -0.01129208  1
  In  In80  1  0.34204952  -0.00158779  0.74462170  1
  In  In81  1  -0.00300300  -0.00578704  0.73928173  1
  In  In82  1  0.50529770  0.50348325  0.49697462  1
  In  In83  1  0.16941260  0.50405929  0.00241099  1
  In  In84  1  -0.00074444  0.34518979  0.74449048  1
  In  In85  1  0.82987435  0.16244873  -0.00934833  1
  Cu  Cu86  1  0.49886367  0.83586218  0.25320090  1
  Cu  Cu87  1  0.16135583  0.82248047  0.25181024  1
  Cu  Cu88  1  -0.01510636  0.33980883  0.00705358  1
  Cu  Cu89  1  0.83181562  0.82830441  0.74818332  1
  Cu  Cu90  1  0.83970232  0.50393213  0.25135452  1
  Cu  Cu91  1  0.50331626  0.82788395  0.75184250  1
  Cu  Cu92  1  0.33549810  0.33764971  0.00656779  1
  Cu  Cu93  1  0.17665683  0.17507673  0.73835371  1
  Cu  Cu94  1  -0.00234695  0.66630410  -0.00068641  1
  Cu  Cu95  1  0.83236016  0.50473709  0.74797020  1
  Cu  Cu96  1  0.32939557  -0.01671976  0.00077798  1
  Cu  Cu97  1  0.49653187  0.50000857  0.75010748  1
  Cu  Cu98  1  0.66633118  0.33510922  0.49966963  1
  Cu  Cu99  1  0.66933877  0.66624924  0.00155988  1
  Cu  Cu100  1  0.82844253  0.16363710  0.25973764  1
  Cu  Cu101  1  0.17208820  0.82812858  0.74446243  1
  Cu  Cu102  1  0.16108851  0.50485718  0.73759982  1
  Cu  Cu103  1  0.17035047  0.50118798  0.25757755  1
  Cu  Cu104  1  0.66698247  -0.00399002  0.49928225  1
  Cu  Cu105  1  0.49583878  0.17974336  0.25708779  1
  Cu  Cu106  1  0.34219826  0.34051786  0.49769874  1
  Cu  Cu107  1  0.00681512  -0.01729410  -0.00042093  1
  Cu  Cu108  1  0.33944675  0.66094536  0.00107345  1
  Cu  Cu109  1  0.16907545  0.17781718  0.26463331  1
  Cu  Cu110  1  0.65739811  0.34731908  0.00941795  1
  Cu  Cu111  1  0.33000692  0.66093337  0.50013257  1
  Cu  Cu112  1  0.66388526  -0.01054688  -0.00450723  1
  Cu  Cu113  1  -0.00285980  -0.00062519  0.50063334  1
  Cu  Cu114  1  0.82586850  0.16792479  0.73343123  1
  Se  Se115  1  0.07980779  0.07194640  0.06018133  1
  Se  Se116  1  0.08634415  0.07953181  0.55087533  1
  Se  Se117  1  0.07527071  0.41243017  0.06259656  1
  Se  Se118  1  0.04889676  0.39692991  0.55387212  1
  Se  Se119  1  0.09057476  0.74391841  0.04965131  1
  Se  Se120  1  0.08542466  0.74901607  0.54692910  1
  Se  Se121  1  0.40399102  0.07318806  0.05967078  1
  Se  Se122  1  0.41083920  0.07759552  0.55132122  1
  Se  Se123  1  0.41442222  0.41895239  0.06401492  1
  Se  Se124  1  0.41804260  0.41761346  0.56428288  1
  Se  Se125  1  0.42033185  0.74496976  0.05728313  1
  Se  Se126  1  0.41750763  0.74043249  0.55286947  1
  Se  Se127  1  0.74259167  0.07260757  0.05719488  1
  Se  Se128  1  0.75089000  0.08130900  0.54931950  1
  Se  Se129  1  0.75369091  0.42305701  0.05461284  1
  Se  Se130  1  0.75202071  0.42320858  0.54545459  1
  Se  Se131  1  0.75420457  0.75153484  0.05126392  1
  Se  Se132  1  0.74249014  0.74892786  0.56454939  1
  Se  Se133  1  0.24786686  0.25073760  0.05638082  1
  Se  Se134  1  0.25566339  0.26024134  0.55270060  1
  Se  Se135  1  0.25853577  0.58728422  0.06675707  1
  Se  Se136  1  0.24821872  0.57613229  0.55280197  1
  Se  Se137  1  0.24168839  0.90670279  0.05357315  1
  Se  Se138  1  0.26298375  0.91088322  0.54099406  1
  Se  Se139  1  0.58324708  0.25505430  0.06505521  1
  Se  Se140  1  0.57979684  0.25102256  0.54831630  1
  Se  Se141  1  0.58515960  0.58709170  0.05812591  1
  Se  Se142  1  0.59385668  0.59550605  0.55430073  1
  Se  Se143  1  0.57957040  0.91032326  0.05104787  1
  Se  Se144  1  0.58511818  0.91575760  0.55623465  1
  Se  Se145  1  0.90914578  0.25066851  0.06410061  1
  Se  Se146  1  0.89805099  0.23324957  0.54893590  1
  Se  Se147  1  0.91380315  0.58337447  0.05153040  1
  Se  Se148  1  0.89401354  0.57910492  0.54537235  1
  Se  Se149  1  0.91187394  0.91041759  0.04960328  1
  Se  Se150  1  0.92032970  0.92075090  0.56446643  1
  Se  Se151  1  0.10630847  0.23250654  0.45330004  1
  Se  Se152  1  0.06609523  0.26231329  0.94283481  1
  Se  Se153  1  0.08307830  0.58125623  0.46148342  1
  Se  Se154  1  0.07959807  0.58726472  0.93748385  1
  Se  Se155  1  0.07893118  0.91528603  0.44709796  1
  Se  Se156  1  0.09303346  0.90607309  0.94425482  1
  Se  Se157  1  0.42591253  0.25892668  0.44403672  1
  Se  Se158  1  0.40893413  0.25553272  0.94176065  1
  Se  Se159  1  0.41008537  0.58583810  0.43677885  1
  Se  Se160  1  0.41700779  0.57854384  0.94290594  1
  Se  Se161  1  0.39304854  0.92751880  0.45440745  1
  Se  Se162  1  0.42075549  0.90581508  0.95107805  1
  Se  Se163  1  0.74852778  0.24803809  0.44769341  1
  Se  Se164  1  0.73254855  0.26345818  0.94395282  1
  Se  Se165  1  0.75129183  0.58244843  0.44409317  1
  Se  Se166  1  0.75172770  0.58262024  0.94638384  1
  Se  Se167  1  0.73829382  0.91496898  0.43453620  1
  Se  Se168  1  0.75366485  0.91406529  0.94160459  1
  Se  Se169  1  0.25363151  0.08979611  0.45445334  1
  Se  Se170  1  0.26128993  0.06829081  0.93436531  1
  Se  Se171  1  0.25674367  0.42417871  0.44673116  1
  Se  Se172  1  0.25458454  0.41036433  0.94047084  1
  Se  Se173  1  0.24502642  0.74449830  0.44762722  1
  Se  Se174  1  0.25105246  0.74000906  0.94741651  1
  Se  Se175  1  0.57917964  0.08157795  0.45137700  1
  Se  Se176  1  0.59114893  0.07848336  0.93585568  1
  Se  Se177  1  0.59370061  0.41670194  0.43433597  1
  Se  Se178  1  0.57169994  0.42311358  0.95236811  1
  Se  Se179  1  0.56046442  0.75803496  0.44953866  1
  Se  Se180  1  0.58533610  0.74629174  0.94422646  1
  Se  Se181  1  0.90934679  0.07877997  0.44947076  1
  Se  Se182  1  0.93003726  0.06960261  0.93734297  1
  Se  Se183  1  0.94563957  0.38734306  0.44577383  1
  Se  Se184  1  0.90321511  0.42109130  0.95245299  1
  Se  Se185  1  0.91580686  0.74343732  0.43907103  1
  Se  Se186  1  0.91568696  0.74938500  0.94401213  1
  Se  Se187  1  0.25357073  0.26398673  0.31167276  1
  Se  Se188  1  0.25609818  0.25766444  0.79528151  1
  Se  Se189  1  0.25034185  0.59035777  0.30836913  1
  Se  Se190  1  0.24658285  0.58155160  0.79659821  1
  Se  Se191  1  0.23631145  0.90693942  0.31376661  1
  Se  Se192  1  0.25005901  0.90858231  0.80635805  1
  Se  Se193  1  0.58943131  0.25638465  0.30512802  1
  Se  Se194  1  0.57450635  0.24782495  0.80546200  1
  Se  Se195  1  0.57529259  0.58080177  0.30059592  1
  Se  Se196  1  0.58307323  0.57797997  0.80464344  1
  Se  Se197  1  0.57875732  0.91294218  0.31521551  1
  Se  Se198  1  0.58534779  0.91433700  0.80364525  1
  Se  Se199  1  0.90727940  0.24438325  0.31911535  1
  Se  Se200  1  0.90434815  0.24484307  0.79928680  1
  Se  Se201  1  0.92213809  0.58084701  0.31035230  1
  Se  Se202  1  0.91744294  0.58446500  0.80433514  1
  Se  Se203  1  0.90458612  0.89664690  0.30248619  1
  Se  Se204  1  0.91479345  0.91021269  0.80878069  1
  Se  Se205  1  0.08947660  0.09306382  0.32031299  1
  Se  Se206  1  0.09203259  0.09333599  0.79575330  1
  Se  Se207  1  0.08750587  0.43759626  0.32658780  1
  Se  Se208  1  0.09085848  0.42899021  0.81114163  1
  Se  Se209  1  0.08015762  0.74118762  0.30825876  1
  Se  Se210  1  0.08475799  0.74767242  0.79765048  1
  Se  Se211  1  0.42493633  0.09374316  0.31923978  1
  Se  Se212  1  0.43050732  0.08738177  0.80799048  1
  Se  Se213  1  0.42931930  0.43064482  0.29572124  1
  Se  Se214  1  0.41304225  0.41394949  0.80053436  1
  Se  Se215  1  0.41112574  0.75538761  0.30519050  1
  Se  Se216  1  0.41722944  0.74644079  0.80433157  1
  Se  Se217  1  0.74658064  0.08188034  0.31579323  1
  Se  Se218  1  0.74826395  0.08587553  0.79232765  1
  Se  Se219  1  0.75891538  0.41806965  0.30510459  1
  Se  Se220  1  0.75286831  0.42234544  0.80815388  1
  Se  Se221  1  0.74636300  0.74898449  0.29807500  1
  Se  Se222  1  0.74860821  0.74595827  0.80366032  1
  Se  Se223  1  0.24512245  0.09520520  0.20085731  1
  Se  Se224  1  0.25027601  0.08532672  0.68298029  1
  Se  Se225  1  0.25288313  0.41507275  0.20683401  1
  Se  Se226  1  0.24600503  0.41516176  0.69309250  1
  Se  Se227  1  0.25342102  0.74933167  0.19780622  1
  Se  Se228  1  0.25597549  0.74446271  0.69284526  1
  Se  Se229  1  0.57045349  0.09691436  0.19398575  1
  Se  Se230  1  0.58800530  0.08508911  0.69246854  1
  Se  Se231  1  0.61441892  0.39791300  0.19287126  1
  Se  Se232  1  0.57518510  0.42735733  0.68291292  1
  Se  Se233  1  0.58319666  0.75634809  0.19718128  1
  Se  Se234  1  0.58683185  0.74481732  0.69847100  1
  Se  Se235  1  0.91437785  0.08661902  0.20242863  1
  Se  Se236  1  0.91795068  0.09343395  0.67983825  1
  Se  Se237  1  0.92006986  0.41849986  0.19361141  1
  Se  Se238  1  0.91576180  0.43516608  0.68412570  1
  Se  Se239  1  0.92793524  0.73982805  0.19424360  1
  Se  Se240  1  0.91801685  0.74600337  0.69776725  1
  Se  Se241  1  0.08607797  0.24953877  0.19932288  1
  Se  Se242  1  0.09158222  0.25647072  0.68475230  1
  Se  Se243  1  0.08701274  0.58271974  0.20294498  1
  Se  Se244  1  0.07907755  0.58263375  0.67879823  1
  Se  Se245  1  0.08622159  0.90713366  0.19061183  1
  Se  Se246  1  0.09640095  0.91057879  0.68265131  1
  Se  Se247  1  0.40712452  0.25837187  0.20523845  1
  Se  Se248  1  0.41630369  0.24423629  0.70019470  1
  Se  Se249  1  0.42098639  0.58859364  0.20504630  1
  Se  Se250  1  0.41613077  0.58787231  0.69821337  1
  Se  Se251  1  0.41830975  0.91745412  0.19355673  1
  Se  Se252  1  0.42656248  0.90491281  0.68519939  1
  Se  Se253  1  0.74689491  0.24741687  0.20633533  1
  Se  Se254  1  0.75447577  0.25678269  0.67575609  1
  Se  Se255  1  0.75668311  0.58409220  0.19470044  1
  Se  Se256  1  0.74595479  0.58768554  0.69704257  1
  Se  Se257  1  0.75667126  0.90892226  0.18911904  1
  Se  Se258  1  0.74835047  0.91823484  0.70305816  1
