# generated using pymatgen
data_In86Cu29Se144
_symmetry_space_group_name_H-M   'P 1'
_cell_length_a   17.61600011
_cell_length_b   17.61581148
_cell_length_c   23.48801937
_cell_angle_alpha   90.00319587
_cell_angle_beta   90.00517946
_cell_angle_gamma   90.00293324
_symmetry_Int_Tables_number   1
_chemical_formula_structural   In86Cu29Se144
_chemical_formula_sum   'In86 Cu29 Se144'
_cell_volume   7288.80533874
_cell_formula_units_Z   1
loop_
 _symmetry_equiv_pos_site_id
 _symmetry_equiv_pos_as_xyz
  1  'x, y, z'
loop_
 _atom_site_type_symbol
 _atom_site_label
 _atom_site_symmetry_multiplicity
 _atom_site_fract_x
 _atom_site_fract_y
 _atom_site_fract_z
 _atom_site_occupancy
  In  In0  1  -0.02496509  0.17641077  0.13325110  1
  In  In1  1  -0.00346861  0.16810258  0.61804247  1
  In  In2  1  -0.01157280  0.48546460  0.11030159  1
  In  In3  1  0.00141615  0.49943367  0.61811249  1
  In  In4  1  0.00250302  0.84973620  0.12855864  1
  In  In5  1  -0.00086066  0.83282364  0.61101734  1
  In  In6  1  0.32955788  0.15381398  0.12836035  1
  In  In7  1  0.33814206  0.17700041  0.61829837  1
  In  In8  1  0.33362456  0.51318074  0.12147263  1
  In  In9  1  0.33313371  0.49673030  0.62302742  1
  In  In10  1  0.34184062  0.82549174  0.13320445  1
  In  In11  1  0.33928111  0.83995393  0.61150456  1
  In  In12  1  0.66339792  0.17538331  0.12918813  1
  In  In13  1  0.67074398  0.18126261  0.60903567  1
  In  In14  1  0.67217217  0.48737784  0.13701255  1
  In  In15  1  0.63678215  0.45225819  0.57196542  1
  In  In16  1  0.65221481  0.83866224  0.13312348  1
  In  In17  1  0.66393642  0.83051684  0.60875046  1
  In  In18  1  0.16843869  0.00001113  0.37404796  1
  In  In19  1  0.16333780  -0.00097967  0.87805421  1
  In  In20  1  0.16450602  0.33601218  0.38485863  1
  In  In21  1  0.18828001  0.32576653  0.87340185  1
  In  In22  1  0.17998916  0.65488616  0.37856072  1
  In  In23  1  0.15452830  0.66460695  0.86857069  1
  In  In24  1  0.49843427  -0.00405106  0.36979345  1
  In  In25  1  0.49931115  0.00176525  0.88933842  1
  In  In26  1  0.52907650  0.31455521  0.39910363  1
  In  In27  1  0.48725926  0.32269779  0.85860411  1
  In  In28  1  0.49999127  0.66915580  0.37422109  1
  In  In29  1  0.50942133  0.66240639  0.88272978  1
  In  In30  1  0.82877063  0.00392171  0.36976679  1
  In  In31  1  0.84422048  0.00729513  0.88163922  1
  In  In32  1  0.82208593  0.32928256  0.38284781  1
  In  In33  1  0.82343394  0.33854131  0.88090125  1
  In  In34  1  0.82889229  0.67754485  0.37590174  1
  In  In35  1  0.82258096  0.65637218  0.87762288  1
  In  In36  1  0.00200749  0.16368376  0.38035018  1
  In  In37  1  -0.00127489  0.15876177  0.87991679  1
  In  In38  1  0.00130696  0.49732063  0.38201092  1
  In  In39  1  0.00568066  0.48487859  0.89178449  1
  In  In40  1  -0.00760652  0.84567063  0.37919878  1
  In  In41  1  0.01095650  0.84361046  0.87672017  1
  In  In42  1  0.34380556  0.15997286  0.37883573  1
  In  In43  1  0.33765024  0.18656240  0.87829852  1
  In  In44  1  0.33549801  0.50458544  0.37443894  1
  In  In45  1  0.34952947  0.47520492  0.88500754  1
  In  In46  1  0.33544241  0.83046876  0.37336398  1
  In  In47  1  0.33551868  0.84437318  0.87565959  1
  In  In48  1  0.67271195  0.16054588  0.37267058  1
  In  In49  1  0.65462920  0.17795200  0.88447786  1
  In  In50  1  0.66599232  0.50030654  0.38027995  1
  In  In51  1  0.67410805  0.49631617  0.87797462  1
  In  In52  1  0.66551531  0.83598755  0.36866845  1
  In  In53  1  0.66437528  0.81911858  0.88273044  1
  In  In54  1  0.16676342  0.00275172  0.14086119  1
  In  In55  1  0.17448236  0.00752608  0.60958863  1
  In  In56  1  0.15552817  0.33390399  0.11552796  1
  In  In57  1  0.17079423  0.33922827  0.62065896  1
  In  In58  1  0.17683163  0.66285089  0.12831051  1
  In  In59  1  0.16888019  0.66933991  0.61534483  1
  In  In60  1  0.50171144  0.00136911  0.12830088  1
  In  In61  1  0.50485843  0.00451896  0.61234608  1
  In  In62  1  0.51277198  0.33729667  0.12783423  1
  In  In63  1  0.49550468  0.32792576  0.62190593  1
  In  In64  1  0.48600467  0.67326175  0.13770956  1
  In  In65  1  0.49814343  0.66350508  0.61697663  1
  In  In66  1  0.79752353  0.04462020  0.16795942  1
  In  In67  1  0.83066970  0.00097835  0.61140145  1
  In  In68  1  0.82318211  0.31937282  0.11130703  1
  In  In69  1  0.81900064  0.32662881  0.60936034  1
  In  In70  1  0.82909836  0.65123050  0.13142515  1
  In  In71  1  0.81759101  0.65218096  0.61076503  1
  In  In72  1  0.00405079  0.66907764  0.24884224  1
  In  In73  1  -0.00774768  0.33112412  0.25739603  1
  In  In74  1  0.17275602  0.82468383  0.00619104  1
  In  In75  1  0.50245146  0.50072845  0.00468378  1
  In  In76  1  0.34107974  0.01190733  0.73771140  1
  In  In77  1  -0.00944460  0.66246374  0.74703729  1
  In  In78  1  0.33498008  0.66010440  0.74507220  1
  In  In79  1  0.34233545  0.34295069  0.25443135  1
  In  In80  1  0.66544664  0.00310807  0.75099459  1
  In  In81  1  0.16881866  0.16980379  -0.00024226  1
  In  In82  1  0.83557389  0.83516463  0.00362089  1
  In  In83  1  0.00104235  0.33129424  0.74891614  1
  In  In84  1  0.00010523  0.00634773  0.75356201  1
  In  In85  1  0.66589770  0.65350677  0.74908051  1
  Cu  Cu86  1  0.50265762  0.16661452  0.25585010  1
  Cu  Cu87  1  0.66371305  -0.00291635  0.48963287  1
  Cu  Cu88  1  0.16799792  0.84542606  0.73838910  1
  Cu  Cu89  1  -0.00262535  -0.00144872  0.49352358  1
  Cu  Cu90  1  0.50206469  0.17134530  0.74769926  1
  Cu  Cu91  1  0.00757600  0.67138532  0.49351300  1
  Cu  Cu92  1  0.65879436  0.66819327  0.00794395  1
  Cu  Cu93  1  0.83019743  0.49076328  0.75180090  1
  Cu  Cu94  1  0.83141342  0.83605347  0.25479982  1
  Cu  Cu95  1  0.32925500  0.34132733  0.49893338  1
  Cu  Cu96  1  0.82822915  0.49597863  0.25583866  1
  Cu  Cu97  1  -0.00869822  0.01465633  0.01136695  1
  Cu  Cu98  1  0.66571173  0.33058146  0.00277619  1
  Cu  Cu99  1  0.50482535  0.82900494  0.75163281  1
  Cu  Cu100  1  0.17063804  0.50359465  0.24621336  1
  Cu  Cu101  1  0.50351191  0.49442843  0.25887633  1
  Cu  Cu102  1  0.16934696  0.83125346  0.25704482  1
  Cu  Cu103  1  0.67100053  0.00418449  0.01199200  1
  Cu  Cu104  1  0.83258822  0.83159963  0.74071308  1
  Cu  Cu105  1  -0.00591316  0.66399028  0.00161518  1
  Cu  Cu106  1  0.49817064  0.83314285  0.25247375  1
  Cu  Cu107  1  0.34123283  -0.00391596  0.00514490  1
  Cu  Cu108  1  0.33784889  0.66749629  0.49746482  1
  Cu  Cu109  1  0.67266964  0.67259926  0.48944300  1
  Cu  Cu110  1  -0.00203016  0.32788943  0.50147619  1
  Cu  Cu111  1  0.17412298  0.49486586  0.74760577  1
  Cu  Cu112  1  0.82369149  0.17299231  0.74602309  1
  Cu  Cu113  1  0.16789589  0.16796415  0.25726964  1
  Cu  Cu114  1  0.33020390  -0.00275570  0.49114205  1
  Se  Se115  1  0.08230952  0.08630240  0.06866758  1
  Se  Se116  1  0.07729930  0.08358126  0.54963341  1
  Se  Se117  1  0.09286945  0.42773011  0.04713542  1
  Se  Se118  1  0.08264986  0.41467489  0.55150187  1
  Se  Se119  1  0.07125555  0.74310892  0.06398834  1
  Se  Se120  1  0.09058440  0.75470430  0.54738420  1
  Se  Se121  1  0.41888389  0.08434862  0.05767818  1
  Se  Se122  1  0.40729802  0.07921493  0.55246881  1
  Se  Se123  1  0.41181853  0.40938993  0.06267962  1
  Se  Se124  1  0.41686855  0.41876261  0.55334430  1
  Se  Se125  1  0.40554185  0.73778796  0.05973461  1
  Se  Se126  1  0.42280066  0.75206017  0.54912929  1
  Se  Se127  1  0.75323899  0.08640723  0.06633056  1
  Se  Se128  1  0.74312095  0.08121967  0.54745578  1
  Se  Se129  1  0.74518409  0.42000510  0.05465533  1
  Se  Se130  1  0.78195414  0.44745646  0.55488309  1
  Se  Se131  1  0.74521033  0.74637404  0.06457436  1
  Se  Se132  1  0.75680343  0.75489473  0.54552502  1
  Se  Se133  1  0.26231777  0.25543313  0.05999596  1
  Se  Se134  1  0.24778243  0.25279565  0.55074751  1
  Se  Se135  1  0.24648125  0.58672302  0.05223847  1
  Se  Se136  1  0.25581131  0.58476415  0.55395404  1
  Se  Se137  1  0.25311012  0.92368220  0.06432389  1
  Se  Se138  1  0.24720291  0.91284158  0.54525139  1
  Se  Se139  1  0.58008818  0.24907654  0.05493164  1
  Se  Se140  1  0.56156331  0.23540299  0.54969332  1
  Se  Se141  1  0.58660617  0.58593477  0.07208099  1
  Se  Se142  1  0.59693177  0.59494458  0.55337801  1
  Se  Se143  1  0.58274961  0.91806128  0.05648493  1
  Se  Se144  1  0.57932121  0.91502775  0.54458694  1
  Se  Se145  1  0.94392057  0.27536409  0.05778657  1
  Se  Se146  1  0.90989901  0.24313463  0.54882945  1
  Se  Se147  1  0.90787306  0.58442408  0.05328807  1
  Se  Se148  1  0.92731636  0.59107470  0.55208557  1
  Se  Se149  1  0.91071754  0.93088872  0.06608361  1
  Se  Se150  1  0.91273584  0.91496895  0.54640859  1
  Se  Se151  1  0.08448615  0.24709216  0.44884602  1
  Se  Se152  1  0.07930906  0.25823288  0.93792932  1
  Se  Se153  1  0.08809726  0.58082355  0.44576787  1
  Se  Se154  1  0.08159719  0.58976585  0.94535394  1
  Se  Se155  1  0.08724633  0.91712876  0.44517791  1
  Se  Se156  1  0.07470288  0.92985550  0.95631417  1
  Se  Se157  1  0.41055164  0.25514542  0.44719404  1
  Se  Se158  1  0.43419505  0.24885101  0.94453108  1
  Se  Se159  1  0.42022696  0.58356325  0.44422568  1
  Se  Se160  1  0.40855813  0.58899574  0.94498422  1
  Se  Se161  1  0.41782075  0.91435319  0.44210924  1
  Se  Se162  1  0.41898153  0.90908155  0.95153164  1
  Se  Se163  1  0.73600002  0.24892819  0.44866251  1
  Se  Se164  1  0.75185309  0.24685087  0.95025285  1
  Se  Se165  1  0.75691885  0.58452955  0.44294900  1
  Se  Se166  1  0.74037768  0.58611618  0.95162640  1
  Se  Se167  1  0.75096512  0.91549033  0.43877489  1
  Se  Se168  1  0.74194704  0.92605338  0.94201238  1
  Se  Se169  1  0.24818951  0.08660504  0.44338714  1
  Se  Se170  1  0.26148491  0.07447012  0.94201085  1
  Se  Se171  1  0.24920850  0.42633849  0.44466104  1
  Se  Se172  1  0.24655376  0.41504595  0.94766628  1
  Se  Se173  1  0.25256744  0.74896166  0.44446761  1
  Se  Se174  1  0.25245644  0.74458151  0.93330632  1
  Se  Se175  1  0.57926668  0.08095965  0.43842132  1
  Se  Se176  1  0.58762064  0.08261154  0.95287302  1
  Se  Se177  1  0.59010296  0.42267607  0.45766881  1
  Se  Se178  1  0.58451037  0.40907404  0.94097201  1
  Se  Se179  1  0.58467654  0.75485965  0.44050159  1
  Se  Se180  1  0.57716070  0.75167425  0.95537016  1
  Se  Se181  1  0.91112162  0.08198267  0.44345251  1
  Se  Se182  1  0.91065471  0.09411275  0.95506408  1
  Se  Se183  1  0.91788982  0.40983722  0.44429908  1
  Se  Se184  1  0.89720865  0.42829729  0.94861628  1
  Se  Se185  1  0.91818397  0.75199587  0.44433627  1
  Se  Se186  1  0.92413251  0.74637573  0.93563271  1
  Se  Se187  1  0.24788361  0.25283115  0.31217705  1
  Se  Se188  1  0.25433110  0.24214980  0.79925137  1
  Se  Se189  1  0.25558238  0.58286524  0.29990862  1
  Se  Se190  1  0.24767898  0.57631962  0.81067150  1
  Se  Se191  1  0.25360492  0.91799702  0.30622110  1
  Se  Se192  1  0.24655815  0.92044972  0.80159304  1
  Se  Se193  1  0.58443564  0.24969482  0.30933596  1
  Se  Se194  1  0.59083890  0.24907029  0.80066868  1
  Se  Se195  1  0.58552850  0.58240043  0.30911787  1
  Se  Se196  1  0.57260412  0.56881390  0.80988541  1
  Se  Se197  1  0.58430647  0.91921984  0.29908641  1
  Se  Se198  1  0.58018617  0.90921773  0.81370416  1
  Se  Se199  1  0.90392313  0.23872883  0.31206989  1
  Se  Se200  1  0.90994985  0.24222144  0.80945746  1
  Se  Se201  1  0.91539417  0.57777846  0.30927618  1
  Se  Se202  1  0.91069619  0.57000623  0.81178637  1
  Se  Se203  1  0.91762497  0.92048490  0.30282242  1
  Se  Se204  1  0.90717659  0.90723004  0.80723326  1
  Se  Se205  1  0.08249390  0.08521618  0.30793460  1
  Se  Se206  1  0.09755468  0.09534800  0.80685637  1
  Se  Se207  1  0.09219925  0.42439234  0.30652605  1
  Se  Se208  1  0.08955092  0.42185823  0.80947006  1
  Se  Se209  1  0.08876658  0.75192757  0.31618657  1
  Se  Se210  1  0.08661974  0.76493972  0.79664461  1
  Se  Se211  1  0.41467618  0.08201606  0.30176935  1
  Se  Se212  1  0.42853760  0.08683234  0.81023839  1
  Se  Se213  1  0.43610297  0.41097548  0.32393500  1
  Se  Se214  1  0.41466394  0.42003614  0.79795585  1
  Se  Se215  1  0.41461671  0.74645295  0.30228159  1
  Se  Se216  1  0.42221254  0.75178128  0.81017896  1
  Se  Se217  1  0.74646009  0.07949903  0.29645933  1
  Se  Se218  1  0.75526114  0.09043818  0.81280482  1
  Se  Se219  1  0.74677497  0.41446580  0.31108412  1
  Se  Se220  1  0.74463933  0.41059593  0.80417615  1
  Se  Se221  1  0.74763144  0.74775904  0.30105386  1
  Se  Se222  1  0.75659919  0.75501740  0.80526526  1
  Se  Se223  1  0.25338047  0.08411406  0.20681140  1
  Se  Se224  1  0.24027388  0.09441159  0.68644200  1
  Se  Se225  1  0.24483654  0.41619334  0.18788267  1
  Se  Se226  1  0.25509656  0.41239553  0.69384636  1
  Se  Se227  1  0.24764382  0.74968676  0.19888599  1
  Se  Se228  1  0.25061665  0.76071622  0.68669169  1
  Se  Se229  1  0.58314878  0.08615415  0.19655188  1
  Se  Se230  1  0.58038717  0.09111620  0.68708805  1
  Se  Se231  1  0.58614929  0.40920849  0.20618840  1
  Se  Se232  1  0.59535400  0.41416945  0.67298227  1
  Se  Se233  1  0.58220763  0.74594268  0.20158501  1
  Se  Se234  1  0.58438526  0.75427016  0.68989534  1
  Se  Se235  1  0.93563817  0.06918979  0.19933909  1
  Se  Se236  1  0.90357610  0.08796946  0.69110992  1
  Se  Se237  1  0.90778874  0.42036788  0.19287868  1
  Se  Se238  1  0.91237233  0.41853531  0.68789845  1
  Se  Se239  1  0.90975138  0.75770018  0.19034949  1
  Se  Se240  1  0.90827072  0.75047083  0.68128799  1
  Se  Se241  1  0.08981770  0.24804085  0.19481030  1
  Se  Se242  1  0.08783539  0.24237586  0.68810547  1
  Se  Se243  1  0.07961147  0.57032610  0.18559894  1
  Se  Se244  1  0.09355640  0.57920449  0.69149168  1
  Se  Se245  1  0.08494808  0.91427492  0.20518458  1
  Se  Se246  1  0.08241028  0.92111473  0.68278434  1
  Se  Se247  1  0.42193451  0.24509933  0.19298469  1
  Se  Se248  1  0.41314289  0.25021657  0.69621012  1
  Se  Se249  1  0.41733229  0.57118355  0.20141677  1
  Se  Se250  1  0.43141363  0.57321070  0.69178503  1
  Se  Se251  1  0.41692264  0.91855303  0.19718779  1
  Se  Se252  1  0.43046917  0.90998967  0.68911438  1
  Se  Se253  1  0.76127512  0.24797689  0.19326998  1
  Se  Se254  1  0.74458932  0.25387600  0.68872541  1
  Se  Se255  1  0.74513036  0.58158699  0.20482614  1
  Se  Se256  1  0.75316924  0.56838423  0.68865498  1
  Se  Se257  1  0.74450651  0.91349818  0.19970679  1
  Se  Se258  1  0.75005419  0.91179804  0.68581281  1
