# generated using pymatgen
data_In86Cu29Se144
_symmetry_space_group_name_H-M   'P 1'
_cell_length_a   17.58407585
_cell_length_b   17.58881165
_cell_length_c   23.45091041
_cell_angle_alpha   89.96261117
_cell_angle_beta   90.01189255
_cell_angle_gamma   89.99108240
_symmetry_Int_Tables_number   1
_chemical_formula_structural   In86Cu29Se144
_chemical_formula_sum   'In86 Cu29 Se144'
_cell_volume   7252.96609445
_cell_formula_units_Z   1
loop_
 _symmetry_equiv_pos_site_id
 _symmetry_equiv_pos_as_xyz
  1  'x, y, z'
loop_
 _atom_site_type_symbol
 _atom_site_label
 _atom_site_symmetry_multiplicity
 _atom_site_fract_x
 _atom_site_fract_y
 _atom_site_fract_z
 _atom_site_occupancy
  In  In0  1  -0.01167968  0.15492761  0.11256563  1
  In  In1  1  0.00674066  0.16694302  0.64310890  1
  In  In2  1  0.02189369  0.50231970  0.12853822  1
  In  In3  1  0.00016618  0.50426822  0.62316853  1
  In  In4  1  -0.00122859  0.83023502  0.12672438  1
  In  In5  1  0.00281854  0.82657025  0.62649127  1
  In  In6  1  0.33908993  0.17254967  0.11778893  1
  In  In7  1  0.33434166  0.15191840  0.62480287  1
  In  In8  1  0.30962115  0.50373217  0.13432727  1
  In  In9  1  0.33677192  0.52290468  0.63165895  1
  In  In10  1  0.32427239  0.81628904  0.10712698  1
  In  In11  1  0.31572933  0.82343787  0.61744968  1
  In  In12  1  0.65581567  0.15144999  0.11891228  1
  In  In13  1  0.66692070  0.17890636  0.62486692  1
  In  In14  1  0.66572618  0.49192585  0.12620241  1
  In  In15  1  0.67053636  0.48547781  0.62976239  1
  In  In16  1  0.67520715  0.84427525  0.11848585  1
  In  In17  1  0.67212524  0.83834861  0.61957708  1
  In  In18  1  0.15205369  -0.00029272  0.36902942  1
  In  In19  1  0.15286141  0.00814824  0.88059615  1
  In  In20  1  0.17661697  0.33608185  0.37525707  1
  In  In21  1  0.16292211  0.33489079  0.87662500  1
  In  In22  1  0.15065159  0.67380236  0.39111701  1
  In  In23  1  0.16794270  0.67018771  0.87829689  1
  In  In24  1  0.50924554  -0.01107959  0.37730562  1
  In  In25  1  0.50180416  0.00334601  0.88256623  1
  In  In26  1  0.48027842  0.33702045  0.37472289  1
  In  In27  1  0.49926289  0.32534307  0.87563860  1
  In  In28  1  0.50684586  0.66803441  0.37731379  1
  In  In29  1  0.49883815  0.67839748  0.87212081  1
  In  In30  1  0.82324990  -0.00760354  0.36625051  1
  In  In31  1  0.85231466  -0.01334321  0.88059077  1
  In  In32  1  0.84484285  0.33639445  0.37635825  1
  In  In33  1  0.82703203  0.32904518  0.86791260  1
  In  In34  1  0.84868262  0.66115832  0.39324895  1
  In  In35  1  0.84776906  0.67283157  0.86976787  1
  In  In36  1  0.00926188  0.16223611  0.37026743  1
  In  In37  1  0.00102820  0.16184768  0.87355809  1
  In  In38  1  -0.00598801  0.51199785  0.39128261  1
  In  In39  1  0.01544406  0.51227251  0.86676364  1
  In  In40  1  -0.00231292  0.83535403  0.38033190  1
  In  In41  1  0.00120454  0.83450194  0.87481532  1
  In  In42  1  0.33372039  0.18273344  0.37084689  1
  In  In43  1  0.33253266  0.16977486  0.88551668  1
  In  In44  1  0.32829957  0.48528135  0.37309072  1
  In  In45  1  0.31964957  0.50209881  0.87751594  1
  In  In46  1  0.33253610  0.82863683  0.37856419  1
  In  In47  1  0.33393100  0.82537541  0.88418088  1
  In  In48  1  0.66873132  0.14932413  0.37247290  1
  In  In49  1  0.66351622  0.17304645  0.87853683  1
  In  In50  1  0.66761281  0.51263603  0.37682644  1
  In  In51  1  0.67958571  0.49638743  0.86807763  1
  In  In52  1  0.66651319  0.83569493  0.37928850  1
  In  In53  1  0.66704115  0.83986878  0.87867137  1
  In  In54  1  0.15209259  -0.01432869  0.11702788  1
  In  In55  1  0.16330923  -0.01342072  0.62792828  1
  In  In56  1  0.17479073  0.34054721  0.11557459  1
  In  In57  1  0.15025249  0.33361333  0.63021583  1
  In  In58  1  0.15520040  0.65018532  0.11295951  1
  In  In59  1  0.16145920  0.66954161  0.62578449  1
  In  In60  1  0.50260994  0.00110097  0.12029739  1
  In  In61  1  0.49742372  -0.00122281  0.61648584  1
  In  In62  1  0.49649950  0.32198007  0.12626218  1
  In  In63  1  0.51411180  0.33710439  0.62708719  1
  In  In64  1  0.48236892  0.66943569  0.12102868  1
  In  In65  1  0.48439403  0.66723206  0.62725618  1
  In  In66  1  0.83330431  -0.00557966  0.12549843  1
  In  In67  1  0.84851136  -0.00682871  0.62933681  1
  In  In68  1  0.85140171  0.33244221  0.12138660  1
  In  In69  1  0.83204734  0.33685667  0.63013085  1
  In  In70  1  0.83413144  0.68174564  0.12474639  1
  In  In71  1  0.86211027  0.68744005  0.60390573  1
  In  In72  1  0.84480338  0.50537349  -0.01101901  1
  In  In73  1  0.66720309  0.67174325  0.25718878  1
  In  In74  1  0.16932554  0.16421862  0.49799026  1
  In  In75  1  0.33471802  0.00060831  0.23870301  1
  In  In76  1  0.33170266  0.33756344  0.76017394  1
  In  In77  1  0.49947296  0.50217862  0.50165212  1
  In  In78  1  0.66219839  0.32629064  0.24334502  1
  In  In79  1  0.67317168  0.66143632  0.74621098  1
  In  In80  1  0.32313668  -0.00259456  0.75311450  1
  In  In81  1  0.67403440  0.00241189  0.74502724  1
  In  In82  1  0.83138525  0.16316520  0.50372333  1
  In  In83  1  0.00938575  0.33366717  0.24907648  1
  In  In84  1  0.32370109  0.66349898  0.25185167  1
  In  In85  1  0.49697449  0.50112523  -0.00016640  1
  Cu  Cu86  1  0.66315324  -0.00290780  0.49831718  1
  Cu  Cu87  1  -0.00297700  0.34130301  0.50558170  1
  Cu  Cu88  1  0.84429978  0.83207340  0.25114535  1
  Cu  Cu89  1  0.50065616  0.17504066  0.75366751  1
  Cu  Cu90  1  0.67118066  0.00545150  -0.00053244  1
  Cu  Cu91  1  0.00709358  0.32886906  -0.00415647  1
  Cu  Cu92  1  0.50693309  0.83758191  0.24631082  1
  Cu  Cu93  1  0.16440675  0.16751047  0.24447227  1
  Cu  Cu94  1  0.33386073  0.33339367  0.50072695  1
  Cu  Cu95  1  0.49293805  0.83359504  0.74844746  1
  Cu  Cu96  1  0.33362871  -0.00095801  0.00175380  1
  Cu  Cu97  1  0.16064485  0.82627702  0.75033583  1
  Cu  Cu98  1  0.15826524  0.83149439  0.25148099  1
  Cu  Cu99  1  0.32696100  0.67122734  0.50317288  1
  Cu  Cu100  1  0.16635533  0.50471144  0.75036619  1
  Cu  Cu101  1  0.66390715  0.32889087  0.50371006  1
  Cu  Cu102  1  0.33955569  -0.00022605  0.49593190  1
  Cu  Cu103  1  0.83379258  0.50711731  0.25901496  1
  Cu  Cu104  1  0.66393984  0.67787883  -0.00095779  1
  Cu  Cu105  1  0.33323477  0.33345285  -0.00226810  1
  Cu  Cu106  1  0.67301288  0.32742671  0.00032238  1
  Cu  Cu107  1  -0.00386372  -0.00330320  -0.00053272  1
  Cu  Cu108  1  0.83359638  0.16681601  0.75307090  1
  Cu  Cu109  1  0.66729274  0.66930680  0.50055562  1
  Cu  Cu110  1  0.83299784  0.15677784  0.24186007  1
  Cu  Cu111  1  -0.00130530  -0.00407076  0.50017741  1
  Cu  Cu112  1  0.49828035  0.16261233  0.24528933  1
  Cu  Cu113  1  0.00160982  0.67107716  -0.00377297  1
  Cu  Cu114  1  0.84061249  0.49773441  0.74455456  1
  Se  Se115  1  0.08430273  0.08130127  0.04862626  1
  Se  Se116  1  0.07521296  0.08132031  0.55997049  1
  Se  Se117  1  0.08234017  0.41847428  0.05008960  1
  Se  Se118  1  0.08737812  0.41940502  0.55503786  1
  Se  Se119  1  0.08269048  0.75222791  0.05435854  1
  Se  Se120  1  0.10067103  0.76731463  0.55678361  1
  Se  Se121  1  0.41903438  0.08356327  0.05244339  1
  Se  Se122  1  0.41834957  0.08677608  0.54883146  1
  Se  Se123  1  0.40840204  0.41357287  0.06270748  1
  Se  Se124  1  0.40975083  0.41433085  0.56431369  1
  Se  Se125  1  0.42745123  0.75502551  0.04404162  1
  Se  Se126  1  0.41585100  0.75265762  0.55316648  1
  Se  Se127  1  0.75608632  0.08408099  0.05572006  1
  Se  Se128  1  0.74223540  0.07171798  0.56454367  1
  Se  Se129  1  0.75313031  0.41487711  0.05443929  1
  Se  Se130  1  0.74953361  0.41010214  0.55490406  1
  Se  Se131  1  0.75371491  0.75499458  0.05098125  1
  Se  Se132  1  0.75154637  0.75530577  0.54984513  1
  Se  Se133  1  0.24900183  0.24773725  0.04958017  1
  Se  Se134  1  0.25397897  0.25426074  0.56283737  1
  Se  Se135  1  0.26591418  0.59316784  0.05500819  1
  Se  Se136  1  0.24890753  0.58500756  0.55737023  1
  Se  Se137  1  0.24618905  0.91492915  0.04949132  1
  Se  Se138  1  0.25135822  0.92511916  0.55214599  1
  Se  Se139  1  0.58555621  0.25176019  0.05585181  1
  Se  Se140  1  0.57739452  0.24665683  0.55259914  1
  Se  Se141  1  0.59265058  0.59094198  0.05993385  1
  Se  Se142  1  0.58898852  0.58965312  0.56382409  1
  Se  Se143  1  0.58578694  0.91998502  0.05082086  1
  Se  Se144  1  0.58054595  0.91267483  0.55208108  1
  Se  Se145  1  0.91618143  0.25005610  0.04527353  1
  Se  Se146  1  0.92658395  0.24812543  0.56289656  1
  Se  Se147  1  0.92410237  0.58891713  0.06068130  1
  Se  Se148  1  0.90973356  0.57008100  0.55027222  1
  Se  Se149  1  0.91615081  0.91230095  0.05616414  1
  Se  Se150  1  0.91871855  0.91216897  0.55504688  1
  Se  Se151  1  0.07389649  0.25883562  0.44329781  1
  Se  Se152  1  0.08770920  0.24265931  0.94320550  1
  Se  Se153  1  0.08353334  0.58131350  0.46056663  1
  Se  Se154  1  0.08532687  0.58299709  0.94791787  1
  Se  Se155  1  0.08778342  0.91916094  0.44668286  1
  Se  Se156  1  0.08200491  0.91392524  0.94790939  1
  Se  Se157  1  0.41619957  0.24837184  0.44904673  1
  Se  Se158  1  0.42242919  0.24988600  0.95078556  1
  Se  Se159  1  0.40642697  0.58996754  0.44053693  1
  Se  Se160  1  0.41087335  0.59211202  0.94035534  1
  Se  Se161  1  0.41909856  0.91184997  0.44358636  1
  Se  Se162  1  0.41694769  0.91819084  0.94569091  1
  Se  Se163  1  0.74423368  0.25323680  0.43868142  1
  Se  Se164  1  0.75682738  0.24868647  0.94513721  1
  Se  Se165  1  0.74895962  0.58067699  0.45139137  1
  Se  Se166  1  0.74340939  0.59624798  0.93904960  1
  Se  Se167  1  0.75240496  0.91915594  0.44626140  1
  Se  Se168  1  0.75202896  0.91964673  0.94618804  1
  Se  Se169  1  0.25786595  0.07670460  0.43303212  1
  Se  Se170  1  0.24964351  0.08016839  0.94688105  1
  Se  Se171  1  0.24836160  0.41697171  0.45121216  1
  Se  Se172  1  0.24624093  0.41568667  0.94757967  1
  Se  Se173  1  0.24646541  0.75684823  0.44962600  1
  Se  Se174  1  0.24019562  0.75622812  0.95059298  1
  Se  Se175  1  0.58167001  0.08268854  0.44599058  1
  Se  Se176  1  0.58425294  0.08861632  0.94814549  1
  Se  Se177  1  0.58788933  0.40996211  0.43922741  1
  Se  Se178  1  0.59536420  0.41315480  0.94228412  1
  Se  Se179  1  0.58252626  0.75115629  0.44722854  1
  Se  Se180  1  0.58027114  0.75682060  0.94351840  1
  Se  Se181  1  0.92147745  0.07860416  0.43914633  1
  Se  Se182  1  0.91638427  0.08558209  0.94725573  1
  Se  Se183  1  0.90890094  0.41835411  0.45225300  1
  Se  Se184  1  0.92985638  0.41026973  0.93216692  1
  Se  Se185  1  0.91450358  0.76215594  0.45396093  1
  Se  Se186  1  0.91500310  0.75346698  0.94658050  1
  Se  Se187  1  0.24405972  0.25086193  0.29954284  1
  Se  Se188  1  0.24395998  0.23770906  0.80999220  1
  Se  Se189  1  0.23844029  0.58410746  0.32047267  1
  Se  Se190  1  0.24844531  0.58726838  0.80506255  1
  Se  Se191  1  0.24750536  0.91217830  0.30493705  1
  Se  Se192  1  0.23803295  0.90686036  0.81405776  1
  Se  Se193  1  0.57579257  0.24164684  0.31053149  1
  Se  Se194  1  0.58812509  0.25531422  0.80386807  1
  Se  Se195  1  0.57014988  0.57257140  0.30377392  1
  Se  Se196  1  0.58081554  0.57972093  0.81041055  1
  Se  Se197  1  0.59048288  0.91492546  0.30284588  1
  Se  Se198  1  0.57479823  0.91645348  0.80417637  1
  Se  Se199  1  0.90924481  0.24005076  0.30296098  1
  Se  Se200  1  0.91890442  0.24933125  0.80509135  1
  Se  Se201  1  0.91788947  0.58619133  0.31290524  1
  Se  Se202  1  0.91812284  0.58245234  0.80114237  1
  Se  Se203  1  0.92238301  0.91956004  0.30561158  1
  Se  Se204  1  0.92208532  0.91543450  0.80220120  1
  Se  Se205  1  0.08020450  0.08259935  0.29453439  1
  Se  Se206  1  0.07478533  0.07416086  0.80261516  1
  Se  Se207  1  0.08064034  0.42407791  0.31854635  1
  Se  Se208  1  0.08731479  0.41548044  0.80205380  1
  Se  Se209  1  0.08132225  0.75109424  0.31154143  1
  Se  Se210  1  0.07933031  0.74377252  0.80723515  1
  Se  Se211  1  0.41901410  0.08352877  0.30895860  1
  Se  Se212  1  0.42033730  0.08994008  0.80902863  1
  Se  Se213  1  0.41102322  0.41541654  0.29975503  1
  Se  Se214  1  0.42476609  0.42825164  0.81488995  1
  Se  Se215  1  0.42585995  0.75610920  0.30447655  1
  Se  Se216  1  0.41007122  0.75432740  0.80367935  1
  Se  Se217  1  0.74629041  0.07851539  0.29572992  1
  Se  Se218  1  0.75583670  0.08548917  0.81424765  1
  Se  Se219  1  0.75150337  0.41833224  0.30827998  1
  Se  Se220  1  0.75309808  0.41546837  0.79514779  1
  Se  Se221  1  0.76445206  0.75344503  0.31505711  1
  Se  Se222  1  0.75346841  0.75819939  0.80776654  1
  Se  Se223  1  0.24005560  0.08706254  0.18132248  1
  Se  Se224  1  0.23480182  0.09030585  0.69408853  1
  Se  Se225  1  0.23046413  0.41740801  0.19947298  1
  Se  Se226  1  0.24811602  0.42343701  0.69131306  1
  Se  Se227  1  0.24081037  0.75644637  0.19021738  1
  Se  Se228  1  0.24950912  0.74751616  0.69756817  1
  Se  Se229  1  0.58189727  0.07642502  0.19670284  1
  Se  Se230  1  0.57334267  0.09035326  0.69123368  1
  Se  Se231  1  0.56906822  0.42372706  0.19382651  1
  Se  Se232  1  0.57894320  0.42186444  0.70068283  1
  Se  Se233  1  0.58124266  0.75161034  0.18594441  1
  Se  Se234  1  0.57986820  0.75843301  0.69033869  1
  Se  Se235  1  0.92191057  0.07704792  0.19225846  1
  Se  Se236  1  0.91565670  0.08108838  0.70163921  1
  Se  Se237  1  0.91271107  0.42887475  0.19501243  1
  Se  Se238  1  0.92557950  0.41296549  0.69371141  1
  Se  Se239  1  0.92212527  0.74319078  0.19937953  1
  Se  Se240  1  0.91968582  0.74280958  0.69452452  1
  Se  Se241  1  0.08350450  0.24252570  0.18013122  1
  Se  Se242  1  0.08651064  0.25361173  0.70727052  1
  Se  Se243  1  0.09043969  0.58852126  0.19952946  1
  Se  Se244  1  0.08130561  0.58466383  0.69526922  1
  Se  Se245  1  0.07815825  0.91674620  0.19741205  1
  Se  Se246  1  0.07913658  0.91400888  0.69954281  1
  Se  Se247  1  0.41140561  0.24698777  0.19788114  1
  Se  Se248  1  0.41563583  0.24704825  0.69148774  1
  Se  Se249  1  0.41933029  0.57542711  0.19393431  1
  Se  Se250  1  0.42369083  0.58564154  0.70508266  1
  Se  Se251  1  0.41796089  0.90155849  0.18252286  1
  Se  Se252  1  0.41329930  0.91362423  0.68764070  1
  Se  Se253  1  0.75815753  0.24361533  0.18317108  1
  Se  Se254  1  0.75070814  0.24928319  0.69765695  1
  Se  Se255  1  0.75394444  0.57872264  0.19251949  1
  Se  Se256  1  0.76431608  0.58020856  0.68240000  1
  Se  Se257  1  0.75445994  0.91003003  0.19783171  1
  Se  Se258  1  0.76294747  0.90281466  0.69598073  1
