# generated using pymatgen
data_In86Cu29Se144
_symmetry_space_group_name_H-M   'P 1'
_cell_length_a   17.58210770
_cell_length_b   17.58187777
_cell_length_c   23.43394935
_cell_angle_alpha   90.01344372
_cell_angle_beta   89.99804902
_cell_angle_gamma   90.02671406
_symmetry_Int_Tables_number   1
_chemical_formula_structural   In86Cu29Se144
_chemical_formula_sum   'In86 Cu29 Se144'
_cell_volume   7244.05301606
_cell_formula_units_Z   1
loop_
 _symmetry_equiv_pos_site_id
 _symmetry_equiv_pos_as_xyz
  1  'x, y, z'
loop_
 _atom_site_type_symbol
 _atom_site_label
 _atom_site_symmetry_multiplicity
 _atom_site_fract_x
 _atom_site_fract_y
 _atom_site_fract_z
 _atom_site_occupancy
  In  In0  1  -0.00676382  0.17887352  0.12474972  1
  In  In1  1  -0.01143102  0.18234102  0.62667579  1
  In  In2  1  0.00397925  0.48641500  0.12654934  1
  In  In3  1  -0.01703867  0.47290276  0.60160864  1
  In  In4  1  0.00149205  0.83879484  0.11471466  1
  In  In5  1  -0.00368462  0.82570424  0.62136746  1
  In  In6  1  0.33906262  0.15873807  0.11613022  1
  In  In7  1  0.34490908  0.15403523  0.63598422  1
  In  In8  1  0.33445091  0.49819135  0.11542943  1
  In  In9  1  0.33046178  0.50129444  0.62986393  1
  In  In10  1  0.33738361  0.83244911  0.11481439  1
  In  In11  1  0.33072202  0.83012468  0.62734352  1
  In  In12  1  0.65505320  0.14950460  0.10790088  1
  In  In13  1  0.68256678  0.19058500  0.60942653  1
  In  In14  1  0.66202371  0.50737695  0.12481802  1
  In  In15  1  0.64732013  0.47297852  0.60424715  1
  In  In16  1  0.66567442  0.83780375  0.11928212  1
  In  In17  1  0.66746030  0.83858919  0.62095722  1
  In  In18  1  0.15784335  -0.00651859  0.37850176  1
  In  In19  1  0.16404432  -0.01326090  0.87511818  1
  In  In20  1  0.15786937  0.34833505  0.38366040  1
  In  In21  1  0.17593229  0.34244208  0.86472322  1
  In  In22  1  0.17460717  0.65895567  0.38029942  1
  In  In23  1  0.16994591  0.66285672  0.87721297  1
  In  In24  1  0.51357267  -0.01183104  0.37686643  1
  In  In25  1  0.49740603  0.01025049  0.88200319  1
  In  In26  1  0.51754609  0.32515615  0.40206032  1
  In  In27  1  0.50012088  0.33562152  0.87304153  1
  In  In28  1  0.50393474  0.66697069  0.38294289  1
  In  In29  1  0.49223704  0.67635417  0.87521126  1
  In  In30  1  0.81892112  0.01192929  0.38148539  1
  In  In31  1  0.81717980  0.01824715  0.89961731  1
  In  In32  1  0.84468808  0.31303395  0.39952203  1
  In  In33  1  0.81979365  0.31992399  0.85180296  1
  In  In34  1  0.83648356  0.66979257  0.38150556  1
  In  In35  1  0.84137546  0.67296966  0.87212688  1
  In  In36  1  -0.01439671  0.16411151  0.37658777  1
  In  In37  1  -0.01864180  0.17501336  0.87241180  1
  In  In38  1  0.01165830  0.47950694  0.39290574  1
  In  In39  1  0.00646352  0.49951227  0.87270886  1
  In  In40  1  0.00280957  0.83503245  0.38091331  1
  In  In41  1  -0.00683073  0.85212266  0.89216544  1
  In  In42  1  0.33927872  0.17709295  0.37910824  1
  In  In43  1  0.34389374  0.17567438  0.86408954  1
  In  In44  1  0.33726870  0.50001262  0.38478192  1
  In  In45  1  0.33179792  0.50348643  0.86749342  1
  In  In46  1  0.34265567  0.82490108  0.38160346  1
  In  In47  1  0.33284522  0.83247554  0.87119074  1
  In  In48  1  0.67086893  0.16072687  0.38050761  1
  In  In49  1  0.66155337  0.17181432  0.88153593  1
  In  In50  1  0.67410907  0.49146078  0.39587756  1
  In  In51  1  0.67214074  0.48468921  0.87103171  1
  In  In52  1  0.65525572  0.84934026  0.37848622  1
  In  In53  1  0.65753097  0.84891786  0.89218346  1
  In  In54  1  0.17375688  -0.00412492  0.11984584  1
  In  In55  1  0.17989236  -0.00226027  0.62862974  1
  In  In56  1  0.15583006  0.33363073  0.12205850  1
  In  In57  1  0.15690811  0.34604856  0.62802803  1
  In  In58  1  0.16749065  0.66387805  0.11867013  1
  In  In59  1  0.16797498  0.66536324  0.62495355  1
  In  In60  1  0.50467132  -0.00264430  0.11746530  1
  In  In61  1  0.49855755  -0.00212190  0.62419000  1
  In  In62  1  0.50206805  0.33036594  0.11321966  1
  In  In63  1  0.49767480  0.32762083  0.62775893  1
  In  In64  1  0.49829005  0.66254468  0.11608345  1
  In  In65  1  0.48624575  0.65686442  0.62361059  1
  In  In66  1  0.81618298  -0.01489139  0.10598043  1
  In  In67  1  0.83387829  0.00535788  0.62055176  1
  In  In68  1  0.84332977  0.32825345  0.12584074  1
  In  In69  1  0.82943516  0.32759156  0.62172930  1
  In  In70  1  0.82497603  0.66994783  0.12593591  1
  In  In71  1  0.83367944  0.66667932  0.62208538  1
  In  In72  1  0.66559988  0.66835101  0.24940613  1
  In  In73  1  -0.00839008  0.00265381  0.24272368  1
  In  In74  1  0.83365986  0.49894445  0.00252918  1
  In  In75  1  -0.00029560  0.00617180  0.75249285  1
  In  In76  1  0.66611935  0.66256332  0.74701805  1
  In  In77  1  0.16631131  0.16486411  -0.00112987  1
  In  In78  1  0.16763233  0.16385708  0.50790141  1
  In  In79  1  0.33350848  0.33793657  0.25396361  1
  In  In80  1  0.67070076  0.33136428  0.25749974  1
  In  In81  1  0.33774592  0.66227706  0.26289807  1
  In  In82  1  0.33458956  0.00208965  0.24120463  1
  In  In83  1  -0.00162628  0.66249975  0.24250473  1
  In  In84  1  0.66162708  0.01121184  0.75948730  1
  In  In85  1  0.01122634  0.66332938  0.75176324  1
  Cu  Cu86  1  0.16224639  0.50088183  0.74622249  1
  Cu  Cu87  1  0.17138889  0.16836349  0.74659946  1
  Cu  Cu88  1  0.00475397  0.66893224  -0.00270853  1
  Cu  Cu89  1  0.15498875  0.17925739  0.24843278  1
  Cu  Cu90  1  0.82702351  0.17083729  0.25344549  1
  Cu  Cu91  1  0.33550846  -0.00557201  0.50507750  1
  Cu  Cu92  1  0.00754798  0.67163280  0.49864369  1
  Cu  Cu93  1  0.50044903  0.49780073  0.25702953  1
  Cu  Cu94  1  0.33587842  -0.00340498  -0.00425119  1
  Cu  Cu95  1  0.50198367  0.16157779  0.24583510  1
  Cu  Cu96  1  0.33823246  0.33752931  -0.01188665  1
  Cu  Cu97  1  0.33458373  0.33212148  0.50946481  1
  Cu  Cu98  1  0.48883463  0.83274227  0.74760070  1
  Cu  Cu99  1  0.16998434  0.82985550  0.75294274  1
  Cu  Cu100  1  -0.00135249  -0.00609738  0.50297517  1
  Cu  Cu101  1  0.82508450  0.84483011  0.24864077  1
  Cu  Cu102  1  0.66269923  0.66533489  0.00068761  1
  Cu  Cu103  1  0.49892836  0.49478156  0.74565366  1
  Cu  Cu104  1  0.17424774  0.82665209  0.25187369  1
  Cu  Cu105  1  0.67114680  0.67807545  0.50341424  1
  Cu  Cu106  1  0.66301016  -0.00026236  0.50148873  1
  Cu  Cu107  1  0.33180092  0.67029650  0.50438832  1
  Cu  Cu108  1  -0.00038309  0.33845374  -0.00433274  1
  Cu  Cu109  1  0.50866182  0.16876937  0.75088429  1
  Cu  Cu110  1  0.84294384  0.49157297  0.26014581  1
  Cu  Cu111  1  0.66567111  0.32876826  -0.00703568  1
  Cu  Cu112  1  0.33246112  0.66562701  -0.00651763  1
  Cu  Cu113  1  0.83204518  0.49339990  0.73532692  1
  Cu  Cu114  1  0.83029557  0.83965591  0.75741561  1
  Se  Se115  1  0.07618404  0.08032222  0.06231200  1
  Se  Se116  1  0.07463294  0.07422519  0.56737736  1
  Se  Se117  1  0.08491317  0.41957787  0.04832680  1
  Se  Se118  1  0.09245610  0.41322512  0.54349625  1
  Se  Se119  1  0.08748094  0.75098777  0.05292745  1
  Se  Se120  1  0.08927575  0.75252401  0.55571952  1
  Se  Se121  1  0.42083554  0.08067895  0.04752217  1
  Se  Se122  1  0.41624331  0.08273450  0.55502894  1
  Se  Se123  1  0.41987779  0.41735994  0.04857271  1
  Se  Se124  1  0.41543527  0.41842032  0.56240235  1
  Se  Se125  1  0.41790013  0.74681665  0.04817697  1
  Se  Se126  1  0.41734528  0.75290880  0.55656083  1
  Se  Se127  1  0.77222561  0.10487480  0.05197836  1
  Se  Se128  1  0.75031356  0.08388467  0.55055654  1
  Se  Se129  1  0.74030623  0.40664544  0.06074969  1
  Se  Se130  1  0.76930400  0.43071605  0.55373310  1
  Se  Se131  1  0.74796820  0.74716428  0.05392260  1
  Se  Se132  1  0.75710834  0.75861366  0.55651274  1
  Se  Se133  1  0.25978343  0.26084404  0.05528864  1
  Se  Se134  1  0.25691245  0.24977093  0.57038710  1
  Se  Se135  1  0.25049858  0.58260374  0.04999326  1
  Se  Se136  1  0.25118758  0.58264356  0.55648434  1
  Se  Se137  1  0.25102137  0.91474874  0.04907868  1
  Se  Se138  1  0.24847520  0.91261673  0.55499049  1
  Se  Se139  1  0.57959517  0.24508133  0.04466727  1
  Se  Se140  1  0.57310317  0.24895334  0.55209269  1
  Se  Se141  1  0.58084707  0.57619020  0.04959529  1
  Se  Se142  1  0.58970869  0.59535878  0.55888512  1
  Se  Se143  1  0.58470395  0.91585151  0.04803117  1
  Se  Se144  1  0.57949009  0.91543546  0.55354254  1
  Se  Se145  1  0.91666994  0.25353793  0.04743602  1
  Se  Se146  1  0.90904353  0.24531488  0.54887486  1
  Se  Se147  1  0.92577645  0.59111242  0.06230705  1
  Se  Se148  1  0.92345133  0.59229503  0.55404510  1
  Se  Se149  1  0.92111486  0.91965191  0.04754253  1
  Se  Se150  1  0.91313497  0.91312880  0.55696727  1
  Se  Se151  1  0.07749056  0.24695871  0.44395184  1
  Se  Se152  1  0.08336893  0.25815899  0.93659132  1
  Se  Se153  1  0.08833435  0.58228299  0.44900203  1
  Se  Se154  1  0.08256272  0.58136153  0.94447568  1
  Se  Se155  1  0.08693614  0.91251763  0.45268843  1
  Se  Se156  1  0.09380858  0.91750100  0.95510483  1
  Se  Se157  1  0.41602664  0.24544927  0.45697799  1
  Se  Se158  1  0.42078982  0.24692234  0.94245352  1
  Se  Se159  1  0.41728048  0.58787990  0.45031192  1
  Se  Se160  1  0.41563223  0.58250904  0.93951193  1
  Se  Se161  1  0.41914195  0.91753331  0.44537892  1
  Se  Se162  1  0.41791002  0.91303204  0.94127610  1
  Se  Se163  1  0.71768747  0.27173054  0.44354465  1
  Se  Se164  1  0.75851263  0.25577852  0.94029046  1
  Se  Se165  1  0.75294077  0.59171503  0.45151804  1
  Se  Se166  1  0.74581844  0.58943098  0.93850491  1
  Se  Se167  1  0.74953713  0.91647386  0.44836882  1
  Se  Se168  1  0.76803230  0.90031209  0.95180335  1
  Se  Se169  1  0.25681358  0.07512332  0.44150355  1
  Se  Se170  1  0.25912093  0.08190703  0.93565505  1
  Se  Se171  1  0.25562157  0.41272909  0.45053422  1
  Se  Se172  1  0.25050311  0.42080028  0.94025360  1
  Se  Se173  1  0.24951316  0.75091591  0.44647004  1
  Se  Se174  1  0.24953567  0.75202469  0.94259703  1
  Se  Se175  1  0.58004076  0.08254784  0.44631206  1
  Se  Se176  1  0.60830496  0.06186211  0.94270996  1
  Se  Se177  1  0.56687691  0.43863634  0.45913137  1
  Se  Se178  1  0.58439782  0.41801602  0.94401313  1
  Se  Se179  1  0.58511163  0.75564345  0.44715155  1
  Se  Se180  1  0.57897795  0.74849767  0.94755475  1
  Se  Se181  1  0.91628150  0.07882538  0.44959122  1
  Se  Se182  1  0.94192538  0.07122518  0.94182516  1
  Se  Se183  1  0.89950468  0.42924442  0.45273866  1
  Se  Se184  1  0.91330862  0.41175890  0.93447068  1
  Se  Se185  1  0.91932811  0.75432007  0.44863472  1
  Se  Se186  1  0.91547976  0.74878906  0.94774516  1
  Se  Se187  1  0.23941033  0.24720835  0.31218736  1
  Se  Se188  1  0.25496538  0.25404556  0.79820072  1
  Se  Se189  1  0.24286693  0.56379438  0.30769520  1
  Se  Se190  1  0.24324574  0.58580251  0.80019160  1
  Se  Se191  1  0.25000889  0.91245572  0.30958722  1
  Se  Se192  1  0.25153944  0.91901121  0.80196562  1
  Se  Se193  1  0.57075555  0.24546197  0.31151628  1
  Se  Se194  1  0.58823353  0.25249944  0.80671395  1
  Se  Se195  1  0.58673437  0.57340188  0.31467718  1
  Se  Se196  1  0.57719912  0.57491738  0.80949163  1
  Se  Se197  1  0.58836547  0.92133466  0.29743505  1
  Se  Se198  1  0.57314842  0.90855951  0.80830354  1
  Se  Se199  1  0.90828936  0.25225255  0.30946762  1
  Se  Se200  1  0.93341562  0.26624996  0.79548613  1
  Se  Se201  1  0.91955838  0.57986542  0.31438071  1
  Se  Se202  1  0.90572141  0.57280702  0.80143679  1
  Se  Se203  1  0.91023103  0.91613796  0.31158552  1
  Se  Se204  1  0.90681711  0.92281016  0.81575244  1
  Se  Se205  1  0.08595835  0.08857314  0.30707113  1
  Se  Se206  1  0.09253701  0.09385876  0.81267551  1
  Se  Se207  1  0.07624554  0.41365228  0.30760053  1
  Se  Se208  1  0.07995507  0.41678531  0.79970294  1
  Se  Se209  1  0.08869057  0.74986711  0.30871187  1
  Se  Se210  1  0.08134801  0.76349570  0.81633965  1
  Se  Se211  1  0.41893478  0.08815187  0.30880972  1
  Se  Se212  1  0.42492638  0.08182706  0.80170520  1
  Se  Se213  1  0.43000386  0.41297475  0.31950603  1
  Se  Se214  1  0.41533532  0.41457746  0.80299947  1
  Se  Se215  1  0.43524696  0.75902428  0.30640618  1
  Se  Se216  1  0.40939973  0.74517195  0.79957000  1
  Se  Se217  1  0.74392365  0.08374640  0.30269151  1
  Se  Se218  1  0.76211387  0.09540476  0.81227791  1
  Se  Se219  1  0.75927456  0.41733313  0.31985792  1
  Se  Se220  1  0.74358738  0.41592977  0.78982821  1
  Se  Se221  1  0.75482287  0.75781018  0.30994315  1
  Se  Se222  1  0.74461016  0.75918308  0.81269786  1
  Se  Se223  1  0.23736062  0.09957822  0.19017307  1
  Se  Se224  1  0.25391591  0.07659948  0.70307406  1
  Se  Se225  1  0.24619147  0.42120886  0.18863540  1
  Se  Se226  1  0.24912591  0.41517129  0.69806275  1
  Se  Se227  1  0.25368851  0.74893794  0.19154784  1
  Se  Se228  1  0.24808285  0.74551651  0.69704074  1
  Se  Se229  1  0.58269448  0.08090382  0.19003117  1
  Se  Se230  1  0.58628775  0.09316319  0.68526269  1
  Se  Se231  1  0.57679714  0.41798628  0.19320581  1
  Se  Se232  1  0.58488698  0.41334970  0.69380200  1
  Se  Se233  1  0.57491350  0.75189015  0.18792661  1
  Se  Se234  1  0.57614519  0.75654388  0.68988384  1
  Se  Se235  1  0.89997305  0.09095168  0.18680868  1
  Se  Se236  1  0.90461564  0.09350753  0.69583579  1
  Se  Se237  1  0.91794037  0.41279130  0.19787107  1
  Se  Se238  1  0.92090521  0.40971113  0.68931396  1
  Se  Se239  1  0.90850683  0.76462095  0.19132528  1
  Se  Se240  1  0.90886410  0.75532088  0.70047688  1
  Se  Se241  1  0.07246098  0.26093535  0.19615181  1
  Se  Se242  1  0.08604598  0.24822752  0.69324370  1
  Se  Se243  1  0.09598872  0.57247681  0.19236665  1
  Se  Se244  1  0.07611818  0.56856281  0.68144798  1
  Se  Se245  1  0.09309527  0.90868167  0.19387868  1
  Se  Se246  1  0.08485652  0.90764422  0.69369423  1
  Se  Se247  1  0.42084846  0.24456120  0.18960652  1
  Se  Se248  1  0.41737973  0.24916243  0.70178596  1
  Se  Se249  1  0.42244425  0.57421802  0.19392103  1
  Se  Se250  1  0.41288902  0.58350695  0.70176088  1
  Se  Se251  1  0.42379613  0.90647934  0.18921825  1
  Se  Se252  1  0.41199244  0.92020660  0.69355358  1
  Se  Se253  1  0.74629761  0.24356961  0.18691421  1
  Se  Se254  1  0.74829221  0.25101791  0.69535507  1
  Se  Se255  1  0.76233990  0.56928554  0.19817974  1
  Se  Se256  1  0.74640353  0.57307699  0.68106522  1
  Se  Se257  1  0.74454925  0.92256462  0.19049155  1
  Se  Se258  1  0.75178447  0.91906617  0.69638115  1
