# generated using pymatgen
data_In86Cu29Se144
_symmetry_space_group_name_H-M   'P 1'
_cell_length_a   17.63943151
_cell_length_b   17.62626118
_cell_length_c   23.50186305
_cell_angle_alpha   89.99224121
_cell_angle_beta   89.99554999
_cell_angle_gamma   89.99407622
_symmetry_Int_Tables_number   1
_chemical_formula_structural   In86Cu29Se144
_chemical_formula_sum   'In86 Cu29 Se144'
_cell_volume   7307.13395763
_cell_formula_units_Z   1
loop_
 _symmetry_equiv_pos_site_id
 _symmetry_equiv_pos_as_xyz
  1  'x, y, z'
loop_
 _atom_site_type_symbol
 _atom_site_label
 _atom_site_symmetry_multiplicity
 _atom_site_fract_x
 _atom_site_fract_y
 _atom_site_fract_z
 _atom_site_occupancy
  In  In0  1  -0.01493474  0.15599112  0.12004689  1
  In  In1  1  -0.01638219  0.15404188  0.61483914  1
  In  In2  1  0.01011145  0.50886737  0.11385914  1
  In  In3  1  -0.00659453  0.51013598  0.62443126  1
  In  In4  1  -0.00382865  0.83126518  0.13184569  1
  In  In5  1  0.01124787  0.83999809  0.62341757  1
  In  In6  1  0.34520653  0.14947292  0.13402152  1
  In  In7  1  0.33855208  0.17237621  0.62233919  1
  In  In8  1  0.32188887  0.50560553  0.12628945  1
  In  In9  1  0.32817084  0.48882362  0.62853453  1
  In  In10  1  0.33798745  0.84194415  0.11812761  1
  In  In11  1  0.33413102  0.84375350  0.61524971  1
  In  In12  1  0.66883810  0.16384429  0.12374822  1
  In  In13  1  0.67210552  0.15666364  0.63502204  1
  In  In14  1  0.66464306  0.48517011  0.12172155  1
  In  In15  1  0.66175134  0.49980412  0.63632312  1
  In  In16  1  0.66705627  0.83991338  0.12266882  1
  In  In17  1  0.64830360  0.85140056  0.65296250  1
  In  In18  1  0.16868731  0.00818651  0.37807606  1
  In  In19  1  0.15733645  -0.00586122  0.87590750  1
  In  In20  1  0.16658161  0.31604651  0.37470844  1
  In  In21  1  0.17965988  0.33124021  0.87844017  1
  In  In22  1  0.18151113  0.70836477  0.35876033  1
  In  In23  1  0.15799151  0.68140912  0.88703348  1
  In  In24  1  0.50032957  -0.01024628  0.36478471  1
  In  In25  1  0.51865673  -0.01346261  0.88347682  1
  In  In26  1  0.49703490  0.32678604  0.36528246  1
  In  In27  1  0.49568789  0.32818155  0.87388226  1
  In  In28  1  0.50500106  0.68584169  0.37224608  1
  In  In29  1  0.50961891  0.67147735  0.87217975  1
  In  In30  1  0.83827129  0.00594766  0.37147990  1
  In  In31  1  0.83096847  0.00588212  0.87930919  1
  In  In32  1  0.82279721  0.32859946  0.37103572  1
  In  In33  1  0.82546101  0.34133068  0.88191206  1
  In  In34  1  0.84283941  0.66567469  0.36642647  1
  In  In35  1  0.82579324  0.67802926  0.88470245  1
  In  In36  1  0.01178257  0.15688661  0.38193114  1
  In  In37  1  -0.00366113  0.14137670  0.87852646  1
  In  In38  1  0.00065485  0.51056257  0.37073910  1
  In  In39  1  -0.00196045  0.50391602  0.88546620  1
  In  In40  1  0.04991901  0.87308948  0.31866313  1
  In  In41  1  -0.01829939  0.85911944  0.89902753  1
  In  In42  1  0.32156576  0.14811806  0.36270312  1
  In  In43  1  0.33758053  0.18292285  0.87455158  1
  In  In44  1  0.33641962  0.49652690  0.37067736  1
  In  In45  1  0.33680478  0.49303081  0.88102484  1
  In  In46  1  0.32478493  0.85162905  0.38933750  1
  In  In47  1  0.33737633  0.83061349  0.88745095  1
  In  In48  1  0.67092622  0.16846629  0.37105124  1
  In  In49  1  0.66658221  0.16446351  0.87729154  1
  In  In50  1  0.68167722  0.49882812  0.36835847  1
  In  In51  1  0.67166918  0.50747474  0.87158921  1
  In  In52  1  0.65349420  0.84640578  0.38166193  1
  In  In53  1  0.66543112  0.83939246  0.87252844  1
  In  In54  1  0.16841811  -0.01169735  0.13621571  1
  In  In55  1  0.15521364  -0.00653871  0.62113523  1
  In  In56  1  0.17147252  0.34541409  0.12610708  1
  In  In57  1  0.17735970  0.32934824  0.62890274  1
  In  In58  1  0.17213872  0.66028924  0.11908671  1
  In  In59  1  0.15882026  0.67566715  0.62218766  1
  In  In60  1  0.50015357  0.00125686  0.12358162  1
  In  In61  1  0.50523717  -0.00041811  0.62127937  1
  In  In62  1  0.51244868  0.32119958  0.13255868  1
  In  In63  1  0.50004945  0.32650761  0.63229911  1
  In  In64  1  0.49341034  0.68974270  0.11822406  1
  In  In65  1  0.49798992  0.68079539  0.62808875  1
  In  In66  1  0.83218614  -0.00641314  0.12544967  1
  In  In67  1  0.82226331  0.00792426  0.63205423  1
  In  In68  1  0.82476685  0.31812416  0.11244921  1
  In  In69  1  0.82720209  0.31710078  0.62661332  1
  In  In70  1  0.84451441  0.68004695  0.11303073  1
  In  In71  1  0.82865604  0.66044042  0.62554170  1
  In  In72  1  0.66680124  0.66487452  0.23824759  1
  In  In73  1  0.83686664  0.82659899  0.49494257  1
  In  In74  1  0.49670897  0.50709176  0.00158398  1
  In  In75  1  0.33469476  0.66540617  0.75882675  1
  In  In76  1  0.83448311  0.49658662  0.49886386  1
  In  In77  1  0.00054541  0.67043211  0.75038868  1
  In  In78  1  -0.00510425  0.32979393  0.75044049  1
  In  In79  1  0.33537906  0.67249910  0.24428062  1
  In  In80  1  0.49616345  0.16037409  0.49711014  1
  In  In81  1  0.33813907  0.00532935  0.74689639  1
  In  In82  1  0.16652857  0.16417051  0.00523862  1
  In  In83  1  0.16255071  0.50267030  0.50630010  1
  In  In84  1  0.50088318  0.49972444  0.49122055  1
  In  In85  1  0.00104477  0.32884799  0.24326010  1
  Cu  Cu86  1  0.32893788  0.32673683  0.50083291  1
  Cu  Cu87  1  0.66907939  0.00100326  0.00178483  1
  Cu  Cu88  1  0.33607863  0.00713239  0.00397549  1
  Cu  Cu89  1  0.83531094  0.83455057  0.75980703  1
  Cu  Cu90  1  0.83617720  0.48986173  0.24174430  1
  Cu  Cu91  1  0.66668043  0.32944482  0.00007831  1
  Cu  Cu92  1  0.17219920  0.49497330  0.75549904  1
  Cu  Cu93  1  0.50579910  0.16529687  0.24885635  1
  Cu  Cu94  1  0.00271587  0.66446311  0.00474527  1
  Cu  Cu95  1  0.00098399  0.33204777  0.00179994  1
  Cu  Cu96  1  0.83238295  0.16485625  0.24518606  1
  Cu  Cu97  1  0.82930027  0.49974173  0.75589085  1
  Cu  Cu98  1  0.17148668  0.16700456  0.24946105  1
  Cu  Cu99  1  -0.00063049  0.32893437  0.49979482  1
  Cu  Cu100  1  0.16731158  0.49967122  0.24518671  1
  Cu  Cu101  1  0.16682196  0.83708105  0.74876594  1
  Cu  Cu102  1  0.82555651  0.83072593  0.24607306  1
  Cu  Cu103  1  0.66854498  0.67011179  -0.00632970  1
  Cu  Cu104  1  0.82942192  0.16458713  0.75404285  1
  Cu  Cu105  1  -0.00187295  -0.00489115  0.49164850  1
  Cu  Cu106  1  0.66791029  0.32592948  0.49797588  1
  Cu  Cu107  1  0.50106258  0.49691632  0.24847668  1
  Cu  Cu108  1  0.66287971  0.67122467  0.50286051  1
  Cu  Cu109  1  0.00991239  0.67748511  0.48802549  1
  Cu  Cu110  1  0.33743147  0.33392843  0.00058083  1
  Cu  Cu111  1  0.49691497  0.49265358  0.75463640  1
  Cu  Cu112  1  0.33591595  0.67677654  0.50067670  1
  Cu  Cu113  1  0.50272261  0.16861255  0.75359785  1
  Cu  Cu114  1  0.16236092  0.16550244  0.75497054  1
  Se  Se115  1  0.08085550  0.06982708  0.06192079  1
  Se  Se116  1  0.07698775  0.07888482  0.55086805  1
  Se  Se117  1  0.08862404  0.41404219  0.05100003  1
  Se  Se118  1  0.07185571  0.40867900  0.56443830  1
  Se  Se119  1  0.07961748  0.74779616  0.06215852  1
  Se  Se120  1  0.08430211  0.75689225  0.54997130  1
  Se  Se121  1  0.42286209  0.08963593  0.05221286  1
  Se  Se122  1  0.40371873  0.07086931  0.55601127  1
  Se  Se123  1  0.41706360  0.41179807  0.06462564  1
  Se  Se124  1  0.41317374  0.40890190  0.55483262  1
  Se  Se125  1  0.39832127  0.74382920  0.04800568  1
  Se  Se126  1  0.42121979  0.75565481  0.55377839  1
  Se  Se127  1  0.75363074  0.08203632  0.05607570  1
  Se  Se128  1  0.75232071  0.09125692  0.55853054  1
  Se  Se129  1  0.75075932  0.41611100  0.04923879  1
  Se  Se130  1  0.73920273  0.41308908  0.55907217  1
  Se  Se131  1  0.74574235  0.75373924  0.05308584  1
  Se  Se132  1  0.74491384  0.74787264  0.56190088  1
  Se  Se133  1  0.26048519  0.25235809  0.06372456  1
  Se  Se134  1  0.24582223  0.24599803  0.55450159  1
  Se  Se135  1  0.24950582  0.57610701  0.04914007  1
  Se  Se136  1  0.26171000  0.59232958  0.56167601  1
  Se  Se137  1  0.24899301  0.92704415  0.05568396  1
  Se  Se138  1  0.23572286  0.91053662  0.55356406  1
  Se  Se139  1  0.58417363  0.24725348  0.05425850  1
  Se  Se140  1  0.58550482  0.25147200  0.55925791  1
  Se  Se141  1  0.59030882  0.59554953  0.06131433  1
  Se  Se142  1  0.58561110  0.58420449  0.55851556  1
  Se  Se143  1  0.58199261  0.91801602  0.05306694  1
  Se  Se144  1  0.59556555  0.91449172  0.56314690  1
  Se  Se145  1  0.91713757  0.24286425  0.04692511  1
  Se  Se146  1  0.91042137  0.25181288  0.55145094  1
  Se  Se147  1  0.91196338  0.57853351  0.04991910  1
  Se  Se148  1  0.92745277  0.59900264  0.54767566  1
  Se  Se149  1  0.90887081  0.90200346  0.06064128  1
  Se  Se150  1  0.91908258  0.92267666  0.55929193  1
  Se  Se151  1  0.08683537  0.24758513  0.45051269  1
  Se  Se152  1  0.07812474  0.25090812  0.93848621  1
  Se  Se153  1  0.09169965  0.59262401  0.43505395  1
  Se  Se154  1  0.08649000  0.58288003  0.95010507  1
  Se  Se155  1  0.06849234  0.91625613  0.42599010  1
  Se  Se156  1  0.10206394  0.90443396  0.95057462  1
  Se  Se157  1  0.40954229  0.25397607  0.43799708  1
  Se  Se158  1  0.42148196  0.25004193  0.95037603  1
  Se  Se159  1  0.40849663  0.59633245  0.43760577  1
  Se  Se160  1  0.41047215  0.59726272  0.93999169  1
  Se  Se161  1  0.42965406  0.92025253  0.44552374  1
  Se  Se162  1  0.41799926  0.92259710  0.94935518  1
  Se  Se163  1  0.75299135  0.24630917  0.44542421  1
  Se  Se164  1  0.75085343  0.24734284  0.94599298  1
  Se  Se165  1  0.74552577  0.59423457  0.44285795  1
  Se  Se166  1  0.75085185  0.57983390  0.94707422  1
  Se  Se167  1  0.74879137  0.92593240  0.44385065  1
  Se  Se168  1  0.74800694  0.91722546  0.94434815  1
  Se  Se169  1  0.25084410  0.09037706  0.44620022  1
  Se  Se170  1  0.25681147  0.08191066  0.93769835  1
  Se  Se171  1  0.25231128  0.41407744  0.44381963  1
  Se  Se172  1  0.25050261  0.41621248  0.95092315  1
  Se  Se173  1  0.24572433  0.75445233  0.45062882  1
  Se  Se174  1  0.24761345  0.75612195  0.95216884  1
  Se  Se175  1  0.58777223  0.07805839  0.43682193  1
  Se  Se176  1  0.58436571  0.08528015  0.94919747  1
  Se  Se177  1  0.59509988  0.40890392  0.43634368  1
  Se  Se178  1  0.58656089  0.41491467  0.94209260  1
  Se  Se179  1  0.58126468  0.75483699  0.45050471  1
  Se  Se180  1  0.58406974  0.75430575  0.94385424  1
  Se  Se181  1  0.91474000  0.08558553  0.44584774  1
  Se  Se182  1  0.92017744  0.07184912  0.95375367  1
  Se  Se183  1  0.92672452  0.40938773  0.43689191  1
  Se  Se184  1  0.91640038  0.41596232  0.94903361  1
  Se  Se185  1  0.92884062  0.75293972  0.42802260  1
  Se  Se186  1  0.91760023  0.74802932  0.95260142  1
  Se  Se187  1  0.25408586  0.25269076  0.30092648  1
  Se  Se188  1  0.24818878  0.25065628  0.80183964  1
  Se  Se189  1  0.24398808  0.58207064  0.30869279  1
  Se  Se190  1  0.23921489  0.58060769  0.81760085  1
  Se  Se191  1  0.23065314  0.90250494  0.31302487  1
  Se  Se192  1  0.25252420  0.91196923  0.80855511  1
  Se  Se193  1  0.58843402  0.25078038  0.30150468  1
  Se  Se194  1  0.58548743  0.25080143  0.80813434  1
  Se  Se195  1  0.57731103  0.57894295  0.30915964  1
  Se  Se196  1  0.57991758  0.58009356  0.80360492  1
  Se  Se197  1  0.59457745  0.91764443  0.29846045  1
  Se  Se198  1  0.58490660  0.91905938  0.80077465  1
  Se  Se199  1  0.91573683  0.24121714  0.30798032  1
  Se  Se200  1  0.91174777  0.24158228  0.81538849  1
  Se  Se201  1  0.91373197  0.57505833  0.29649466  1
  Se  Se202  1  0.91120524  0.58113933  0.81141482  1
  Se  Se203  1  0.90687403  0.91287933  0.30205424  1
  Se  Se204  1  0.91748409  0.91935631  0.81156654  1
  Se  Se205  1  0.08602963  0.08718221  0.30332344  1
  Se  Se206  1  0.08224176  0.07689412  0.80310311  1
  Se  Se207  1  0.08956513  0.41817179  0.30770205  1
  Se  Se208  1  0.08409002  0.41970875  0.81190741  1
  Se  Se209  1  0.06056493  0.72658112  0.30258319  1
  Se  Se210  1  0.08324096  0.76290974  0.81093383  1
  Se  Se211  1  0.42050503  0.08021278  0.29975555  1
  Se  Se212  1  0.42440347  0.08745985  0.81473448  1
  Se  Se213  1  0.41508514  0.41574453  0.30103032  1
  Se  Se214  1  0.41081478  0.41289378  0.80729874  1
  Se  Se215  1  0.41152125  0.76511938  0.31106349  1
  Se  Se216  1  0.42386037  0.76409141  0.80722549  1
  Se  Se217  1  0.75099164  0.08407887  0.30239894  1
  Se  Se218  1  0.74585043  0.08039133  0.80657438  1
  Se  Se219  1  0.75164495  0.41233857  0.29682031  1
  Se  Se220  1  0.74707021  0.41383947  0.80551748  1
  Se  Se221  1  0.74580642  0.75092811  0.30956525  1
  Se  Se222  1  0.74962079  0.74889679  0.80713094  1
  Se  Se223  1  0.25183376  0.07703609  0.19989391  1
  Se  Se224  1  0.24126905  0.08983304  0.68919608  1
  Se  Se225  1  0.25610975  0.41618925  0.20011870  1
  Se  Se226  1  0.25190171  0.41078266  0.70214940  1
  Se  Se227  1  0.24267205  0.75895648  0.18777261  1
  Se  Se228  1  0.24718466  0.75384141  0.69250864  1
  Se  Se229  1  0.58624152  0.08207955  0.19302530  1
  Se  Se230  1  0.57619302  0.08163692  0.69665058  1
  Se  Se231  1  0.58856128  0.41375937  0.19921283  1
  Se  Se232  1  0.58036680  0.41129916  0.69974278  1
  Se  Se233  1  0.57124694  0.76312608  0.19543885  1
  Se  Se234  1  0.59302772  0.73191074  0.69981707  1
  Se  Se235  1  0.91540330  0.07719641  0.19644340  1
  Se  Se236  1  0.91497430  0.08589622  0.69777488  1
  Se  Se237  1  0.91589704  0.41467460  0.17808805  1
  Se  Se238  1  0.90652274  0.42553184  0.68995586  1
  Se  Se239  1  0.91079037  0.74410079  0.19863241  1
  Se  Se240  1  0.90917588  0.75900895  0.69029049  1
  Se  Se241  1  0.09158157  0.23887084  0.18351300  1
  Se  Se242  1  0.08210679  0.24058019  0.68938749  1
  Se  Se243  1  0.08742254  0.58114406  0.19077258  1
  Se  Se244  1  0.09457785  0.57410982  0.69399020  1
  Se  Se245  1  0.07778787  0.91330334  0.20250391  1
  Se  Se246  1  0.07979399  0.92015732  0.69987863  1
  Se  Se247  1  0.41797176  0.24750276  0.19768199  1
  Se  Se248  1  0.41354132  0.24688228  0.69932717  1
  Se  Se249  1  0.42947266  0.58061079  0.18676014  1
  Se  Se250  1  0.41902234  0.57357030  0.69234654  1
  Se  Se251  1  0.41138462  0.92346538  0.19062546  1
  Se  Se252  1  0.42344645  0.90773035  0.69168696  1
  Se  Se253  1  0.75068973  0.25053677  0.19313957  1
  Se  Se254  1  0.74628456  0.25018923  0.70237426  1
  Se  Se255  1  0.75952689  0.57506517  0.18223424  1
  Se  Se256  1  0.75081326  0.58354430  0.69839079  1
  Se  Se257  1  0.74461838  0.91762849  0.19647331  1
  Se  Se258  1  0.75437239  0.92180668  0.70662737  1
