# generated using pymatgen
data_In86Cu29Se144
_symmetry_space_group_name_H-M   'P 1'
_cell_length_a   17.58966612
_cell_length_b   17.58850097
_cell_length_c   23.45303364
_cell_angle_alpha   89.96784155
_cell_angle_beta   89.97675299
_cell_angle_gamma   89.98431203
_symmetry_Int_Tables_number   1
_chemical_formula_structural   In86Cu29Se144
_chemical_formula_sum   'In86 Cu29 Se144'
_cell_volume   7255.80042754
_cell_formula_units_Z   1
loop_
 _symmetry_equiv_pos_site_id
 _symmetry_equiv_pos_as_xyz
  1  'x, y, z'
loop_
 _atom_site_type_symbol
 _atom_site_label
 _atom_site_symmetry_multiplicity
 _atom_site_fract_x
 _atom_site_fract_y
 _atom_site_fract_z
 _atom_site_occupancy
  In  In0  1  0.00861193  0.17217776  0.12097474  1
  In  In1  1  -0.00586461  0.17752051  0.62257907  1
  In  In2  1  -0.01216381  0.48987107  0.12286991  1
  In  In3  1  -0.00104626  0.51814713  0.60743492  1
  In  In4  1  -0.00450434  0.84411041  0.12092332  1
  In  In5  1  -0.01204173  0.79909687  0.61760676  1
  In  In6  1  0.31607270  0.17145681  0.12742041  1
  In  In7  1  0.33743856  0.15147159  0.62589879  1
  In  In8  1  0.34690677  0.50579476  0.11463891  1
  In  In9  1  0.33775408  0.50498395  0.61693096  1
  In  In10  1  0.34173733  0.82002001  0.13350322  1
  In  In11  1  0.33639262  0.84645132  0.62619202  1
  In  In12  1  0.68127342  0.16621631  0.12481653  1
  In  In13  1  0.65569618  0.15066764  0.60786530  1
  In  In14  1  0.66615579  0.50110298  0.12765885  1
  In  In15  1  0.66857946  0.50716221  0.61509303  1
  In  In16  1  0.65575742  0.82263319  0.11608403  1
  In  In17  1  0.67649491  0.83152640  0.64120441  1
  In  In18  1  0.16735550  -0.01271792  0.37994750  1
  In  In19  1  0.17824095  -0.00181195  0.87501838  1
  In  In20  1  0.16605246  0.35065413  0.37230770  1
  In  In21  1  0.16424251  0.34213231  0.88871558  1
  In  In22  1  0.17282399  0.65564768  0.38315350  1
  In  In23  1  0.15418627  0.66331124  0.87291922  1
  In  In24  1  0.50151161  0.01551899  0.37652968  1
  In  In25  1  0.49288485  -0.00735767  0.87196759  1
  In  In26  1  0.51252117  0.32842693  0.37774219  1
  In  In27  1  0.50870960  0.34257590  0.88019398  1
  In  In28  1  0.49672087  0.66171740  0.37383474  1
  In  In29  1  0.52129343  0.65581782  0.87918558  1
  In  In30  1  0.83736100  0.00624592  0.38480982  1
  In  In31  1  0.82598383  0.00479057  0.87474368  1
  In  In32  1  0.83197945  0.33506769  0.36891452  1
  In  In33  1  0.83084253  0.33417162  0.88618929  1
  In  In34  1  0.81742654  0.66705441  0.37580028  1
  In  In35  1  0.82958950  0.66626853  0.87538566  1
  In  In36  1  -0.02243328  0.16666080  0.37926403  1
  In  In37  1  -0.00435507  0.17277016  0.88055717  1
  In  In38  1  0.00778683  0.49883035  0.37768907  1
  In  In39  1  -0.00902975  0.50701322  0.88053928  1
  In  In40  1  0.00387258  0.84782317  0.38471098  1
  In  In41  1  -0.00416361  0.81354240  0.86792672  1
  In  In42  1  0.35041342  0.17088240  0.37151460  1
  In  In43  1  0.33605909  0.15223687  0.87975290  1
  In  In44  1  0.32480899  0.50599620  0.37860761  1
  In  In45  1  0.33824468  0.49730331  0.88463565  1
  In  In46  1  0.33087195  0.82440681  0.36831139  1
  In  In47  1  0.33378456  0.84758112  0.87338154  1
  In  In48  1  0.65697153  0.17088496  0.38252691  1
  In  In49  1  0.67667789  0.17509573  0.87631867  1
  In  In50  1  0.67199952  0.50286011  0.37768166  1
  In  In51  1  0.66168677  0.51538464  0.88012774  1
  In  In52  1  0.67551197  0.82488570  0.37606666  1
  In  In53  1  0.66780492  0.82954711  0.87390808  1
  In  In54  1  0.16351761  0.01175458  0.12654643  1
  In  In55  1  0.17935848  -0.00348645  0.62677419  1
  In  In56  1  0.16267059  0.32538424  0.11959444  1
  In  In57  1  0.15690427  0.34337442  0.62054641  1
  In  In58  1  0.18263677  0.66722696  0.12615670  1
  In  In59  1  0.15530118  0.65947082  0.61233283  1
  In  In60  1  0.50137002  -0.01628409  0.12492662  1
  In  In61  1  0.49812968  -0.00129137  0.62983318  1
  In  In62  1  0.49593217  0.35593910  0.12436666  1
  In  In63  1  0.50978241  0.33704186  0.61547392  1
  In  In64  1  0.50218640  0.66412782  0.12488279  1
  In  In65  1  0.51251770  0.66001616  0.62563748  1
  In  In66  1  0.83413590  -0.00135548  0.11522976  1
  In  In67  1  0.81001980  -0.00987477  0.62196519  1
  In  In68  1  0.83314460  0.33398001  0.12963435  1
  In  In69  1  0.83251113  0.33534810  0.61861567  1
  In  In70  1  0.82141142  0.65414202  0.11810747  1
  In  In71  1  0.83309259  0.66305290  0.62828433  1
  In  In72  1  -0.00182558  0.33677922  0.75072096  1
  In  In73  1  0.16489462  0.83312225  -0.00228229  1
  In  In74  1  0.16983628  0.17029971  0.50348725  1
  In  In75  1  0.00182608  0.66904102  0.25416584  1
  In  In76  1  0.33639736  0.33081798  0.75955722  1
  In  In77  1  0.00104073  0.00435262  0.25943304  1
  In  In78  1  0.33698032  0.67055573  0.74728884  1
  In  In79  1  0.83287288  0.83108158  0.50373559  1
  In  In80  1  0.49679510  0.17233979  -0.00031988  1
  In  In81  1  -0.00503962  -0.00879650  0.74611955  1
  In  In82  1  0.50404703  0.82988598  0.50496874  1
  In  In83  1  0.66875029  0.33848002  0.74894496  1
  In  In84  1  0.33579211  0.33999838  0.24565220  1
  In  In85  1  0.66530927  -0.00428710  0.25463863  1
  Cu  Cu86  1  0.67117590  0.33862949  0.00429854  1
  Cu  Cu87  1  0.50298304  0.83473096  0.75205339  1
  Cu  Cu88  1  0.17121649  0.15873123  0.75342626  1
  Cu  Cu89  1  0.33021268  0.00030826  0.00177100  1
  Cu  Cu90  1  0.82172107  0.16195929  0.74757660  1
  Cu  Cu91  1  0.50308678  0.16741001  0.25275581  1
  Cu  Cu92  1  -0.00291765  0.33747096  0.49631290  1
  Cu  Cu93  1  0.16768155  0.50397574  0.25121671  1
  Cu  Cu94  1  0.32917152  0.66679065  0.49629500  1
  Cu  Cu95  1  0.17520645  0.83433316  0.25490764  1
  Cu  Cu96  1  0.33886781  0.33501582  0.49479332  1
  Cu  Cu97  1  0.83565066  0.50756704  0.74936897  1
  Cu  Cu98  1  0.67059838  0.66741993  0.00051244  1
  Cu  Cu99  1  0.67189729  0.33417404  0.49516299  1
  Cu  Cu100  1  0.83480151  0.17263227  0.24880600  1
  Cu  Cu101  1  0.16451870  0.83028570  0.74935635  1
  Cu  Cu102  1  0.66743110  -0.00259218  -0.00255856  1
  Cu  Cu103  1  0.34072393  0.00048013  0.50136909  1
  Cu  Cu104  1  -0.00239518  0.66255457  -0.00275766  1
  Cu  Cu105  1  0.82705659  0.49759379  0.24765107  1
  Cu  Cu106  1  0.34104676  0.67089521  0.00117504  1
  Cu  Cu107  1  -0.00716388  -0.00041536  -0.00455456  1
  Cu  Cu108  1  0.16469547  0.50552837  0.74284387  1
  Cu  Cu109  1  0.82765616  0.82613223  0.24684956  1
  Cu  Cu110  1  0.49681014  0.82703783  0.24799675  1
  Cu  Cu111  1  0.16446566  0.16971656  0.24708749  1
  Cu  Cu112  1  0.50354563  0.50579421  0.25072183  1
  Cu  Cu113  1  -0.00108051  0.33183684  0.00534725  1
  Cu  Cu114  1  0.49826921  0.15983285  0.74713640  1
  Se  Se115  1  0.07795633  0.07784600  0.05188460  1
  Se  Se116  1  0.08288121  0.08181916  0.56499062  1
  Se  Se117  1  0.08211506  0.41776762  0.05642249  1
  Se  Se118  1  0.08124097  0.42205458  0.54800763  1
  Se  Se119  1  0.07683172  0.74187118  0.06033694  1
  Se  Se120  1  0.09215826  0.76019287  0.54740571  1
  Se  Se121  1  0.41187376  0.07906838  0.06290109  1
  Se  Se122  1  0.42493019  0.08244218  0.55384512  1
  Se  Se123  1  0.41463204  0.41302088  0.04558229  1
  Se  Se124  1  0.41935602  0.41772708  0.55151657  1
  Se  Se125  1  0.42217647  0.75347695  0.05584805  1
  Se  Se126  1  0.40774739  0.74106425  0.56269720  1
  Se  Se127  1  0.74959503  0.08292236  0.04961969  1
  Se  Se128  1  0.77104499  0.09691355  0.55317001  1
  Se  Se129  1  0.75363006  0.41980376  0.06022004  1
  Se  Se130  1  0.75105776  0.41794096  0.55093628  1
  Se  Se131  1  0.75493286  0.75327711  0.05216377  1
  Se  Se132  1  0.73707263  0.74532858  0.56079229  1
  Se  Se133  1  0.25077949  0.25011996  0.05123480  1
  Se  Se134  1  0.26221814  0.25999124  0.56366366  1
  Se  Se135  1  0.25395197  0.58789743  0.05116546  1
  Se  Se136  1  0.24798814  0.57946740  0.54970340  1
  Se  Se137  1  0.25239317  0.91748930  0.06376849  1
  Se  Se138  1  0.25434969  0.91755808  0.55087217  1
  Se  Se139  1  0.58871960  0.25692532  0.06280034  1
  Se  Se140  1  0.58461993  0.25039082  0.54613816  1
  Se  Se141  1  0.58680883  0.58376235  0.05555094  1
  Se  Se142  1  0.57188280  0.57606429  0.54858596  1
  Se  Se143  1  0.58148004  0.91502191  0.04861480  1
  Se  Se144  1  0.59346506  0.91652701  0.56583250  1
  Se  Se145  1  0.91382105  0.24936451  0.05875077  1
  Se  Se146  1  0.91550830  0.25296541  0.54914427  1
  Se  Se147  1  0.91567278  0.58016675  0.05337262  1
  Se  Se148  1  0.89495481  0.58250727  0.54731939  1
  Se  Se149  1  0.91225172  0.91191433  0.04618995  1
  Se  Se150  1  0.92183516  0.91864852  0.56612307  1
  Se  Se151  1  0.08126420  0.25638772  0.43835538  1
  Se  Se152  1  0.08141271  0.24973059  0.94908701  1
  Se  Se153  1  0.07645992  0.58889456  0.44766395  1
  Se  Se154  1  0.08557990  0.58027872  0.94794351  1
  Se  Se155  1  0.08368152  0.92459653  0.45548634  1
  Se  Se156  1  0.07341496  0.91920066  0.93420671  1
  Se  Se157  1  0.42330693  0.24939290  0.44606431  1
  Se  Se158  1  0.40741951  0.26056948  0.93884053  1
  Se  Se159  1  0.41468607  0.58340534  0.44565658  1
  Se  Se160  1  0.42267815  0.58750196  0.94535169  1
  Se  Se161  1  0.41612214  0.91686824  0.43931698  1
  Se  Se162  1  0.41487579  0.91829890  0.94926640  1
  Se  Se163  1  0.75445206  0.25001729  0.44102999  1
  Se  Se164  1  0.75084589  0.24836827  0.95415569  1
  Se  Se165  1  0.75983659  0.57651185  0.44965758  1
  Se  Se166  1  0.75550676  0.58110378  0.94991618  1
  Se  Se167  1  0.73957497  0.92392593  0.44508900  1
  Se  Se168  1  0.75007619  0.91509239  0.94288391  1
  Se  Se169  1  0.26180117  0.08377601  0.44066410  1
  Se  Se170  1  0.24479469  0.08303316  0.95076348  1
  Se  Se171  1  0.24886086  0.41721280  0.44830629  1
  Se  Se172  1  0.24775046  0.42636052  0.95143803  1
  Se  Se173  1  0.24986638  0.75415839  0.44423621  1
  Se  Se174  1  0.25653339  0.74386388  0.93726009  1
  Se  Se175  1  0.59096277  0.07461553  0.44947517  1
  Se  Se176  1  0.58603742  0.08122091  0.93907830  1
  Se  Se177  1  0.58548738  0.41906051  0.44526329  1
  Se  Se178  1  0.58943901  0.42173316  0.94942115  1
  Se  Se179  1  0.59128819  0.73939064  0.44422014  1
  Se  Se180  1  0.58516916  0.75164105  0.94856706  1
  Se  Se181  1  0.93540065  0.06653962  0.45143205  1
  Se  Se182  1  0.91083413  0.08602979  0.94364316  1
  Se  Se183  1  0.91519795  0.41687730  0.43901137  1
  Se  Se184  1  0.91845599  0.41619434  0.94954443  1
  Se  Se185  1  0.91985535  0.74541477  0.43769618  1
  Se  Se186  1  0.91556701  0.74781275  0.94561878  1
  Se  Se187  1  0.24664461  0.24932721  0.30881162  1
  Se  Se188  1  0.24004157  0.24369609  0.81659520  1
  Se  Se189  1  0.25082914  0.58696716  0.30352870  1
  Se  Se190  1  0.24755508  0.57740684  0.80737292  1
  Se  Se191  1  0.25491102  0.92286915  0.30559432  1
  Se  Se192  1  0.24777944  0.91617373  0.79907174  1
  Se  Se193  1  0.58872845  0.24913929  0.30296782  1
  Se  Se194  1  0.57389282  0.24452697  0.80714390  1
  Se  Se195  1  0.58721401  0.58457601  0.30724264  1
  Se  Se196  1  0.59183298  0.58476986  0.79901722  1
  Se  Se197  1  0.57311885  0.90526878  0.31333863  1
  Se  Se198  1  0.58509913  0.91807007  0.80647797  1
  Se  Se199  1  0.92144249  0.25267596  0.30114373  1
  Se  Se200  1  0.90180562  0.24532284  0.80592780  1
  Se  Se201  1  0.90757636  0.57848852  0.30859608  1
  Se  Se202  1  0.91927376  0.58717562  0.80519676  1
  Se  Se203  1  0.90393872  0.90782058  0.30889328  1
  Se  Se204  1  0.90618498  0.90680293  0.80905355  1
  Se  Se205  1  0.09206130  0.09516882  0.31709385  1
  Se  Se206  1  0.08149893  0.08508602  0.81013402  1
  Se  Se207  1  0.08046720  0.42053665  0.29937622  1
  Se  Se208  1  0.09026779  0.42552419  0.80864624  1
  Se  Se209  1  0.08910529  0.76051677  0.31480100  1
  Se  Se210  1  0.08223128  0.74165019  0.79616728  1
  Se  Se211  1  0.41753143  0.08124955  0.29916442  1
  Se  Se212  1  0.41358706  0.08084112  0.80314198  1
  Se  Se213  1  0.42307557  0.42348620  0.31164307  1
  Se  Se214  1  0.42879290  0.42844867  0.80777183  1
  Se  Se215  1  0.41560718  0.74197164  0.30213274  1
  Se  Se216  1  0.42352856  0.75457124  0.81375590  1
  Se  Se217  1  0.75812245  0.08803416  0.30961894  1
  Se  Se218  1  0.74024518  0.08313864  0.80412726  1
  Se  Se219  1  0.74363869  0.41605236  0.30326618  1
  Se  Se220  1  0.76041658  0.42361230  0.81102394  1
  Se  Se221  1  0.74315190  0.74445770  0.29868747  1
  Se  Se222  1  0.72803054  0.72614059  0.80860776  1
  Se  Se223  1  0.24872439  0.08219135  0.20032146  1
  Se  Se224  1  0.25526535  0.07862990  0.70003010  1
  Se  Se225  1  0.24532913  0.42688866  0.18540400  1
  Se  Se226  1  0.24801173  0.41942951  0.69205200  1
  Se  Se227  1  0.25289410  0.74555553  0.20298846  1
  Se  Se228  1  0.24335264  0.75253475  0.68519268  1
  Se  Se229  1  0.57986369  0.08596784  0.18933071  1
  Se  Se230  1  0.58724315  0.08425247  0.69300069  1
  Se  Se231  1  0.58364821  0.41818206  0.19892386  1
  Se  Se232  1  0.57816594  0.42499210  0.68998291  1
  Se  Se233  1  0.58449121  0.74835563  0.19501540  1
  Se  Se234  1  0.58027260  0.74814740  0.69822090  1
  Se  Se235  1  0.91184403  0.08516087  0.19120805  1
  Se  Se236  1  0.91000964  0.08986675  0.68932985  1
  Se  Se237  1  0.91650871  0.41444680  0.20104396  1
  Se  Se238  1  0.91422497  0.42655175  0.68760181  1
  Se  Se239  1  0.91316619  0.75274838  0.18734784  1
  Se  Se240  1  0.90463207  0.75263788  0.69857120  1
  Se  Se241  1  0.08137306  0.25351362  0.19615165  1
  Se  Se242  1  0.09479075  0.24335475  0.69485678  1
  Se  Se243  1  0.08643228  0.58104949  0.18827244  1
  Se  Se244  1  0.07873724  0.58269147  0.68824050  1
  Se  Se245  1  0.08914898  0.91074252  0.19600240  1
  Se  Se246  1  0.08531972  0.90560865  0.68452363  1
  Se  Se247  1  0.42520571  0.24518894  0.18756569  1
  Se  Se248  1  0.42275873  0.24770116  0.68969799  1
  Se  Se249  1  0.41654262  0.58196824  0.19391676  1
  Se  Se250  1  0.42375216  0.57308938  0.69392979  1
  Se  Se251  1  0.41540056  0.91621567  0.19880870  1
  Se  Se252  1  0.41651982  0.91818765  0.70135319  1
  Se  Se253  1  0.74619529  0.25283707  0.19912162  1
  Se  Se254  1  0.74796851  0.24480435  0.68517112  1
  Se  Se255  1  0.74617062  0.58657171  0.19823401  1
  Se  Se256  1  0.74553773  0.57910553  0.69354859  1
  Se  Se257  1  0.75206886  0.91165005  0.18744413  1
  Se  Se258  1  0.75204886  0.92151937  0.70716365  1
