# generated using pymatgen
data_In86Cu29Se144
_symmetry_space_group_name_H-M   'P 1'
_cell_length_a   17.57300471
_cell_length_b   17.57570527
_cell_length_c   23.43746057
_cell_angle_alpha   89.98387958
_cell_angle_beta   90.02470484
_cell_angle_gamma   89.99053249
_symmetry_Int_Tables_number   1
_chemical_formula_structural   In86Cu29Se144
_chemical_formula_sum   'In86 Cu29 Se144'
_cell_volume   7238.84500281
_cell_formula_units_Z   1
loop_
 _symmetry_equiv_pos_site_id
 _symmetry_equiv_pos_as_xyz
  1  'x, y, z'
loop_
 _atom_site_type_symbol
 _atom_site_label
 _atom_site_symmetry_multiplicity
 _atom_site_fract_x
 _atom_site_fract_y
 _atom_site_fract_z
 _atom_site_occupancy
  In  In0  1  0.02969540  0.14335695  0.14898640  1
  In  In1  1  0.00165966  0.16284678  0.61856816  1
  In  In2  1  -0.00200778  0.49553347  0.12233628  1
  In  In3  1  0.00576358  0.50581393  0.62724686  1
  In  In4  1  0.01466881  0.85127062  0.11388213  1
  In  In5  1  0.00288151  0.83139258  0.63687536  1
  In  In6  1  0.29963886  0.11377990  0.08159540  1
  In  In7  1  0.32238865  0.17340601  0.63076583  1
  In  In8  1  0.33516942  0.51662945  0.12551929  1
  In  In9  1  0.32628455  0.49197704  0.62578827  1
  In  In10  1  0.32795516  0.83478870  0.12223843  1
  In  In11  1  0.34364162  0.83617643  0.63210600  1
  In  In12  1  0.64920492  0.16374859  0.12120062  1
  In  In13  1  0.67021299  0.15563696  0.61827463  1
  In  In14  1  0.68077590  0.50120767  0.12305403  1
  In  In15  1  0.67433511  0.50730667  0.62209157  1
  In  In16  1  0.66585297  0.83222324  0.12402920  1
  In  In17  1  0.65825437  0.82285480  0.63017354  1
  In  In18  1  0.18181321  0.01568414  0.35309822  1
  In  In19  1  0.17062812  0.00692593  0.87796781  1
  In  In20  1  0.15253148  0.33170058  0.36849361  1
  In  In21  1  0.17361286  0.32177616  0.88615886  1
  In  In22  1  0.17381889  0.66604303  0.36969518  1
  In  In23  1  0.15541764  0.67092565  0.88295790  1
  In  In24  1  0.49323821  -0.00784341  0.36116191  1
  In  In25  1  0.47901425  0.01373141  0.89693351  1
  In  In26  1  0.50860117  0.33717895  0.37865736  1
  In  In27  1  0.48038159  0.34018384  0.87074411  1
  In  In28  1  0.49600464  0.65646511  0.37170273  1
  In  In29  1  0.50989676  0.67074788  0.87129344  1
  In  In30  1  0.84401651  0.01734879  0.36136387  1
  In  In31  1  0.83112415  -0.01792987  0.87729162  1
  In  In32  1  0.83894507  0.32250880  0.38477099  1
  In  In33  1  0.84928786  0.33689525  0.87698137  1
  In  In34  1  0.82466199  0.67212953  0.37487537  1
  In  In35  1  0.83043850  0.66977368  0.87914313  1
  In  In36  1  0.00231030  0.16346608  0.37181854  1
  In  In37  1  0.01878322  0.16942762  0.87584618  1
  In  In38  1  0.00307756  0.48608806  0.37610851  1
  In  In39  1  -0.01056963  0.50545194  0.88414486  1
  In  In40  1  0.00042915  0.84051003  0.36728338  1
  In  In41  1  0.00009174  0.83368359  0.87793129  1
  In  In42  1  0.33312108  0.16171011  0.37334608  1
  In  In43  1  0.32881011  0.16599051  0.87866371  1
  In  In44  1  0.33687873  0.51238275  0.38069690  1
  In  In45  1  0.33113060  0.48575041  0.86916601  1
  In  In46  1  0.32752357  0.83396240  0.36314487  1
  In  In47  1  0.31200535  0.85368239  0.89764617  1
  In  In48  1  0.67153943  0.17309602  0.37142889  1
  In  In49  1  0.66738935  0.14996837  0.87559399  1
  In  In50  1  0.66446810  0.50627114  0.38249697  1
  In  In51  1  0.66145379  0.52213939  0.87178491  1
  In  In52  1  0.66246668  0.82918230  0.35927596  1
  In  In53  1  0.66813866  0.82941743  0.88421979  1
  In  In54  1  0.16481275  -0.01113353  0.12741926  1
  In  In55  1  0.15969327  0.00775586  0.63075236  1
  In  In56  1  0.15896457  0.32080987  0.12216176  1
  In  In57  1  0.19506434  0.32887614  0.62381345  1
  In  In58  1  0.17879713  0.67963059  0.11446124  1
  In  In59  1  0.15901713  0.64788121  0.63616125  1
  In  In60  1  0.49437221  -0.00247471  0.12221108  1
  In  In61  1  0.49805850  -0.01120195  0.62800074  1
  In  In62  1  0.50083744  0.32037022  0.12399969  1
  In  In63  1  0.47469538  0.34056929  0.62846271  1
  In  In64  1  0.48573728  0.67998506  0.13279977  1
  In  In65  1  0.50983465  0.67144371  0.62933996  1
  In  In66  1  0.84505256  -0.00899872  0.12807065  1
  In  In67  1  0.83713861  0.00808818  0.61896323  1
  In  In68  1  0.84043399  0.34613843  0.12279311  1
  In  In69  1  0.83751237  0.33510291  0.61744374  1
  In  In70  1  0.82780890  0.66100041  0.12300085  1
  In  In71  1  0.84453678  0.65512335  0.63281051  1
  In  In72  1  0.33184350  0.32810489  0.24983681  1
  In  In73  1  0.66184584  0.33379498  0.74515605  1
  In  In74  1  0.84004774  0.17153558  0.00573535  1
  In  In75  1  0.83347372  0.83835393  0.49362932  1
  In  In76  1  0.01122590  0.33954747  0.74846509  1
  In  In77  1  0.50105730  0.82911195  0.50295408  1
  In  In78  1  0.00552270  0.67335222  0.24613735  1
  In  In79  1  0.16847647  0.83275314  0.49373133  1
  In  In80  1  0.49712400  0.17257648  0.49964069  1
  In  In81  1  0.33162244  0.66996476  0.75545328  1
  In  In82  1  0.66514954  -0.01037622  0.74820160  1
  In  In83  1  0.66751395  0.33627250  0.25144215  1
  In  In84  1  0.49969544  0.50358773  -0.00558458  1
  In  In85  1  0.16772671  0.49167889  0.50502220  1
  Cu  Cu86  1  0.83536676  0.82539597  0.75688334  1
  Cu  Cu87  1  0.33453188  0.33195770  -0.00112020  1
  Cu  Cu88  1  0.66736089  0.66587445  0.00248401  1
  Cu  Cu89  1  0.50266788  0.83315184  0.24270970  1
  Cu  Cu90  1  0.83636925  0.50251783  0.24892790  1
  Cu  Cu91  1  0.66862148  0.33570025  -0.00038676  1
  Cu  Cu92  1  0.33009035  0.66837174  0.00115417  1
  Cu  Cu93  1  0.83128731  0.83206237  0.24317579  1
  Cu  Cu94  1  0.16691238  0.83686731  0.76135877  1
  Cu  Cu95  1  0.00124756  0.66144360  0.50679197  1
  Cu  Cu96  1  0.00535411  0.33370124  0.00403794  1
  Cu  Cu97  1  0.00443052  0.00802513  0.49546123  1
  Cu  Cu98  1  0.48866154  0.15529664  0.24186099  1
  Cu  Cu99  1  0.67247690  0.66319467  0.50160708  1
  Cu  Cu100  1  0.84618544  0.15962086  0.74146082  1
  Cu  Cu101  1  0.67266536  0.00466927  0.48911600  1
  Cu  Cu102  1  0.82548771  0.50788678  0.75450640  1
  Cu  Cu103  1  0.49049250  0.16674500  0.75577349  1
  Cu  Cu104  1  0.17534136  0.16258964  0.75387442  1
  Cu  Cu105  1  0.17001974  0.50286516  0.25033194  1
  Cu  Cu106  1  0.32744457  0.00247552  0.49704263  1
  Cu  Cu107  1  0.49459884  0.83988434  0.76133995  1
  Cu  Cu108  1  0.82976036  0.17418231  0.25120625  1
  Cu  Cu109  1  -0.00288358  0.32570493  0.49737275  1
  Cu  Cu110  1  -0.00613958  0.66730303  0.00287479  1
  Cu  Cu111  1  0.00182594  0.00259129  0.00003090  1
  Cu  Cu112  1  0.66518630  0.33917805  0.50253678  1
  Cu  Cu113  1  0.66415641  -0.00564477  0.00300065  1
  Cu  Cu114  1  0.50539835  0.50814557  0.25208793  1
  Se  Se115  1  0.08347661  0.08118843  0.05791039  1
  Se  Se116  1  0.09122840  0.08488759  0.55111305  1
  Se  Se117  1  0.08925886  0.41871353  0.05574416  1
  Se  Se118  1  0.07649097  0.40029152  0.56365712  1
  Se  Se119  1  0.08282282  0.75224455  0.04982633  1
  Se  Se120  1  0.08233658  0.74456471  0.56211703  1
  Se  Se121  1  0.43907502  0.09970849  0.05301393  1
  Se  Se122  1  0.41333823  0.07487694  0.55941408  1
  Se  Se123  1  0.41403368  0.41386466  0.05967070  1
  Se  Se124  1  0.40468297  0.41642324  0.55176561  1
  Se  Se125  1  0.41515280  0.75102880  0.05275628  1
  Se  Se126  1  0.40757579  0.74089407  0.56000274  1
  Se  Se127  1  0.74673583  0.07821247  0.06051638  1
  Se  Se128  1  0.75527600  0.08392133  0.54563963  1
  Se  Se129  1  0.75358084  0.41777712  0.04988342  1
  Se  Se130  1  0.75271216  0.42043954  0.55357319  1
  Se  Se131  1  0.75111932  0.75002154  0.05490978  1
  Se  Se132  1  0.75147473  0.74741526  0.56050354  1
  Se  Se133  1  0.25136458  0.25088504  0.05302056  1
  Se  Se134  1  0.25274105  0.24058999  0.54855400  1
  Se  Se135  1  0.24848078  0.57900494  0.04958595  1
  Se  Se136  1  0.25160868  0.59386204  0.55816558  1
  Se  Se137  1  0.25403343  0.92370819  0.05295920  1
  Se  Se138  1  0.25566880  0.91906230  0.56082320  1
  Se  Se139  1  0.58259141  0.25195384  0.04724845  1
  Se  Se140  1  0.58562718  0.25958879  0.56523926  1
  Se  Se141  1  0.58316335  0.58845078  0.06312402  1
  Se  Se142  1  0.58392720  0.58808631  0.55642389  1
  Se  Se143  1  0.57968944  0.91158773  0.05524541  1
  Se  Se144  1  0.59911683  0.92520473  0.55538952  1
  Se  Se145  1  0.93278778  0.25058700  0.06875821  1
  Se  Se146  1  0.91322569  0.24333398  0.55225038  1
  Se  Se147  1  0.91356880  0.57984203  0.05568371  1
  Se  Se148  1  0.91676166  0.57656058  0.55535499  1
  Se  Se149  1  0.91447397  0.91755222  0.04748089  1
  Se  Se150  1  0.93134525  0.91917152  0.55508257  1
  Se  Se151  1  0.08282818  0.24740830  0.44292645  1
  Se  Se152  1  0.08697854  0.24366941  0.95557798  1
  Se  Se153  1  0.08161553  0.58778077  0.44124927  1
  Se  Se154  1  0.07868031  0.58227489  0.95205283  1
  Se  Se155  1  0.08304021  0.92739759  0.43540158  1
  Se  Se156  1  0.08402659  0.92091896  0.94318046  1
  Se  Se157  1  0.40666808  0.26100996  0.43994575  1
  Se  Se158  1  0.41785269  0.25090325  0.94426418  1
  Se  Se159  1  0.42776888  0.57967152  0.44975843  1
  Se  Se160  1  0.40652443  0.59097413  0.93542861  1
  Se  Se161  1  0.41053438  0.91983567  0.44170916  1
  Se  Se162  1  0.42832869  0.90102263  0.95480393  1
  Se  Se163  1  0.74190384  0.24952013  0.44939899  1
  Se  Se164  1  0.74761045  0.25358866  0.93740898  1
  Se  Se165  1  0.75870569  0.58346466  0.44792181  1
  Se  Se166  1  0.74887161  0.58197041  0.94810226  1
  Se  Se167  1  0.74596187  0.92191262  0.42785500  1
  Se  Se168  1  0.75152147  0.91240656  0.95306088  1
  Se  Se169  1  0.24553312  0.08171093  0.44063979  1
  Se  Se170  1  0.25390080  0.08251259  0.95186962  1
  Se  Se171  1  0.25040302  0.40990115  0.43454772  1
  Se  Se172  1  0.25234275  0.41850134  0.94805898  1
  Se  Se173  1  0.26452744  0.74146871  0.44158339  1
  Se  Se174  1  0.23890539  0.75032801  0.95368109  1
  Se  Se175  1  0.58010581  0.07807074  0.43508151  1
  Se  Se176  1  0.58632942  0.08549418  0.95260010  1
  Se  Se177  1  0.58146062  0.42168532  0.45006084  1
  Se  Se178  1  0.58986565  0.41170572  0.93420648  1
  Se  Se179  1  0.59525452  0.74630332  0.44109292  1
  Se  Se180  1  0.58058122  0.74642730  0.95003725  1
  Se  Se181  1  0.91418929  0.08615351  0.44371423  1
  Se  Se182  1  0.92016207  0.08101689  0.93794327  1
  Se  Se183  1  0.91674769  0.41696502  0.44897862  1
  Se  Se184  1  0.91567226  0.41485066  0.95507721  1
  Se  Se185  1  0.93073190  0.74428043  0.44125809  1
  Se  Se186  1  0.91421552  0.75267408  0.94705923  1
  Se  Se187  1  0.23732022  0.23845874  0.30489873  1
  Se  Se188  1  0.25171353  0.25257888  0.80713842  1
  Se  Se189  1  0.25620946  0.58183669  0.30313208  1
  Se  Se190  1  0.23948494  0.58172174  0.81323865  1
  Se  Se191  1  0.25410016  0.91741235  0.29310718  1
  Se  Se192  1  0.25371824  0.92038968  0.80943890  1
  Se  Se193  1  0.56787810  0.24086445  0.30168055  1
  Se  Se194  1  0.58022413  0.24131111  0.81168779  1
  Se  Se195  1  0.59321061  0.58608795  0.30538982  1
  Se  Se196  1  0.57158803  0.58023212  0.79834349  1
  Se  Se197  1  0.58608976  0.92057147  0.29428637  1
  Se  Se198  1  0.57624018  0.92105736  0.82067645  1
  Se  Se199  1  0.91521813  0.25232780  0.30677584  1
  Se  Se200  1  0.91777542  0.24209009  0.80454150  1
  Se  Se201  1  0.91761594  0.58280692  0.31029210  1
  Se  Se202  1  0.91268112  0.58462986  0.80982008  1
  Se  Se203  1  0.91151696  0.91447920  0.29974672  1
  Se  Se204  1  0.91764280  0.91502868  0.80432197  1
  Se  Se205  1  0.06671374  0.07116756  0.29996281  1
  Se  Se206  1  0.08564784  0.08184971  0.80323207  1
  Se  Se207  1  0.08104834  0.41978240  0.29699382  1
  Se  Se208  1  0.08667731  0.41802027  0.82293678  1
  Se  Se209  1  0.09902617  0.76287333  0.30383266  1
  Se  Se210  1  0.08104674  0.74991287  0.80702164  1
  Se  Se211  1  0.40542993  0.07800813  0.29980630  1
  Se  Se212  1  0.41365441  0.08010290  0.81084947  1
  Se  Se213  1  0.42509885  0.42188629  0.30781324  1
  Se  Se214  1  0.41794681  0.42229182  0.79445229  1
  Se  Se215  1  0.42639356  0.75388860  0.30641153  1
  Se  Se216  1  0.40999014  0.76363766  0.82031648  1
  Se  Se217  1  0.74245685  0.08799168  0.29886246  1
  Se  Se218  1  0.76224861  0.08348488  0.80230243  1
  Se  Se219  1  0.75850672  0.42171576  0.31326063  1
  Se  Se220  1  0.75294063  0.41743864  0.81179498  1
  Se  Se221  1  0.75204904  0.74543105  0.29662182  1
  Se  Se222  1  0.74421620  0.75048667  0.80897725  1
  Se  Se223  1  0.24693908  0.09032502  0.18192629  1
  Se  Se224  1  0.25538528  0.07704564  0.69856476  1
  Se  Se225  1  0.24797735  0.42247354  0.18772000  1
  Se  Se226  1  0.22528810  0.43590799  0.69380686  1
  Se  Se227  1  0.25864370  0.74176881  0.19238662  1
  Se  Se228  1  0.23874567  0.75863355  0.69186534  1
  Se  Se229  1  0.58198036  0.07758309  0.19432370  1
  Se  Se230  1  0.57457501  0.09134750  0.69372491  1
  Se  Se231  1  0.57664469  0.42429250  0.18846477  1
  Se  Se232  1  0.57587507  0.42455452  0.68627806  1
  Se  Se233  1  0.58845792  0.74587542  0.19571852  1
  Se  Se234  1  0.57676893  0.75582282  0.70674972  1
  Se  Se235  1  0.90915184  0.08756601  0.19726732  1
  Se  Se236  1  0.92762993  0.07476204  0.69059877  1
  Se  Se237  1  0.91997349  0.41829675  0.19892969  1
  Se  Se238  1  0.90519857  0.42312449  0.69569625  1
  Se  Se239  1  0.91636682  0.75792720  0.18257437  1
  Se  Se240  1  0.91932525  0.74495881  0.70056915  1
  Se  Se241  1  0.07858798  0.26152123  0.20259510  1
  Se  Se242  1  0.09533749  0.24237156  0.69018655  1
  Se  Se243  1  0.09304934  0.58218009  0.18618520  1
  Se  Se244  1  0.07266984  0.57889013  0.70702748  1
  Se  Se245  1  0.07159883  0.92214222  0.19863057  1
  Se  Se246  1  0.08655569  0.91763571  0.70037506  1
  Se  Se247  1  0.40940259  0.23671789  0.18399661  1
  Se  Se248  1  0.40999708  0.24995476  0.70070287  1
  Se  Se249  1  0.41496169  0.58706297  0.20205584  1
  Se  Se250  1  0.41579175  0.58373638  0.68938253  1
  Se  Se251  1  0.41470015  0.91479789  0.19272772  1
  Se  Se252  1  0.41491482  0.92234518  0.70444381  1
  Se  Se253  1  0.75132932  0.24863421  0.18487407  1
  Se  Se254  1  0.75812897  0.24000490  0.68915707  1
  Se  Se255  1  0.74941326  0.58374534  0.19908283  1
  Se  Se256  1  0.74384430  0.59006731  0.69878043  1
  Se  Se257  1  0.74818849  0.91847933  0.19250090  1
  Se  Se258  1  0.76258303  0.90494804  0.68761326  1
