# generated using pymatgen
data_In86Cu29Se144
_symmetry_space_group_name_H-M   'P 1'
_cell_length_a   17.57440518
_cell_length_b   17.57461122
_cell_length_c   23.42412584
_cell_angle_alpha   90.01328493
_cell_angle_beta   89.99960251
_cell_angle_gamma   89.94377054
_symmetry_Int_Tables_number   1
_chemical_formula_structural   In86Cu29Se144
_chemical_formula_sum   'In86 Cu29 Se144'
_cell_volume   7234.85002998
_cell_formula_units_Z   1
loop_
 _symmetry_equiv_pos_site_id
 _symmetry_equiv_pos_as_xyz
  1  'x, y, z'
loop_
 _atom_site_type_symbol
 _atom_site_label
 _atom_site_symmetry_multiplicity
 _atom_site_fract_x
 _atom_site_fract_y
 _atom_site_fract_z
 _atom_site_occupancy
  In  In0  1  -0.00343649  0.17228604  0.13129781  1
  In  In1  1  0.00960840  0.15921687  0.62493950  1
  In  In2  1  -0.01775766  0.49330753  0.11893762  1
  In  In3  1  -0.02023403  0.51821479  0.64617733  1
  In  In4  1  0.01042490  0.83447838  0.12882516  1
  In  In5  1  -0.01062665  0.82731959  0.61471624  1
  In  In6  1  0.35299793  0.17867733  0.11325284  1
  In  In7  1  0.32667969  0.17345322  0.62937920  1
  In  In8  1  0.35021524  0.48526221  0.13219157  1
  In  In9  1  0.32602965  0.49796298  0.65052617  1
  In  In10  1  0.32215401  0.82712999  0.12533744  1
  In  In11  1  0.32982729  0.84166148  0.62564097  1
  In  In12  1  0.69016861  0.20269997  0.09315538  1
  In  In13  1  0.64568091  0.17214768  0.62980885  1
  In  In14  1  0.66805464  0.49134488  0.12149629  1
  In  In15  1  0.68393315  0.50387772  0.63077739  1
  In  In16  1  0.65729331  0.82651522  0.12871543  1
  In  In17  1  0.67259898  0.83142501  0.62880856  1
  In  In18  1  0.15960948  0.00962748  0.38225186  1
  In  In19  1  0.16599224  -0.00800195  0.87337279  1
  In  In20  1  0.16549730  0.32835514  0.37035680  1
  In  In21  1  0.16928319  0.34176356  0.86406404  1
  In  In22  1  0.17811118  0.66309410  0.38096022  1
  In  In23  1  0.16549470  0.65143327  0.85471504  1
  In  In24  1  0.51016747  0.01177317  0.37769258  1
  In  In25  1  0.51542679  0.01940291  0.85541414  1
  In  In26  1  0.49508242  0.32816264  0.37065769  1
  In  In27  1  0.50017885  0.34463175  0.90153088  1
  In  In28  1  0.49757417  0.65728851  0.37057737  1
  In  In29  1  0.48560795  0.64471738  0.85789512  1
  In  In30  1  0.83066021  -0.01479661  0.37601145  1
  In  In31  1  0.83282609  0.02023454  0.87821846  1
  In  In32  1  0.83861532  0.34202996  0.37196218  1
  In  In33  1  0.82483153  0.33099723  0.88435587  1
  In  In34  1  0.83068420  0.67112163  0.38025078  1
  In  In35  1  0.80890570  0.63706867  0.85068577  1
  In  In36  1  0.00921306  0.17832194  0.36920335  1
  In  In37  1  -0.02195123  0.17032990  0.88264455  1
  In  In38  1  -0.00210573  0.48452900  0.37570740  1
  In  In39  1  -0.01919448  0.47660959  0.84462516  1
  In  In40  1  -0.00542412  0.83966229  0.38173626  1
  In  In41  1  0.00916127  0.82732451  0.87345361  1
  In  In42  1  0.33156528  0.17161508  0.37950874  1
  In  In43  1  0.36598922  0.19367036  0.84848993  1
  In  In44  1  0.33380819  0.49844260  0.36840185  1
  In  In45  1  0.34285411  0.49613470  0.86759890  1
  In  In46  1  0.33455742  0.82106680  0.38217456  1
  In  In47  1  0.32999354  0.83115825  0.86498758  1
  In  In48  1  0.65228652  0.16593950  0.37767510  1
  In  In49  1  0.66771873  0.17525618  0.88317686  1
  In  In50  1  0.67525052  0.50475279  0.37075087  1
  In  In51  1  0.65598645  0.49660552  0.88410296  1
  In  In52  1  0.67882786  0.83231297  0.37585539  1
  In  In53  1  0.65631806  0.82561367  0.86777839  1
  In  In54  1  0.16483521  -0.00644252  0.12955292  1
  In  In55  1  0.17319011  0.00908534  0.61453462  1
  In  In56  1  0.17009767  0.32921400  0.13202386  1
  In  In57  1  0.16631159  0.33008737  0.63359469  1
  In  In58  1  0.17152856  0.67489684  0.12529024  1
  In  In59  1  0.15596010  0.66991709  0.63236678  1
  In  In60  1  0.49942084  0.01202287  0.12462980  1
  In  In61  1  0.48464909  0.02344159  0.64183367  1
  In  In62  1  0.50147182  0.33717936  0.11960557  1
  In  In63  1  0.49261355  0.32087924  0.63260935  1
  In  In64  1  0.51286325  0.64888261  0.13090107  1
  In  In65  1  0.49886759  0.65744135  0.63960999  1
  In  In66  1  0.83385155  0.01509131  0.12653252  1
  In  In67  1  0.83952342  -0.00874737  0.62464869  1
  In  In68  1  0.83718998  0.33567757  0.12411441  1
  In  In69  1  0.83419099  0.35288078  0.62813673  1
  In  In70  1  0.82695151  0.64422713  0.11717236  1
  In  In71  1  0.82923392  0.67043142  0.62855096  1
  In  In72  1  0.50018722  0.49283039  0.51381396  1
  In  In73  1  0.83646920  0.83495990  -0.00111167  1
  In  In74  1  0.49617771  0.83119091  -0.00205302  1
  In  In75  1  0.50365842  0.84082086  0.50459210  1
  In  In76  1  0.33273503  -0.00005094  0.24675640  1
  In  In77  1  0.16826891  0.83121334  -0.00791603  1
  In  In78  1  0.65523161  0.33971903  0.75561448  1
  In  In79  1  0.66745075  0.00265381  0.25107916  1
  In  In80  1  0.17097413  0.50303098  -0.00984076  1
  In  In81  1  0.16994720  0.16479826  0.00169420  1
  In  In82  1  0.83350425  0.16674419  0.49714501  1
  In  In83  1  -0.00103115  0.00035422  0.74840687  1
  In  In84  1  -0.00014506  0.66262723  0.24625446  1
  In  In85  1  0.15905324  0.49871672  0.50980364  1
  Cu  Cu86  1  0.50341660  0.83588085  0.74537578  1
  Cu  Cu87  1  0.83584768  0.83475506  0.74628264  1
  Cu  Cu88  1  0.00416001  -0.00318690  0.49904222  1
  Cu  Cu89  1  0.66269116  0.33766504  0.50809045  1
  Cu  Cu90  1  0.33176492  0.66489191  0.50616654  1
  Cu  Cu91  1  0.33685479  0.00454300  -0.01260093  1
  Cu  Cu92  1  0.66484057  0.00582402  -0.00689618  1
  Cu  Cu93  1  0.66337648  0.65480733  -0.00465840  1
  Cu  Cu94  1  0.34082784  0.65848069  -0.00556068  1
  Cu  Cu95  1  0.16631226  0.83322661  0.74237827  1
  Cu  Cu96  1  0.82463875  0.17884139  0.75700055  1
  Cu  Cu97  1  0.50616891  0.17718141  0.24312543  1
  Cu  Cu98  1  0.00069900  0.33600492  -0.00325308  1
  Cu  Cu99  1  -0.00749658  0.66197926  -0.01108907  1
  Cu  Cu100  1  0.00089992  0.33374359  0.50009351  1
  Cu  Cu101  1  0.16298824  0.16372696  0.74724001  1
  Cu  Cu102  1  0.33174098  0.00686955  0.50702697  1
  Cu  Cu103  1  0.83598266  0.82598945  0.25389978  1
  Cu  Cu104  1  -0.00485763  0.66662883  0.50800977  1
  Cu  Cu105  1  0.66148587  0.00534407  0.50433096  1
  Cu  Cu106  1  0.82789456  0.49360842  0.24547232  1
  Cu  Cu107  1  0.67610859  0.67118535  0.50068216  1
  Cu  Cu108  1  0.32574891  0.32803319  0.50365546  1
  Cu  Cu109  1  0.16715561  0.49879058  0.25098655  1
  Cu  Cu110  1  0.16753879  0.83159313  0.25397095  1
  Cu  Cu111  1  0.17143876  0.16767715  0.25165471  1
  Cu  Cu112  1  0.50131931  0.49724008  0.24740826  1
  Cu  Cu113  1  0.49693711  0.82064812  0.25148605  1
  Cu  Cu114  1  0.83323344  0.17244383  0.24595676  1
  Se  Se115  1  0.07926710  0.07710831  0.06234473  1
  Se  Se116  1  0.08413892  0.08752347  0.54668577  1
  Se  Se117  1  0.08413921  0.41285027  0.05705702  1
  Se  Se118  1  0.06773490  0.41375370  0.56973337  1
  Se  Se119  1  0.07294716  0.73862518  0.05132158  1
  Se  Se120  1  0.08640287  0.74825633  0.55385737  1
  Se  Se121  1  0.41888215  0.07940724  0.04734069  1
  Se  Se122  1  0.41357773  0.09160071  0.55927718  1
  Se  Se123  1  0.42266713  0.42440969  0.05043207  1
  Se  Se124  1  0.39754566  0.41061012  0.56801392  1
  Se  Se125  1  0.41159992  0.73939556  0.06137991  1
  Se  Se126  1  0.41929789  0.74201705  0.56219735  1
  Se  Se127  1  0.75236417  0.08080253  0.04951167  1
  Se  Se128  1  0.74464099  0.08429691  0.56402322  1
  Se  Se129  1  0.75946253  0.41925458  0.05362633  1
  Se  Se130  1  0.75100596  0.42256950  0.55237660  1
  Se  Se131  1  0.73826931  0.74255498  0.05469779  1
  Se  Se132  1  0.75495655  0.75690441  0.55487501  1
  Se  Se133  1  0.25777541  0.26541740  0.05305118  1
  Se  Se134  1  0.23920319  0.24911618  0.55760556  1
  Se  Se135  1  0.25608274  0.58784812  0.05863905  1
  Se  Se136  1  0.25769935  0.58206620  0.56753483  1
  Se  Se137  1  0.25967624  0.92608223  0.05195817  1
  Se  Se138  1  0.24942095  0.91404228  0.54993924  1
  Se  Se139  1  0.55798236  0.23004109  0.05420156  1
  Se  Se140  1  0.57466958  0.25408115  0.55417651  1
  Se  Se141  1  0.58092716  0.57383189  0.05169893  1
  Se  Se142  1  0.59277497  0.59370624  0.56082049  1
  Se  Se143  1  0.59073238  0.92406353  0.05681628  1
  Se  Se144  1  0.58263007  0.93113742  0.57007944  1
  Se  Se145  1  0.92415603  0.25242247  0.05562347  1
  Se  Se146  1  0.91929519  0.25467582  0.56186633  1
  Se  Se147  1  0.91333903  0.57684630  0.04348724  1
  Se  Se148  1  0.91284917  0.58283620  0.56048439  1
  Se  Se149  1  0.92356712  0.92102726  0.06357929  1
  Se  Se150  1  0.91274429  0.91732467  0.54664837  1
  Se  Se151  1  0.08560543  0.25360999  0.44609691  1
  Se  Se152  1  0.08308153  0.25766162  0.93732696  1
  Se  Se153  1  0.07234034  0.58763888  0.44258036  1
  Se  Se154  1  0.07606207  0.58463409  0.93024561  1
  Se  Se155  1  0.08938359  0.91217335  0.44749486  1
  Se  Se156  1  0.06956610  0.92672790  0.94707357  1
  Se  Se157  1  0.41546988  0.25485773  0.44728723  1
  Se  Se158  1  0.41279754  0.24084483  0.94536518  1
  Se  Se159  1  0.41113547  0.58197762  0.44785091  1
  Se  Se160  1  0.42365292  0.57435565  0.94342290  1
  Se  Se161  1  0.41130232  0.92954041  0.44162825  1
  Se  Se162  1  0.41646973  0.91998730  0.93115698  1
  Se  Se163  1  0.74027328  0.25899532  0.44194487  1
  Se  Se164  1  0.75946293  0.23935099  0.95573837  1
  Se  Se165  1  0.75185549  0.58136357  0.44660935  1
  Se  Se166  1  0.75474846  0.57904734  0.94358492  1
  Se  Se167  1  0.74282068  0.92001863  0.45097227  1
  Se  Se168  1  0.74039186  0.91804423  0.93690359  1
  Se  Se169  1  0.25073024  0.08733565  0.44718610  1
  Se  Se170  1  0.25379703  0.08398329  0.93188515  1
  Se  Se171  1  0.25194398  0.41556346  0.44412297  1
  Se  Se172  1  0.26158508  0.40666439  0.93895427  1
  Se  Se173  1  0.24855430  0.74878384  0.45454400  1
  Se  Se174  1  0.25497723  0.73456473  0.93591646  1
  Se  Se175  1  0.57712354  0.09131032  0.45542839  1
  Se  Se176  1  0.57655119  0.08537298  0.94284803  1
  Se  Se177  1  0.58482669  0.41501046  0.44164459  1
  Se  Se178  1  0.62200764  0.38667933  0.95332158  1
  Se  Se179  1  0.58598350  0.74339661  0.44181678  1
  Se  Se180  1  0.58029951  0.73587510  0.93888482  1
  Se  Se181  1  0.92373222  0.07726580  0.43630330  1
  Se  Se182  1  0.92016327  0.07692787  0.95437683  1
  Se  Se183  1  0.91327962  0.41671353  0.45057835  1
  Se  Se184  1  0.92450912  0.41921808  0.93733173  1
  Se  Se185  1  0.91645149  0.75002256  0.44802512  1
  Se  Se186  1  0.91211782  0.74332253  0.93173714  1
  Se  Se187  1  0.25645639  0.25043836  0.30404962  1
  Se  Se188  1  0.24555814  0.24835595  0.79934017  1
  Se  Se189  1  0.24798153  0.58409996  0.30403417  1
  Se  Se190  1  0.27623673  0.59280136  0.79963965  1
  Se  Se191  1  0.24901747  0.91239024  0.31355514  1
  Se  Se192  1  0.24449391  0.91625645  0.79935892  1
  Se  Se193  1  0.58862984  0.25375158  0.30299903  1
  Se  Se194  1  0.57198240  0.24892556  0.81572770  1
  Se  Se195  1  0.58417564  0.58014470  0.30308869  1
  Se  Se196  1  0.60461283  0.59159723  0.80848121  1
  Se  Se197  1  0.57463738  0.90762246  0.30933987  1
  Se  Se198  1  0.58956378  0.91829191  0.79700437  1
  Se  Se199  1  0.91553446  0.25267110  0.30441599  1
  Se  Se200  1  0.91155372  0.25745659  0.80922631  1
  Se  Se201  1  0.91016201  0.57399371  0.30735718  1
  Se  Se202  1  0.93593967  0.60386565  0.80241216  1
  Se  Se203  1  0.91730007  0.91332544  0.30374399  1
  Se  Se204  1  0.90964647  0.91447878  0.81243195  1
  Se  Se205  1  0.08684124  0.08462412  0.30388874  1
  Se  Se206  1  0.08068366  0.09225907  0.81312242  1
  Se  Se207  1  0.08342676  0.41478280  0.30304972  1
  Se  Se208  1  0.10679325  0.43736265  0.79412465  1
  Se  Se209  1  0.08628783  0.74908773  0.31242463  1
  Se  Se210  1  0.08472404  0.75163526  0.79818502  1
  Se  Se211  1  0.42767360  0.09134550  0.30292891  1
  Se  Se212  1  0.39416725  0.06274900  0.80394809  1
  Se  Se213  1  0.41659091  0.41504202  0.30231496  1
  Se  Se214  1  0.44228732  0.41260180  0.81410205  1
  Se  Se215  1  0.41137865  0.74448072  0.30753072  1
  Se  Se216  1  0.42070123  0.75303065  0.80004230  1
  Se  Se217  1  0.75835988  0.09275906  0.31282141  1
  Se  Se218  1  0.74472726  0.09175059  0.80829056  1
  Se  Se219  1  0.74602583  0.41147426  0.30210782  1
  Se  Se220  1  0.75370554  0.42280634  0.81110120  1
  Se  Se221  1  0.74922993  0.74434064  0.30409047  1
  Se  Se222  1  0.75002084  0.75427984  0.80002720  1
  Se  Se223  1  0.25084439  0.09495741  0.18441959  1
  Se  Se224  1  0.24554433  0.08007294  0.69413537  1
  Se  Se225  1  0.25194237  0.41623621  0.19749344  1
  Se  Se226  1  0.23741903  0.41216385  0.70940852  1
  Se  Se227  1  0.25083262  0.74767830  0.20157131  1
  Se  Se228  1  0.25307114  0.75010231  0.69187295  1
  Se  Se229  1  0.58977787  0.09579741  0.18692902  1
  Se  Se230  1  0.58612422  0.08682941  0.70595182  1
  Se  Se231  1  0.58383941  0.41389854  0.19318540  1
  Se  Se232  1  0.57520747  0.42713848  0.68582943  1
  Se  Se233  1  0.58597623  0.74164154  0.20013320  1
  Se  Se234  1  0.58736491  0.74933377  0.69600548  1
  Se  Se235  1  0.91872666  0.08311657  0.20099377  1
  Se  Se236  1  0.90368583  0.09579184  0.69466615  1
  Se  Se237  1  0.92018790  0.41325305  0.19844397  1
  Se  Se238  1  0.91373094  0.41456523  0.70725965  1
  Se  Se239  1  0.90685929  0.74902912  0.18423821  1
  Se  Se240  1  0.92099461  0.75230216  0.69433589  1
  Se  Se241  1  0.08418007  0.25054796  0.19966716  1
  Se  Se242  1  0.07474217  0.24692551  0.69831172  1
  Se  Se243  1  0.08854957  0.57279139  0.18419522  1
  Se  Se244  1  0.09640194  0.57084952  0.69946296  1
  Se  Se245  1  0.08409482  0.91648384  0.20275235  1
  Se  Se246  1  0.08473757  0.91483575  0.68231530  1
  Se  Se247  1  0.41608319  0.25679424  0.19327880  1
  Se  Se248  1  0.41095433  0.24599527  0.70340436  1
  Se  Se249  1  0.41448102  0.58514704  0.19922432  1
  Se  Se250  1  0.42078397  0.57663797  0.70933925  1
  Se  Se251  1  0.42617118  0.90569960  0.18837480  1
  Se  Se252  1  0.41331581  0.91756684  0.69723783  1
  Se  Se253  1  0.74871508  0.24947088  0.18883932  1
  Se  Se254  1  0.74903046  0.25351073  0.68951023  1
  Se  Se255  1  0.74535563  0.57971042  0.19411852  1
  Se  Se256  1  0.75604156  0.58693192  0.70233889  1
  Se  Se257  1  0.75722077  0.90842184  0.19095024  1
  Se  Se258  1  0.75246056  0.92145670  0.69629497  1
