# generated using pymatgen
data_In86Cu29Se144
_symmetry_space_group_name_H-M   'P 1'
_cell_length_a   17.57241923
_cell_length_b   17.57680862
_cell_length_c   23.42814303
_cell_angle_alpha   90.01272894
_cell_angle_beta   89.99259672
_cell_angle_gamma   90.00027269
_symmetry_Int_Tables_number   1
_chemical_formula_structural   In86Cu29Se144
_chemical_formula_sum   'In86 Cu29 Se144'
_cell_volume   7236.18118027
_cell_formula_units_Z   1
loop_
 _symmetry_equiv_pos_site_id
 _symmetry_equiv_pos_as_xyz
  1  'x, y, z'
loop_
 _atom_site_type_symbol
 _atom_site_label
 _atom_site_symmetry_multiplicity
 _atom_site_fract_x
 _atom_site_fract_y
 _atom_site_fract_z
 _atom_site_occupancy
  In  In0  1  0.00043300  0.16648515  0.11692315  1
  In  In1  1  0.01159594  0.15200267  0.64142116  1
  In  In2  1  0.00597186  0.50900161  0.11589199  1
  In  In3  1  -0.00774687  0.50737934  0.64942697  1
  In  In4  1  0.00035792  0.83306269  0.13209800  1
  In  In5  1  0.02067838  0.81683790  0.64086542  1
  In  In6  1  0.32765037  0.16381962  0.11372249  1
  In  In7  1  0.32155352  0.17781198  0.63976520  1
  In  In8  1  0.33754043  0.51196476  0.10853113  1
  In  In9  1  0.32232602  0.49665370  0.63320613  1
  In  In10  1  0.34332764  0.82720925  0.12993302  1
  In  In11  1  0.33884224  0.84608677  0.62592097  1
  In  In12  1  0.65929339  0.15853467  0.11150565  1
  In  In13  1  0.67458277  0.16740068  0.63100491  1
  In  In14  1  0.67370824  0.51442437  0.10648959  1
  In  In15  1  0.66174688  0.50460659  0.64295248  1
  In  In16  1  0.66425241  0.83469884  0.12308768  1
  In  In17  1  0.65718035  0.82685229  0.62922301  1
  In  In18  1  0.16595710  0.00220726  0.37403395  1
  In  In19  1  0.18665160  0.00668754  0.86023250  1
  In  In20  1  0.15560732  0.32576440  0.38163084  1
  In  In21  1  0.17139830  0.33103293  0.88167120  1
  In  In22  1  0.18229857  0.68654521  0.36357341  1
  In  In23  1  0.15099462  0.65863677  0.86792362  1
  In  In24  1  0.48926610  -0.01065224  0.35738675  1
  In  In25  1  0.49263113  0.01051556  0.88543913  1
  In  In26  1  0.49586459  0.34195749  0.37037187  1
  In  In27  1  0.49800718  0.31985714  0.87263380  1
  In  In28  1  0.50112037  0.67087112  0.36505577  1
  In  In29  1  0.52101443  0.64830816  0.89798285  1
  In  In30  1  0.82897657  -0.00763878  0.36221483  1
  In  In31  1  0.84946746  0.00245185  0.87632173  1
  In  In32  1  0.83697603  0.33355376  0.37683170  1
  In  In33  1  0.83036592  0.33843004  0.87289279  1
  In  In34  1  0.83076380  0.66437059  0.36602933  1
  In  In35  1  0.81933922  0.63634598  0.85170629  1
  In  In36  1  0.01668882  0.16735687  0.38057334  1
  In  In37  1  0.00202725  0.16899022  0.87988595  1
  In  In38  1  -0.00994998  0.49921146  0.37370478  1
  In  In39  1  0.00026178  0.49839517  0.87442473  1
  In  In40  1  0.00593038  0.84073394  0.36995903  1
  In  In41  1  0.00688437  0.82980711  0.86246964  1
  In  In42  1  0.32990897  0.15702672  0.37179452  1
  In  In43  1  0.33651563  0.16349539  0.87729184  1
  In  In44  1  0.32437252  0.50933372  0.37235627  1
  In  In45  1  0.34874361  0.47297614  0.89751651  1
  In  In46  1  0.32112899  0.83012489  0.37091476  1
  In  In47  1  0.33675267  0.84786805  0.86924414  1
  In  In48  1  0.68189463  0.16168568  0.37116971  1
  In  In49  1  0.65108189  0.18343160  0.88327491  1
  In  In50  1  0.65774064  0.50686980  0.37075712  1
  In  In51  1  0.67187384  0.49736976  0.87473852  1
  In  In52  1  0.66153499  0.82933737  0.36549237  1
  In  In53  1  0.66674135  0.81373171  0.88162158  1
  In  In54  1  0.16404866  0.00679531  0.12977370  1
  In  In55  1  0.16237514  0.00132986  0.62497450  1
  In  In56  1  0.17431755  0.32805501  0.10395437  1
  In  In57  1  0.17172623  0.32246805  0.63939968  1
  In  In58  1  0.16433914  0.67363258  0.12595623  1
  In  In59  1  0.16451681  0.66207943  0.62062372  1
  In  In60  1  0.50233536  -0.00243347  0.12149878  1
  In  In61  1  0.49250798  -0.01162640  0.63377380  1
  In  In62  1  0.49841798  0.34496933  0.10472687  1
  In  In63  1  0.49231327  0.33457461  0.64974151  1
  In  In64  1  0.49811403  0.66878030  0.11560310  1
  In  In65  1  0.50705209  0.67455077  0.63217982  1
  In  In66  1  0.83492317  0.00050224  0.12332919  1
  In  In67  1  0.83684502  0.01473336  0.62601907  1
  In  In68  1  0.83038090  0.33607359  0.11033937  1
  In  In69  1  0.83109016  0.34408562  0.65351460  1
  In  In70  1  0.83418135  0.66469923  0.12356556  1
  In  In71  1  0.82998658  0.66584801  0.63152795  1
  In  In72  1  0.66306896  0.33310119  0.23808822  1
  In  In73  1  0.33244202  0.33626491  0.22832055  1
  In  In74  1  0.16837904  0.83468253  -0.00661024  1
  In  In75  1  0.66638693  -0.00027277  0.75181435  1
  In  In76  1  0.85079799  0.16698101  0.50631572  1
  In  In77  1  0.83376649  0.50144752  0.49878557  1
  In  In78  1  0.49828130  0.50573600  0.50538569  1
  In  In79  1  0.83575031  0.83004478  -0.00050354  1
  In  In80  1  0.16137849  0.50042969  0.50458431  1
  In  In81  1  0.49145145  0.82624662  0.49219264  1
  In  In82  1  0.33550162  0.66443755  0.75913903  1
  In  In83  1  0.83749970  0.83046867  0.51044092  1
  In  In84  1  0.00113972  0.33241622  0.25237020  1
  In  In85  1  0.49712273  0.16166146  0.50301531  1
  Cu  Cu86  1  0.82878729  0.17205066  0.76072404  1
  Cu  Cu87  1  0.01372524  0.00678020  -0.00311739  1
  Cu  Cu88  1  0.16484508  0.51357960  0.24286628  1
  Cu  Cu89  1  -0.00301163  0.33266142  -0.00683295  1
  Cu  Cu90  1  0.00871712  0.32499146  0.51973608  1
  Cu  Cu91  1  0.50151596  0.83507783  0.24249498  1
  Cu  Cu92  1  0.16677705  0.84028315  0.24926794  1
  Cu  Cu93  1  0.49999419  0.49897853  0.76683639  1
  Cu  Cu94  1  0.17241224  0.49008911  0.75895717  1
  Cu  Cu95  1  0.00403210  0.67080905  0.50134059  1
  Cu  Cu96  1  0.50692818  0.15892079  0.24140236  1
  Cu  Cu97  1  0.16956069  0.16794002  0.24834380  1
  Cu  Cu98  1  0.66925816  0.00296728  0.00022120  1
  Cu  Cu99  1  0.65890603  -0.00523523  0.49077738  1
  Cu  Cu100  1  0.83475214  0.15397236  0.24199575  1
  Cu  Cu101  1  0.32890267  0.32677232  0.50984834  1
  Cu  Cu102  1  0.16463202  0.16649477  0.75843887  1
  Cu  Cu103  1  0.83069673  0.50352078  0.24114975  1
  Cu  Cu104  1  -0.01079695  0.66595142  -0.00729964  1
  Cu  Cu105  1  0.83139587  0.82958843  0.24452358  1
  Cu  Cu106  1  0.00797718  -0.00407664  0.50172257  1
  Cu  Cu107  1  0.83539872  0.83215551  0.75389408  1
  Cu  Cu108  1  0.49457627  0.51364688  0.23874405  1
  Cu  Cu109  1  0.66714798  0.33450994  0.51379437  1
  Cu  Cu110  1  0.67007891  0.33832019  -0.00885320  1
  Cu  Cu111  1  0.32123390  0.00816978  0.50195155  1
  Cu  Cu112  1  0.50346533  0.82854980  0.75812931  1
  Cu  Cu113  1  0.32685969  0.67011274  -0.00038036  1
  Cu  Cu114  1  0.33421167  -0.00129116  -0.00101227  1
  Se  Se115  1  0.09498910  0.08890584  0.05288236  1
  Se  Se116  1  0.08055555  0.08862478  0.55542402  1
  Se  Se117  1  0.07808018  0.41403685  0.05020255  1
  Se  Se118  1  0.07854648  0.41784932  0.57538038  1
  Se  Se119  1  0.06965909  0.74928247  0.05162545  1
  Se  Se120  1  0.08755971  0.75319101  0.55381481  1
  Se  Se121  1  0.41989548  0.08082662  0.05220459  1
  Se  Se122  1  0.40693665  0.07712223  0.56575695  1
  Se  Se123  1  0.39007584  0.40266022  0.04572082  1
  Se  Se124  1  0.41238066  0.40783037  0.56469957  1
  Se  Se125  1  0.41218717  0.75509439  0.04930145  1
  Se  Se126  1  0.41020299  0.74042014  0.56145024  1
  Se  Se127  1  0.75879693  0.08305520  0.05061733  1
  Se  Se128  1  0.73907385  0.07727382  0.55040175  1
  Se  Se129  1  0.75412974  0.42381657  0.04287751  1
  Se  Se130  1  0.75030857  0.41460346  0.56842629  1
  Se  Se131  1  0.74051200  0.74066783  0.05328955  1
  Se  Se132  1  0.73794991  0.74009484  0.55836895  1
  Se  Se133  1  0.26909058  0.25668951  0.03939691  1
  Se  Se134  1  0.24360150  0.24577245  0.56018305  1
  Se  Se135  1  0.23737161  0.59202306  0.05157995  1
  Se  Se136  1  0.26443877  0.58679043  0.55466282  1
  Se  Se137  1  0.25364278  0.91918311  0.06118697  1
  Se  Se138  1  0.24868413  0.91819710  0.55703750  1
  Se  Se139  1  0.58786399  0.25552347  0.04697062  1
  Se  Se140  1  0.58136783  0.25493747  0.56720610  1
  Se  Se141  1  0.55760130  0.56302364  0.05145804  1
  Se  Se142  1  0.59472755  0.59039606  0.56202553  1
  Se  Se143  1  0.58654398  0.91716524  0.05134136  1
  Se  Se144  1  0.58358148  0.91927683  0.55571225  1
  Se  Se145  1  0.91582264  0.24794592  0.04931824  1
  Se  Se146  1  0.91875494  0.25681589  0.57934083  1
  Se  Se147  1  0.91094335  0.58296045  0.05045513  1
  Se  Se148  1  0.92733023  0.58714851  0.56123367  1
  Se  Se149  1  0.93294531  0.92165989  0.05383490  1
  Se  Se150  1  0.92552549  0.92456479  0.56552784  1
  Se  Se151  1  0.08659438  0.24585792  0.45881700  1
  Se  Se152  1  0.08708126  0.24669238  0.95035853  1
  Se  Se153  1  0.07725613  0.58685382  0.43798007  1
  Se  Se154  1  0.08058081  0.58331768  0.94726065  1
  Se  Se155  1  0.08707570  0.91470336  0.44403345  1
  Se  Se156  1  0.08282025  0.92527706  0.93291462  1
  Se  Se157  1  0.41142735  0.25838576  0.44148807  1
  Se  Se158  1  0.41059599  0.25214980  0.94746203  1
  Se  Se159  1  0.41273218  0.59197893  0.43959530  1
  Se  Se160  1  0.41368104  0.58145064  0.95502103  1
  Se  Se161  1  0.40568906  0.93021756  0.44127307  1
  Se  Se162  1  0.41714924  0.91260373  0.94880805  1
  Se  Se163  1  0.74610352  0.25616354  0.44919030  1
  Se  Se164  1  0.75519880  0.24936197  0.94422824  1
  Se  Se165  1  0.74158147  0.59097065  0.44205340  1
  Se  Se166  1  0.74705145  0.59184204  0.94016598  1
  Se  Se167  1  0.74747104  0.91419605  0.44033903  1
  Se  Se168  1  0.74687081  0.92323937  0.93826162  1
  Se  Se169  1  0.24278210  0.09147686  0.44529447  1
  Se  Se170  1  0.24821133  0.07810886  0.94502340  1
  Se  Se171  1  0.25620396  0.40875729  0.44413302  1
  Se  Se172  1  0.22703346  0.43413427  0.95034979  1
  Se  Se173  1  0.25297886  0.74826956  0.44679771  1
  Se  Se174  1  0.25325852  0.74349745  0.93142658  1
  Se  Se175  1  0.58178163  0.07739082  0.43160702  1
  Se  Se176  1  0.58245450  0.08822652  0.95159140  1
  Se  Se177  1  0.59121394  0.40913031  0.44537491  1
  Se  Se178  1  0.58098589  0.41289976  0.93668881  1
  Se  Se179  1  0.59275890  0.73978274  0.44161252  1
  Se  Se180  1  0.57417718  0.76139483  0.95623975  1
  Se  Se181  1  0.92175983  0.06984067  0.43771405  1
  Se  Se182  1  0.91913728  0.08562127  0.95099804  1
  Se  Se183  1  0.93222873  0.40051413  0.45168525  1
  Se  Se184  1  0.91387365  0.41964647  0.94404777  1
  Se  Se185  1  0.91957612  0.74471169  0.43951344  1
  Se  Se186  1  0.91710944  0.74730894  0.92954608  1
  Se  Se187  1  0.24762201  0.25606071  0.30525383  1
  Se  Se188  1  0.25088248  0.24848427  0.80978332  1
  Se  Se189  1  0.25368473  0.58967380  0.29743473  1
  Se  Se190  1  0.25531758  0.56781761  0.81948144  1
  Se  Se191  1  0.25060268  0.92377530  0.30299638  1
  Se  Se192  1  0.23161486  0.89098836  0.79960562  1
  Se  Se193  1  0.57758235  0.24335280  0.30737504  1
  Se  Se194  1  0.58038195  0.24358255  0.79942342  1
  Se  Se195  1  0.58327716  0.58630380  0.29672080  1
  Se  Se196  1  0.58548191  0.58853094  0.80965137  1
  Se  Se197  1  0.58798171  0.91769684  0.29627930  1
  Se  Se198  1  0.58214836  0.91329219  0.81776123  1
  Se  Se199  1  0.90817393  0.23568891  0.30861248  1
  Se  Se200  1  0.91885539  0.25065836  0.80990342  1
  Se  Se201  1  0.91584317  0.57983166  0.30021832  1
  Se  Se202  1  0.94921013  0.60690808  0.80792203  1
  Se  Se203  1  0.91681208  0.91200169  0.29848245  1
  Se  Se204  1  0.91867895  0.91896228  0.80202892  1
  Se  Se205  1  0.08432538  0.08792379  0.30320001  1
  Se  Se206  1  0.07913639  0.08206786  0.80829342  1
  Se  Se207  1  0.09677585  0.42760163  0.30786148  1
  Se  Se208  1  0.08533686  0.41011499  0.81020261  1
  Se  Se209  1  0.08186019  0.75265784  0.30017156  1
  Se  Se210  1  0.10298383  0.75999378  0.79638421  1
  Se  Se211  1  0.41458319  0.08873605  0.29733690  1
  Se  Se212  1  0.40264542  0.06512638  0.80945326  1
  Se  Se213  1  0.41708080  0.42780898  0.29820034  1
  Se  Se214  1  0.41193381  0.41154336  0.80897325  1
  Se  Se215  1  0.41785738  0.75949683  0.30349308  1
  Se  Se216  1  0.43047551  0.74499599  0.82116684  1
  Se  Se217  1  0.74538800  0.07686042  0.29538419  1
  Se  Se218  1  0.74949590  0.08678386  0.81797186  1
  Se  Se219  1  0.75472088  0.41972154  0.30520308  1
  Se  Se220  1  0.75644263  0.42405995  0.80169770  1
  Se  Se221  1  0.74714480  0.74687813  0.29928717  1
  Se  Se222  1  0.74820838  0.74974904  0.80281690  1
  Se  Se223  1  0.25560558  0.08920798  0.19345456  1
  Se  Se224  1  0.24205660  0.08186481  0.69926919  1
  Se  Se225  1  0.23604684  0.42936781  0.17919683  1
  Se  Se226  1  0.25645425  0.40828038  0.70522277  1
  Se  Se227  1  0.24742084  0.75473571  0.19490601  1
  Se  Se228  1  0.25577376  0.74693589  0.68681605  1
  Se  Se229  1  0.59219270  0.07820266  0.18994134  1
  Se  Se230  1  0.57400645  0.08770679  0.69254496  1
  Se  Se231  1  0.57467382  0.42660792  0.18222257  1
  Se  Se232  1  0.58403833  0.41652916  0.70998854  1
  Se  Se233  1  0.58013361  0.74814859  0.18837066  1
  Se  Se234  1  0.58905289  0.74668183  0.70650244  1
  Se  Se235  1  0.92621416  0.08036931  0.18916784  1
  Se  Se236  1  0.90802825  0.08636683  0.70522867  1
  Se  Se237  1  0.91220008  0.41756787  0.18708457  1
  Se  Se238  1  0.91768645  0.42287202  0.71823905  1
  Se  Se239  1  0.91599843  0.74530492  0.19417271  1
  Se  Se240  1  0.91597777  0.74719254  0.69819391  1
  Se  Se241  1  0.09401689  0.25236915  0.18744076  1
  Se  Se242  1  0.07842244  0.25118647  0.70680725  1
  Se  Se243  1  0.07491451  0.59175941  0.19246425  1
  Se  Se244  1  0.10168878  0.57974706  0.69968065  1
  Se  Se245  1  0.08175029  0.92128757  0.19637350  1
  Se  Se246  1  0.06104808  0.93887846  0.69122066  1
  Se  Se247  1  0.43241786  0.24463339  0.18037679  1
  Se  Se248  1  0.41759576  0.23868696  0.70866169  1
  Se  Se249  1  0.40718703  0.59182198  0.18600533  1
  Se  Se250  1  0.42687562  0.57349528  0.69464007  1
  Se  Se251  1  0.41686653  0.92272755  0.19460537  1
  Se  Se252  1  0.41636033  0.91016061  0.70762267  1
  Se  Se253  1  0.75820371  0.24199871  0.18428146  1
  Se  Se254  1  0.74125375  0.25015986  0.70700810  1
  Se  Se255  1  0.74323648  0.58350539  0.19005737  1
  Se  Se256  1  0.75779877  0.58056587  0.70206640  1
  Se  Se257  1  0.75248335  0.91465782  0.18943259  1
  Se  Se258  1  0.75873076  0.91040330  0.68829350  1
