# generated using pymatgen
data_In86Cu29Se144
_symmetry_space_group_name_H-M   'P 1'
_cell_length_a   17.61497699
_cell_length_b   17.61791767
_cell_length_c   23.46367408
_cell_angle_alpha   90.00374686
_cell_angle_beta   90.03849825
_cell_angle_gamma   89.99453615
_symmetry_Int_Tables_number   1
_chemical_formula_structural   In86Cu29Se144
_chemical_formula_sum   'In86 Cu29 Se144'
_cell_volume   7281.69648360
_cell_formula_units_Z   1
loop_
 _symmetry_equiv_pos_site_id
 _symmetry_equiv_pos_as_xyz
  1  'x, y, z'
loop_
 _atom_site_type_symbol
 _atom_site_label
 _atom_site_symmetry_multiplicity
 _atom_site_fract_x
 _atom_site_fract_y
 _atom_site_fract_z
 _atom_site_occupancy
  In  In0  1  -0.01391023  0.16010716  0.12220196  1
  In  In1  1  -0.00320739  0.16492595  0.62308214  1
  In  In2  1  0.01095576  0.49963939  0.12634405  1
  In  In3  1  0.00133268  0.50292186  0.62225261  1
  In  In4  1  -0.00606196  0.83855926  0.13473694  1
  In  In5  1  -0.01368050  0.84849274  0.62786205  1
  In  In6  1  0.32516755  0.17187224  0.13452566  1
  In  In7  1  0.33323549  0.18050154  0.62403868  1
  In  In8  1  0.33461834  0.50113322  0.13368362  1
  In  In9  1  0.33155706  0.50611522  0.62990120  1
  In  In10  1  0.33654172  0.83177766  0.13566107  1
  In  In11  1  0.33053957  0.81764686  0.62424689  1
  In  In12  1  0.68609697  0.16293389  0.12548028  1
  In  In13  1  0.69195636  0.15105895  0.65305774  1
  In  In14  1  0.65648966  0.50055750  0.12531664  1
  In  In15  1  0.67145239  0.49257015  0.63525146  1
  In  In16  1  0.67798726  0.82431031  0.11999657  1
  In  In17  1  0.67345042  0.83271354  0.61758994  1
  In  In18  1  0.16808030  0.00253112  0.37299272  1
  In  In19  1  0.14681572  0.01345286  0.87504465  1
  In  In20  1  0.16813821  0.32570201  0.38102694  1
  In  In21  1  0.16447537  0.33145060  0.86786128  1
  In  In22  1  0.15793695  0.65874354  0.37393434  1
  In  In23  1  0.16546527  0.66993850  0.86796556  1
  In  In24  1  0.49124991  -0.00376720  0.37820062  1
  In  In25  1  0.50778863  -0.01305176  0.87511532  1
  In  In26  1  0.50072825  0.33517245  0.36962443  1
  In  In27  1  0.49458795  0.33116940  0.86839140  1
  In  In28  1  0.50211107  0.67849548  0.37880406  1
  In  In29  1  0.49231905  0.65660771  0.85685975  1
  In  In30  1  0.84669036  -0.01275662  0.38959932  1
  In  In31  1  0.83006096  -0.00572889  0.86943658  1
  In  In32  1  0.83309129  0.33307862  0.38287000  1
  In  In33  1  0.83127679  0.32220932  0.86136625  1
  In  In34  1  0.84087935  0.65751877  0.38530348  1
  In  In35  1  0.83776951  0.67397504  0.86227807  1
  In  In36  1  0.00959068  0.15210759  0.39287665  1
  In  In37  1  -0.05341239  0.13181522  0.81422038  1
  In  In38  1  -0.00635108  0.50715404  0.38631316  1
  In  In39  1  0.00242115  0.50068271  0.86100991  1
  In  In40  1  -0.00025365  0.83141714  0.37218002  1
  In  In41  1  -0.00733565  0.82961700  0.86877195  1
  In  In42  1  0.32512108  0.16009720  0.36941191  1
  In  In43  1  0.32123593  0.17430180  0.87519251  1
  In  In44  1  0.32544942  0.49147104  0.37128547  1
  In  In45  1  0.33148766  0.49829055  0.86747389  1
  In  In46  1  0.33736087  0.83596281  0.37390586  1
  In  In47  1  0.33933540  0.82802494  0.87614700  1
  In  In48  1  0.66994382  0.17988623  0.37798935  1
  In  In49  1  0.68744370  0.17608822  0.86000050  1
  In  In50  1  0.68036899  0.49164618  0.38497237  1
  In  In51  1  0.65181633  0.49465434  0.85196459  1
  In  In52  1  0.67248932  0.81641651  0.39667012  1
  In  In53  1  0.67641225  0.84064120  0.86280995  1
  In  In54  1  0.16058958  0.00516379  0.13588509  1
  In  In55  1  0.14465568  0.00419060  0.61906716  1
  In  In56  1  0.17026789  0.34049985  0.12671807  1
  In  In57  1  0.16618540  0.33391512  0.61774156  1
  In  In58  1  0.16701849  0.66510937  0.13355672  1
  In  In59  1  0.17592664  0.66041274  0.62729686  1
  In  In60  1  0.49814034  -0.01036936  0.12956308  1
  In  In61  1  0.51442400  -0.00117790  0.62589714  1
  In  In62  1  0.50124421  0.33507542  0.13116927  1
  In  In63  1  0.50391186  0.33620280  0.63958171  1
  In  In64  1  0.49881244  0.65926914  0.12627766  1
  In  In65  1  0.49692528  0.66766485  0.63024026  1
  In  In66  1  0.84490391  0.00095434  0.11923981  1
  In  In67  1  0.84417141  0.00447953  0.62334285  1
  In  In68  1  0.83834219  0.31746130  0.12493515  1
  In  In69  1  0.83133208  0.33264004  0.63025300  1
  In  In70  1  0.82980728  0.68303788  0.12449366  1
  In  In71  1  0.83242011  0.67100037  0.62081227  1
  In  In72  1  0.50589786  0.16901406  0.50779394  1
  In  In73  1  0.83038136  0.50362267  -0.00751607  1
  In  In74  1  0.50789245  0.83005323  0.00367178  1
  In  In75  1  0.32700498  -0.00073204  0.75811691  1
  In  In76  1  0.50352623  0.50213629  0.51150376  1
  In  In77  1  0.49872295  0.49844890  -0.00833056  1
  In  In78  1  0.15738762  0.17146214  0.00475484  1
  In  In79  1  0.66559234  0.66299051  0.25448349  1
  In  In80  1  0.66277718  0.00170186  0.25499606  1
  In  In81  1  0.16467442  0.83407414  0.49749188  1
  In  In82  1  0.00093674  0.33172285  0.24989265  1
  In  In83  1  0.16112984  0.83389793  -0.00546592  1
  In  In84  1  0.17057623  0.50065915  0.00155760  1
  In  In85  1  0.50518027  0.16743533  -0.00749265  1
  Cu  Cu86  1  0.32962355  0.00280014  0.01123020  1
  Cu  Cu87  1  0.83835556  0.83484639  0.25355370  1
  Cu  Cu88  1  0.49865096  0.83232103  0.74642916  1
  Cu  Cu89  1  0.16643791  0.16631468  0.25718644  1
  Cu  Cu90  1  -0.00661661  0.33818959  0.50634630  1
  Cu  Cu91  1  0.32991618  0.33056419  0.49747634  1
  Cu  Cu92  1  0.16118345  0.83209019  0.74597501  1
  Cu  Cu93  1  0.33087518  -0.00025180  0.49534902  1
  Cu  Cu94  1  0.00172404  0.66952415  0.50266610  1
  Cu  Cu95  1  0.49657197  0.17046179  0.25392975  1
  Cu  Cu96  1  0.49621268  0.83563608  0.25627618  1
  Cu  Cu97  1  0.16786818  0.17337404  0.74348712  1
  Cu  Cu98  1  0.67700799  0.32630101  -0.00460487  1
  Cu  Cu99  1  -0.00395668  0.32156775  -0.01205209  1
  Cu  Cu100  1  0.83315260  0.49927753  0.26095819  1
  Cu  Cu101  1  0.67060216  0.32951943  0.51406121  1
  Cu  Cu102  1  0.68235424  0.00471215  -0.00594921  1
  Cu  Cu103  1  0.84147803  0.50533730  0.74321477  1
  Cu  Cu104  1  -0.00474163  0.67040389  -0.00303784  1
  Cu  Cu105  1  0.16627873  0.50251707  0.25210828  1
  Cu  Cu106  1  0.67067433  0.00124605  0.50857634  1
  Cu  Cu107  1  0.83489308  0.16595095  0.25161146  1
  Cu  Cu108  1  0.49889998  0.49798130  0.25169078  1
  Cu  Cu109  1  0.49981933  0.16814502  0.75030825  1
  Cu  Cu110  1  0.16866778  0.83176260  0.25425567  1
  Cu  Cu111  1  0.83131637  0.83314557  0.74037188  1
  Cu  Cu112  1  0.16813949  0.49650447  0.74296048  1
  Cu  Cu113  1  0.67101350  0.67327712  -0.01482305  1
  Cu  Cu114  1  0.33619573  0.65960733  0.50490218  1
  Se  Se115  1  0.07268219  0.06938546  0.05712522  1
  Se  Se116  1  0.07822516  0.09065659  0.54800518  1
  Se  Se117  1  0.07222138  0.40232291  0.05149100  1
  Se  Se118  1  0.08412472  0.42114826  0.55167453  1
  Se  Se119  1  0.07870132  0.74297802  0.05998465  1
  Se  Se120  1  0.08083137  0.74877630  0.56431604  1
  Se  Se121  1  0.41656180  0.08351892  0.06301551  1
  Se  Se122  1  0.41031200  0.07541575  0.56157342  1
  Se  Se123  1  0.41333047  0.41419587  0.05938062  1
  Se  Se124  1  0.41182119  0.40386234  0.56118938  1
  Se  Se125  1  0.41071655  0.74410282  0.05915435  1
  Se  Se126  1  0.41832111  0.74629674  0.55398366  1
  Se  Se127  1  0.76165701  0.08609404  0.05154557  1
  Se  Se128  1  0.74791212  0.08859315  0.56267525  1
  Se  Se129  1  0.74637533  0.41272513  0.05889381  1
  Se  Se130  1  0.75236289  0.42049737  0.55952053  1
  Se  Se131  1  0.75370764  0.74994786  0.04370222  1
  Se  Se132  1  0.76490331  0.76180330  0.54936115  1
  Se  Se133  1  0.25793651  0.25998442  0.05665616  1
  Se  Se134  1  0.24734367  0.24515079  0.54903236  1
  Se  Se135  1  0.25884143  0.59117609  0.06070233  1
  Se  Se136  1  0.24963754  0.57697692  0.55345039  1
  Se  Se137  1  0.24959544  0.91823767  0.06506932  1
  Se  Se138  1  0.25406554  0.92250983  0.56207507  1
  Se  Se139  1  0.59320334  0.25388074  0.05874912  1
  Se  Se140  1  0.59363184  0.24882280  0.57462930  1
  Se  Se141  1  0.59331368  0.59534351  0.04955008  1
  Se  Se142  1  0.59620562  0.59045680  0.56553167  1
  Se  Se143  1  0.60000004  0.92937367  0.05738047  1
  Se  Se144  1  0.58132706  0.91523416  0.55164028  1
  Se  Se145  1  0.91517220  0.24523014  0.04842561  1
  Se  Se146  1  0.91170778  0.25256757  0.55789208  1
  Se  Se147  1  0.92131371  0.58691070  0.05950618  1
  Se  Se148  1  0.91681027  0.58493916  0.55351005  1
  Se  Se149  1  0.90830713  0.89815364  0.05774776  1
  Se  Se150  1  0.92201521  0.92628601  0.54962622  1
  Se  Se151  1  0.07812195  0.25625436  0.45125964  1
  Se  Se152  1  0.07600033  0.24307136  0.92967382  1
  Se  Se153  1  0.08623600  0.58355782  0.45228703  1
  Se  Se154  1  0.07633716  0.58750488  0.94092500  1
  Se  Se155  1  0.07443202  0.92648799  0.44286432  1
  Se  Se156  1  0.06657525  0.92492462  0.94275444  1
  Se  Se157  1  0.41488633  0.25057688  0.44084502  1
  Se  Se158  1  0.40657569  0.25946220  0.94510287  1
  Se  Se159  1  0.41413199  0.58059418  0.44126711  1
  Se  Se160  1  0.40814757  0.59284124  0.93905577  1
  Se  Se161  1  0.41590438  0.91246622  0.44962752  1
  Se  Se162  1  0.40937720  0.92439624  0.94955882  1
  Se  Se163  1  0.75027054  0.25079966  0.45335168  1
  Se  Se164  1  0.76026283  0.24633290  0.94112327  1
  Se  Se165  1  0.73298223  0.59944988  0.44519446  1
  Se  Se166  1  0.74018874  0.58349773  0.92655301  1
  Se  Se167  1  0.75017875  0.91574221  0.45375593  1
  Se  Se168  1  0.75249650  0.90993934  0.94220424  1
  Se  Se169  1  0.24817014  0.08438422  0.44496021  1
  Se  Se170  1  0.25267161  0.07627224  0.94583156  1
  Se  Se171  1  0.24769340  0.41680564  0.44672720  1
  Se  Se172  1  0.25488690  0.40905532  0.94068935  1
  Se  Se173  1  0.25671269  0.74024855  0.44224464  1
  Se  Se174  1  0.25646082  0.74013502  0.94427517  1
  Se  Se175  1  0.59082146  0.07742372  0.44282194  1
  Se  Se176  1  0.59755962  0.07891906  0.93467647  1
  Se  Se177  1  0.58682344  0.40312077  0.45019783  1
  Se  Se178  1  0.59538215  0.40702884  0.93814976  1
  Se  Se179  1  0.57509916  0.74562559  0.45795301  1
  Se  Se180  1  0.58204170  0.74712778  0.92902442  1
  Se  Se181  1  0.88945340  0.10639314  0.44428103  1
  Se  Se182  1  0.92414311  0.08842116  0.91793183  1
  Se  Se183  1  0.91042869  0.42104266  0.45080905  1
  Se  Se184  1  0.92261774  0.41485085  0.93490502  1
  Se  Se185  1  0.92196850  0.75189861  0.44557023  1
  Se  Se186  1  0.91273427  0.74843323  0.94072361  1
  Se  Se187  1  0.24938509  0.25476445  0.30465813  1
  Se  Se188  1  0.25250394  0.25255669  0.79845853  1
  Se  Se189  1  0.24997965  0.58509928  0.30592114  1
  Se  Se190  1  0.24459038  0.58088014  0.80271724  1
  Se  Se191  1  0.25082942  0.91679649  0.30735428  1
  Se  Se192  1  0.23439217  0.90825231  0.81670732  1
  Se  Se193  1  0.58536214  0.25057544  0.30428346  1
  Se  Se194  1  0.58372360  0.25109991  0.80383354  1
  Se  Se195  1  0.57838214  0.57281430  0.31614885  1
  Se  Se196  1  0.59129657  0.59813598  0.79062377  1
  Se  Se197  1  0.58470583  0.90402507  0.31778735  1
  Se  Se198  1  0.58261580  0.91712751  0.79731969  1
  Se  Se199  1  0.91689519  0.24356917  0.31329389  1
  Se  Se200  1  0.93770052  0.27541212  0.79513600  1
  Se  Se201  1  0.91875652  0.58374907  0.30857061  1
  Se  Se202  1  0.92361283  0.59044462  0.79684815  1
  Se  Se203  1  0.91783636  0.92142047  0.30623076  1
  Se  Se204  1  0.91389981  0.91228979  0.79846063  1
  Se  Se205  1  0.07892896  0.08594558  0.30809290  1
  Se  Se206  1  0.08712349  0.08299555  0.79094679  1
  Se  Se207  1  0.08514583  0.42282290  0.31295494  1
  Se  Se208  1  0.08584906  0.41443789  0.79747168  1
  Se  Se209  1  0.08327570  0.74832662  0.30551802  1
  Se  Se210  1  0.07891168  0.74880333  0.80137412  1
  Se  Se211  1  0.41915060  0.08179913  0.30630175  1
  Se  Se212  1  0.42285768  0.08965454  0.81596395  1
  Se  Se213  1  0.41382715  0.41388487  0.30306638  1
  Se  Se214  1  0.42668498  0.42730303  0.80416629  1
  Se  Se215  1  0.41524902  0.74643519  0.30533438  1
  Se  Se216  1  0.41020472  0.75336585  0.79864106  1
  Se  Se217  1  0.75593266  0.08652081  0.31422299  1
  Se  Se218  1  0.74451773  0.07144654  0.79769624  1
  Se  Se219  1  0.75125912  0.41161480  0.30876265  1
  Se  Se220  1  0.75926843  0.42287447  0.79958345  1
  Se  Se221  1  0.75526960  0.75503483  0.31198513  1
  Se  Se222  1  0.74794660  0.74941836  0.79438618  1
  Se  Se223  1  0.25036722  0.08274684  0.20185849  1
  Se  Se224  1  0.24700597  0.08437050  0.68749462  1
  Se  Se225  1  0.24873452  0.41717840  0.19914698  1
  Se  Se226  1  0.25035385  0.41184151  0.69026773  1
  Se  Se227  1  0.25126175  0.74808733  0.20023666  1
  Se  Se228  1  0.24955022  0.74846165  0.69969639  1
  Se  Se229  1  0.57678189  0.09325291  0.19007623  1
  Se  Se230  1  0.58100013  0.07886606  0.70311748  1
  Se  Se231  1  0.58602946  0.41770192  0.19858380  1
  Se  Se232  1  0.57377777  0.43077657  0.70396238  1
  Se  Se233  1  0.57802009  0.75942285  0.19254897  1
  Se  Se234  1  0.58469257  0.75832998  0.68934080  1
  Se  Se235  1  0.91486369  0.07998096  0.19784279  1
  Se  Se236  1  0.91444287  0.09034557  0.69827352  1
  Se  Se237  1  0.90824688  0.42417837  0.19101021  1
  Se  Se238  1  0.92225487  0.41845097  0.69236545  1
  Se  Se239  1  0.91586690  0.74559287  0.20026217  1
  Se  Se240  1  0.91904456  0.74929889  0.69199036  1
  Se  Se241  1  0.08908343  0.23918234  0.18766429  1
  Se  Se242  1  0.08392334  0.25126278  0.68723766  1
  Se  Se243  1  0.07990494  0.58347926  0.19983080  1
  Se  Se244  1  0.08503077  0.58384243  0.69331759  1
  Se  Se245  1  0.08331000  0.91526869  0.20149731  1
  Se  Se246  1  0.08124832  0.92033295  0.69623129  1
  Se  Se247  1  0.41564318  0.25319707  0.19747824  1
  Se  Se248  1  0.41346385  0.24985884  0.70019874  1
  Se  Se249  1  0.41904791  0.58580375  0.19986595  1
  Se  Se250  1  0.41571966  0.58428043  0.69725787  1
  Se  Se251  1  0.41471884  0.92060714  0.20324169  1
  Se  Se252  1  0.41429582  0.91555555  0.69027208  1
  Se  Se253  1  0.75187653  0.25101414  0.19980199  1
  Se  Se254  1  0.73947156  0.26992679  0.70417156  1
  Se  Se255  1  0.75801642  0.57618224  0.19145783  1
  Se  Se256  1  0.75496836  0.58784169  0.69368019  1
  Se  Se257  1  0.75279671  0.91137098  0.19348531  1
  Se  Se258  1  0.75287706  0.92043972  0.68638290  1
