# generated using pymatgen
data_In86Cu29Se144
_symmetry_space_group_name_H-M   'P 1'
_cell_length_a   17.57705765
_cell_length_b   17.58018606
_cell_length_c   23.44260113
_cell_angle_alpha   89.98529248
_cell_angle_beta   89.98660588
_cell_angle_gamma   90.00321644
_symmetry_Int_Tables_number   1
_chemical_formula_structural   In86Cu29Se144
_chemical_formula_sum   'In86 Cu29 Se144'
_cell_volume   7243.94952567
_cell_formula_units_Z   1
loop_
 _symmetry_equiv_pos_site_id
 _symmetry_equiv_pos_as_xyz
  1  'x, y, z'
loop_
 _atom_site_type_symbol
 _atom_site_label
 _atom_site_symmetry_multiplicity
 _atom_site_fract_x
 _atom_site_fract_y
 _atom_site_fract_z
 _atom_site_occupancy
  In  In0  1  0.01469656  0.18808134  0.12433843  1
  In  In1  1  0.00183873  0.16621217  0.61761598  1
  In  In2  1  -0.01622981  0.48659997  0.11421888  1
  In  In3  1  -0.00379463  0.51174477  0.62662941  1
  In  In4  1  0.00614767  0.82126637  0.11980091  1
  In  In5  1  -0.01043323  0.82964552  0.62521575  1
  In  In6  1  0.33181301  0.16771094  0.12972755  1
  In  In7  1  0.32214290  0.17188228  0.62425529  1
  In  In8  1  0.31701855  0.50043067  0.12085842  1
  In  In9  1  0.34479018  0.49847635  0.62454045  1
  In  In10  1  0.32583684  0.84811627  0.12097528  1
  In  In11  1  0.33894551  0.82983749  0.63220634  1
  In  In12  1  0.67986065  0.18532458  0.11483022  1
  In  In13  1  0.67095178  0.16026141  0.62632274  1
  In  In14  1  0.67462947  0.49311976  0.13362904  1
  In  In15  1  0.66668081  0.49853018  0.62589599  1
  In  In16  1  0.66302813  0.82862060  0.12892866  1
  In  In17  1  0.65482788  0.82725111  0.61807775  1
  In  In18  1  0.18716108  0.00545877  0.36350256  1
  In  In19  1  0.18261607  -0.01111586  0.89058446  1
  In  In20  1  0.16134805  0.31243097  0.35242715  1
  In  In21  1  0.16817665  0.33630000  0.88761216  1
  In  In22  1  0.16122113  0.67059555  0.37193807  1
  In  In23  1  0.16667654  0.66443854  0.87277597  1
  In  In24  1  0.48847495  0.00256703  0.37726948  1
  In  In25  1  0.49030257  0.01929732  0.87571649  1
  In  In26  1  0.51382404  0.33575312  0.35985757  1
  In  In27  1  0.50580965  0.31556651  0.87328174  1
  In  In28  1  0.51542635  0.65100343  0.39002566  1
  In  In29  1  0.50758510  0.67108734  0.86836044  1
  In  In30  1  0.83415734  0.00111785  0.38269903  1
  In  In31  1  0.84124943  -0.00008789  0.87776472  1
  In  In32  1  0.82946053  0.33649435  0.37768889  1
  In  In33  1  0.82855411  0.34514249  0.88337523  1
  In  In34  1  0.82563209  0.66600321  0.38318597  1
  In  In35  1  0.81972810  0.65069259  0.86710016  1
  In  In36  1  -0.00372369  0.17223775  0.37611685  1
  In  In37  1  0.00359906  0.16395745  0.88621723  1
  In  In38  1  -0.00381230  0.48228381  0.37215714  1
  In  In39  1  -0.01239481  0.51518248  0.88951123  1
  In  In40  1  -0.00545001  0.82433075  0.37635332  1
  In  In41  1  0.01142395  0.82882894  0.87560296  1
  In  In42  1  0.33889336  0.15527576  0.35914624  1
  In  In43  1  0.34303469  0.15479475  0.89220710  1
  In  In44  1  0.34808750  0.49744589  0.37988845  1
  In  In45  1  0.32165078  0.50144578  0.87769401  1
  In  In46  1  0.33727111  0.84470298  0.37337814  1
  In  In47  1  0.33608973  0.83313488  0.86937443  1
  In  In48  1  0.66928415  0.19338930  0.36765572  1
  In  In49  1  0.65540039  0.18179641  0.88258718  1
  In  In50  1  0.66706296  0.49547142  0.37487516  1
  In  In51  1  0.68050856  0.50659454  0.87085406  1
  In  In52  1  0.67815628  0.82125348  0.38726573  1
  In  In53  1  0.67334558  0.82478309  0.87298837  1
  In  In54  1  0.20560102  0.02673258  0.09103038  1
  In  In55  1  0.16627999  0.01543266  0.62569498  1
  In  In56  1  0.16477161  0.32991205  0.13315600  1
  In  In57  1  0.17672508  0.32377715  0.62098560  1
  In  In58  1  0.14527874  0.66191448  0.09916713  1
  In  In59  1  0.16323373  0.67105980  0.63727817  1
  In  In60  1  0.47573123  0.00917853  0.13384277  1
  In  In61  1  0.50317986  -0.00988847  0.62585810  1
  In  In62  1  0.50740365  0.31353607  0.14493183  1
  In  In63  1  0.49604009  0.34943165  0.62216453  1
  In  In64  1  0.51077508  0.67058186  0.12775162  1
  In  In65  1  0.50207900  0.66572171  0.62883702  1
  In  In66  1  0.81663498  0.01194188  0.12718589  1
  In  In67  1  0.83572981  0.00016557  0.61610298  1
  In  In68  1  0.83840565  0.33982043  0.13094517  1
  In  In69  1  0.82283343  0.32194819  0.61646914  1
  In  In70  1  0.82820108  0.63703285  0.11747900  1
  In  In71  1  0.82868678  0.66178957  0.62501469  1
  In  In72  1  0.16472786  0.49441304  0.49992921  1
  In  In73  1  0.65254618  0.00644296  0.25604872  1
  In  In74  1  -0.00816550  0.66004304  0.24739621  1
  In  In75  1  0.50347361  0.16793713  0.49202739  1
  In  In76  1  0.50159867  0.83784671  -0.00471895  1
  In  In77  1  -0.00126777  0.33441359  0.75608295  1
  In  In78  1  0.83642681  0.83154160  -0.00124351  1
  In  In79  1  0.00894362  0.00162622  0.24028146  1
  In  In80  1  0.50033754  0.49442325  0.00463100  1
  In  In81  1  0.66421306  -0.00217787  0.74730320  1
  In  In82  1  0.00438920  -0.00433976  0.75113468  1
  In  In83  1  0.33734441  0.33587047  0.75185895  1
  In  In84  1  0.16704051  0.83816348  0.49367734  1
  In  In85  1  0.33391234  0.67060042  0.24650057  1
  Cu  Cu86  1  -0.00047738  0.32830892  0.49267781  1
  Cu  Cu87  1  0.65765072  0.00771418  0.00396544  1
  Cu  Cu88  1  0.16465667  0.50036194  0.24738321  1
  Cu  Cu89  1  0.50015823  0.83285800  0.74828765  1
  Cu  Cu90  1  0.50481503  0.50212741  0.25293115  1
  Cu  Cu91  1  0.50423242  0.82554195  0.25373187  1
  Cu  Cu92  1  0.66364476  0.66210700  0.50566118  1
  Cu  Cu93  1  0.50293469  0.50332566  0.74844588  1
  Cu  Cu94  1  0.00473149  0.00565616  0.49791912  1
  Cu  Cu95  1  0.33404345  0.00283317  0.49587189  1
  Cu  Cu96  1  -0.00813331  0.00740152  0.00461385  1
  Cu  Cu97  1  0.17467585  0.83382233  0.75665525  1
  Cu  Cu98  1  0.83212584  0.82784405  0.25665772  1
  Cu  Cu99  1  -0.01050542  0.66548083  0.50162244  1
  Cu  Cu100  1  0.33944494  0.66938747  0.50855475  1
  Cu  Cu101  1  -0.00041735  0.33322346  0.00602169  1
  Cu  Cu102  1  0.67181445  0.00130485  0.49975580  1
  Cu  Cu103  1  0.33247944  0.67360686  -0.00456238  1
  Cu  Cu104  1  0.82782784  0.16913517  0.75045325  1
  Cu  Cu105  1  0.16417556  0.50513015  0.75526358  1
  Cu  Cu106  1  0.66695451  0.33672596  0.00616757  1
  Cu  Cu107  1  0.66624700  0.33922294  0.49611622  1
  Cu  Cu108  1  0.17414254  0.16362090  0.75497497  1
  Cu  Cu109  1  0.83139447  0.49566185  0.75071988  1
  Cu  Cu110  1  0.83066175  0.81812055  0.74538076  1
  Cu  Cu111  1  0.83658752  0.17764967  0.25071943  1
  Cu  Cu112  1  0.33447170  0.33024295  0.00769453  1
  Cu  Cu113  1  0.32966421  0.32732012  0.49375027  1
  Cu  Cu114  1  0.17203007  0.83692606  0.23656966  1
  Se  Se115  1  0.07753356  0.08705424  0.05764131  1
  Se  Se116  1  0.08983726  0.08857876  0.54923252  1
  Se  Se117  1  0.08788855  0.41368061  0.05873490  1
  Se  Se118  1  0.07331340  0.40541748  0.56213572  1
  Se  Se119  1  0.07735115  0.76049810  0.03603346  1
  Se  Se120  1  0.08072966  0.74333559  0.55526866  1
  Se  Se121  1  0.40629055  0.08196603  0.05592082  1
  Se  Se122  1  0.41446988  0.08203986  0.55830613  1
  Se  Se123  1  0.41589714  0.40733983  0.06941572  1
  Se  Se124  1  0.40866464  0.41433113  0.54705856  1
  Se  Se125  1  0.41347014  0.74570590  0.05957349  1
  Se  Se126  1  0.42124148  0.75416590  0.55993971  1
  Se  Se127  1  0.75067527  0.08931540  0.04801215  1
  Se  Se128  1  0.75270590  0.08788381  0.55194348  1
  Se  Se129  1  0.75257723  0.41813727  0.05807217  1
  Se  Se130  1  0.74908396  0.41863337  0.55351836  1
  Se  Se131  1  0.74595935  0.74417662  0.05963020  1
  Se  Se132  1  0.74880648  0.74814217  0.55605883  1
  Se  Se133  1  0.24717823  0.25135842  0.06080001  1
  Se  Se134  1  0.24640547  0.24322757  0.54508589  1
  Se  Se135  1  0.25071652  0.58567966  0.04595357  1
  Se  Se136  1  0.24932180  0.59063728  0.56167160  1
  Se  Se137  1  0.23965408  0.90024066  0.04206059  1
  Se  Se138  1  0.25429042  0.92364055  0.55867876  1
  Se  Se139  1  0.57562753  0.25613960  0.05561243  1
  Se  Se140  1  0.58718606  0.25685387  0.55820940  1
  Se  Se141  1  0.59297048  0.58519195  0.05974412  1
  Se  Se142  1  0.57865840  0.57920898  0.55834947  1
  Se  Se143  1  0.58311025  0.92561174  0.06548148  1
  Se  Se144  1  0.58295097  0.92046785  0.54977874  1
  Se  Se145  1  0.91279029  0.25160000  0.05930550  1
  Se  Se146  1  0.91718097  0.24742886  0.55123976  1
  Se  Se147  1  0.94707486  0.60867436  0.05856155  1
  Se  Se148  1  0.90987112  0.57826749  0.55288166  1
  Se  Se149  1  0.91408821  0.92583447  0.06562390  1
  Se  Se150  1  0.92525345  0.91887312  0.55170846  1
  Se  Se151  1  0.08998088  0.25307158  0.43961038  1
  Se  Se152  1  0.08338255  0.25113219  0.95227291  1
  Se  Se153  1  0.07370703  0.58894004  0.44041797  1
  Se  Se154  1  0.10344213  0.56866369  0.94229114  1
  Se  Se155  1  0.08023918  0.92866911  0.43105150  1
  Se  Se156  1  0.06975826  0.92654792  0.94490571  1
  Se  Se157  1  0.41338751  0.25430961  0.43110516  1
  Se  Se158  1  0.41998256  0.25413517  0.95070471  1
  Se  Se159  1  0.41696681  0.58084705  0.45480073  1
  Se  Se160  1  0.41739704  0.59097137  0.94090505  1
  Se  Se161  1  0.41862480  0.91411369  0.45000369  1
  Se  Se162  1  0.40688436  0.92836769  0.94310705  1
  Se  Se163  1  0.75001929  0.24979880  0.44912628  1
  Se  Se164  1  0.74926675  0.25397663  0.94880018  1
  Se  Se165  1  0.74400719  0.57889233  0.44864688  1
  Se  Se166  1  0.75822163  0.57393411  0.94889083  1
  Se  Se167  1  0.75695632  0.91441250  0.45090332  1
  Se  Se168  1  0.73758699  0.92512691  0.94409822  1
  Se  Se169  1  0.25747784  0.08709741  0.43887666  1
  Se  Se170  1  0.23053757  0.10205060  0.95012409  1
  Se  Se171  1  0.24728306  0.40777086  0.43340946  1
  Se  Se172  1  0.25592790  0.41747220  0.95383893  1
  Se  Se173  1  0.26047489  0.74065485  0.44086246  1
  Se  Se174  1  0.25126452  0.75334556  0.93810526  1
  Se  Se175  1  0.59769041  0.07982332  0.43343636  1
  Se  Se176  1  0.57752017  0.08968765  0.94778087  1
  Se  Se177  1  0.57647859  0.41394254  0.44192874  1
  Se  Se178  1  0.58964597  0.41145026  0.93875627  1
  Se  Se179  1  0.58215100  0.75153460  0.45426098  1
  Se  Se180  1  0.59509504  0.73969372  0.94695590  1
  Se  Se181  1  0.91790804  0.08778207  0.44652374  1
  Se  Se182  1  0.90815889  0.08802471  0.94998670  1
  Se  Se183  1  0.91386119  0.41714752  0.44919215  1
  Se  Se184  1  0.91586623  0.41859367  0.95378005  1
  Se  Se185  1  0.91093870  0.75347824  0.44881237  1
  Se  Se186  1  0.91400966  0.74233694  0.93177430  1
  Se  Se187  1  0.27222448  0.25523936  0.29348997  1
  Se  Se188  1  0.24703916  0.25069002  0.81396796  1
  Se  Se189  1  0.24514120  0.57798320  0.31008484  1
  Se  Se190  1  0.25570070  0.58598938  0.80218442  1
  Se  Se191  1  0.25600918  0.91150099  0.29546369  1
  Se  Se192  1  0.25271124  0.92478503  0.80570634  1
  Se  Se193  1  0.56417382  0.22526152  0.29709199  1
  Se  Se194  1  0.58666560  0.24578246  0.79854087  1
  Se  Se195  1  0.58606074  0.58537309  0.30716538  1
  Se  Se196  1  0.58872892  0.58269641  0.80378506  1
  Se  Se197  1  0.58094165  0.90366661  0.31821519  1
  Se  Se198  1  0.57584521  0.91232846  0.81417153  1
  Se  Se199  1  0.91764587  0.25754200  0.30774624  1
  Se  Se200  1  0.91018991  0.24122598  0.81425414  1
  Se  Se201  1  0.90629972  0.57467651  0.31232688  1
  Se  Se202  1  0.91807980  0.57722706  0.80317224  1
  Se  Se203  1  0.91466691  0.91541456  0.30644837  1
  Se  Se204  1  0.90724360  0.90300414  0.80524701  1
  Se  Se205  1  0.09031132  0.09113999  0.30578476  1
  Se  Se206  1  0.09084984  0.08446407  0.81342904  1
  Se  Se207  1  0.08188659  0.41522670  0.29882945  1
  Se  Se208  1  0.08715419  0.42375949  0.81573201  1
  Se  Se209  1  0.08910781  0.76178046  0.29890808  1
  Se  Se210  1  0.08561712  0.74902786  0.80156380  1
  Se  Se211  1  0.42394423  0.07033726  0.29447763  1
  Se  Se212  1  0.40768825  0.09366962  0.80503240  1
  Se  Se213  1  0.41690854  0.42018903  0.30230427  1
  Se  Se214  1  0.42643049  0.42542409  0.81453462  1
  Se  Se215  1  0.42473010  0.74537611  0.31619391  1
  Se  Se216  1  0.41810320  0.74816319  0.80214048  1
  Se  Se217  1  0.75874409  0.09052333  0.30851020  1
  Se  Se218  1  0.75296385  0.08435963  0.81151561  1
  Se  Se219  1  0.73040976  0.39552737  0.30861925  1
  Se  Se220  1  0.74959951  0.40962734  0.80302032  1
  Se  Se221  1  0.74856641  0.74514985  0.30826181  1
  Se  Se222  1  0.74298708  0.74151579  0.79915644  1
  Se  Se223  1  0.24931015  0.07102618  0.18885019  1
  Se  Se224  1  0.25495112  0.08295050  0.69825981  1
  Se  Se225  1  0.25164454  0.41859673  0.19751740  1
  Se  Se226  1  0.24045532  0.42441352  0.69179710  1
  Se  Se227  1  0.23996085  0.74336497  0.17859384  1
  Se  Se228  1  0.25479842  0.74879305  0.70061574  1
  Se  Se229  1  0.58707760  0.09078270  0.18002005  1
  Se  Se230  1  0.57124369  0.09126041  0.69366270  1
  Se  Se231  1  0.58556207  0.41440946  0.20070827  1
  Se  Se232  1  0.58242326  0.41602237  0.69613296  1
  Se  Se233  1  0.59035270  0.74499857  0.20257481  1
  Se  Se234  1  0.58637181  0.75021855  0.69718772  1
  Se  Se235  1  0.91056450  0.09426587  0.18948131  1
  Se  Se236  1  0.91201495  0.08893321  0.69288809  1
  Se  Se237  1  0.91019375  0.43309120  0.19857274  1
  Se  Se238  1  0.91008140  0.41536150  0.68893378  1
  Se  Se239  1  0.90558362  0.75446803  0.18798981  1
  Se  Se240  1  0.91975895  0.73967669  0.69421718  1
  Se  Se241  1  0.08040310  0.25627567  0.20650736  1
  Se  Se242  1  0.09061315  0.24226095  0.69506415  1
  Se  Se243  1  0.08960143  0.58209429  0.18659854  1
  Se  Se244  1  0.07834461  0.58392643  0.70050945  1
  Se  Se245  1  0.09415200  0.91577569  0.17619338  1
  Se  Se246  1  0.09486149  0.90687406  0.68830169  1
  Se  Se247  1  0.39634477  0.25805148  0.20501840  1
  Se  Se248  1  0.42215689  0.24790910  0.68718302  1
  Se  Se249  1  0.42296099  0.57549311  0.18823004  1
  Se  Se250  1  0.41477004  0.58353319  0.69720431  1
  Se  Se251  1  0.41861801  0.90261854  0.19782193  1
  Se  Se252  1  0.41705083  0.92015804  0.69890531  1
  Se  Se253  1  0.74874482  0.25599306  0.19695145  1
  Se  Se254  1  0.74642308  0.24969901  0.69501037  1
  Se  Se255  1  0.74387372  0.59175655  0.19855249  1
  Se  Se256  1  0.74854937  0.58027826  0.69655770  1
  Se  Se257  1  0.75136778  0.91351320  0.19945719  1
  Se  Se258  1  0.75746110  0.90938411  0.68764864  1
