# generated using pymatgen
data_In86Cu29Se144
_symmetry_space_group_name_H-M   'P 1'
_cell_length_a   17.58732003
_cell_length_b   17.59174315
_cell_length_c   23.45436797
_cell_angle_alpha   90.00465043
_cell_angle_beta   89.99829365
_cell_angle_gamma   89.98370981
_symmetry_Int_Tables_number   1
_chemical_formula_structural   In86Cu29Se144
_chemical_formula_sum   'In86 Cu29 Se144'
_cell_volume   7256.58450623
_cell_formula_units_Z   1
loop_
 _symmetry_equiv_pos_site_id
 _symmetry_equiv_pos_as_xyz
  1  'x, y, z'
loop_
 _atom_site_type_symbol
 _atom_site_label
 _atom_site_symmetry_multiplicity
 _atom_site_fract_x
 _atom_site_fract_y
 _atom_site_fract_z
 _atom_site_occupancy
  In  In0  1  0.01524715  0.18321056  0.11577129  1
  In  In1  1  0.01114567  0.17590572  0.61378370  1
  In  In2  1  0.00362536  0.48567583  0.12930213  1
  In  In3  1  0.00131175  0.49600925  0.62599893  1
  In  In4  1  0.00213642  0.83704718  0.12882444  1
  In  In5  1  -0.00873616  0.82471666  0.61400675  1
  In  In6  1  0.33984288  0.18115886  0.12229674  1
  In  In7  1  0.33147030  0.16807272  0.62956717  1
  In  In8  1  0.32739666  0.49527480  0.11426309  1
  In  In9  1  0.32380101  0.50444684  0.62908346  1
  In  In10  1  0.33542561  0.82128446  0.12237556  1
  In  In11  1  0.33584738  0.83536694  0.62924324  1
  In  In12  1  0.67429244  0.16700752  0.12189356  1
  In  In13  1  0.66295487  0.16269817  0.61548581  1
  In  In14  1  0.65169148  0.50265315  0.12508138  1
  In  In15  1  0.67734723  0.50740588  0.62094668  1
  In  In16  1  0.65877744  0.84646392  0.12420071  1
  In  In17  1  0.65776380  0.82556800  0.62432125  1
  In  In18  1  0.16286311  -0.00223551  0.39080785  1
  In  In19  1  0.18272461  0.00241261  0.87409896  1
  In  In20  1  0.16263733  0.33801279  0.37276185  1
  In  In21  1  0.16693438  0.33151379  0.87286175  1
  In  In22  1  0.16959299  0.66805799  0.38685678  1
  In  In23  1  0.16498922  0.65769695  0.86462014  1
  In  In24  1  0.50391175  -0.00259949  0.38485944  1
  In  In25  1  0.47057042  -0.00236833  0.87007235  1
  In  In26  1  0.48857114  0.32682727  0.36696038  1
  In  In27  1  0.49997280  0.34210102  0.87605450  1
  In  In28  1  0.50834910  0.66631979  0.37951223  1
  In  In29  1  0.49735336  0.66526568  0.86814468  1
  In  In30  1  0.83970172  0.00035365  0.39499612  1
  In  In31  1  0.83792999  0.01168434  0.87269283  1
  In  In32  1  0.83527111  0.33218498  0.37626687  1
  In  In33  1  0.83317051  0.32036196  0.87783849  1
  In  In34  1  0.82826540  0.65851357  0.39092494  1
  In  In35  1  0.84105653  0.66729121  0.86382547  1
  In  In36  1  -0.00665108  0.17419185  0.38329245  1
  In  In37  1  -0.00364336  0.17774878  0.87482195  1
  In  In38  1  0.01776443  0.48074972  0.38525473  1
  In  In39  1  0.01536410  0.50666881  0.86700677  1
  In  In40  1  0.00492948  0.82647739  0.39460414  1
  In  In41  1  0.01277656  0.83092930  0.86668428  1
  In  In42  1  0.32086653  0.17885121  0.38495140  1
  In  In43  1  0.31913307  0.14818494  0.85969444  1
  In  In44  1  0.32645637  0.48539945  0.37099215  1
  In  In45  1  0.33235588  0.49736421  0.86996158  1
  In  In46  1  0.33005419  0.83968394  0.38741707  1
  In  In47  1  0.34864735  0.84174624  0.85282241  1
  In  In48  1  0.66287600  0.16967974  0.38294482  1
  In  In49  1  0.66897584  0.17708482  0.87823243  1
  In  In50  1  0.67022882  0.50108535  0.37471063  1
  In  In51  1  0.65560499  0.50035585  0.87779603  1
  In  In52  1  0.66417922  0.83630373  0.38799661  1
  In  In53  1  0.66164481  0.81843362  0.86498319  1
  In  In54  1  0.15347597  0.00549618  0.12639594  1
  In  In55  1  0.17291933  0.01050867  0.61301635  1
  In  In56  1  0.17129128  0.33844676  0.12553405  1
  In  In57  1  0.16766017  0.33027156  0.62447396  1
  In  In58  1  0.18257251  0.66727366  0.12116372  1
  In  In59  1  0.16572964  0.66027504  0.62385893  1
  In  In60  1  0.50197841  -0.00356252  0.11774235  1
  In  In61  1  0.48831615  -0.00260312  0.62975433  1
  In  In62  1  0.48081278  0.34975148  0.14159695  1
  In  In63  1  0.49362507  0.31866544  0.62690081  1
  In  In64  1  0.48884000  0.66206268  0.10937586  1
  In  In65  1  0.48542547  0.69017083  0.65084070  1
  In  In66  1  0.81751745  0.00839629  0.12394924  1
  In  In67  1  0.84839754  0.00714680  0.60773753  1
  In  In68  1  0.84253983  0.32081233  0.13408947  1
  In  In69  1  0.83936535  0.34528608  0.61669641  1
  In  In70  1  0.83991627  0.66991217  0.12380749  1
  In  In71  1  0.83373756  0.66420591  0.62693531  1
  In  In72  1  0.82827895  0.83742074  0.00118097  1
  In  In73  1  0.00411450  -0.00361491  0.73886410  1
  In  In74  1  0.66543914  0.33872112  0.75250008  1
  In  In75  1  0.50022509  0.50406722  0.50193352  1
  In  In76  1  0.17882588  0.83990909  -0.00649864  1
  In  In77  1  0.00837139  0.65265161  0.26966239  1
  In  In78  1  0.33168937  0.65940357  0.24884947  1
  In  In79  1  0.66727341  0.00756897  0.25535107  1
  In  In80  1  0.49608093  0.16945839  -0.00262278  1
  In  In81  1  0.66462877  -0.00418935  0.73780128  1
  In  In82  1  0.83429650  0.49430831  -0.00147395  1
  In  In83  1  0.33052898  0.00562562  0.25948773  1
  In  In84  1  0.66340929  0.66178905  0.25413680  1
  In  In85  1  -0.00110364  0.00823073  0.25521333  1
  Cu  Cu86  1  0.49563210  0.82663872  0.24798511  1
  Cu  Cu87  1  0.66132973  -0.00349383  -0.00416704  1
  Cu  Cu88  1  0.50143102  0.50029179  0.75073246  1
  Cu  Cu89  1  0.83211172  0.17514720  0.74508785  1
  Cu  Cu90  1  0.33090298  0.33596413  -0.00266647  1
  Cu  Cu91  1  0.00226000  0.33685387  0.50006228  1
  Cu  Cu92  1  0.16901587  0.17609244  0.25134036  1
  Cu  Cu93  1  0.32935091  0.32743498  0.49892316  1
  Cu  Cu94  1  -0.00543689  0.65845865  0.50553134  1
  Cu  Cu95  1  0.84104441  0.82905575  0.26028579  1
  Cu  Cu96  1  0.00880329  0.66660588  -0.00692091  1
  Cu  Cu97  1  0.33831624  0.66752107  -0.01090441  1
  Cu  Cu98  1  0.83578877  0.83085757  0.73979124  1
  Cu  Cu99  1  -0.00341912  0.01513067  -0.00231914  1
  Cu  Cu100  1  0.83852932  0.50030684  0.74510762  1
  Cu  Cu101  1  0.00888378  0.33263192  0.00058446  1
  Cu  Cu102  1  0.66605340  -0.00036586  0.50721310  1
  Cu  Cu103  1  0.34384738  -0.00053476  0.50497288  1
  Cu  Cu104  1  0.84117175  0.16849184  0.25395632  1
  Cu  Cu105  1  0.66545079  0.33082502  0.00654269  1
  Cu  Cu106  1  0.65923548  0.67189152  0.50783862  1
  Cu  Cu107  1  0.16917313  0.82462610  0.74261985  1
  Cu  Cu108  1  0.82982025  0.48923316  0.25278198  1
  Cu  Cu109  1  0.66641020  0.33091959  0.50067383  1
  Cu  Cu110  1  0.16734599  0.49171700  0.74676457  1
  Cu  Cu111  1  0.33468842  0.66841525  0.51039933  1
  Cu  Cu112  1  0.16177060  0.16569507  0.74420033  1
  Cu  Cu113  1  0.65616597  0.66657514  -0.00583531  1
  Cu  Cu114  1  0.50054295  0.17305949  0.25552952  1
  Se  Se115  1  0.08859136  0.08879358  0.04985479  1
  Se  Se116  1  0.07315490  0.07524250  0.54857096  1
  Se  Se117  1  0.08693546  0.41957352  0.05352477  1
  Se  Se118  1  0.08625031  0.41659700  0.55593066  1
  Se  Se119  1  0.08173566  0.75177608  0.05582512  1
  Se  Se120  1  0.08367809  0.74181554  0.55297618  1
  Se  Se121  1  0.40630638  0.07617475  0.05609420  1
  Se  Se122  1  0.41896881  0.08868840  0.55917909  1
  Se  Se123  1  0.41969104  0.41221214  0.05201514  1
  Se  Se124  1  0.40967368  0.41061168  0.55888979  1
  Se  Se125  1  0.41553233  0.75598517  0.04398006  1
  Se  Se126  1  0.42118298  0.74875687  0.56157055  1
  Se  Se127  1  0.74373817  0.08219749  0.04657217  1
  Se  Se128  1  0.75409945  0.08911711  0.54838505  1
  Se  Se129  1  0.74905147  0.41022369  0.06524909  1
  Se  Se130  1  0.74730001  0.42012275  0.54937838  1
  Se  Se131  1  0.73640172  0.74236012  0.05898904  1
  Se  Se132  1  0.75019976  0.74957893  0.55845217  1
  Se  Se133  1  0.25064338  0.25314244  0.05393801  1
  Se  Se134  1  0.24831596  0.24457166  0.55510336  1
  Se  Se135  1  0.25402121  0.58886750  0.04609052  1
  Se  Se136  1  0.24868614  0.57859956  0.55205348  1
  Se  Se137  1  0.25495106  0.92540349  0.06528293  1
  Se  Se138  1  0.25744844  0.91594248  0.55509447  1
  Se  Se139  1  0.57882211  0.25580364  0.06534529  1
  Se  Se140  1  0.57917678  0.25097378  0.55197752  1
  Se  Se141  1  0.57903043  0.57805915  0.04736491  1
  Se  Se142  1  0.57532020  0.59631897  0.56953797  1
  Se  Se143  1  0.57807981  0.91195364  0.04653219  1
  Se  Se144  1  0.58122730  0.92078808  0.56200074  1
  Se  Se145  1  0.91655404  0.25406576  0.05151801  1
  Se  Se146  1  0.91567675  0.25322388  0.55101509  1
  Se  Se147  1  0.92807007  0.58907316  0.05585158  1
  Se  Se148  1  0.91121385  0.57530840  0.55817631  1
  Se  Se149  1  0.92207257  0.93032714  0.05942212  1
  Se  Se150  1  0.91808539  0.91134399  0.54451586  1
  Se  Se151  1  0.08619215  0.25439215  0.44558093  1
  Se  Se152  1  0.08741367  0.24729830  0.94506773  1
  Se  Se153  1  0.08221297  0.58266049  0.44932800  1
  Se  Se154  1  0.09190058  0.58110342  0.94371630  1
  Se  Se155  1  0.09072330  0.90840028  0.45808348  1
  Se  Se156  1  0.07392012  0.92747564  0.94009196  1
  Se  Se157  1  0.42121787  0.25032259  0.44723241  1
  Se  Se158  1  0.40592368  0.25360336  0.93482103  1
  Se  Se159  1  0.40546559  0.58931569  0.44023949  1
  Se  Se160  1  0.41911092  0.57950506  0.93852398  1
  Se  Se161  1  0.42450102  0.91196326  0.45216300  1
  Se  Se162  1  0.39871418  0.91345381  0.94130066  1
  Se  Se163  1  0.75309386  0.24980045  0.44726805  1
  Se  Se164  1  0.75032195  0.24949230  0.95300457  1
  Se  Se165  1  0.73493624  0.58151166  0.45419535  1
  Se  Se166  1  0.75021919  0.59355882  0.93981702  1
  Se  Se167  1  0.75013937  0.91442102  0.45504930  1
  Se  Se168  1  0.74411160  0.92149004  0.93269429  1
  Se  Se169  1  0.25646579  0.07961441  0.45079711  1
  Se  Se170  1  0.25488523  0.08491516  0.94595727  1
  Se  Se171  1  0.24804627  0.41429913  0.44725917  1
  Se  Se172  1  0.24901957  0.41720561  0.94110815  1
  Se  Se173  1  0.25130198  0.75213367  0.45424754  1
  Se  Se174  1  0.25574108  0.74645602  0.92881049  1
  Se  Se175  1  0.58465362  0.08279016  0.45087659  1
  Se  Se176  1  0.58257456  0.07717550  0.93410283  1
  Se  Se177  1  0.58309633  0.40960999  0.44013323  1
  Se  Se178  1  0.58564381  0.41300141  0.94959995  1
  Se  Se179  1  0.57661857  0.75315833  0.45196133  1
  Se  Se180  1  0.57777556  0.75136350  0.93994649  1
  Se  Se181  1  0.93203811  0.07970745  0.45440058  1
  Se  Se182  1  0.91130153  0.09461765  0.94410491  1
  Se  Se183  1  0.91353854  0.41783715  0.44779681  1
  Se  Se184  1  0.92802270  0.41140528  0.93757857  1
  Se  Se185  1  0.91074137  0.74538320  0.45466443  1
  Se  Se186  1  0.92372686  0.75045490  0.94071584  1
  Se  Se187  1  0.25358888  0.25636899  0.30573080  1
  Se  Se188  1  0.24462103  0.24768739  0.80021316  1
  Se  Se189  1  0.23637872  0.57835918  0.30929723  1
  Se  Se190  1  0.25161963  0.57763803  0.79740272  1
  Se  Se191  1  0.24095249  0.91196009  0.31369672  1
  Se  Se192  1  0.24240163  0.91441825  0.79767415  1
  Se  Se193  1  0.58961077  0.24962789  0.30762205  1
  Se  Se194  1  0.57538680  0.24413677  0.80714572  1
  Se  Se195  1  0.56824551  0.56972936  0.30563130  1
  Se  Se196  1  0.58816615  0.58217633  0.80201189  1
  Se  Se197  1  0.57754035  0.90582868  0.30729134  1
  Se  Se198  1  0.57997752  0.92001701  0.80979445  1
  Se  Se199  1  0.92284258  0.25282081  0.30620965  1
  Se  Se200  1  0.91575899  0.25409481  0.80059566  1
  Se  Se201  1  0.90252400  0.57019609  0.31769634  1
  Se  Se202  1  0.92407413  0.58258147  0.79967163  1
  Se  Se203  1  0.91643235  0.91295583  0.31853878  1
  Se  Se204  1  0.90986760  0.91143793  0.80503842  1
  Se  Se205  1  0.09494522  0.09250111  0.31394123  1
  Se  Se206  1  0.08423378  0.08422809  0.80797736  1
  Se  Se207  1  0.08249805  0.41858383  0.30065744  1
  Se  Se208  1  0.08250633  0.40981648  0.80065933  1
  Se  Se209  1  0.09155321  0.75979211  0.31519033  1
  Se  Se210  1  0.08305588  0.74465714  0.79628390  1
  Se  Se211  1  0.42482243  0.09126420  0.31765403  1
  Se  Se212  1  0.41679174  0.08500994  0.79313365  1
  Se  Se213  1  0.42017161  0.42356023  0.30201437  1
  Se  Se214  1  0.41877273  0.41424704  0.80148353  1
  Se  Se215  1  0.41804278  0.75308349  0.31260918  1
  Se  Se216  1  0.41941436  0.74212595  0.79349159  1
  Se  Se217  1  0.76514704  0.08650064  0.31576923  1
  Se  Se218  1  0.75174127  0.09262454  0.80199757  1
  Se  Se219  1  0.74532551  0.41110256  0.30754683  1
  Se  Se220  1  0.76050884  0.42576718  0.81312964  1
  Se  Se221  1  0.75342762  0.75353309  0.31556369  1
  Se  Se222  1  0.75607298  0.75020741  0.79799120  1
  Se  Se223  1  0.24535496  0.09175582  0.19168752  1
  Se  Se224  1  0.24542571  0.07912155  0.69449883  1
  Se  Se225  1  0.25225339  0.42554255  0.19129335  1
  Se  Se226  1  0.25272219  0.40884349  0.69528890  1
  Se  Se227  1  0.24149964  0.76166270  0.19791760  1
  Se  Se228  1  0.25289847  0.74133080  0.69150335  1
  Se  Se229  1  0.57259635  0.08939481  0.19218702  1
  Se  Se230  1  0.57546187  0.09704394  0.69203814  1
  Se  Se231  1  0.59643260  0.40610474  0.19471375  1
  Se  Se232  1  0.57959055  0.42405017  0.68557182  1
  Se  Se233  1  0.57600487  0.75016379  0.18657729  1
  Se  Se234  1  0.59489023  0.75318345  0.70709850  1
  Se  Se235  1  0.91307219  0.09150581  0.18543457  1
  Se  Se236  1  0.91327447  0.09430076  0.68781983  1
  Se  Se237  1  0.91912003  0.41211781  0.20024719  1
  Se  Se238  1  0.91828025  0.41122229  0.69600856  1
  Se  Se239  1  0.91915101  0.74992876  0.19978999  1
  Se  Se240  1  0.92325946  0.74640432  0.69334808  1
  Se  Se241  1  0.08538177  0.25542537  0.19537265  1
  Se  Se242  1  0.07845981  0.25090392  0.69407517  1
  Se  Se243  1  0.08875069  0.58565965  0.18814076  1
  Se  Se244  1  0.08436338  0.57835854  0.69528395  1
  Se  Se245  1  0.09061393  0.91027196  0.20067239  1
  Se  Se246  1  0.09142930  0.90606142  0.68008860  1
  Se  Se247  1  0.40966447  0.24990380  0.20434409  1
  Se  Se248  1  0.40747052  0.25510016  0.70030524  1
  Se  Se249  1  0.42333372  0.57700971  0.18650947  1
  Se  Se250  1  0.41298383  0.57864399  0.69885419  1
  Se  Se251  1  0.41874752  0.91436060  0.19298935  1
  Se  Se252  1  0.41995209  0.91031567  0.70157265  1
  Se  Se253  1  0.74952768  0.24168512  0.19863429  1
  Se  Se254  1  0.74904765  0.25139854  0.68524587  1
  Se  Se255  1  0.76105228  0.57852187  0.19149258  1
  Se  Se256  1  0.74974935  0.58336088  0.69848569  1
  Se  Se257  1  0.75910068  0.90745757  0.19918942  1
  Se  Se258  1  0.76569604  0.91787380  0.67973205  1
