# generated using pymatgen
data_In86Cu29Se144
_symmetry_space_group_name_H-M   'P 1'
_cell_length_a   17.58194008
_cell_length_b   17.58057930
_cell_length_c   23.44906193
_cell_angle_alpha   89.99439355
_cell_angle_beta   90.01556952
_cell_angle_gamma   90.00946981
_symmetry_Int_Tables_number   1
_chemical_formula_structural   In86Cu29Se144
_chemical_formula_sum   'In86 Cu29 Se144'
_cell_volume   7248.12086450
_cell_formula_units_Z   1
loop_
 _symmetry_equiv_pos_site_id
 _symmetry_equiv_pos_as_xyz
  1  'x, y, z'
loop_
 _atom_site_type_symbol
 _atom_site_label
 _atom_site_symmetry_multiplicity
 _atom_site_fract_x
 _atom_site_fract_y
 _atom_site_fract_z
 _atom_site_occupancy
  In  In0  1  -0.02164793  0.18578852  0.13325257  1
  In  In1  1  -0.00321075  0.15859303  0.61627539  1
  In  In2  1  0.00513613  0.49527167  0.12108418  1
  In  In3  1  -0.00246464  0.50978230  0.61930493  1
  In  In4  1  -0.00033457  0.83333405  0.12819920  1
  In  In5  1  0.01570209  0.84576398  0.62210182  1
  In  In6  1  0.34657515  0.16581157  0.12591920  1
  In  In7  1  0.32767084  0.15802957  0.61319613  1
  In  In8  1  0.32541037  0.50856589  0.13398286  1
  In  In9  1  0.33563614  0.47927180  0.62111833  1
  In  In10  1  0.32255716  0.82728093  0.11923627  1
  In  In11  1  0.34864331  0.84635122  0.62478826  1
  In  In12  1  0.66798227  0.16572363  0.12501552  1
  In  In13  1  0.67510716  0.17973781  0.61983808  1
  In  In14  1  0.66585413  0.48536050  0.12779023  1
  In  In15  1  0.66164576  0.48583367  0.61380694  1
  In  In16  1  0.67911190  0.84249384  0.11362076  1
  In  In17  1  0.66386229  0.83692485  0.62752252  1
  In  In18  1  0.15822764  0.01132766  0.37721320  1
  In  In19  1  0.15609201  -0.00045075  0.87246508  1
  In  In20  1  0.15544931  0.32238539  0.36442572  1
  In  In21  1  0.17117007  0.33292416  0.88444273  1
  In  In22  1  0.16519927  0.66626416  0.36378016  1
  In  In23  1  0.16033949  0.66886025  0.88736033  1
  In  In24  1  0.51262050  -0.00252903  0.37076582  1
  In  In25  1  0.49247521  0.00953804  0.88121866  1
  In  In26  1  0.50397490  0.33103672  0.37441671  1
  In  In27  1  0.50311129  0.31034271  0.87802989  1
  In  In28  1  0.48891136  0.67032590  0.36916977  1
  In  In29  1  0.52021684  0.66888998  0.88403363  1
  In  In30  1  0.84607622  0.01775804  0.36401309  1
  In  In31  1  0.83718112  -0.00005286  0.88114892  1
  In  In32  1  0.83608748  0.32987630  0.37191807  1
  In  In33  1  0.82933854  0.33881245  0.88233732  1
  In  In34  1  0.82984634  0.65207881  0.36732407  1
  In  In35  1  0.83547244  0.66115094  0.89143896  1
  In  In36  1  -0.00620191  0.16209084  0.37404785  1
  In  In37  1  0.00157045  0.15514200  0.87670362  1
  In  In38  1  -0.01096061  0.48983646  0.36338207  1
  In  In39  1  -0.00511315  0.49711897  0.89213271  1
  In  In40  1  0.00210907  0.83888287  0.36378020  1
  In  In41  1  -0.00616370  0.84543536  0.88557888  1
  In  In42  1  0.32464235  0.17401846  0.37886862  1
  In  In43  1  0.34150871  0.16399346  0.87321838  1
  In  In44  1  0.34134279  0.50573503  0.36791499  1
  In  In45  1  0.32799339  0.48579436  0.88024418  1
  In  In46  1  0.34650773  0.82261311  0.36216745  1
  In  In47  1  0.32160496  0.84423817  0.88718791  1
  In  In48  1  0.66974908  0.16654092  0.37221849  1
  In  In49  1  0.65963799  0.17481420  0.87421396  1
  In  In50  1  0.67844629  0.48779798  0.37591125  1
  In  In51  1  0.68062830  0.49187544  0.88141371  1
  In  In52  1  0.65303662  0.85008147  0.36501200  1
  In  In53  1  0.67170457  0.82709395  0.89747303  1
  In  In54  1  0.16266259  -0.01288017  0.12249989  1
  In  In55  1  0.14744213  0.03578358  0.65523420  1
  In  In56  1  0.15377081  0.34641987  0.13252646  1
  In  In57  1  0.17961454  0.32507796  0.62303857  1
  In  In58  1  0.16718116  0.66415758  0.12519983  1
  In  In59  1  0.15544203  0.66843528  0.62597065  1
  In  In60  1  0.50693473  0.01018695  0.11969552  1
  In  In61  1  0.48610101  0.00161947  0.62977800  1
  In  In62  1  0.51163010  0.32415452  0.13612973  1
  In  In63  1  0.50821943  0.34017474  0.61205556  1
  In  In64  1  0.48857509  0.66950714  0.12798177  1
  In  In65  1  0.51474177  0.66170005  0.62446176  1
  In  In66  1  0.83362555  0.00396229  0.12411904  1
  In  In67  1  0.84034501  0.02319086  0.62817507  1
  In  In68  1  0.83425646  0.32853681  0.11938617  1
  In  In69  1  0.82400600  0.31790304  0.61518583  1
  In  In70  1  0.84022186  0.68139733  0.11683447  1
  In  In71  1  0.84513826  0.65811511  0.62260544  1
  In  In72  1  0.32868666  -0.00201321  0.24869978  1
  In  In73  1  -0.00903948  0.67569618  0.76630537  1
  In  In74  1  0.67440695  0.66656507  0.76152686  1
  In  In75  1  0.49968149  0.83171002  0.49311571  1
  In  In76  1  0.33554214  0.67412314  0.74744189  1
  In  In77  1  0.17152666  0.84400251  0.48994478  1
  In  In78  1  0.49397095  0.50143633  0.00935720  1
  In  In79  1  0.66356933  0.00555781  0.75464432  1
  In  In80  1  -0.00722690  0.32690464  0.74583310  1
  In  In81  1  0.16693449  0.49100064  0.49664430  1
  In  In82  1  0.15789613  0.16908830  0.00206518  1
  In  In83  1  0.82951570  0.83255912  0.50398310  1
  In  In84  1  0.33672222  0.31832074  0.75254565  1
  In  In85  1  0.66867100  0.66767593  0.24204626  1
  Cu  Cu86  1  0.32953049  0.00246897  0.50146030  1
  Cu  Cu87  1  0.33509130  0.65473939  0.49528473  1
  Cu  Cu88  1  0.82301529  0.48904478  0.74986361  1
  Cu  Cu89  1  -0.00067779  0.32916436  0.48987763  1
  Cu  Cu90  1  0.17379616  0.85075081  0.75377375  1
  Cu  Cu91  1  0.32881616  0.33584603  0.00657081  1
  Cu  Cu92  1  0.33074697  0.66637330  0.00424984  1
  Cu  Cu93  1  0.66999240  0.00687051  0.49623914  1
  Cu  Cu94  1  0.50303108  0.49644557  0.24991854  1
  Cu  Cu95  1  0.66526285  0.65324774  0.49527193  1
  Cu  Cu96  1  0.84295078  0.84445170  0.75615616  1
  Cu  Cu97  1  0.84423315  0.49636526  0.24508893  1
  Cu  Cu98  1  0.67208409  0.33140042  0.49349115  1
  Cu  Cu99  1  0.33731159  0.00099084  0.00370564  1
  Cu  Cu100  1  -0.00095834  -0.00097518  0.00447402  1
  Cu  Cu101  1  0.00787347  0.66557351  0.00823426  1
  Cu  Cu102  1  0.83094482  0.83761747  0.24277619  1
  Cu  Cu103  1  0.16950743  0.50112079  0.24799520  1
  Cu  Cu104  1  0.67174898  0.00740641  0.00002546  1
  Cu  Cu105  1  0.16089019  0.50090579  0.76165936  1
  Cu  Cu106  1  -0.00912630  0.66101242  0.49118749  1
  Cu  Cu107  1  0.49561958  0.83875233  0.76357649  1
  Cu  Cu108  1  0.16530782  0.82713793  0.24512387  1
  Cu  Cu109  1  0.50621244  0.48817078  0.74225395  1
  Cu  Cu110  1  0.82968862  0.16709465  0.24797660  1
  Cu  Cu111  1  0.66433563  0.32737224  0.00419385  1
  Cu  Cu112  1  0.34019285  0.33201024  0.49523460  1
  Cu  Cu113  1  0.50349101  0.16693756  0.25041499  1
  Cu  Cu114  1  0.16073722  0.16718381  0.25144710  1
  Se  Se115  1  0.07291180  0.08247133  0.06683253  1
  Se  Se116  1  0.09338185  0.07727783  0.55911555  1
  Se  Se117  1  0.08743716  0.41523860  0.05046157  1
  Se  Se118  1  0.07556632  0.40464130  0.55947975  1
  Se  Se119  1  0.08740826  0.75449651  0.05917775  1
  Se  Se120  1  0.07626150  0.74416751  0.54760313  1
  Se  Se121  1  0.42092308  0.08953099  0.04972479  1
  Se  Se122  1  0.42320677  0.08057253  0.54905296  1
  Se  Se123  1  0.41117635  0.40835089  0.07066360  1
  Se  Se124  1  0.42116029  0.42209871  0.54359970  1
  Se  Se125  1  0.41602256  0.75069453  0.05313004  1
  Se  Se126  1  0.41227678  0.73883205  0.55765011  1
  Se  Se127  1  0.75433932  0.08939663  0.05445682  1
  Se  Se128  1  0.75206641  0.08598980  0.55349259  1
  Se  Se129  1  0.74740893  0.41485834  0.05277329  1
  Se  Se130  1  0.75635665  0.41508573  0.54758613  1
  Se  Se131  1  0.74786817  0.74740334  0.04728734  1
  Se  Se132  1  0.73777719  0.73540529  0.56082997  1
  Se  Se133  1  0.24989494  0.25269545  0.06648849  1
  Se  Se134  1  0.25186707  0.25057834  0.54574839  1
  Se  Se135  1  0.24971855  0.57933185  0.05521423  1
  Se  Se136  1  0.25214324  0.58604037  0.56117264  1
  Se  Se137  1  0.24804702  0.91726000  0.04978612  1
  Se  Se138  1  0.25217684  0.92337409  0.56245521  1
  Se  Se139  1  0.57818374  0.24643449  0.05672292  1
  Se  Se140  1  0.58692139  0.24944111  0.54696616  1
  Se  Se141  1  0.58764826  0.58716583  0.06666999  1
  Se  Se142  1  0.57868408  0.57602517  0.54977816  1
  Se  Se143  1  0.58608059  0.92403330  0.05095117  1
  Se  Se144  1  0.58821747  0.92376280  0.55565282  1
  Se  Se145  1  0.91090369  0.24447051  0.04780132  1
  Se  Se146  1  0.92051186  0.24808162  0.54945232  1
  Se  Se147  1  0.91865036  0.58403178  0.05669969  1
  Se  Se148  1  0.91092228  0.57588233  0.54477663  1
  Se  Se149  1  0.91655730  0.91503105  0.05839690  1
  Se  Se150  1  0.92063933  0.92475494  0.55989229  1
  Se  Se151  1  0.08424872  0.24451693  0.44142351  1
  Se  Se152  1  0.06711176  0.26092136  0.94465546  1
  Se  Se153  1  0.07971759  0.58365533  0.43574406  1
  Se  Se154  1  0.08685023  0.57818710  0.95398464  1
  Se  Se155  1  0.06496349  0.92705402  0.44322832  1
  Se  Se156  1  0.08765653  0.92066872  0.95111286  1
  Se  Se157  1  0.42163355  0.24606902  0.44346067  1
  Se  Se158  1  0.40578904  0.25269881  0.94896975  1
  Se  Se159  1  0.42405891  0.57997525  0.44292173  1
  Se  Se160  1  0.40890676  0.58819879  0.93989745  1
  Se  Se161  1  0.40530098  0.92312661  0.43635492  1
  Se  Se162  1  0.42033972  0.91727673  0.94934565  1
  Se  Se163  1  0.75466709  0.24668815  0.44137491  1
  Se  Se164  1  0.74654193  0.24855491  0.94582740  1
  Se  Se165  1  0.75634404  0.57723614  0.44468284  1
  Se  Se166  1  0.72968233  0.59574847  0.94858059  1
  Se  Se167  1  0.74365265  0.91892635  0.43816365  1
  Se  Se168  1  0.75828855  0.91960256  0.95353712  1
  Se  Se169  1  0.24696366  0.08368173  0.44600694  1
  Se  Se170  1  0.25292928  0.08053877  0.94361109  1
  Se  Se171  1  0.25550122  0.40793851  0.43266161  1
  Se  Se172  1  0.24412373  0.41995822  0.95596398  1
  Se  Se173  1  0.26058635  0.74152655  0.43768384  1
  Se  Se174  1  0.24602562  0.75174641  0.95241855  1
  Se  Se175  1  0.58356992  0.08440317  0.44197374  1
  Se  Se176  1  0.58597656  0.08642920  0.94515525  1
  Se  Se177  1  0.58595913  0.41597056  0.44365824  1
  Se  Se178  1  0.58017235  0.40960587  0.94497268  1
  Se  Se179  1  0.59462419  0.74141663  0.43573684  1
  Se  Se180  1  0.57829988  0.75253701  0.96131572  1
  Se  Se181  1  0.91119457  0.08507809  0.44663825  1
  Se  Se182  1  0.91827864  0.08426038  0.95128333  1
  Se  Se183  1  0.91639452  0.41695764  0.44244624  1
  Se  Se184  1  0.89243776  0.43403171  0.95292217  1
  Se  Se185  1  0.91569014  0.74803297  0.43444692  1
  Se  Se186  1  0.92519728  0.74717773  0.95081618  1
  Se  Se187  1  0.25121767  0.24771655  0.29985724  1
  Se  Se188  1  0.23595367  0.23965898  0.81117317  1
  Se  Se189  1  0.25417093  0.58526397  0.30035708  1
  Se  Se190  1  0.24804290  0.58287928  0.81239115  1
  Se  Se191  1  0.23894180  0.90755847  0.31186251  1
  Se  Se192  1  0.25825869  0.92804972  0.80946368  1
  Se  Se193  1  0.58722302  0.25070848  0.30369192  1
  Se  Se194  1  0.57230780  0.23961700  0.79879418  1
  Se  Se195  1  0.58549863  0.57894081  0.30957892  1
  Se  Se196  1  0.57775104  0.56933063  0.80882665  1
  Se  Se197  1  0.56298375  0.90916894  0.29237492  1
  Se  Se198  1  0.58787917  0.90843437  0.82090981  1
  Se  Se199  1  0.91682270  0.24676895  0.30224430  1
  Se  Se200  1  0.90931583  0.24501450  0.81410484  1
  Se  Se201  1  0.92196216  0.58799970  0.29608256  1
  Se  Se202  1  0.90206857  0.57086322  0.81148218  1
  Se  Se203  1  0.91432237  0.91935172  0.29854986  1
  Se  Se204  1  0.92558854  0.92698397  0.80826897  1
  Se  Se205  1  0.07787684  0.08080206  0.30170776  1
  Se  Se206  1  0.08798482  0.09032293  0.80274013  1
  Se  Se207  1  0.08360188  0.41681967  0.29892665  1
  Se  Se208  1  0.07887139  0.41837179  0.81515614  1
  Se  Se209  1  0.07757058  0.74640482  0.29848533  1
  Se  Se210  1  0.09493714  0.76478675  0.81305717  1
  Se  Se211  1  0.41781242  0.08836765  0.30990684  1
  Se  Se212  1  0.43166935  0.09527198  0.80392202  1
  Se  Se213  1  0.41972631  0.41317375  0.30463090  1
  Se  Se214  1  0.42437695  0.41784271  0.80953332  1
  Se  Se215  1  0.42459562  0.74773277  0.28999622  1
  Se  Se216  1  0.42021021  0.75062893  0.82036553  1
  Se  Se217  1  0.74491225  0.08080887  0.29897214  1
  Se  Se218  1  0.75831204  0.09047681  0.81187833  1
  Se  Se219  1  0.75914617  0.41736937  0.30045473  1
  Se  Se220  1  0.74267033  0.40652706  0.80450305  1
  Se  Se221  1  0.75391321  0.75995391  0.30837452  1
  Se  Se222  1  0.76457090  0.76198095  0.81649822  1
  Se  Se223  1  0.23998475  0.08958857  0.18757581  1
  Se  Se224  1  0.27612188  0.07521366  0.69580156  1
  Se  Se225  1  0.25267966  0.41288033  0.19912801  1
  Se  Se226  1  0.24216568  0.42183863  0.69966630  1
  Se  Se227  1  0.25267877  0.74543682  0.19569330  1
  Se  Se228  1  0.24002925  0.76425980  0.68832758  1
  Se  Se229  1  0.58511171  0.08335569  0.19632256  1
  Se  Se230  1  0.58220539  0.08889813  0.68497693  1
  Se  Se231  1  0.59012136  0.41141919  0.20448061  1
  Se  Se232  1  0.59027539  0.40734538  0.69079546  1
  Se  Se233  1  0.58421505  0.76051221  0.18325395  1
  Se  Se234  1  0.57603323  0.75819190  0.70155394  1
  Se  Se235  1  0.91588480  0.08219477  0.19746336  1
  Se  Se236  1  0.92726153  0.09048336  0.69927936  1
  Se  Se237  1  0.92030047  0.41074007  0.18878470  1
  Se  Se238  1  0.90976372  0.42402139  0.68500847  1
  Se  Se239  1  0.91564050  0.74926008  0.19719714  1
  Se  Se240  1  0.91366914  0.75969605  0.69050758  1
  Se  Se241  1  0.07917012  0.25236543  0.19815605  1
  Se  Se242  1  0.09218771  0.24542722  0.68972591  1
  Se  Se243  1  0.08429912  0.57993740  0.19291197  1
  Se  Se244  1  0.08106155  0.58085654  0.70156492  1
  Se  Se245  1  0.08290328  0.91686454  0.19865235  1
  Se  Se246  1  0.07776763  0.92172725  0.70335456  1
  Se  Se247  1  0.41556479  0.24933225  0.20088906  1
  Se  Se248  1  0.41973145  0.24965059  0.67686330  1
  Se  Se249  1  0.41945384  0.58216366  0.20041355  1
  Se  Se250  1  0.42134136  0.57290997  0.68920489  1
  Se  Se251  1  0.41431929  0.91795191  0.18125975  1
  Se  Se252  1  0.41560748  0.91951152  0.70645765  1
  Se  Se253  1  0.74963237  0.25174848  0.19266087  1
  Se  Se254  1  0.75887570  0.24606388  0.69617284  1
  Se  Se255  1  0.76125877  0.57693226  0.18614382  1
  Se  Se256  1  0.75116446  0.57791785  0.68907994  1
  Se  Se257  1  0.74670045  0.92134699  0.19272071  1
  Se  Se258  1  0.75793578  0.91425671  0.69272643  1
