# generated using pymatgen
data_In86Cu29Se144
_symmetry_space_group_name_H-M   'P 1'
_cell_length_a   17.57520552
_cell_length_b   17.58234141
_cell_length_c   23.43408325
_cell_angle_alpha   90.01623431
_cell_angle_beta   90.02209443
_cell_angle_gamma   90.00190790
_symmetry_Int_Tables_number   1
_chemical_formula_structural   In86Cu29Se144
_chemical_formula_sum   'In86 Cu29 Se144'
_cell_volume   7241.44171787
_cell_formula_units_Z   1
loop_
 _symmetry_equiv_pos_site_id
 _symmetry_equiv_pos_as_xyz
  1  'x, y, z'
loop_
 _atom_site_type_symbol
 _atom_site_label
 _atom_site_symmetry_multiplicity
 _atom_site_fract_x
 _atom_site_fract_y
 _atom_site_fract_z
 _atom_site_occupancy
  In  In0  1  0.00905238  0.17380038  0.11839814  1
  In  In1  1  0.00702776  0.17623956  0.61944886  1
  In  In2  1  0.00190076  0.48244752  0.12758380  1
  In  In3  1  -0.00455077  0.51252258  0.63477046  1
  In  In4  1  -0.00446582  0.84178454  0.12204913  1
  In  In5  1  0.00140497  0.81065786  0.62004641  1
  In  In6  1  0.33462072  0.16852499  0.12482488  1
  In  In7  1  0.32697371  0.18042271  0.63004541  1
  In  In8  1  0.32934953  0.49940296  0.12412434  1
  In  In9  1  0.31771051  0.50401071  0.64503312  1
  In  In10  1  0.34995820  0.82591485  0.13747952  1
  In  In11  1  0.32534677  0.82583251  0.61484397  1
  In  In12  1  0.67085548  0.17037541  0.11705579  1
  In  In13  1  0.66812617  0.15661459  0.62381879  1
  In  In14  1  0.65026018  0.50439940  0.12353397  1
  In  In15  1  0.68376750  0.49693670  0.62631911  1
  In  In16  1  0.65933035  0.83606863  0.11401851  1
  In  In17  1  0.65326553  0.83635892  0.62302746  1
  In  In18  1  0.17674205  -0.00373979  0.38198606  1
  In  In19  1  0.18096645  0.00890584  0.88438241  1
  In  In20  1  0.15585025  0.33169241  0.36564574  1
  In  In21  1  0.16979987  0.33234325  0.87434404  1
  In  In22  1  0.18173900  0.65988386  0.37562002  1
  In  In23  1  0.16172991  0.65038726  0.86078337  1
  In  In24  1  0.48619333  -0.00760530  0.36394541  1
  In  In25  1  0.50329673  -0.00390248  0.90385256  1
  In  In26  1  0.49479405  0.32998303  0.36339889  1
  In  In27  1  0.48833539  0.34503766  0.88964197  1
  In  In28  1  0.49065883  0.67939257  0.37673836  1
  In  In29  1  0.49552215  0.66557832  0.87210335  1
  In  In30  1  0.84728499  0.00376649  0.37209354  1
  In  In31  1  0.82384606  0.00504936  0.88613111  1
  In  In32  1  0.83539988  0.32942245  0.37258691  1
  In  In33  1  0.84129784  0.32190898  0.87369312  1
  In  In34  1  0.82440362  0.66489163  0.37834266  1
  In  In35  1  0.83938622  0.67191822  0.86981587  1
  In  In36  1  -0.00333712  0.17322590  0.37920190  1
  In  In37  1  -0.00314600  0.17913743  0.87647163  1
  In  In38  1  0.01008332  0.48554623  0.37540681  1
  In  In39  1  0.01630468  0.50336580  0.86184528  1
  In  In40  1  0.00112316  0.84675256  0.37560615  1
  In  In41  1  0.00418880  0.81530373  0.87435932  1
  In  In42  1  0.32755395  0.16371558  0.37025156  1
  In  In43  1  0.32310016  0.16894106  0.89762626  1
  In  In44  1  0.31555275  0.49574634  0.35674240  1
  In  In45  1  0.33032197  0.49833756  0.87193601  1
  In  In46  1  0.33536026  0.83172260  0.37166253  1
  In  In47  1  0.34335572  0.82952150  0.87819384  1
  In  In48  1  0.66589067  0.17720081  0.36932712  1
  In  In49  1  0.66681548  0.16417857  0.89245954  1
  In  In50  1  0.67754478  0.50042255  0.37614040  1
  In  In51  1  0.64954485  0.50380797  0.87682333  1
  In  In52  1  0.66152723  0.81894612  0.37399688  1
  In  In53  1  0.67130789  0.82939640  0.88254713  1
  In  In54  1  0.17101703  0.01726055  0.12176588  1
  In  In55  1  0.17060030  0.00071271  0.61552165  1
  In  In56  1  0.16824287  0.33682540  0.12685549  1
  In  In57  1  0.16838789  0.33298368  0.63268768  1
  In  In58  1  0.18376715  0.66784477  0.12476558  1
  In  In59  1  0.16134329  0.67106445  0.63235843  1
  In  In60  1  0.47804469  -0.01620410  0.10395511  1
  In  In61  1  0.51022373  -0.00458571  0.62498351  1
  In  In62  1  0.49652042  0.33763132  0.12529522  1
  In  In63  1  0.48565360  0.32546544  0.63134417  1
  In  In64  1  0.49282067  0.66201552  0.11673051  1
  In  In65  1  0.48920127  0.67486050  0.63182740  1
  In  In66  1  0.82185375  -0.00405629  0.10905836  1
  In  In67  1  0.82111603  0.00322659  0.61946202  1
  In  In68  1  0.84221346  0.32079733  0.13199594  1
  In  In69  1  0.84519377  0.34795869  0.61536534  1
  In  In70  1  0.82395519  0.67085291  0.12164568  1
  In  In71  1  0.84465178  0.65303395  0.63557733  1
  In  In72  1  0.49861696  0.16435772  0.50158208  1
  In  In73  1  -0.00130651  -0.00773728  0.75186693  1
  In  In74  1  0.15973817  0.50474092  0.50439944  1
  In  In75  1  0.00429875  0.66378557  0.25113344  1
  In  In76  1  0.16787861  0.83451433  0.00033978  1
  In  In77  1  0.65879453  0.00056189  0.23550350  1
  In  In78  1  0.33941104  -0.00149045  0.76397060  1
  In  In79  1  0.83679487  0.49860271  -0.00022669  1
  In  In80  1  0.66146044  0.66277068  0.24962144  1
  In  In81  1  0.49847892  0.50115404  0.50103632  1
  In  In82  1  0.00186834  0.00688035  0.24914307  1
  In  In83  1  0.66515386  -0.00238478  0.76112774  1
  In  In84  1  0.66653484  0.33517077  0.75393685  1
  In  In85  1  0.83302871  0.83382091  0.49924165  1
  Cu  Cu86  1  0.83448520  0.50337985  0.75139236  1
  Cu  Cu87  1  0.01152956  0.33329791  -0.00084900  1
  Cu  Cu88  1  0.65964023  0.67144471  -0.00216077  1
  Cu  Cu89  1  0.17020881  0.16771547  0.75460299  1
  Cu  Cu90  1  0.49416950  0.49955349  0.24478753  1
  Cu  Cu91  1  0.32507234  0.33624044  0.50394024  1
  Cu  Cu92  1  0.83472975  0.16706910  0.24572310  1
  Cu  Cu93  1  0.33724073  0.67105953  0.49753676  1
  Cu  Cu94  1  0.00161690  0.66256414  -0.00809207  1
  Cu  Cu95  1  0.66761559  0.66581475  0.50250521  1
  Cu  Cu96  1  0.17657730  0.83917754  0.25264942  1
  Cu  Cu97  1  0.83383298  0.48708662  0.25303769  1
  Cu  Cu98  1  0.16576151  0.82470359  0.74629150  1
  Cu  Cu99  1  0.67396613  0.33080323  0.49676348  1
  Cu  Cu100  1  -0.00256509  0.32954997  0.49675939  1
  Cu  Cu101  1  0.83853099  0.17387517  0.74557420  1
  Cu  Cu102  1  0.33089909  0.33551395  0.00644549  1
  Cu  Cu103  1  0.00330962  0.00628389  0.49921629  1
  Cu  Cu104  1  -0.00628803  0.00391936  -0.00052681  1
  Cu  Cu105  1  0.49923844  0.17066832  0.24179064  1
  Cu  Cu106  1  0.49462312  0.17198774  0.76356030  1
  Cu  Cu107  1  0.17057142  0.17388412  0.24634722  1
  Cu  Cu108  1  0.83158684  0.82533997  0.75433285  1
  Cu  Cu109  1  0.49857300  0.50083813  0.75550386  1
  Cu  Cu110  1  0.66898384  0.33665634  0.00225968  1
  Cu  Cu111  1  0.49797554  0.82997348  0.75110138  1
  Cu  Cu112  1  0.33670232  -0.00049792  0.49354164  1
  Cu  Cu113  1  0.33463065  0.66282240  -0.00275998  1
  Cu  Cu114  1  0.66405849  0.00207459  0.49739527  1
  Se  Se115  1  0.08300824  0.08410023  0.04891676  1
  Se  Se116  1  0.08733087  0.08884348  0.55264629  1
  Se  Se117  1  0.08926234  0.42034621  0.05254802  1
  Se  Se118  1  0.07301946  0.40961368  0.56208596  1
  Se  Se119  1  0.07653032  0.74161203  0.05941186  1
  Se  Se120  1  0.09503170  0.74723840  0.55220643  1
  Se  Se121  1  0.41730182  0.09546915  0.05044605  1
  Se  Se122  1  0.40768668  0.07697813  0.56444328  1
  Se  Se123  1  0.41708620  0.42175220  0.05455978  1
  Se  Se124  1  0.40501704  0.41640170  0.56378520  1
  Se  Se125  1  0.41119751  0.75147929  0.05176389  1
  Se  Se126  1  0.42310870  0.75218871  0.55091110  1
  Se  Se127  1  0.76350703  0.10125266  0.04841369  1
  Se  Se128  1  0.74827898  0.08724065  0.54670028  1
  Se  Se129  1  0.74920320  0.41434496  0.06524135  1
  Se  Se130  1  0.75271046  0.42070557  0.54743928  1
  Se  Se131  1  0.74780481  0.75080383  0.04998677  1
  Se  Se132  1  0.74775685  0.74589197  0.56453528  1
  Se  Se133  1  0.24631705  0.25044195  0.05723485  1
  Se  Se134  1  0.24353635  0.25106990  0.55640109  1
  Se  Se135  1  0.24911546  0.58176832  0.05011614  1
  Se  Se136  1  0.26121309  0.58828641  0.55986413  1
  Se  Se137  1  0.25290521  0.91160618  0.07001756  1
  Se  Se138  1  0.25142215  0.91679461  0.54766756  1
  Se  Se139  1  0.58239178  0.25745321  0.05542910  1
  Se  Se140  1  0.58924119  0.25988615  0.56083183  1
  Se  Se141  1  0.57900215  0.58274301  0.04758391  1
  Se  Se142  1  0.58798538  0.58688247  0.56480024  1
  Se  Se143  1  0.59123668  0.92871519  0.04662528  1
  Se  Se144  1  0.58052141  0.91695859  0.54764444  1
  Se  Se145  1  0.92145210  0.25573544  0.05190746  1
  Se  Se146  1  0.91262178  0.24694276  0.55176216  1
  Se  Se147  1  0.92592747  0.58860573  0.06140500  1
  Se  Se148  1  0.92065865  0.58604503  0.55760143  1
  Se  Se149  1  0.91440028  0.91252822  0.04733726  1
  Se  Se150  1  0.92528739  0.92339658  0.56150019  1
  Se  Se151  1  0.08783239  0.25243452  0.44446864  1
  Se  Se152  1  0.09097195  0.24564884  0.94577639  1
  Se  Se153  1  0.07505462  0.59338748  0.43948520  1
  Se  Se154  1  0.08623871  0.58024768  0.94111411  1
  Se  Se155  1  0.08447593  0.91953280  0.44785177  1
  Se  Se156  1  0.07427549  0.92290076  0.93798671  1
  Se  Se157  1  0.41080550  0.25957013  0.44438359  1
  Se  Se158  1  0.41872323  0.25097210  0.95681921  1
  Se  Se159  1  0.40425484  0.58000218  0.43637754  1
  Se  Se160  1  0.41625436  0.57988332  0.94137630  1
  Se  Se161  1  0.41977993  0.91455557  0.44308441  1
  Se  Se162  1  0.39928887  0.91754736  0.95376298  1
  Se  Se163  1  0.75259487  0.24492519  0.44285472  1
  Se  Se164  1  0.75514843  0.25699748  0.94879186  1
  Se  Se165  1  0.75054430  0.58165024  0.45107685  1
  Se  Se166  1  0.74508113  0.58924160  0.94077631  1
  Se  Se167  1  0.74389671  0.92275548  0.43506909  1
  Se  Se168  1  0.74034219  0.92238581  0.95005182  1
  Se  Se169  1  0.25279415  0.08970756  0.44822510  1
  Se  Se170  1  0.25796078  0.07018608  0.96383231  1
  Se  Se171  1  0.24939678  0.41602594  0.44096509  1
  Se  Se172  1  0.25215316  0.41475624  0.94435776  1
  Se  Se173  1  0.25178055  0.75221459  0.44400962  1
  Se  Se174  1  0.24730373  0.73863209  0.93701090  1
  Se  Se175  1  0.58331718  0.07876005  0.43398025  1
  Se  Se176  1  0.58660142  0.08685252  0.96254938  1
  Se  Se177  1  0.58455063  0.40681643  0.43995254  1
  Se  Se178  1  0.58343160  0.42200742  0.95324454  1
  Se  Se179  1  0.58253082  0.74596451  0.44927422  1
  Se  Se180  1  0.57432571  0.75125352  0.94312772  1
  Se  Se181  1  0.91562905  0.08584742  0.44720113  1
  Se  Se182  1  0.91689705  0.09065001  0.94338560  1
  Se  Se183  1  0.91682783  0.41434318  0.44243521  1
  Se  Se184  1  0.92842445  0.41316824  0.93847871  1
  Se  Se185  1  0.92374786  0.74608079  0.43948282  1
  Se  Se186  1  0.91449880  0.74907150  0.94718710  1
  Se  Se187  1  0.25271424  0.25492314  0.30345062  1
  Se  Se188  1  0.25746380  0.23949966  0.81347471  1
  Se  Se189  1  0.24738152  0.59261400  0.29291647  1
  Se  Se190  1  0.25724063  0.58046290  0.79717372  1
  Se  Se191  1  0.25630372  0.92554956  0.30575025  1
  Se  Se192  1  0.23759746  0.90542468  0.81170148  1
  Se  Se193  1  0.58344375  0.25094980  0.29693178  1
  Se  Se194  1  0.58137921  0.24880733  0.81988951  1
  Se  Se195  1  0.57175245  0.57450078  0.31313026  1
  Se  Se196  1  0.58428228  0.58786918  0.80118853  1
  Se  Se197  1  0.58135410  0.90620757  0.30344752  1
  Se  Se198  1  0.56773141  0.91338195  0.81658580  1
  Se  Se199  1  0.91860107  0.24659084  0.30263069  1
  Se  Se200  1  0.92432947  0.25434275  0.79706858  1
  Se  Se201  1  0.90894923  0.57527198  0.31071300  1
  Se  Se202  1  0.92059644  0.58627831  0.80293597  1
  Se  Se203  1  0.90777167  0.90756268  0.29865168  1
  Se  Se204  1  0.90556184  0.91023854  0.81544846  1
  Se  Se205  1  0.09335722  0.09197599  0.31056577  1
  Se  Se206  1  0.09028536  0.08291843  0.81101110  1
  Se  Se207  1  0.09377594  0.42927541  0.29747584  1
  Se  Se208  1  0.07767384  0.39779658  0.80256842  1
  Se  Se209  1  0.09077434  0.76106244  0.31011027  1
  Se  Se210  1  0.07891049  0.74273536  0.79732595  1
  Se  Se211  1  0.41842405  0.09114293  0.30092898  1
  Se  Se212  1  0.42637821  0.08628933  0.82644329  1
  Se  Se213  1  0.41146423  0.41467879  0.29815499  1
  Se  Se214  1  0.41958396  0.41226820  0.80637638  1
  Se  Se215  1  0.41598016  0.75032083  0.30072040  1
  Se  Se216  1  0.41119482  0.74776133  0.80161895  1
  Se  Se217  1  0.75383139  0.08341531  0.30326456  1
  Se  Se218  1  0.75652647  0.09910914  0.80850233  1
  Se  Se219  1  0.74458395  0.40981609  0.30555987  1
  Se  Se220  1  0.75646686  0.42542030  0.81508499  1
  Se  Se221  1  0.75949569  0.75549994  0.30223089  1
  Se  Se222  1  0.74240324  0.74787590  0.80646717  1
  Se  Se223  1  0.25281366  0.08583836  0.19743130  1
  Se  Se224  1  0.24744034  0.08110516  0.69654720  1
  Se  Se225  1  0.25211122  0.41682386  0.19548120  1
  Se  Se226  1  0.26256285  0.39498774  0.70355003  1
  Se  Se227  1  0.25356665  0.75001541  0.19998700  1
  Se  Se228  1  0.25813490  0.74962056  0.69473275  1
  Se  Se229  1  0.56935707  0.08905119  0.17728837  1
  Se  Se230  1  0.57319266  0.09303645  0.70058569  1
  Se  Se231  1  0.58348604  0.41759614  0.19675576  1
  Se  Se232  1  0.57564988  0.42227749  0.68986468  1
  Se  Se233  1  0.57759544  0.75217951  0.18666994  1
  Se  Se234  1  0.58462873  0.75157543  0.69673796  1
  Se  Se235  1  0.90968658  0.08517344  0.18291053  1
  Se  Se236  1  0.91135930  0.08349627  0.68894522  1
  Se  Se237  1  0.92096467  0.40787306  0.20080703  1
  Se  Se238  1  0.91445177  0.41762175  0.69717150  1
  Se  Se239  1  0.91240993  0.75355168  0.19096931  1
  Se  Se240  1  0.91983453  0.74924934  0.69980057  1
  Se  Se241  1  0.08096166  0.25217276  0.19491284  1
  Se  Se242  1  0.08448920  0.24439110  0.69837122  1
  Se  Se243  1  0.08980876  0.57927394  0.18645242  1
  Se  Se244  1  0.10592227  0.56471848  0.69508207  1
  Se  Se245  1  0.09350854  0.91354190  0.19049009  1
  Se  Se246  1  0.09006874  0.91005873  0.68696528  1
  Se  Se247  1  0.41218586  0.25646150  0.19448605  1
  Se  Se248  1  0.41071505  0.24827569  0.70656909  1
  Se  Se249  1  0.41497698  0.58580148  0.19157276  1
  Se  Se250  1  0.41680187  0.58460799  0.70042882  1
  Se  Se251  1  0.42551930  0.92534908  0.19598452  1
  Se  Se252  1  0.41960145  0.91326364  0.69115984  1
  Se  Se253  1  0.74514648  0.24788079  0.19586330  1
  Se  Se254  1  0.75336189  0.24980016  0.68636130  1
  Se  Se255  1  0.75801357  0.57101701  0.19217094  1
  Se  Se256  1  0.74597135  0.58483258  0.70161950  1
  Se  Se257  1  0.75589886  0.90686798  0.18657259  1
  Se  Se258  1  0.75464968  0.91060961  0.69495732  1
