# generated using pymatgen
data_In86Cu29Se144
_symmetry_space_group_name_H-M   'P 1'
_cell_length_a   17.57843845
_cell_length_b   17.57809071
_cell_length_c   23.43840443
_cell_angle_alpha   90.02341332
_cell_angle_beta   90.01463985
_cell_angle_gamma   90.00837739
_symmetry_Int_Tables_number   1
_chemical_formula_structural   In86Cu29Se144
_chemical_formula_sum   'In86 Cu29 Se144'
_cell_volume   7242.35789573
_cell_formula_units_Z   1
loop_
 _symmetry_equiv_pos_site_id
 _symmetry_equiv_pos_as_xyz
  1  'x, y, z'
loop_
 _atom_site_type_symbol
 _atom_site_label
 _atom_site_symmetry_multiplicity
 _atom_site_fract_x
 _atom_site_fract_y
 _atom_site_fract_z
 _atom_site_occupancy
  In  In0  1  -0.00018149  0.16975673  0.12971082  1
  In  In1  1  0.00515778  0.15613479  0.62952601  1
  In  In2  1  -0.01413471  0.48460254  0.10292229  1
  In  In3  1  0.00070583  0.48350188  0.62671335  1
  In  In4  1  -0.00406437  0.84491958  0.13351075  1
  In  In5  1  0.01303794  0.84648664  0.61432281  1
  In  In6  1  0.33071952  0.18353445  0.12351597  1
  In  In7  1  0.32286336  0.18217763  0.62946335  1
  In  In8  1  0.32531400  0.50122306  0.11446181  1
  In  In9  1  0.32647329  0.51202549  0.63883266  1
  In  In10  1  0.33300726  0.81293935  0.12388996  1
  In  In11  1  0.29683631  0.85872097  0.66084353  1
  In  In12  1  0.67591425  0.16745429  0.14033726  1
  In  In13  1  0.67550735  0.17235875  0.62391773  1
  In  In14  1  0.66456871  0.50298612  0.13411207  1
  In  In15  1  0.65966127  0.50400283  0.62553908  1
  In  In16  1  0.65793197  0.83985598  0.13459621  1
  In  In17  1  0.66617776  0.83155798  0.61419860  1
  In  In18  1  0.16169398  0.00826265  0.38620423  1
  In  In19  1  0.17668195  0.00369230  0.86768119  1
  In  In20  1  0.16824617  0.33290701  0.37177074  1
  In  In21  1  0.16326735  0.32509280  0.87584432  1
  In  In22  1  0.17668250  0.65664346  0.38162860  1
  In  In23  1  0.16585162  0.65454121  0.87306892  1
  In  In24  1  0.51081047  -0.01167631  0.37584721  1
  In  In25  1  0.48262467  0.00796250  0.87826885  1
  In  In26  1  0.50652029  0.34137369  0.36622294  1
  In  In27  1  0.50678642  0.34056155  0.87355622  1
  In  In28  1  0.49559110  0.66790420  0.36496110  1
  In  In29  1  0.48194016  0.67429549  0.89921700  1
  In  In30  1  0.83214472  -0.01012053  0.35736535  1
  In  In31  1  0.84449891  -0.00590289  0.87331319  1
  In  In32  1  0.84002991  0.33629831  0.35093697  1
  In  In33  1  0.83994603  0.34131494  0.87512744  1
  In  In34  1  0.83607442  0.68034988  0.36643166  1
  In  In35  1  0.82665999  0.66149683  0.88015456  1
  In  In36  1  0.00778845  0.17475028  0.36353201  1
  In  In37  1  0.01451813  0.18303293  0.86907363  1
  In  In38  1  0.01714871  0.50079208  0.37106921  1
  In  In39  1  0.02605818  0.46907815  0.90507913  1
  In  In40  1  -0.00592428  0.84096475  0.38204798  1
  In  In41  1  0.01006286  0.84309360  0.86308865  1
  In  In42  1  0.31992879  0.16821844  0.37711529  1
  In  In43  1  0.31603027  0.15889926  0.86986423  1
  In  In44  1  0.32766416  0.49557605  0.36729215  1
  In  In45  1  0.33686353  0.49637671  0.87392936  1
  In  In46  1  0.33717911  0.82087062  0.37712527  1
  In  In47  1  0.33585144  0.83849449  0.87094431  1
  In  In48  1  0.67786486  0.16490161  0.36388081  1
  In  In49  1  0.65138290  0.17327729  0.87811232  1
  In  In50  1  0.67360117  0.50142133  0.35434403  1
  In  In51  1  0.66828154  0.49229339  0.88614802  1
  In  In52  1  0.69458884  0.84617165  0.34042101  1
  In  In53  1  0.66539692  0.81464155  0.87579562  1
  In  In54  1  0.15191780  0.00569987  0.12655334  1
  In  In55  1  0.15950554  0.00454878  0.62302359  1
  In  In56  1  0.16576968  0.33922602  0.11837657  1
  In  In57  1  0.16375251  0.33413601  0.62286086  1
  In  In58  1  0.18059697  0.65895689  0.12656710  1
  In  In59  1  0.17142534  0.66974716  0.61993383  1
  In  In60  1  0.51086395  0.00063292  0.12449031  1
  In  In61  1  0.49435004  -0.01554755  0.62476541  1
  In  In62  1  0.48592766  0.34368720  0.12864265  1
  In  In63  1  0.50308904  0.33434989  0.63294082  1
  In  In64  1  0.49220629  0.66279180  0.11714596  1
  In  In65  1  0.49453619  0.66329656  0.62564605  1
  In  In66  1  0.83038574  0.00711173  0.15144934  1
  In  In67  1  0.84478758  0.00657873  0.61892589  1
  In  In68  1  0.83207253  0.34267154  0.14033926  1
  In  In69  1  0.83594033  0.32706284  0.63521176  1
  In  In70  1  0.83557745  0.64759356  0.13417513  1
  In  In71  1  0.82207047  0.67605682  0.61725522  1
  In  In72  1  0.16623958  0.82936525  -0.00167351  1
  In  In73  1  0.66229025  0.00682734  0.74713351  1
  In  In74  1  0.49662094  0.49974382  0.50329075  1
  In  In75  1  0.83739622  0.16231494  0.49119684  1
  In  In76  1  -0.00148708  0.66397692  0.75502634  1
  In  In77  1  0.49719395  0.16993277  0.00558863  1
  In  In78  1  0.49671128  0.82744467  0.50079476  1
  In  In79  1  0.83339345  0.17404180  0.01499166  1
  In  In80  1  0.00423819  0.66097702  0.24831667  1
  In  In81  1  0.33486235  -0.00124706  0.26070817  1
  In  In82  1  0.66419752  0.65991431  0.74843576  1
  In  In83  1  0.83523758  0.82840753  0.01102036  1
  In  In84  1  0.84297270  0.50027348  0.49338887  1
  In  In85  1  0.49838418  0.16554828  0.48908456  1
  Cu  Cu86  1  0.16126431  0.16970885  0.74702126  1
  Cu  Cu87  1  0.00280247  0.66676240  0.49460417  1
  Cu  Cu88  1  0.66985201  -0.01341483  0.00590485  1
  Cu  Cu89  1  0.32802289  0.00265546  0.51076251  1
  Cu  Cu90  1  0.32835004  0.66756154  0.50604816  1
  Cu  Cu91  1  0.32156166  0.34092265  0.49976461  1
  Cu  Cu92  1  -0.00160686  0.01482377  0.00157798  1
  Cu  Cu93  1  0.50612626  0.49657435  0.75666606  1
  Cu  Cu94  1  0.49303410  0.82737950  0.24707069  1
  Cu  Cu95  1  0.50272016  0.16831207  0.24768484  1
  Cu  Cu96  1  0.17136185  0.17268586  0.24848374  1
  Cu  Cu97  1  0.83797364  0.49365227  0.76015189  1
  Cu  Cu98  1  0.67405634  0.33657652  0.49748023  1
  Cu  Cu99  1  0.16839179  0.49250619  0.24449136  1
  Cu  Cu100  1  0.66209940  0.66048422  0.00613579  1
  Cu  Cu101  1  0.67197932  0.33528594  0.01184571  1
  Cu  Cu102  1  0.84393669  0.84121970  0.74276519  1
  Cu  Cu103  1  0.49701725  0.83361924  0.75885361  1
  Cu  Cu104  1  0.16216849  0.83000264  0.25228396  1
  Cu  Cu105  1  0.32780539  -0.00611115  -0.00214381  1
  Cu  Cu106  1  0.49085201  0.49728446  0.24115644  1
  Cu  Cu107  1  0.49312609  0.17161614  0.75417311  1
  Cu  Cu108  1  -0.00010984  -0.00311191  0.49798599  1
  Cu  Cu109  1  0.00741986  0.32505251  0.49569314  1
  Cu  Cu110  1  -0.00276444  0.67530747  0.00220019  1
  Cu  Cu111  1  0.82872515  0.17223700  0.75238096  1
  Cu  Cu112  1  0.67147090  0.68171962  0.48576283  1
  Cu  Cu113  1  0.32765198  0.33175891  -0.00469911  1
  Cu  Cu114  1  0.16375261  0.49104979  0.75730225  1
  Se  Se115  1  0.08430869  0.09435173  0.05439409  1
  Se  Se116  1  0.07893325  0.08565680  0.55010392  1
  Se  Se117  1  0.10092414  0.43460225  0.04762233  1
  Se  Se118  1  0.08217810  0.41599100  0.55010255  1
  Se  Se119  1  0.07507642  0.75011982  0.06662010  1
  Se  Se120  1  0.08517720  0.74809867  0.55156024  1
  Se  Se121  1  0.40481692  0.07468214  0.06209859  1
  Se  Se122  1  0.41507968  0.08432713  0.56227608  1
  Se  Se123  1  0.41275365  0.41300825  0.04884690  1
  Se  Se124  1  0.40777482  0.41084230  0.56375180  1
  Se  Se125  1  0.41418729  0.74983267  0.04763449  1
  Se  Se126  1  0.40410916  0.75147171  0.56640772  1
  Se  Se127  1  0.74545558  0.06996046  0.06568887  1
  Se  Se128  1  0.74222636  0.07783721  0.55279528  1
  Se  Se129  1  0.75165244  0.41926777  0.06646403  1
  Se  Se130  1  0.75059150  0.41589686  0.56064065  1
  Se  Se131  1  0.74261457  0.74015855  0.06755970  1
  Se  Se132  1  0.75419909  0.76141598  0.54217055  1
  Se  Se133  1  0.24546836  0.24871001  0.04916616  1
  Se  Se134  1  0.24462278  0.25042478  0.55094094  1
  Se  Se135  1  0.25369261  0.59433984  0.04630565  1
  Se  Se136  1  0.25093807  0.57521787  0.55606702  1
  Se  Se137  1  0.25047805  0.92038986  0.06497935  1
  Se  Se138  1  0.25165617  0.91456362  0.56411548  1
  Se  Se139  1  0.59079063  0.25160840  0.06880428  1
  Se  Se140  1  0.58830278  0.25839226  0.55331154  1
  Se  Se141  1  0.58166065  0.57348853  0.05758240  1
  Se  Se142  1  0.59510085  0.60124116  0.55094409  1
  Se  Se143  1  0.57946178  0.90838614  0.05464918  1
  Se  Se144  1  0.59108430  0.92931105  0.54927228  1
  Se  Se145  1  0.92513344  0.26932829  0.06365948  1
  Se  Se146  1  0.91970783  0.25363432  0.55728516  1
  Se  Se147  1  0.90959618  0.59015983  0.04868261  1
  Se  Se148  1  0.92455986  0.59046753  0.56151248  1
  Se  Se149  1  0.91676912  0.93473147  0.06214970  1
  Se  Se150  1  0.91244026  0.91499460  0.54937228  1
  Se  Se151  1  0.08877707  0.24366569  0.44083493  1
  Se  Se152  1  0.07562499  0.25669237  0.95024704  1
  Se  Se153  1  0.08631621  0.57809624  0.44903871  1
  Se  Se154  1  0.08194512  0.59236472  0.95061347  1
  Se  Se155  1  0.08829208  0.91165491  0.45000474  1
  Se  Se156  1  0.07543194  0.92727688  0.94362442  1
  Se  Se157  1  0.40954315  0.26752374  0.43914940  1
  Se  Se158  1  0.41054539  0.24958719  0.93671219  1
  Se  Se159  1  0.40955751  0.59097742  0.44224838  1
  Se  Se160  1  0.43197191  0.55523114  0.94762262  1
  Se  Se161  1  0.40565062  0.92667440  0.44459171  1
  Se  Se162  1  0.41614475  0.91446645  0.94723626  1
  Se  Se163  1  0.75335991  0.26245378  0.43433790  1
  Se  Se164  1  0.74166709  0.25319783  0.94608096  1
  Se  Se165  1  0.74503305  0.58520620  0.43511010  1
  Se  Se166  1  0.74889143  0.58294753  0.95145982  1
  Se  Se167  1  0.75181753  0.91007773  0.42848688  1
  Se  Se168  1  0.74798311  0.91525842  0.93995423  1
  Se  Se169  1  0.25103639  0.08683788  0.45325791  1
  Se  Se170  1  0.24529413  0.08029382  0.94758844  1
  Se  Se171  1  0.24453506  0.42348796  0.44181696  1
  Se  Se172  1  0.24704862  0.41496055  0.94014217  1
  Se  Se173  1  0.24920617  0.75162460  0.44919917  1
  Se  Se174  1  0.25580792  0.74264993  0.93839163  1
  Se  Se175  1  0.59866575  0.07791642  0.43886184  1
  Se  Se176  1  0.58902405  0.07182518  0.94876708  1
  Se  Se177  1  0.59443029  0.42057807  0.43981633  1
  Se  Se178  1  0.58383741  0.40821536  0.95375449  1
  Se  Se179  1  0.58468898  0.75548791  0.42838341  1
  Se  Se180  1  0.58575640  0.75123393  0.95406207  1
  Se  Se181  1  0.92615514  0.07435201  0.43070885  1
  Se  Se182  1  0.91403617  0.08946538  0.94184731  1
  Se  Se183  1  0.92493898  0.40291422  0.43457523  1
  Se  Se184  1  0.90086713  0.42695239  0.95136423  1
  Se  Se185  1  0.91418829  0.74710767  0.44541440  1
  Se  Se186  1  0.92547502  0.75551646  0.93652000  1
  Se  Se187  1  0.25664351  0.25422571  0.30150082  1
  Se  Se188  1  0.24654303  0.25118362  0.80075556  1
  Se  Se189  1  0.24490644  0.58121270  0.30055273  1
  Se  Se190  1  0.25032136  0.57646487  0.80389600  1
  Se  Se191  1  0.24137237  0.90869417  0.31598769  1
  Se  Se192  1  0.24953182  0.91212160  0.80073899  1
  Se  Se193  1  0.58667685  0.25018407  0.30353566  1
  Se  Se194  1  0.58304971  0.25260626  0.80198766  1
  Se  Se195  1  0.57165672  0.57819925  0.29882644  1
  Se  Se196  1  0.58034890  0.58166916  0.81853925  1
  Se  Se197  1  0.57765368  0.91546978  0.29546803  1
  Se  Se198  1  0.58242229  0.91397524  0.81492839  1
  Se  Se199  1  0.92044720  0.24336777  0.29231768  1
  Se  Se200  1  0.91429511  0.25251832  0.80566623  1
  Se  Se201  1  0.91249005  0.57309630  0.31002417  1
  Se  Se202  1  0.91682544  0.57409670  0.81938582  1
  Se  Se203  1  0.92685103  0.90735829  0.29903861  1
  Se  Se204  1  0.92459505  0.92553735  0.79600069  1
  Se  Se205  1  0.09704930  0.08366647  0.30450451  1
  Se  Se206  1  0.08352121  0.08439573  0.80465056  1
  Se  Se207  1  0.08422313  0.41180481  0.29924787  1
  Se  Se208  1  0.07591933  0.41325956  0.81031219  1
  Se  Se209  1  0.08805916  0.74824116  0.31546651  1
  Se  Se210  1  0.09995938  0.75595549  0.80226885  1
  Se  Se211  1  0.42867386  0.09283831  0.31648902  1
  Se  Se212  1  0.41016498  0.08414689  0.80247007  1
  Se  Se213  1  0.41310780  0.41398103  0.30063180  1
  Se  Se214  1  0.41716188  0.41162863  0.80265708  1
  Se  Se215  1  0.40599453  0.74571494  0.29752334  1
  Se  Se216  1  0.42228138  0.74409320  0.81194446  1
  Se  Se217  1  0.75523253  0.08329219  0.29451758  1
  Se  Se218  1  0.75191864  0.09009510  0.81457332  1
  Se  Se219  1  0.74452854  0.40909591  0.28939431  1
  Se  Se220  1  0.74448767  0.41597653  0.80913342  1
  Se  Se221  1  0.73162392  0.71787564  0.29408335  1
  Se  Se222  1  0.76376321  0.75561442  0.80088643  1
  Se  Se223  1  0.25191906  0.08565451  0.19200394  1
  Se  Se224  1  0.24463423  0.08791059  0.69178436  1
  Se  Se225  1  0.25490896  0.41441545  0.18929723  1
  Se  Se226  1  0.24524251  0.41436767  0.69585690  1
  Se  Se227  1  0.24683731  0.74853093  0.19997528  1
  Se  Se228  1  0.26345886  0.72500360  0.69529923  1
  Se  Se229  1  0.58408679  0.08035865  0.19869370  1
  Se  Se230  1  0.56967039  0.09499424  0.68621957  1
  Se  Se231  1  0.58088885  0.41113601  0.19693306  1
  Se  Se232  1  0.58919709  0.41932491  0.69773578  1
  Se  Se233  1  0.57253917  0.74457035  0.19089179  1
  Se  Se234  1  0.57766062  0.76185016  0.69222920  1
  Se  Se235  1  0.94033921  0.07369723  0.20155251  1
  Se  Se236  1  0.90823237  0.08778818  0.69716434  1
  Se  Se237  1  0.92882154  0.42882354  0.19449395  1
  Se  Se238  1  0.91800398  0.41303940  0.70147211  1
  Se  Se239  1  0.90845938  0.75439775  0.19499593  1
  Se  Se240  1  0.91591711  0.75262271  0.68486611  1
  Se  Se241  1  0.09051989  0.25404464  0.19180099  1
  Se  Se242  1  0.07821995  0.25322807  0.69255036  1
  Se  Se243  1  0.08589308  0.57054542  0.18400790  1
  Se  Se244  1  0.08647349  0.57343748  0.69295221  1
  Se  Se245  1  0.08520515  0.91971820  0.20191607  1
  Se  Se246  1  0.08142488  0.91891527  0.69293921  1
  Se  Se247  1  0.41594591  0.24985770  0.19803646  1
  Se  Se248  1  0.41325459  0.25595091  0.69810699  1
  Se  Se249  1  0.40884472  0.58072316  0.18737437  1
  Se  Se250  1  0.42634493  0.58300006  0.70210866  1
  Se  Se251  1  0.41541956  0.91466032  0.18920631  1
  Se  Se252  1  0.41801848  0.92144359  0.70568608  1
  Se  Se253  1  0.77517915  0.23399463  0.20234753  1
  Se  Se254  1  0.74125261  0.25367845  0.70103327  1
  Se  Se255  1  0.74000691  0.59143192  0.20571029  1
  Se  Se256  1  0.76490184  0.57311543  0.69235976  1
  Se  Se257  1  0.75135473  0.90575370  0.20391149  1
  Se  Se258  1  0.75165433  0.91367478  0.68732594  1
