# generated using pymatgen
data_In86Cu29Se144
_symmetry_space_group_name_H-M   'P 1'
_cell_length_a   17.58728325
_cell_length_b   17.58653041
_cell_length_c   23.45107817
_cell_angle_alpha   90.00180042
_cell_angle_beta   89.99119024
_cell_angle_gamma   90.02978885
_symmetry_Int_Tables_number   1
_chemical_formula_structural   In86Cu29Se144
_chemical_formula_sum   'In86 Cu29 Se144'
_cell_volume   7253.40079721
_cell_formula_units_Z   1
loop_
 _symmetry_equiv_pos_site_id
 _symmetry_equiv_pos_as_xyz
  1  'x, y, z'
loop_
 _atom_site_type_symbol
 _atom_site_label
 _atom_site_symmetry_multiplicity
 _atom_site_fract_x
 _atom_site_fract_y
 _atom_site_fract_z
 _atom_site_occupancy
  In  In0  1  -0.00468061  0.16160686  0.12052491  1
  In  In1  1  0.00277311  0.17682973  0.61322657  1
  In  In2  1  0.01080197  0.51253635  0.12162973  1
  In  In3  1  0.01544105  0.50045093  0.62514158  1
  In  In4  1  -0.00051907  0.83490406  0.12926135  1
  In  In5  1  -0.01273897  0.83577182  0.62210774  1
  In  In6  1  0.34529355  0.17490583  0.10775603  1
  In  In7  1  0.32373672  0.18265672  0.63364969  1
  In  In8  1  0.33276687  0.49539909  0.12643915  1
  In  In9  1  0.32850776  0.49297303  0.61820597  1
  In  In10  1  0.32189556  0.83272316  0.12316670  1
  In  In11  1  0.34696907  0.82874150  0.63275173  1
  In  In12  1  0.66350801  0.17101207  0.11548451  1
  In  In13  1  0.67992260  0.17207911  0.62870093  1
  In  In14  1  0.66705135  0.50096325  0.12036929  1
  In  In15  1  0.65227717  0.51708385  0.63804380  1
  In  In16  1  0.66512347  0.81239559  0.12206070  1
  In  In17  1  0.67344882  0.81738118  0.62603453  1
  In  In18  1  0.16508444  0.01693098  0.37359395  1
  In  In19  1  0.18687369  0.00389154  0.87484736  1
  In  In20  1  0.16872946  0.33026113  0.37417284  1
  In  In21  1  0.17300716  0.32571336  0.88171346  1
  In  In22  1  0.16025641  0.65378442  0.36313760  1
  In  In23  1  0.15232888  0.66752591  0.87437027  1
  In  In24  1  0.48750814  -0.00045375  0.37451771  1
  In  In25  1  0.49011559  0.01741732  0.88338634  1
  In  In26  1  0.49606044  0.36195574  0.37172864  1
  In  In27  1  0.49872257  0.34379739  0.86641269  1
  In  In28  1  0.48719292  0.64406525  0.35776980  1
  In  In29  1  0.50278831  0.63991643  0.87406723  1
  In  In30  1  0.84354536  -0.01030305  0.37826581  1
  In  In31  1  0.83396869  -0.00243559  0.88577542  1
  In  In32  1  0.82758943  0.32825633  0.38175757  1
  In  In33  1  0.82146052  0.34607642  0.88447990  1
  In  In34  1  0.83801416  0.66826922  0.36985567  1
  In  In35  1  0.83360070  0.66697506  0.87514134  1
  In  In36  1  0.01021811  0.16141973  0.37647980  1
  In  In37  1  0.00108657  0.16616616  0.88539340  1
  In  In38  1  0.00041049  0.50683628  0.37169525  1
  In  In39  1  -0.00902321  0.50779700  0.88346642  1
  In  In40  1  -0.01089630  0.82472951  0.36798435  1
  In  In41  1  0.00389890  0.81602175  0.87483830  1
  In  In42  1  0.31409829  0.17132396  0.37754050  1
  In  In43  1  0.33177197  0.17455758  0.87539461  1
  In  In44  1  0.32887993  0.49560810  0.36981194  1
  In  In45  1  0.34879062  0.48430029  0.88619986  1
  In  In46  1  0.34517502  0.82343992  0.37668870  1
  In  In47  1  0.31670879  0.83697393  0.87033642  1
  In  In48  1  0.66767911  0.18217260  0.37764745  1
  In  In49  1  0.65417413  0.18047873  0.88313138  1
  In  In50  1  0.65654576  0.50243973  0.37761015  1
  In  In51  1  0.66575073  0.50615796  0.86780230  1
  In  In52  1  0.68188452  0.82251270  0.38041345  1
  In  In53  1  0.68031377  0.83341261  0.87626777  1
  In  In54  1  0.15760314  -0.00496007  0.12239508  1
  In  In55  1  0.16175546  0.01442503  0.62821137  1
  In  In56  1  0.18280421  0.34884756  0.11833055  1
  In  In57  1  0.17292276  0.34525401  0.61422792  1
  In  In58  1  0.18061825  0.64728503  0.14255753  1
  In  In59  1  0.17538406  0.64741138  0.62654158  1
  In  In60  1  0.48794698  0.01321339  0.11867632  1
  In  In61  1  0.49524657  -0.01101484  0.63179336  1
  In  In62  1  0.49496737  0.33439053  0.11998352  1
  In  In63  1  0.48580144  0.35408500  0.64189177  1
  In  In64  1  0.50667528  0.64902414  0.13707914  1
  In  In65  1  0.51531063  0.66096175  0.62826505  1
  In  In66  1  0.84220091  0.00330688  0.11816551  1
  In  In67  1  0.84413759  0.00499446  0.61797524  1
  In  In68  1  0.82955399  0.33284072  0.11606223  1
  In  In69  1  0.83017639  0.32449226  0.62904024  1
  In  In70  1  0.83387048  0.66425900  0.12245897  1
  In  In71  1  0.82442447  0.67650853  0.62581591  1
  In  In72  1  0.00327115  -0.00353885  0.74764209  1
  In  In73  1  0.50309062  0.16866569  0.50284428  1
  In  In74  1  0.50075459  0.83148604  -0.00200553  1
  In  In75  1  0.66227546  0.33946801  0.24382199  1
  In  In76  1  0.84020959  0.49309063  0.49778453  1
  In  In77  1  0.16099184  0.83362950  0.00135659  1
  In  In78  1  0.33299240  0.66415931  0.75480915  1
  In  In79  1  0.16438709  0.83213267  0.50101783  1
  In  In80  1  0.32409618  -0.00274874  0.24438737  1
  In  In81  1  0.00595932  0.33870113  0.25021935  1
  In  In82  1  0.00018814  0.33597667  0.74894291  1
  In  In83  1  0.51004974  0.82127368  0.50695052  1
  In  In84  1  0.66490289  0.00184293  0.75224721  1
  In  In85  1  0.66976102  -0.00527577  0.25238643  1
  Cu  Cu86  1  -0.00084988  -0.00053188  0.00174875  1
  Cu  Cu87  1  0.00068129  0.33267951  0.00403128  1
  Cu  Cu88  1  0.49579924  0.17033023  0.75740172  1
  Cu  Cu89  1  0.67003544  0.65772201  -0.00052035  1
  Cu  Cu90  1  0.83388042  0.82904268  0.24807171  1
  Cu  Cu91  1  0.32905143  0.00353126  0.50694652  1
  Cu  Cu92  1  0.33208003  0.65048434  0.49442958  1
  Cu  Cu93  1  0.16357109  0.16864178  0.24712539  1
  Cu  Cu94  1  0.49297391  0.17299122  0.24253018  1
  Cu  Cu95  1  0.49976508  0.83592467  0.75529161  1
  Cu  Cu96  1  0.17044173  0.49596936  0.75142479  1
  Cu  Cu97  1  0.33701560  0.33490464  0.49889808  1
  Cu  Cu98  1  0.50537228  0.82725184  0.24930543  1
  Cu  Cu99  1  0.33521981  0.33668651  -0.00351092  1
  Cu  Cu100  1  -0.00226839  0.66685578  0.00296532  1
  Cu  Cu101  1  0.84003853  0.15872485  0.24776182  1
  Cu  Cu102  1  0.83242621  0.82649497  0.74915373  1
  Cu  Cu103  1  -0.00178196  0.00255817  0.49720334  1
  Cu  Cu104  1  0.66845963  0.33354071  0.50568035  1
  Cu  Cu105  1  0.83275446  0.16921794  0.75582767  1
  Cu  Cu106  1  0.83511152  0.50875899  0.75664683  1
  Cu  Cu107  1  0.33342072  0.65897630  0.00717074  1
  Cu  Cu108  1  0.67024746  -0.00127803  0.00076176  1
  Cu  Cu109  1  0.66107458  0.33713444  -0.00347195  1
  Cu  Cu110  1  0.16066817  0.83394410  0.25156348  1
  Cu  Cu111  1  0.67649412  0.00369570  0.50002610  1
  Cu  Cu112  1  0.00092317  0.66569668  0.49343293  1
  Cu  Cu113  1  0.83244501  0.50432192  0.24621869  1
  Cu  Cu114  1  0.17501254  0.17091169  0.75235749  1
  Se  Se115  1  0.08423645  0.08277940  0.05256770  1
  Se  Se116  1  0.08340701  0.08343374  0.55116273  1
  Se  Se117  1  0.08347300  0.41919957  0.05477199  1
  Se  Se118  1  0.07100766  0.40867555  0.55189905  1
  Se  Se119  1  0.08426059  0.73904182  0.06544037  1
  Se  Se120  1  0.07931592  0.73879320  0.56160387  1
  Se  Se121  1  0.41778114  0.08354613  0.04038953  1
  Se  Se122  1  0.41284683  0.08091640  0.56525092  1
  Se  Se123  1  0.41618300  0.42078164  0.05188318  1
  Se  Se124  1  0.42200312  0.41532161  0.55333067  1
  Se  Se125  1  0.41371691  0.74443794  0.06280524  1
  Se  Se126  1  0.40779389  0.73219146  0.55808109  1
  Se  Se127  1  0.75138135  0.08440131  0.05444550  1
  Se  Se128  1  0.75342915  0.08828433  0.55614701  1
  Se  Se129  1  0.74690758  0.41785430  0.05056408  1
  Se  Se130  1  0.74608879  0.41796610  0.56436683  1
  Se  Se131  1  0.75224746  0.74574366  0.04926669  1
  Se  Se132  1  0.74936589  0.74990046  0.54860052  1
  Se  Se133  1  0.24877104  0.25401760  0.04848967  1
  Se  Se134  1  0.25321265  0.25040560  0.55140790  1
  Se  Se135  1  0.24497336  0.57877598  0.05777010  1
  Se  Se136  1  0.24377215  0.57230230  0.54745829  1
  Se  Se137  1  0.25835325  0.92889537  0.05177749  1
  Se  Se138  1  0.25592869  0.91628717  0.56560376  1
  Se  Se139  1  0.57816361  0.25275136  0.05043510  1
  Se  Se140  1  0.58471552  0.25807183  0.56732944  1
  Se  Se141  1  0.57949533  0.58333764  0.05367931  1
  Se  Se142  1  0.58642298  0.58287580  0.55327425  1
  Se  Se143  1  0.58852090  0.92154898  0.06298155  1
  Se  Se144  1  0.59524135  0.92555368  0.56126121  1
  Se  Se145  1  0.91436206  0.24706701  0.05261995  1
  Se  Se146  1  0.90870291  0.25357409  0.55370419  1
  Se  Se147  1  0.91457490  0.57907793  0.05331276  1
  Se  Se148  1  0.92300136  0.58898256  0.55974988  1
  Se  Se149  1  0.92016164  0.91050408  0.05358302  1
  Se  Se150  1  0.91508026  0.91564152  0.54705236  1
  Se  Se151  1  0.09280153  0.24270099  0.44230469  1
  Se  Se152  1  0.08472572  0.25016497  0.95087482  1
  Se  Se153  1  0.08591876  0.58256569  0.44331719  1
  Se  Se154  1  0.08328546  0.58496574  0.94989579  1
  Se  Se155  1  0.07828361  0.92069523  0.43650248  1
  Se  Se156  1  0.07695519  0.92452355  0.93541061  1
  Se  Se157  1  0.41648321  0.25422008  0.43688901  1
  Se  Se158  1  0.42047244  0.25925177  0.93875515  1
  Se  Se159  1  0.41925985  0.57328311  0.44038528  1
  Se  Se160  1  0.41996331  0.57954590  0.95342607  1
  Se  Se161  1  0.41190596  0.91950329  0.45219956  1
  Se  Se162  1  0.40482477  0.91803834  0.94150302  1
  Se  Se163  1  0.75009857  0.24718769  0.45467769  1
  Se  Se164  1  0.74994853  0.24964768  0.94995881  1
  Se  Se165  1  0.75036105  0.58557837  0.44042674  1
  Se  Se166  1  0.75270628  0.57883727  0.94161450  1
  Se  Se167  1  0.75303140  0.91545834  0.44678991  1
  Se  Se168  1  0.75293345  0.91090912  0.95273586  1
  Se  Se169  1  0.24732543  0.08330407  0.45113359  1
  Se  Se170  1  0.24236219  0.09945519  0.94461361  1
  Se  Se171  1  0.25129656  0.41399338  0.44335843  1
  Se  Se172  1  0.24484133  0.42036062  0.94889567  1
  Se  Se173  1  0.25399506  0.74122706  0.44114488  1
  Se  Se174  1  0.25587372  0.73969405  0.94505568  1
  Se  Se175  1  0.58966252  0.07448514  0.43895385  1
  Se  Se176  1  0.58584436  0.08356112  0.95049981  1
  Se  Se177  1  0.58639411  0.41442834  0.44934108  1
  Se  Se178  1  0.58455548  0.42121332  0.93804156  1
  Se  Se179  1  0.57809714  0.73848311  0.43152264  1
  Se  Se180  1  0.58938722  0.73929607  0.93820506  1
  Se  Se181  1  0.91589781  0.08611733  0.44243182  1
  Se  Se182  1  0.91407615  0.08495560  0.95143963  1
  Se  Se183  1  0.93215797  0.40370558  0.43886458  1
  Se  Se184  1  0.91688977  0.41658279  0.95062820  1
  Se  Se185  1  0.91455500  0.74903331  0.44488063  1
  Se  Se186  1  0.91606405  0.74936502  0.94737496  1
  Se  Se187  1  0.24798991  0.25059591  0.29969686  1
  Se  Se188  1  0.25364260  0.26000563  0.80323249  1
  Se  Se189  1  0.26863842  0.59908183  0.30292942  1
  Se  Se190  1  0.24625274  0.57445270  0.81687274  1
  Se  Se191  1  0.24411049  0.90880803  0.31508769  1
  Se  Se192  1  0.23986916  0.91397849  0.79828426  1
  Se  Se193  1  0.57186886  0.24877913  0.30694071  1
  Se  Se194  1  0.58544668  0.25319421  0.80315340  1
  Se  Se195  1  0.59051428  0.57635543  0.29781847  1
  Se  Se196  1  0.58259170  0.58148284  0.79473169  1
  Se  Se197  1  0.57636147  0.90852746  0.31365333  1
  Se  Se198  1  0.57630706  0.91665413  0.81782433  1
  Se  Se199  1  0.91162692  0.24688043  0.30752914  1
  Se  Se200  1  0.91361136  0.24981138  0.81514645  1
  Se  Se201  1  0.91801699  0.58390885  0.30050223  1
  Se  Se202  1  0.92355740  0.58942633  0.80605272  1
  Se  Se203  1  0.91580471  0.91685868  0.29913851  1
  Se  Se204  1  0.90868839  0.91138940  0.80905357  1
  Se  Se205  1  0.08086117  0.08271588  0.29756669  1
  Se  Se206  1  0.08711443  0.09282435  0.80779817  1
  Se  Se207  1  0.09746116  0.42987388  0.30514306  1
  Se  Se208  1  0.08666974  0.42153159  0.81433171  1
  Se  Se209  1  0.07865748  0.74707161  0.30226420  1
  Se  Se210  1  0.08967524  0.75445237  0.80013695  1
  Se  Se211  1  0.41479241  0.09159649  0.30471576  1
  Se  Se212  1  0.41115400  0.08463874  0.80577336  1
  Se  Se213  1  0.40185137  0.40727763  0.29733849  1
  Se  Se214  1  0.41364160  0.42601084  0.79933153  1
  Se  Se215  1  0.41483478  0.74829571  0.29898388  1
  Se  Se216  1  0.42428834  0.75343191  0.81769943  1
  Se  Se217  1  0.75392168  0.09081385  0.31196214  1
  Se  Se218  1  0.75331093  0.08844166  0.81557879  1
  Se  Se219  1  0.75809526  0.41993712  0.30794554  1
  Se  Se220  1  0.75342378  0.41828796  0.80337282  1
  Se  Se221  1  0.74940050  0.74666431  0.30065437  1
  Se  Se222  1  0.74766900  0.74649713  0.80335139  1
  Se  Se223  1  0.24540125  0.09317108  0.18313114  1
  Se  Se224  1  0.25292592  0.08318607  0.69785624  1
  Se  Se225  1  0.25439408  0.41340816  0.19934328  1
  Se  Se226  1  0.24978156  0.41497991  0.69326984  1
  Se  Se227  1  0.24899157  0.75628622  0.19876635  1
  Se  Se228  1  0.24446893  0.75202441  0.69112132  1
  Se  Se229  1  0.57930337  0.08873900  0.19254058  1
  Se  Se230  1  0.57423459  0.09310763  0.69195289  1
  Se  Se231  1  0.56864854  0.42931770  0.19105263  1
  Se  Se232  1  0.60266605  0.40292783  0.69581280  1
  Se  Se233  1  0.58861909  0.74201896  0.19916969  1
  Se  Se234  1  0.58084664  0.75552334  0.69880525  1
  Se  Se235  1  0.92149097  0.07693658  0.19436545  1
  Se  Se236  1  0.91484498  0.09632793  0.69324128  1
  Se  Se237  1  0.91011692  0.42003253  0.18758160  1
  Se  Se238  1  0.90959826  0.42884460  0.69099203  1
  Se  Se239  1  0.91640738  0.74636530  0.19324416  1
  Se  Se240  1  0.91861712  0.74812058  0.69459826  1
  Se  Se241  1  0.08801096  0.24980792  0.18403183  1
  Se  Se242  1  0.09181015  0.24672883  0.68981217  1
  Se  Se243  1  0.07390811  0.58700743  0.20305863  1
  Se  Se244  1  0.08692717  0.58171699  0.70102199  1
  Se  Se245  1  0.08177305  0.91985594  0.19809304  1
  Se  Se246  1  0.09058720  0.90636578  0.68700100  1
  Se  Se247  1  0.40999655  0.25251084  0.18863862  1
  Se  Se248  1  0.41322737  0.25433160  0.70282389  1
  Se  Se249  1  0.39439694  0.59762327  0.19444302  1
  Se  Se250  1  0.41684310  0.57835919  0.68841925  1
  Se  Se251  1  0.42633993  0.91038302  0.18969532  1
  Se  Se252  1  0.41283356  0.91843215  0.70627893  1
  Se  Se253  1  0.75591204  0.24049867  0.19215641  1
  Se  Se254  1  0.74862937  0.25352107  0.70556121  1
  Se  Se255  1  0.74759868  0.58261061  0.19108618  1
  Se  Se256  1  0.75317007  0.58941278  0.69814703  1
  Se  Se257  1  0.75365051  0.90842719  0.18626517  1
  Se  Se258  1  0.75888562  0.91681410  0.69030657  1
