# generated using pymatgen
data_In86Cu29Se144
_symmetry_space_group_name_H-M   'P 1'
_cell_length_a   17.59023408
_cell_length_b   17.59014759
_cell_length_c   23.45883559
_cell_angle_alpha   90.00993695
_cell_angle_beta   90.02809413
_cell_angle_gamma   89.97964885
_symmetry_Int_Tables_number   1
_chemical_formula_structural   In86Cu29Se144
_chemical_formula_sum   'In86 Cu29 Se144'
_cell_volume   7258.50980394
_cell_formula_units_Z   1
loop_
 _symmetry_equiv_pos_site_id
 _symmetry_equiv_pos_as_xyz
  1  'x, y, z'
loop_
 _atom_site_type_symbol
 _atom_site_label
 _atom_site_symmetry_multiplicity
 _atom_site_fract_x
 _atom_site_fract_y
 _atom_site_fract_z
 _atom_site_occupancy
  In  In0  1  -0.00079200  0.16615788  0.12127846  1
  In  In1  1  -0.01385772  0.16513703  0.63272998  1
  In  In2  1  -0.00461847  0.50010944  0.12214246  1
  In  In3  1  0.01845235  0.50923698  0.60182804  1
  In  In4  1  0.00289775  0.82689752  0.13651694  1
  In  In5  1  -0.00505635  0.83594000  0.62530099  1
  In  In6  1  0.31690064  0.18237367  0.13442196  1
  In  In7  1  0.32553313  0.17436126  0.63157276  1
  In  In8  1  0.31937034  0.50992975  0.13480142  1
  In  In9  1  0.32399799  0.48703370  0.61743219  1
  In  In10  1  0.32982398  0.83302637  0.13762552  1
  In  In11  1  0.34175659  0.82954863  0.62297503  1
  In  In12  1  0.67970264  0.16561996  0.12037030  1
  In  In13  1  0.68103435  0.17895620  0.63260492  1
  In  In14  1  0.68248109  0.50000974  0.12759337  1
  In  In15  1  0.66889485  0.50221436  0.62413197  1
  In  In16  1  0.66077693  0.82692105  0.12850441  1
  In  In17  1  0.66366494  0.81792678  0.61910543  1
  In  In18  1  0.16424590  0.00109415  0.36622942  1
  In  In19  1  0.17074277  0.00787021  0.87244516  1
  In  In20  1  0.16450801  0.34023557  0.37288143  1
  In  In21  1  0.16587632  0.32815813  0.88541546  1
  In  In22  1  0.14853408  0.64682972  0.36705723  1
  In  In23  1  0.15277889  0.66325055  0.87140266  1
  In  In24  1  0.48825967  -0.00561780  0.37526810  1
  In  In25  1  0.49213612  0.01362933  0.87201832  1
  In  In26  1  0.49959352  0.34926593  0.37567884  1
  In  In27  1  0.50006723  0.33027499  0.86476909  1
  In  In28  1  0.50169288  0.66692116  0.37800312  1
  In  In29  1  0.50593046  0.65519699  0.87015339  1
  In  In30  1  0.83264128  -0.00527673  0.37166931  1
  In  In31  1  0.85387575  0.00221822  0.86798894  1
  In  In32  1  0.87045294  0.35549755  0.37178497  1
  In  In33  1  0.84407041  0.34682829  0.88496964  1
  In  In34  1  0.83628599  0.66571763  0.37790648  1
  In  In35  1  0.83292039  0.66193093  0.86909374  1
  In  In36  1  0.00269293  0.17415142  0.35981330  1
  In  In37  1  0.01159836  0.16931462  0.88676262  1
  In  In38  1  0.00168254  0.50690785  0.38389930  1
  In  In39  1  0.00107045  0.50426520  0.88551183  1
  In  In40  1  -0.01459022  0.82101428  0.37093405  1
  In  In41  1  -0.00413963  0.82811571  0.86642417  1
  In  In42  1  0.32405158  0.16374371  0.36477592  1
  In  In43  1  0.32620710  0.16288244  0.87110605  1
  In  In44  1  0.33048460  0.50277081  0.37278971  1
  In  In45  1  0.32713004  0.48897877  0.87030463  1
  In  In46  1  0.33810148  0.83680642  0.37654470  1
  In  In47  1  0.31848801  0.84140774  0.87284324  1
  In  In48  1  0.67990679  0.16667925  0.37369538  1
  In  In49  1  0.67432505  0.18870979  0.86884387  1
  In  In50  1  0.65470059  0.50759214  0.38253795  1
  In  In51  1  0.67816110  0.50947782  0.86255018  1
  In  In52  1  0.68461471  0.81919919  0.38629436  1
  In  In53  1  0.67782267  0.82286042  0.86729637  1
  In  In54  1  0.15527054  0.00978411  0.13374593  1
  In  In55  1  0.15873492  0.00709337  0.63316216  1
  In  In56  1  0.15516872  0.33780850  0.11676796  1
  In  In57  1  0.16221102  0.36779758  0.63640679  1
  In  In58  1  0.16349852  0.66158231  0.13051643  1
  In  In59  1  0.15728000  0.65193177  0.62245729  1
  In  In60  1  0.49628961  -0.00936091  0.12887274  1
  In  In61  1  0.50043017  -0.01707929  0.62396650  1
  In  In62  1  0.49281784  0.32530320  0.12870366  1
  In  In63  1  0.49510257  0.34157481  0.62864671  1
  In  In64  1  0.49869024  0.66402414  0.13702506  1
  In  In65  1  0.50547981  0.67443176  0.61707498  1
  In  In66  1  0.84528323  0.01663394  0.12028364  1
  In  In67  1  0.84922389  0.00715301  0.62601262  1
  In  In68  1  0.84821480  0.34261421  0.11321680  1
  In  In69  1  0.82606996  0.33557854  0.63059861  1
  In  In70  1  0.84877224  0.64640856  0.14357851  1
  In  In71  1  0.84086742  0.65470744  0.61998833  1
  In  In72  1  0.16593927  0.17347104  0.49234792  1
  In  In73  1  0.83528497  0.17315470  0.50275253  1
  In  In74  1  0.83327351  0.82665147  -0.00185106  1
  In  In75  1  0.50004584  0.83417955  0.00658338  1
  In  In76  1  0.66756950  -0.00388393  0.24648343  1
  In  In77  1  0.16621944  0.82484261  0.49722754  1
  In  In78  1  0.49863271  0.49848734  -0.00419425  1
  In  In79  1  0.16254586  0.83089610  0.01300547  1
  In  In80  1  0.33416518  0.66741397  0.74242080  1
  In  In81  1  0.66359417  -0.00390311  0.74628289  1
  In  In82  1  0.50028531  0.16445990  0.49396312  1
  In  In83  1  -0.00041270  0.33617719  0.75507299  1
  In  In84  1  0.66787286  0.33541000  0.24856422  1
  In  In85  1  0.50115477  0.16929003  0.00314565  1
  Cu  Cu86  1  0.49467255  0.16923191  0.74836163  1
  Cu  Cu87  1  0.16428537  0.17239525  0.75683648  1
  Cu  Cu88  1  0.17200060  0.82814587  0.25564827  1
  Cu  Cu89  1  0.15506179  0.49128263  0.24898030  1
  Cu  Cu90  1  -0.00209775  -0.00111817  0.49845414  1
  Cu  Cu91  1  0.49290898  0.50203526  0.25637468  1
  Cu  Cu92  1  0.66800794  0.33400882  0.50030889  1
  Cu  Cu93  1  0.83317797  0.83236963  0.25511078  1
  Cu  Cu94  1  0.00754604  -0.00145183  -0.00014391  1
  Cu  Cu95  1  0.33501710  0.66035428  0.49649885  1
  Cu  Cu96  1  0.32987789  0.33994991  0.49754285  1
  Cu  Cu97  1  0.67268010  0.65964382  -0.00189519  1
  Cu  Cu98  1  0.67721641  0.34391441  -0.00419693  1
  Cu  Cu99  1  0.83444323  0.82216241  0.74338426  1
  Cu  Cu100  1  0.32758327  0.33739784  0.00202466  1
  Cu  Cu101  1  0.67874035  0.00869077  -0.00514041  1
  Cu  Cu102  1  0.49399293  0.16716434  0.25171272  1
  Cu  Cu103  1  0.15996708  0.83977944  0.74917534  1
  Cu  Cu104  1  0.83384589  0.50206744  0.25385526  1
  Cu  Cu105  1  0.67113311  0.66490215  0.50120887  1
  Cu  Cu106  1  0.50723208  0.49974555  0.74485683  1
  Cu  Cu107  1  0.33881242  -0.00697763  0.50353743  1
  Cu  Cu108  1  0.16457246  0.16958825  0.24316257  1
  Cu  Cu109  1  0.32211151  0.66075034  0.00657731  1
  Cu  Cu110  1  0.49466271  0.83332852  0.74390320  1
  Cu  Cu111  1  0.32821156  0.01041511  0.00081781  1
  Cu  Cu112  1  0.84104780  0.49877890  0.74910579  1
  Cu  Cu113  1  0.66846231  -0.01119541  0.50156500  1
  Cu  Cu114  1  0.50242581  0.82993362  0.25558957  1
  Se  Se115  1  0.08858552  0.08343706  0.05302537  1
  Se  Se116  1  0.07474830  0.08441092  0.55640150  1
  Se  Se117  1  0.05841591  0.40468840  0.04781931  1
  Se  Se118  1  0.09183858  0.40594716  0.54601720  1
  Se  Se119  1  0.06705836  0.73630897  0.05981104  1
  Se  Se120  1  0.07158856  0.74104915  0.55567711  1
  Se  Se121  1  0.41048798  0.08307473  0.06503554  1
  Se  Se122  1  0.41164150  0.08158609  0.56171621  1
  Se  Se123  1  0.40975874  0.41521426  0.06193565  1
  Se  Se124  1  0.42006975  0.41568291  0.55081900  1
  Se  Se125  1  0.40716374  0.74165221  0.06203870  1
  Se  Se126  1  0.41421408  0.74951110  0.54868689  1
  Se  Se127  1  0.76118346  0.09062672  0.04748775  1
  Se  Se128  1  0.74227589  0.07793248  0.55950863  1
  Se  Se129  1  0.75683297  0.42751804  0.05068182  1
  Se  Se130  1  0.74978048  0.41424869  0.55659731  1
  Se  Se131  1  0.74571304  0.74056282  0.06207350  1
  Se  Se132  1  0.75806409  0.74526422  0.55438995  1
  Se  Se133  1  0.24615683  0.25073125  0.05331225  1
  Se  Se134  1  0.25018344  0.26012957  0.55830555  1
  Se  Se135  1  0.23899916  0.57737875  0.05669308  1
  Se  Se136  1  0.25113590  0.58380842  0.55395811  1
  Se  Se137  1  0.25769107  0.92574258  0.06407617  1
  Se  Se138  1  0.24743150  0.92275950  0.56140031  1
  Se  Se139  1  0.59567782  0.26562672  0.05689826  1
  Se  Se140  1  0.58975131  0.24996105  0.55818237  1
  Se  Se141  1  0.58546573  0.58818742  0.05965007  1
  Se  Se142  1  0.58510777  0.58291645  0.55368419  1
  Se  Se143  1  0.59867604  0.93060409  0.05590904  1
  Se  Se144  1  0.58266499  0.90783828  0.55285225  1
  Se  Se145  1  0.90621573  0.23579151  0.05255650  1
  Se  Se146  1  0.92652060  0.26255257  0.56063381  1
  Se  Se147  1  0.90553292  0.58254993  0.05684632  1
  Se  Se148  1  0.90128070  0.55893353  0.54635532  1
  Se  Se149  1  0.92706924  0.91482806  0.05765867  1
  Se  Se150  1  0.91509260  0.91847640  0.55306386  1
  Se  Se151  1  0.06738919  0.25897385  0.43959813  1
  Se  Se152  1  0.08185872  0.25604970  0.95775974  1
  Se  Se153  1  0.08934030  0.58281683  0.45364975  1
  Se  Se154  1  0.08946083  0.58745447  0.95024291  1
  Se  Se155  1  0.07911317  0.92074323  0.43835860  1
  Se  Se156  1  0.08202096  0.91429294  0.93913145  1
  Se  Se157  1  0.40468655  0.25330583  0.43784309  1
  Se  Se158  1  0.41200680  0.25915092  0.94239897  1
  Se  Se159  1  0.41911665  0.57782321  0.44329425  1
  Se  Se160  1  0.40502790  0.59233271  0.94036834  1
  Se  Se161  1  0.42189248  0.91048635  0.45142046  1
  Se  Se162  1  0.40907028  0.92613879  0.94450862  1
  Se  Se163  1  0.75271659  0.26492212  0.43724957  1
  Se  Se164  1  0.75620536  0.25416661  0.94548760  1
  Se  Se165  1  0.75035904  0.58186261  0.44524813  1
  Se  Se166  1  0.75375778  0.57989216  0.94172405  1
  Se  Se167  1  0.76017555  0.91649658  0.44799853  1
  Se  Se168  1  0.74848609  0.92153228  0.93490279  1
  Se  Se169  1  0.25791081  0.07190066  0.44306898  1
  Se  Se170  1  0.24513677  0.09049517  0.94665567  1
  Se  Se171  1  0.24659463  0.42068168  0.44283707  1
  Se  Se172  1  0.24786019  0.42313034  0.94848792  1
  Se  Se173  1  0.25272634  0.73670403  0.43467826  1
  Se  Se174  1  0.25203840  0.74783936  0.94486540  1
  Se  Se175  1  0.59571788  0.07183466  0.43826667  1
  Se  Se176  1  0.59233689  0.08454350  0.93786680  1
  Se  Se177  1  0.57963945  0.41726934  0.45182507  1
  Se  Se178  1  0.59057462  0.41337065  0.93417102  1
  Se  Se179  1  0.58495518  0.74891385  0.44862699  1
  Se  Se180  1  0.58989145  0.74376036  0.94276939  1
  Se  Se181  1  0.92268762  0.08418005  0.43787788  1
  Se  Se182  1  0.92098915  0.07892255  0.94671647  1
  Se  Se183  1  0.90691841  0.43863255  0.45660967  1
  Se  Se184  1  0.94059373  0.40587487  0.95672954  1
  Se  Se185  1  0.91002921  0.75412366  0.44869074  1
  Se  Se186  1  0.92563652  0.73930479  0.94053303  1
  Se  Se187  1  0.24218761  0.25270241  0.30276303  1
  Se  Se188  1  0.24797940  0.25664778  0.80876998  1
  Se  Se189  1  0.24256122  0.57561693  0.30019343  1
  Se  Se190  1  0.24506256  0.58135690  0.80408080  1
  Se  Se191  1  0.25389518  0.91568838  0.30607773  1
  Se  Se192  1  0.24692043  0.92267999  0.79942744  1
  Se  Se193  1  0.57693878  0.24332482  0.31172558  1
  Se  Se194  1  0.58455972  0.25165213  0.79543222  1
  Se  Se195  1  0.58143425  0.58379632  0.30533913  1
  Se  Se196  1  0.58846694  0.58756191  0.79539194  1
  Se  Se197  1  0.58661410  0.90900209  0.31455239  1
  Se  Se198  1  0.57263499  0.90843894  0.81175887  1
  Se  Se199  1  0.90025040  0.24732532  0.30364204  1
  Se  Se200  1  0.91588011  0.24560243  0.81741597  1
  Se  Se201  1  0.91896464  0.58272650  0.30884543  1
  Se  Se202  1  0.92308446  0.57770546  0.80771928  1
  Se  Se203  1  0.91908360  0.91867685  0.30247271  1
  Se  Se204  1  0.91496258  0.90914899  0.79605554  1
  Se  Se205  1  0.08337678  0.08367230  0.29756377  1
  Se  Se206  1  0.08030315  0.08830493  0.80814804  1
  Se  Se207  1  0.07082940  0.41720146  0.30907439  1
  Se  Se208  1  0.09067835  0.42224520  0.81488116  1
  Se  Se209  1  0.08100208  0.74927709  0.30510516  1
  Se  Se210  1  0.08203078  0.74845541  0.79852069  1
  Se  Se211  1  0.41520797  0.07940907  0.30386943  1
  Se  Se212  1  0.41026493  0.08471289  0.79889138  1
  Se  Se213  1  0.41009977  0.41336765  0.30322380  1
  Se  Se214  1  0.42196719  0.42300706  0.80183438  1
  Se  Se215  1  0.41688968  0.74878432  0.30870044  1
  Se  Se216  1  0.41933543  0.75674274  0.81195233  1
  Se  Se217  1  0.76049227  0.09049851  0.29890864  1
  Se  Se218  1  0.75018107  0.08279167  0.80964834  1
  Se  Se219  1  0.75184974  0.42295562  0.31479629  1
  Se  Se220  1  0.76155626  0.41431217  0.80570649  1
  Se  Se221  1  0.75099066  0.74597615  0.30518212  1
  Se  Se222  1  0.74969923  0.73964735  0.79559431  1
  Se  Se223  1  0.25315337  0.08041058  0.19893502  1
  Se  Se224  1  0.24491604  0.08885819  0.69875316  1
  Se  Se225  1  0.23947372  0.41254052  0.19219314  1
  Se  Se226  1  0.26555439  0.41695353  0.70348018  1
  Se  Se227  1  0.24940432  0.74225348  0.19930021  1
  Se  Se228  1  0.23711660  0.75808937  0.68639258  1
  Se  Se229  1  0.57701874  0.09435461  0.18860851  1
  Se  Se230  1  0.57462477  0.09023984  0.68567353  1
  Se  Se231  1  0.57309278  0.42693647  0.19010449  1
  Se  Se232  1  0.59082092  0.41356026  0.69398792  1
  Se  Se233  1  0.58563932  0.74742266  0.20161152  1
  Se  Se234  1  0.58056647  0.74919584  0.69557947  1
  Se  Se235  1  0.93302968  0.07369855  0.19454447  1
  Se  Se236  1  0.91358499  0.08406804  0.70495076  1
  Se  Se237  1  0.91226463  0.41980136  0.19507461  1
  Se  Se238  1  0.92226030  0.42564429  0.68614656  1
  Se  Se239  1  0.91881854  0.74657252  0.20485498  1
  Se  Se240  1  0.92032077  0.74113629  0.69004433  1
  Se  Se241  1  0.08062528  0.25245881  0.19020089  1
  Se  Se242  1  0.09135058  0.24945085  0.68858371  1
  Se  Se243  1  0.07601191  0.57949626  0.19554542  1
  Se  Se244  1  0.07985553  0.56917968  0.69094526  1
  Se  Se245  1  0.08938923  0.91081603  0.19961387  1
  Se  Se246  1  0.07399009  0.92093095  0.69570788  1
  Se  Se247  1  0.41094516  0.25445152  0.20241352  1
  Se  Se248  1  0.41361113  0.25593262  0.69580545  1
  Se  Se249  1  0.40991963  0.58555291  0.20188947  1
  Se  Se250  1  0.42417326  0.57775898  0.68368287  1
  Se  Se251  1  0.41917023  0.91476822  0.20255642  1
  Se  Se252  1  0.40898998  0.91851898  0.69676732  1
  Se  Se253  1  0.75967088  0.25157905  0.18817886  1
  Se  Se254  1  0.76709488  0.24369141  0.70483637  1
  Se  Se255  1  0.74273318  0.58402623  0.20600968  1
  Se  Se256  1  0.75592373  0.58027090  0.69388993  1
  Se  Se257  1  0.76240099  0.91035154  0.18549143  1
  Se  Se258  1  0.75485968  0.90832754  0.68551584  1
