# generated using pymatgen
data_In86Cu29Se144
_symmetry_space_group_name_H-M   'P 1'
_cell_length_a   17.57948953
_cell_length_b   17.57680616
_cell_length_c   23.42769462
_cell_angle_alpha   90.02328206
_cell_angle_beta   90.00416739
_cell_angle_gamma   90.01073219
_symmetry_Int_Tables_number   1
_chemical_formula_structural   In86Cu29Se144
_chemical_formula_sum   'In86 Cu29 Se144'
_cell_volume   7238.95259899
_cell_formula_units_Z   1
loop_
 _symmetry_equiv_pos_site_id
 _symmetry_equiv_pos_as_xyz
  1  'x, y, z'
loop_
 _atom_site_type_symbol
 _atom_site_label
 _atom_site_symmetry_multiplicity
 _atom_site_fract_x
 _atom_site_fract_y
 _atom_site_fract_z
 _atom_site_occupancy
  In  In0  1  0.00027723  0.14285235  0.12486352  1
  In  In1  1  -0.00414534  0.17661959  0.62131145  1
  In  In2  1  0.01328795  0.51495720  0.11868746  1
  In  In3  1  -0.00012572  0.50690174  0.60937588  1
  In  In4  1  0.00140783  0.83244501  0.12705931  1
  In  In5  1  0.01521899  0.81980382  0.62238267  1
  In  In6  1  0.32756098  0.17849672  0.13028397  1
  In  In7  1  0.33306812  0.15295675  0.61885088  1
  In  In8  1  0.33072196  0.50802388  0.12786718  1
  In  In9  1  0.34021748  0.51548365  0.62722861  1
  In  In10  1  0.33511239  0.82823543  0.11983327  1
  In  In11  1  0.32583210  0.83139380  0.62289123  1
  In  In12  1  0.66454068  0.16840928  0.13077472  1
  In  In13  1  0.68135222  0.17893977  0.60979622  1
  In  In14  1  0.66091504  0.49339553  0.12070476  1
  In  In15  1  0.66932981  0.49246047  0.63134401  1
  In  In16  1  0.67129463  0.83611016  0.12055170  1
  In  In17  1  0.65444296  0.83289331  0.62807702  1
  In  In18  1  0.15850327  -0.01102364  0.36128877  1
  In  In19  1  0.17329818  -0.01202244  0.88957808  1
  In  In20  1  0.17876887  0.33925464  0.36964642  1
  In  In21  1  0.17350084  0.33225446  0.88373634  1
  In  In22  1  0.16555260  0.66592693  0.37384248  1
  In  In23  1  0.17298937  0.66302176  0.88696541  1
  In  In24  1  0.50930372  0.01399238  0.36123923  1
  In  In25  1  0.48942380  -0.00206296  0.88016781  1
  In  In26  1  0.48709190  0.32822844  0.36514733  1
  In  In27  1  0.51526067  0.33515662  0.87200933  1
  In  In28  1  0.49789361  0.67179097  0.36598996  1
  In  In29  1  0.50310858  0.66251566  0.88289723  1
  In  In30  1  0.83851194  0.00169852  0.37042600  1
  In  In31  1  0.82650441  -0.00435383  0.87989712  1
  In  In32  1  0.82453534  0.34161354  0.37601353  1
  In  In33  1  0.82839170  0.34365359  0.87683520  1
  In  In34  1  0.83107547  0.66153688  0.37284333  1
  In  In35  1  0.82921717  0.67109624  0.88333418  1
  In  In36  1  -0.00101738  0.14926245  0.37312945  1
  In  In37  1  0.00735719  0.16524483  0.87948964  1
  In  In38  1  -0.00721258  0.51354415  0.38236961  1
  In  In39  1  -0.00177885  0.49859555  0.88619471  1
  In  In40  1  0.00545771  0.84425804  0.36357333  1
  In  In41  1  0.01601910  0.82689125  0.89534457  1
  In  In42  1  0.34107305  0.17331010  0.36482031  1
  In  In43  1  0.33130297  0.16006683  0.87606390  1
  In  In44  1  0.32613337  0.49121626  0.36313055  1
  In  In45  1  0.32176417  0.51987327  0.89160108  1
  In  In46  1  0.32188181  0.82168548  0.36120042  1
  In  In47  1  0.35524651  0.80211717  0.91057364  1
  In  In48  1  0.66188666  0.16450159  0.37985750  1
  In  In49  1  0.65606146  0.17137006  0.87039342  1
  In  In50  1  0.68104014  0.50615600  0.37218425  1
  In  In51  1  0.66600620  0.50057307  0.87798797  1
  In  In52  1  0.66703556  0.83713453  0.36638162  1
  In  In53  1  0.68009709  0.82233039  0.88779254  1
  In  In54  1  0.16386127  0.00161291  0.12295416  1
  In  In55  1  0.18034819  -0.01237828  0.62151132  1
  In  In56  1  0.17842135  0.34580008  0.11843912  1
  In  In57  1  0.15280950  0.33592465  0.62479946  1
  In  In58  1  0.16921900  0.66503706  0.12411686  1
  In  In59  1  0.17359273  0.67609660  0.61837001  1
  In  In60  1  0.51084615  -0.00857229  0.13095527  1
  In  In61  1  0.48768599  -0.00015965  0.61572638  1
  In  In62  1  0.48645752  0.35771473  0.14569478  1
  In  In63  1  0.51351317  0.33878000  0.62300517  1
  In  In64  1  0.47766532  0.65013144  0.11001529  1
  In  In65  1  0.49941522  0.66866104  0.63792029  1
  In  In66  1  0.85806176  -0.04757513  0.16992318  1
  In  In67  1  0.82575004  0.00937701  0.61918992  1
  In  In68  1  0.81715807  0.33404692  0.12894959  1
  In  In69  1  0.82994707  0.33306979  0.61455225  1
  In  In70  1  0.84926141  0.67987056  0.12112539  1
  In  In71  1  0.83400595  0.65055272  0.62336055  1
  In  In72  1  0.65941978  0.00165213  0.74804837  1
  In  In73  1  0.33145426  -0.00438019  0.75050421  1
  In  In74  1  0.83335883  0.16140699  0.00910483  1
  In  In75  1  0.49800660  0.83934221  0.49148991  1
  In  In76  1  0.49974688  0.16948864  -0.00145821  1
  In  In77  1  -0.00331036  0.33622535  0.74472096  1
  In  In78  1  0.00145072  0.33112234  0.24565638  1
  In  In79  1  -0.00271542  0.66241586  0.74806763  1
  In  In80  1  0.50122837  0.49933779  0.49792643  1
  In  In81  1  0.66319285  0.66821702  0.24247889  1
  In  In82  1  0.00064432  -0.00423880  0.76461362  1
  In  In83  1  0.33745698  0.33938494  0.75786306  1
  In  In84  1  0.83834315  0.83551983  0.49034112  1
  In  In85  1  0.16312830  0.16520028  0.49686948  1
  Cu  Cu86  1  0.83838026  0.50524546  0.24911677  1
  Cu  Cu87  1  0.32882556  0.66534057  0.49714655  1
  Cu  Cu88  1  0.17144380  0.83139043  0.24198132  1
  Cu  Cu89  1  -0.00027324  0.66346373  0.00614208  1
  Cu  Cu90  1  0.50123035  0.82565032  0.76129888  1
  Cu  Cu91  1  0.66743384  0.33448225  0.49684842  1
  Cu  Cu92  1  0.66174808  0.33566762  0.00347895  1
  Cu  Cu93  1  0.67312940  -0.00566493  0.01021886  1
  Cu  Cu94  1  0.82729498  0.82628437  0.75729282  1
  Cu  Cu95  1  0.33184193  -0.00048835  0.48999966  1
  Cu  Cu96  1  0.83198100  0.17528687  0.74159822  1
  Cu  Cu97  1  0.82173101  0.49830428  0.75004375  1
  Cu  Cu98  1  0.82673807  0.16473979  0.25190860  1
  Cu  Cu99  1  0.16953289  0.50384879  0.75554343  1
  Cu  Cu100  1  0.33134826  0.33383113  0.49064989  1
  Cu  Cu101  1  -0.00397694  0.33506373  0.49532638  1
  Cu  Cu102  1  0.66861327  0.66280039  0.00399364  1
  Cu  Cu103  1  -0.00024947  -0.00583946  0.49394695  1
  Cu  Cu104  1  0.67324948  0.66395344  0.50131315  1
  Cu  Cu105  1  0.49850750  0.51028082  0.75603396  1
  Cu  Cu106  1  0.33556414  0.33950884  0.00779347  1
  Cu  Cu107  1  0.33195787  0.00129887  0.00786416  1
  Cu  Cu108  1  0.16740666  0.50600253  0.24591604  1
  Cu  Cu109  1  0.49969701  0.16501132  0.24925939  1
  Cu  Cu110  1  0.50670245  0.17492349  0.74045758  1
  Cu  Cu111  1  -0.00050618  0.33063923  0.00210863  1
  Cu  Cu112  1  0.16814668  0.16491113  0.24693499  1
  Cu  Cu113  1  0.17606405  0.82830412  0.75428079  1
  Cu  Cu114  1  0.49194599  0.82782449  0.24217501  1
  Se  Se115  1  0.08785848  0.08501190  0.04950010  1
  Se  Se116  1  0.07791819  0.07216631  0.56088596  1
  Se  Se117  1  0.08275335  0.41738126  0.05307756  1
  Se  Se118  1  0.08324601  0.41450155  0.54862788  1
  Se  Se119  1  0.08267695  0.74912594  0.05729764  1
  Se  Se120  1  0.09052469  0.75018937  0.54649769  1
  Se  Se121  1  0.41559694  0.08296995  0.06473967  1
  Se  Se122  1  0.41420696  0.08367331  0.54290835  1
  Se  Se123  1  0.41901031  0.42138303  0.06037187  1
  Se  Se124  1  0.40790957  0.41023363  0.55846762  1
  Se  Se125  1  0.40362815  0.74278831  0.04368703  1
  Se  Se126  1  0.41671244  0.74237342  0.55628463  1
  Se  Se127  1  0.74965973  0.07329286  0.07153806  1
  Se  Se128  1  0.75137309  0.08376785  0.54516571  1
  Se  Se129  1  0.75217980  0.41684822  0.05142228  1
  Se  Se130  1  0.74568738  0.42284949  0.55189411  1
  Se  Se131  1  0.75233047  0.74914560  0.05425080  1
  Se  Se132  1  0.74690547  0.75257724  0.55956168  1
  Se  Se133  1  0.25061284  0.24946805  0.05172531  1
  Se  Se134  1  0.25354729  0.25687787  0.55769740  1
  Se  Se135  1  0.24137296  0.57432432  0.05526087  1
  Se  Se136  1  0.25171480  0.58059235  0.55454995  1
  Se  Se137  1  0.24768059  0.91504312  0.05598435  1
  Se  Se138  1  0.25549524  0.91215615  0.54582544  1
  Se  Se139  1  0.57982756  0.25919075  0.06437292  1
  Se  Se140  1  0.58043017  0.25315906  0.54928523  1
  Se  Se141  1  0.58219450  0.57816597  0.05179935  1
  Se  Se142  1  0.58589235  0.59162784  0.56164999  1
  Se  Se143  1  0.57883412  0.91216903  0.05236451  1
  Se  Se144  1  0.59125221  0.92564110  0.55366206  1
  Se  Se145  1  0.92240563  0.25536789  0.06760898  1
  Se  Se146  1  0.91477788  0.24863478  0.54784328  1
  Se  Se147  1  0.91157912  0.57889086  0.05335672  1
  Se  Se148  1  0.92371289  0.59932434  0.54704415  1
  Se  Se149  1  0.90795366  0.92058605  0.07026805  1
  Se  Se150  1  0.92496683  0.91879977  0.56260763  1
  Se  Se151  1  0.07675825  0.25637355  0.43361276  1
  Se  Se152  1  0.08428261  0.25034201  0.94822058  1
  Se  Se153  1  0.09964594  0.57078714  0.44338684  1
  Se  Se154  1  0.08386125  0.58096172  0.95097969  1
  Se  Se155  1  0.08640479  0.91592537  0.44114297  1
  Se  Se156  1  0.06856395  0.93603343  0.95585552  1
  Se  Se157  1  0.41591078  0.24878259  0.44282311  1
  Se  Se158  1  0.40933799  0.26245245  0.93849603  1
  Se  Se159  1  0.41223003  0.58881105  0.43734723  1
  Se  Se160  1  0.41205661  0.59593220  0.95579914  1
  Se  Se161  1  0.40808533  0.91951210  0.42673930  1
  Se  Se162  1  0.42071126  0.92050369  0.95705936  1
  Se  Se163  1  0.75099000  0.25061338  0.44394709  1
  Se  Se164  1  0.74106709  0.25008305  0.94468973  1
  Se  Se165  1  0.75659304  0.58168076  0.44879955  1
  Se  Se166  1  0.75148748  0.57938784  0.94807859  1
  Se  Se167  1  0.73963523  0.92445230  0.43992794  1
  Se  Se168  1  0.75695024  0.91318763  0.95434779  1
  Se  Se169  1  0.24951598  0.08047876  0.43126576  1
  Se  Se170  1  0.25427533  0.08493111  0.94967441  1
  Se  Se171  1  0.24954739  0.42279823  0.44432303  1
  Se  Se172  1  0.24887870  0.41924009  0.95216774  1
  Se  Se173  1  0.25057184  0.75161626  0.44272931  1
  Se  Se174  1  0.21930300  0.77853461  0.94546231  1
  Se  Se175  1  0.57321101  0.08193363  0.44465852  1
  Se  Se176  1  0.59582724  0.07313512  0.94458839  1
  Se  Se177  1  0.58891220  0.41345137  0.43421853  1
  Se  Se178  1  0.58026184  0.41868785  0.94804661  1
  Se  Se179  1  0.59380082  0.74124411  0.43970547  1
  Se  Se180  1  0.58546358  0.74910687  0.95165413  1
  Se  Se181  1  0.91435872  0.08048461  0.44765684  1
  Se  Se182  1  0.92145657  0.07607895  0.94349615  1
  Se  Se183  1  0.91195906  0.42010519  0.44417176  1
  Se  Se184  1  0.91310514  0.41255992  0.95043601  1
  Se  Se185  1  0.92848342  0.74671515  0.43339628  1
  Se  Se186  1  0.91731716  0.74779814  0.95175010  1
  Se  Se187  1  0.24961540  0.25186717  0.29877028  1
  Se  Se188  1  0.24347068  0.24265461  0.80647874  1
  Se  Se189  1  0.25068222  0.58818537  0.30147379  1
  Se  Se190  1  0.24896337  0.58861600  0.80921823  1
  Se  Se191  1  0.25351601  0.91896349  0.29461374  1
  Se  Se192  1  0.25493335  0.90529529  0.81664351  1
  Se  Se193  1  0.58212715  0.24598166  0.30660180  1
  Se  Se194  1  0.58877805  0.25607572  0.79541802  1
  Se  Se195  1  0.57952177  0.57470980  0.30514935  1
  Se  Se196  1  0.58682654  0.58801561  0.80930345  1
  Se  Se197  1  0.57397893  0.90767710  0.29980590  1
  Se  Se198  1  0.58056939  0.91200650  0.81680410  1
  Se  Se199  1  0.91213895  0.24519401  0.31021185  1
  Se  Se200  1  0.91115967  0.24517843  0.80991338  1
  Se  Se201  1  0.92011061  0.58736484  0.30283600  1
  Se  Se202  1  0.90922041  0.57266327  0.81006460  1
  Se  Se203  1  0.90962674  0.91548824  0.29816103  1
  Se  Se204  1  0.91146526  0.89855951  0.81791826  1
  Se  Se205  1  0.08052368  0.08215607  0.29650995  1
  Se  Se206  1  0.09998446  0.08387826  0.81385922  1
  Se  Se207  1  0.08549451  0.42499113  0.30675766  1
  Se  Se208  1  0.08775998  0.42073495  0.81083811  1
  Se  Se209  1  0.08987000  0.75349679  0.30243331  1
  Se  Se210  1  0.08512489  0.75267125  0.80944756  1
  Se  Se211  1  0.40949038  0.07963022  0.29565165  1
  Se  Se212  1  0.42954651  0.09364933  0.80224028  1
  Se  Se213  1  0.42248703  0.42395535  0.29780746  1
  Se  Se214  1  0.41986818  0.43245026  0.81943154  1
  Se  Se215  1  0.41136995  0.74184427  0.29470168  1
  Se  Se216  1  0.41486976  0.74964073  0.81713600  1
  Se  Se217  1  0.74560402  0.08303848  0.30878656  1
  Se  Se218  1  0.75740417  0.09192812  0.80556940  1
  Se  Se219  1  0.75324066  0.42079652  0.29885160  1
  Se  Se220  1  0.74253776  0.41323462  0.80443422  1
  Se  Se221  1  0.75838648  0.75546630  0.30172230  1
  Se  Se222  1  0.74504512  0.74200719  0.80786527  1
  Se  Se223  1  0.25086102  0.08231333  0.19246708  1
  Se  Se224  1  0.23949983  0.08896273  0.69325120  1
  Se  Se225  1  0.25114191  0.41795293  0.19759782  1
  Se  Se226  1  0.24426550  0.42198330  0.69176565  1
  Se  Se227  1  0.25558735  0.74584440  0.19246490  1
  Se  Se228  1  0.25499400  0.74608368  0.69616011  1
  Se  Se229  1  0.58510787  0.08178232  0.19886955  1
  Se  Se230  1  0.57892811  0.08917790  0.67972274  1
  Se  Se231  1  0.60596809  0.40445370  0.19841982  1
  Se  Se232  1  0.57577760  0.42276128  0.70042351  1
  Se  Se233  1  0.57012430  0.74872997  0.17909532  1
  Se  Se234  1  0.58740176  0.74982497  0.70381541  1
  Se  Se235  1  0.91563848  0.08309247  0.20375934  1
  Se  Se236  1  0.91570222  0.08581733  0.69390453  1
  Se  Se237  1  0.91531429  0.42478921  0.18585258  1
  Se  Se238  1  0.90945283  0.42971457  0.68616850  1
  Se  Se239  1  0.91959388  0.75190840  0.19960877  1
  Se  Se240  1  0.90873174  0.75757587  0.68990147  1
  Se  Se241  1  0.09069004  0.24468977  0.18341509  1
  Se  Se242  1  0.09144201  0.23686086  0.69669882  1
  Se  Se243  1  0.08106936  0.59070834  0.19807527  1
  Se  Se244  1  0.08993869  0.57540375  0.68853144  1
  Se  Se245  1  0.08589296  0.91830988  0.19508099  1
  Se  Se246  1  0.09237302  0.90961407  0.69694845  1
  Se  Se247  1  0.41451518  0.25237266  0.20131419  1
  Se  Se248  1  0.41528629  0.24841897  0.68567149  1
  Se  Se249  1  0.42456728  0.57785166  0.19647989  1
  Se  Se250  1  0.41066485  0.59108616  0.70540833  1
  Se  Se251  1  0.41167303  0.91599675  0.19095543  1
  Se  Se252  1  0.42789975  0.90422129  0.69334163  1
  Se  Se253  1  0.74472350  0.25125987  0.20221180  1
  Se  Se254  1  0.74893591  0.25751219  0.68947228  1
  Se  Se255  1  0.75826603  0.58109232  0.18446772  1
  Se  Se256  1  0.74442051  0.58749527  0.69699240  1
  Se  Se257  1  0.72196309  0.92268508  0.20192915  1
  Se  Se258  1  0.75783096  0.91169507  0.69325005  1
