# generated using pymatgen
data_In86Cu29Se144
_symmetry_space_group_name_H-M   'P 1'
_cell_length_a   17.57867058
_cell_length_b   17.58487623
_cell_length_c   23.43444907
_cell_angle_alpha   90.04047822
_cell_angle_beta   90.03086552
_cell_angle_gamma   90.00003913
_symmetry_Int_Tables_number   1
_chemical_formula_structural   In86Cu29Se144
_chemical_formula_sum   'In86 Cu29 Se144'
_cell_volume   7244.02465968
_cell_formula_units_Z   1
loop_
 _symmetry_equiv_pos_site_id
 _symmetry_equiv_pos_as_xyz
  1  'x, y, z'
loop_
 _atom_site_type_symbol
 _atom_site_label
 _atom_site_symmetry_multiplicity
 _atom_site_fract_x
 _atom_site_fract_y
 _atom_site_fract_z
 _atom_site_occupancy
  In  In0  1  -0.00033223  0.16635299  0.11893314  1
  In  In1  1  -0.00261560  0.16556374  0.62272129  1
  In  In2  1  0.00203081  0.51069435  0.12742468  1
  In  In3  1  -0.01067712  0.47703227  0.60090043  1
  In  In4  1  -0.01480836  0.82959157  0.12436793  1
  In  In5  1  0.01687134  0.83539756  0.62686518  1
  In  In6  1  0.33123331  0.16515336  0.12376296  1
  In  In7  1  0.34257892  0.16833574  0.61371417  1
  In  In8  1  0.34877249  0.50725087  0.12768737  1
  In  In9  1  0.34200506  0.50615623  0.61724607  1
  In  In10  1  0.34703762  0.82030243  0.13062669  1
  In  In11  1  0.32145148  0.83200697  0.62561054  1
  In  In12  1  0.65388490  0.15490111  0.11745370  1
  In  In13  1  0.67600202  0.18816116  0.60601459  1
  In  In14  1  0.66222623  0.49563151  0.12151798  1
  In  In15  1  0.66848735  0.49637598  0.62631172  1
  In  In16  1  0.66932548  0.83971557  0.11886126  1
  In  In17  1  0.65382421  0.82812383  0.63194078  1
  In  In18  1  0.16636750  -0.01118864  0.37825237  1
  In  In19  1  0.16683127  0.01665973  0.86977554  1
  In  In20  1  0.17406017  0.33784828  0.40263352  1
  In  In21  1  0.15762190  0.32187937  0.87029970  1
  In  In22  1  0.17160012  0.67078128  0.37466550  1
  In  In23  1  0.17508293  0.65659727  0.86963096  1
  In  In24  1  0.50499965  0.01752481  0.35440828  1
  In  In25  1  0.49545639  0.00302033  0.88405954  1
  In  In26  1  0.49235235  0.32782348  0.39298676  1
  In  In27  1  0.50876211  0.32409168  0.87920276  1
  In  In28  1  0.49229334  0.66677593  0.36986887  1
  In  In29  1  0.49786081  0.65654123  0.88089810  1
  In  In30  1  0.83320776  0.01694220  0.37227130  1
  In  In31  1  0.83859569  -0.00624344  0.87768999  1
  In  In32  1  0.83016592  0.33665791  0.39430202  1
  In  In33  1  0.82490594  0.34351713  0.87963492  1
  In  In34  1  0.82925143  0.64771027  0.37369926  1
  In  In35  1  0.82137597  0.67445372  0.88287763  1
  In  In36  1  -0.00283597  0.18142756  0.38957219  1
  In  In37  1  0.00423586  0.15636772  0.87613418  1
  In  In38  1  -0.00472779  0.50422981  0.38470846  1
  In  In39  1  -0.00516056  0.48728609  0.87365679  1
  In  In40  1  0.01447314  0.83321387  0.37297693  1
  In  In41  1  -0.01707015  0.83322582  0.87464971  1
  In  In42  1  0.33412544  0.15454208  0.37913713  1
  In  In43  1  0.33479364  0.16518393  0.88099116  1
  In  In44  1  0.33296021  0.50798800  0.38357042  1
  In  In45  1  0.33659657  0.51266540  0.87069206  1
  In  In46  1  0.32862809  0.83075736  0.36412804  1
  In  In47  1  0.34649775  0.82396609  0.88554382  1
  In  In48  1  0.66834695  0.16975737  0.37969125  1
  In  In49  1  0.65955600  0.17632484  0.87762370  1
  In  In50  1  0.66088031  0.48949247  0.39292710  1
  In  In51  1  0.66312462  0.49790651  0.87578682  1
  In  In52  1  0.65173692  0.83834882  0.36983935  1
  In  In53  1  0.67170235  0.82438816  0.88089832  1
  In  In54  1  0.16776376  0.01541843  0.12636288  1
  In  In55  1  0.16809712  -0.00284307  0.62125676  1
  In  In56  1  0.17867546  0.32676825  0.12696030  1
  In  In57  1  0.16044127  0.31885882  0.59690567  1
  In  In58  1  0.16835656  0.66102252  0.13449140  1
  In  In59  1  0.16894704  0.67408583  0.62287510  1
  In  In60  1  0.50167577  0.00421908  0.12579997  1
  In  In61  1  0.49383365  -0.00046259  0.62539085  1
  In  In62  1  0.50177006  0.33557788  0.12064005  1
  In  In63  1  0.51300154  0.35432633  0.59857570  1
  In  In64  1  0.48217070  0.65489839  0.11134395  1
  In  In65  1  0.51152976  0.65459977  0.63671963  1
  In  In66  1  0.82260094  -0.00408134  0.11876037  1
  In  In67  1  0.83193118  0.02228192  0.62747328  1
  In  In68  1  0.83028537  0.33121923  0.11867403  1
  In  In69  1  0.82483374  0.32657084  0.61762196  1
  In  In70  1  0.83394007  0.67032368  0.12070743  1
  In  In71  1  0.83329732  0.65085620  0.62862656  1
  In  In72  1  0.16528121  0.49097118  -0.00089177  1
  In  In73  1  0.33233776  -0.00243808  0.74873652  1
  In  In74  1  0.33784527  0.33486682  0.26084346  1
  In  In75  1  0.33353448  0.33237994  0.74039298  1
  In  In76  1  0.65854280  0.33414138  0.25877225  1
  In  In77  1  0.66863164  0.00169895  0.75445011  1
  In  In78  1  0.49231682  0.83615777  0.49388490  1
  In  In79  1  0.00103645  0.32991599  0.73614833  1
  In  In80  1  0.00318731  0.66427586  0.74760740  1
  In  In81  1  0.83769929  0.83304059  0.50077813  1
  In  In82  1  0.00134216  0.33705533  0.26794718  1
  In  In83  1  0.16741990  0.83554652  -0.00230164  1
  In  In84  1  0.00255294  -0.00014897  0.25093448  1
  In  In85  1  0.66325923  0.66959482  0.24894673  1
  Cu  Cu86  1  -0.00426337  0.00199206  0.00107339  1
  Cu  Cu87  1  0.50192894  0.49650725  0.74770028  1
  Cu  Cu88  1  0.66642597  0.00691954  0.49479690  1
  Cu  Cu89  1  0.32872268  -0.00238100  0.49534891  1
  Cu  Cu90  1  0.33745133  0.67498151  0.49677443  1
  Cu  Cu91  1  0.66436547  0.66430058  0.00024734  1
  Cu  Cu92  1  0.00590752  0.66668739  0.49996821  1
  Cu  Cu93  1  0.82096801  0.16446719  0.24979574  1
  Cu  Cu94  1  0.49932440  0.83956437  0.24260949  1
  Cu  Cu95  1  0.66794075  0.00527462  -0.00175889  1
  Cu  Cu96  1  0.83434176  0.83602986  0.75536493  1
  Cu  Cu97  1  0.83570870  0.17660330  0.74617933  1
  Cu  Cu98  1  0.33471394  0.00047177  0.00324955  1
  Cu  Cu99  1  0.17010151  0.50156864  0.73485203  1
  Cu  Cu100  1  0.82164567  0.50068468  0.75287111  1
  Cu  Cu101  1  0.83400348  0.83076571  0.24282441  1
  Cu  Cu102  1  0.66625406  0.65744397  0.50594484  1
  Cu  Cu103  1  0.66850931  0.33581697  -0.00088154  1
  Cu  Cu104  1  0.16598984  0.16852233  0.25447479  1
  Cu  Cu105  1  0.50859806  0.17265227  0.74557943  1
  Cu  Cu106  1  -0.00652125  0.66496525  0.00135097  1
  Cu  Cu107  1  0.17396933  0.50774193  0.25815708  1
  Cu  Cu108  1  0.33225009  0.32889322  0.00080523  1
  Cu  Cu109  1  0.50027102  0.81755489  0.76002517  1
  Cu  Cu110  1  0.00039620  0.00313171  0.49948993  1
  Cu  Cu111  1  -0.00401549  0.32698829  -0.00442993  1
  Cu  Cu112  1  0.17138845  0.83213375  0.24970123  1
  Cu  Cu113  1  0.83976799  0.49902179  0.25407820  1
  Cu  Cu114  1  0.17169047  0.83612266  0.74804624  1
  Se  Se115  1  0.08350813  0.08369956  0.05145636  1
  Se  Se116  1  0.08414730  0.08296247  0.55596780  1
  Se  Se117  1  0.07466580  0.40312808  0.06270065  1
  Se  Se118  1  0.10631406  0.43537871  0.54457619  1
  Se  Se119  1  0.07921140  0.74179170  0.05990513  1
  Se  Se120  1  0.08609337  0.75434615  0.55128845  1
  Se  Se121  1  0.41760650  0.08650916  0.05531672  1
  Se  Se122  1  0.41865200  0.07283941  0.54934350  1
  Se  Se123  1  0.41118102  0.41482157  0.05519495  1
  Se  Se124  1  0.40224698  0.41558819  0.54173132  1
  Se  Se125  1  0.41856158  0.75700098  0.04807061  1
  Se  Se126  1  0.41874467  0.74617722  0.56457676  1
  Se  Se127  1  0.75278958  0.08910237  0.05060954  1
  Se  Se128  1  0.75301062  0.08663931  0.54829495  1
  Se  Se129  1  0.75106541  0.41997816  0.05324031  1
  Se  Se130  1  0.75844301  0.42780714  0.55581654  1
  Se  Se131  1  0.74857722  0.74947171  0.05280914  1
  Se  Se132  1  0.74295480  0.74628368  0.56135614  1
  Se  Se133  1  0.24687945  0.24515949  0.05182182  1
  Se  Se134  1  0.26784922  0.24960529  0.54039294  1
  Se  Se135  1  0.25078562  0.58338435  0.05887422  1
  Se  Se136  1  0.25554099  0.59511930  0.55482371  1
  Se  Se137  1  0.25334817  0.92106432  0.06364262  1
  Se  Se138  1  0.24983920  0.91329782  0.55160933  1
  Se  Se139  1  0.58351364  0.25269274  0.05251389  1
  Se  Se140  1  0.55336327  0.22583562  0.55490268  1
  Se  Se141  1  0.58196686  0.57896533  0.05244566  1
  Se  Se142  1  0.57869203  0.57756744  0.55743327  1
  Se  Se143  1  0.58395811  0.92348663  0.05350301  1
  Se  Se144  1  0.59125475  0.92180042  0.55520273  1
  Se  Se145  1  0.91301824  0.24605692  0.05238395  1
  Se  Se146  1  0.93453639  0.26779937  0.55940245  1
  Se  Se147  1  0.91413692  0.57877174  0.05520056  1
  Se  Se148  1  0.91664564  0.58802222  0.55140056  1
  Se  Se149  1  0.91412162  0.91638430  0.05357346  1
  Se  Se150  1  0.92100940  0.92560525  0.56393359  1
  Se  Se151  1  0.08436137  0.25143217  0.45981766  1
  Se  Se152  1  0.08326113  0.24508446  0.94547846  1
  Se  Se153  1  0.08996362  0.58725377  0.44422680  1
  Se  Se154  1  0.07446078  0.58754798  0.93970301  1
  Se  Se155  1  0.08083263  0.91362637  0.45037631  1
  Se  Se156  1  0.07527731  0.92345539  0.93774734  1
  Se  Se157  1  0.39151977  0.25178180  0.45093804  1
  Se  Se158  1  0.41878075  0.24774690  0.94717731  1
  Se  Se159  1  0.42455505  0.59044484  0.44864171  1
  Se  Se160  1  0.41407390  0.57496382  0.94969560  1
  Se  Se161  1  0.41223578  0.92737363  0.42995921  1
  Se  Se162  1  0.41885844  0.91580727  0.95251574  1
  Se  Se163  1  0.74634616  0.24683759  0.45285585  1
  Se  Se164  1  0.75065898  0.25061524  0.94604294  1
  Se  Se165  1  0.75195798  0.57804575  0.45123538  1
  Se  Se166  1  0.74783555  0.57963197  0.94637229  1
  Se  Se167  1  0.74423412  0.91951746  0.43866316  1
  Se  Se168  1  0.74880943  0.91783741  0.94501749  1
  Se  Se169  1  0.24065750  0.07988832  0.44555141  1
  Se  Se170  1  0.25051707  0.08053987  0.94730001  1
  Se  Se171  1  0.26971597  0.42095590  0.45947470  1
  Se  Se172  1  0.25471020  0.40503139  0.93409478  1
  Se  Se173  1  0.25414430  0.75772275  0.44295977  1
  Se  Se174  1  0.25390639  0.73359975  0.94694001  1
  Se  Se175  1  0.57745855  0.08009677  0.43917522  1
  Se  Se176  1  0.58240139  0.08831208  0.94614237  1
  Se  Se177  1  0.59299257  0.39352612  0.45708621  1
  Se  Se178  1  0.58094175  0.41681403  0.94694704  1
  Se  Se179  1  0.59145573  0.74120581  0.44391046  1
  Se  Se180  1  0.58110084  0.74725356  0.94594917  1
  Se  Se181  1  0.91440866  0.08523937  0.44820537  1
  Se  Se182  1  0.91363368  0.08485652  0.94557544  1
  Se  Se183  1  0.92912745  0.41057674  0.45279206  1
  Se  Se184  1  0.91495472  0.41863881  0.94970096  1
  Se  Se185  1  0.92167984  0.74207908  0.43731191  1
  Se  Se186  1  0.91234286  0.75223824  0.94969829  1
  Se  Se187  1  0.23671510  0.25342646  0.31758127  1
  Se  Se188  1  0.24883815  0.24000717  0.80460428  1
  Se  Se189  1  0.26122762  0.58974759  0.30791672  1
  Se  Se190  1  0.25044565  0.57974382  0.79462172  1
  Se  Se191  1  0.24810027  0.92352543  0.30003204  1
  Se  Se192  1  0.25003210  0.90742100  0.81657433  1
  Se  Se193  1  0.56622733  0.24406784  0.31407909  1
  Se  Se194  1  0.58889572  0.25636521  0.80033910  1
  Se  Se195  1  0.58750202  0.57434731  0.31418486  1
  Se  Se196  1  0.57994024  0.57998000  0.80645457  1
  Se  Se197  1  0.58572675  0.92090098  0.29435597  1
  Se  Se198  1  0.57513282  0.91202457  0.81262454  1
  Se  Se199  1  0.89983588  0.24376743  0.31280514  1
  Se  Se200  1  0.91536910  0.25418812  0.80979073  1
  Se  Se201  1  0.92485610  0.58212558  0.30500262  1
  Se  Se202  1  0.90919704  0.57916348  0.81006015  1
  Se  Se203  1  0.90910973  0.90992820  0.30993263  1
  Se  Se204  1  0.92003345  0.92306748  0.80040764  1
  Se  Se205  1  0.08126535  0.09418482  0.31552168  1
  Se  Se206  1  0.08447203  0.08961801  0.79859180  1
  Se  Se207  1  0.10167634  0.42330828  0.32053247  1
  Se  Se208  1  0.09215810  0.42427938  0.79957408  1
  Se  Se209  1  0.08659804  0.74862536  0.30132367  1
  Se  Se210  1  0.08967776  0.75746882  0.81087083  1
  Se  Se211  1  0.40203680  0.08747940  0.29625215  1
  Se  Se212  1  0.42717755  0.09172586  0.80431032  1
  Se  Se213  1  0.42880573  0.42478771  0.31806541  1
  Se  Se214  1  0.42093675  0.41570169  0.80810626  1
  Se  Se215  1  0.42176254  0.75403283  0.29898177  1
  Se  Se216  1  0.41162087  0.73893029  0.81022042  1
  Se  Se217  1  0.73864410  0.08277660  0.30376477  1
  Se  Se218  1  0.75940123  0.09494539  0.81044841  1
  Se  Se219  1  0.75798509  0.42210160  0.31453650  1
  Se  Se220  1  0.74249465  0.41251656  0.80398591  1
  Se  Se221  1  0.75689292  0.75674633  0.31145241  1
  Se  Se222  1  0.75037388  0.75041917  0.80401085  1
  Se  Se223  1  0.24959218  0.08971190  0.19946846  1
  Se  Se224  1  0.25276736  0.09143024  0.68697704  1
  Se  Se225  1  0.24747525  0.42425069  0.19558791  1
  Se  Se226  1  0.24297210  0.41501121  0.67632919  1
  Se  Se227  1  0.25390210  0.74679272  0.19746723  1
  Se  Se228  1  0.25145717  0.74669449  0.69932054  1
  Se  Se229  1  0.58392993  0.08495266  0.19659914  1
  Se  Se230  1  0.58565894  0.08698461  0.68652490  1
  Se  Se231  1  0.57293842  0.42610438  0.19659147  1
  Se  Se232  1  0.57680464  0.41195797  0.68879355  1
  Se  Se233  1  0.57682286  0.75365480  0.18372233  1
  Se  Se234  1  0.58927786  0.74197975  0.70623667  1
  Se  Se235  1  0.90972176  0.08952412  0.19240171  1
  Se  Se236  1  0.92087480  0.08902946  0.69974756  1
  Se  Se237  1  0.91559119  0.41517990  0.19396027  1
  Se  Se238  1  0.90678657  0.42796348  0.68990455  1
  Se  Se239  1  0.91693669  0.74168576  0.19717789  1
  Se  Se240  1  0.91171814  0.75787324  0.68918294  1
  Se  Se241  1  0.08329411  0.24856055  0.19639575  1
  Se  Se242  1  0.10183201  0.24454388  0.68545440  1
  Se  Se243  1  0.08331146  0.58091626  0.20300410  1
  Se  Se244  1  0.07803920  0.57380925  0.67912000  1
  Se  Se245  1  0.08880380  0.90895658  0.18712318  1
  Se  Se246  1  0.08888960  0.92180167  0.69847597  1
  Se  Se247  1  0.42046251  0.24976366  0.19232526  1
  Se  Se248  1  0.43151267  0.25039855  0.68233944  1
  Se  Se249  1  0.42113940  0.59086657  0.19898999  1
  Se  Se250  1  0.41349391  0.57930971  0.69820253  1
  Se  Se251  1  0.41212349  0.92321201  0.19332133  1
  Se  Se252  1  0.42668235  0.90019656  0.69590890  1
  Se  Se253  1  0.74617858  0.24964112  0.19095107  1
  Se  Se254  1  0.74596911  0.25116638  0.69236618  1
  Se  Se255  1  0.75580166  0.57416625  0.19314652  1
  Se  Se256  1  0.74147067  0.58625740  0.69952512  1
  Se  Se257  1  0.74974988  0.91634524  0.19445643  1
  Se  Se258  1  0.75718848  0.91280174  0.68906967  1
