# generated using pymatgen
data_In86Cu29Se144
_symmetry_space_group_name_H-M   'P 1'
_cell_length_a   17.58873982
_cell_length_b   17.58959921
_cell_length_c   23.45645073
_cell_angle_alpha   89.99761564
_cell_angle_beta   90.01246016
_cell_angle_gamma   90.00786857
_symmetry_Int_Tables_number   1
_chemical_formula_structural   In86Cu29Se144
_chemical_formula_sum   'In86 Cu29 Se144'
_cell_volume   7256.93030715
_cell_formula_units_Z   1
loop_
 _symmetry_equiv_pos_site_id
 _symmetry_equiv_pos_as_xyz
  1  'x, y, z'
loop_
 _atom_site_type_symbol
 _atom_site_label
 _atom_site_symmetry_multiplicity
 _atom_site_fract_x
 _atom_site_fract_y
 _atom_site_fract_z
 _atom_site_occupancy
  In  In0  1  0.00352514  0.16756926  0.11491391  1
  In  In1  1  0.01504975  0.18074902  0.61767632  1
  In  In2  1  0.01002243  0.49237396  0.12449166  1
  In  In3  1  -0.00497422  0.50889228  0.63259147  1
  In  In4  1  -0.00870235  0.83328523  0.12552656  1
  In  In5  1  -0.00797399  0.82717786  0.62350023  1
  In  In6  1  0.32229722  0.17695795  0.13375306  1
  In  In7  1  0.36321367  0.20858172  0.58748852  1
  In  In8  1  0.33612614  0.50426579  0.12624391  1
  In  In9  1  0.34652767  0.49738282  0.62748287  1
  In  In10  1  0.35232755  0.80779014  0.15060843  1
  In  In11  1  0.33831103  0.81759197  0.62099556  1
  In  In12  1  0.67184252  0.15906047  0.12340954  1
  In  In13  1  0.67775983  0.17926154  0.62100597  1
  In  In14  1  0.65829872  0.51356116  0.12529048  1
  In  In15  1  0.65358915  0.48535227  0.62075321  1
  In  In16  1  0.66746716  0.83191124  0.11895750  1
  In  In17  1  0.66277857  0.82712482  0.61726226  1
  In  In18  1  0.18073065  -0.00195837  0.36837248  1
  In  In19  1  0.17818055  0.01053407  0.88078726  1
  In  In20  1  0.17208927  0.31938339  0.38117149  1
  In  In21  1  0.16899122  0.33714733  0.87342631  1
  In  In22  1  0.17330812  0.67466441  0.35776136  1
  In  In23  1  0.16052719  0.65390570  0.87306830  1
  In  In24  1  0.49326715  0.00090153  0.37661623  1
  In  In25  1  0.48926059  -0.00627617  0.87897917  1
  In  In26  1  0.47595659  0.34981821  0.39767872  1
  In  In27  1  0.50663869  0.34749995  0.86145876  1
  In  In28  1  0.48795105  0.66370833  0.38080204  1
  In  In29  1  0.49379890  0.66913023  0.87945074  1
  In  In30  1  0.82621652  0.00328166  0.38296779  1
  In  In31  1  0.83392406  -0.00034211  0.88031300  1
  In  In32  1  0.82625959  0.34252337  0.38806609  1
  In  In33  1  0.82768845  0.32472388  0.86824533  1
  In  In34  1  0.84431258  0.66133205  0.38186399  1
  In  In35  1  0.84340461  0.66529566  0.87649133  1
  In  In36  1  -0.00595118  0.16880728  0.38577109  1
  In  In37  1  -0.00198062  0.16946684  0.87462825  1
  In  In38  1  -0.00800295  0.51034493  0.37523315  1
  In  In39  1  0.00790439  0.50722046  0.86849359  1
  In  In40  1  0.00765452  0.81547791  0.37315485  1
  In  In41  1  0.00189313  0.81758003  0.87766808  1
  In  In42  1  0.33454879  0.16915931  0.37743442  1
  In  In43  1  0.32297628  0.17240085  0.87899685  1
  In  In44  1  0.34466474  0.50207693  0.37404038  1
  In  In45  1  0.33235732  0.49735163  0.87571033  1
  In  In46  1  0.34111448  0.82818057  0.36356180  1
  In  In47  1  0.34625896  0.83358321  0.88096823  1
  In  In48  1  0.66147519  0.17205604  0.38522931  1
  In  In49  1  0.66779404  0.18209500  0.87109992  1
  In  In50  1  0.66635849  0.50484370  0.38337996  1
  In  In51  1  0.66081153  0.48937777  0.87121109  1
  In  In52  1  0.65680950  0.83768320  0.38122148  1
  In  In53  1  0.66415481  0.83337567  0.88121006  1
  In  In54  1  0.16890393  0.00815942  0.12531014  1
  In  In55  1  0.16737299  0.01146313  0.62374928  1
  In  In56  1  0.17471370  0.34533054  0.11382370  1
  In  In57  1  0.17802791  0.32843136  0.63026599  1
  In  In58  1  0.17968462  0.65564550  0.13594772  1
  In  In59  1  0.17683697  0.65760752  0.63345163  1
  In  In60  1  0.49723461  -0.01455199  0.13057242  1
  In  In61  1  0.49455948  -0.00370165  0.61602242  1
  In  In62  1  0.48473831  0.33907175  0.12774471  1
  In  In63  1  0.50316648  0.34624540  0.62627485  1
  In  In64  1  0.49187526  0.65851494  0.12145666  1
  In  In65  1  0.47719382  0.64688737  0.59800732  1
  In  In66  1  0.83536864  0.00000651  0.11880795  1
  In  In67  1  0.83036117  -0.00481731  0.61759880  1
  In  In68  1  0.84542176  0.33424333  0.12112481  1
  In  In69  1  0.83574950  0.33655958  0.62780383  1
  In  In70  1  0.82176339  0.67391073  0.12679469  1
  In  In71  1  0.83885505  0.66951337  0.61977048  1
  In  In72  1  0.17249884  0.49783433  0.50235030  1
  In  In73  1  0.50317289  0.16647045  -0.00115197  1
  In  In74  1  0.65950045  -0.00026040  0.26116135  1
  In  In75  1  0.65895592  0.65662677  0.74507133  1
  In  In76  1  0.16804055  0.83376292  0.00981924  1
  In  In77  1  0.65774323  0.34060251  0.26109401  1
  In  In78  1  0.00310880  -0.00374484  0.24816482  1
  In  In79  1  0.83042220  0.49879270  -0.00628720  1
  In  In80  1  0.66619409  0.00249581  0.73773542  1
  In  In81  1  0.66004710  0.66777557  0.25644176  1
  In  In82  1  0.00476771  0.34039576  0.24807149  1
  In  In83  1  0.32933377  0.00768649  0.75274725  1
  In  In84  1  0.17129746  0.83285088  0.48738765  1
  In  In85  1  -0.00065247  -0.00090765  0.74072014  1
  Cu  Cu86  1  0.66398885  -0.00272317  0.49984576  1
  Cu  Cu87  1  0.16954650  0.49903161  0.75081700  1
  Cu  Cu88  1  0.17218353  0.49277278  0.24736137  1
  Cu  Cu89  1  0.67423427  0.66864601  0.49866575  1
  Cu  Cu90  1  0.67130014  0.32723797  0.50640283  1
  Cu  Cu91  1  0.00484721  0.66600966  0.50113713  1
  Cu  Cu92  1  0.17136832  0.17374371  0.74744967  1
  Cu  Cu93  1  0.33069218  0.66483867  0.00506730  1
  Cu  Cu94  1  0.83643048  0.17211249  0.74702610  1
  Cu  Cu95  1  0.00029667  0.00074795  0.00085220  1
  Cu  Cu96  1  0.48876065  0.16645141  0.25521132  1
  Cu  Cu97  1  0.17028748  0.16965649  0.25048354  1
  Cu  Cu98  1  0.83322388  0.83282393  0.25050491  1
  Cu  Cu99  1  0.49847763  0.82689186  0.75138494  1
  Cu  Cu100  1  0.83447832  0.49646160  0.75031398  1
  Cu  Cu101  1  0.83582467  0.17885743  0.24880608  1
  Cu  Cu102  1  0.00328060  0.32503253  -0.00548110  1
  Cu  Cu103  1  0.67344437  -0.00000373  0.00120708  1
  Cu  Cu104  1  0.49463144  0.17935157  0.74237343  1
  Cu  Cu105  1  -0.00407612  0.33810932  0.50317219  1
  Cu  Cu106  1  -0.00353653  0.66478594  -0.00154417  1
  Cu  Cu107  1  0.32654379  -0.00079339  0.49115982  1
  Cu  Cu108  1  0.84115790  0.81967769  0.75102825  1
  Cu  Cu109  1  0.16910875  0.82227655  0.75160065  1
  Cu  Cu110  1  0.66517458  0.33426928  -0.00687591  1
  Cu  Cu111  1  -0.00473442  0.00095004  0.50205228  1
  Cu  Cu112  1  0.33709796  -0.00163196  0.00690162  1
  Cu  Cu113  1  0.33192090  0.33908251  0.00042603  1
  Cu  Cu114  1  0.65875374  0.67301774  0.00173107  1
  Se  Se115  1  0.08827564  0.08223352  0.05073580  1
  Se  Se116  1  0.08305834  0.08277487  0.55129043  1
  Se  Se117  1  0.07996101  0.41580170  0.04668212  1
  Se  Se118  1  0.07849429  0.41520056  0.56457262  1
  Se  Se119  1  0.07800077  0.73749889  0.06366014  1
  Se  Se120  1  0.08944125  0.74534458  0.55918558  1
  Se  Se121  1  0.41582334  0.08403324  0.06567915  1
  Se  Se122  1  0.41020714  0.07736197  0.54905198  1
  Se  Se123  1  0.41662138  0.42182356  0.05276129  1
  Se  Se124  1  0.41360497  0.41316153  0.55301589  1
  Se  Se125  1  0.41124442  0.75191640  0.05816239  1
  Se  Se126  1  0.42940851  0.76640039  0.54521940  1
  Se  Se127  1  0.75577981  0.08722733  0.05106190  1
  Se  Se128  1  0.74540914  0.08103598  0.55464034  1
  Se  Se129  1  0.74107061  0.41308966  0.05947725  1
  Se  Se130  1  0.75324241  0.41651147  0.55649668  1
  Se  Se131  1  0.75101839  0.75181754  0.04950053  1
  Se  Se132  1  0.75632467  0.75321814  0.55202983  1
  Se  Se133  1  0.25232882  0.24893671  0.05207545  1
  Se  Se134  1  0.23071990  0.24299457  0.54999845  1
  Se  Se135  1  0.24651344  0.58004068  0.05549785  1
  Se  Se136  1  0.26228471  0.59244812  0.55647295  1
  Se  Se137  1  0.26296419  0.91614306  0.06893724  1
  Se  Se138  1  0.25341371  0.92012437  0.55862318  1
  Se  Se139  1  0.58936176  0.25848538  0.06182417  1
  Se  Se140  1  0.58013087  0.25149533  0.55876307  1
  Se  Se141  1  0.57827646  0.58292460  0.04956850  1
  Se  Se142  1  0.59195239  0.58223962  0.55001740  1
  Se  Se143  1  0.58618479  0.92258882  0.05554463  1
  Se  Se144  1  0.58048457  0.91294663  0.55149661  1
  Se  Se145  1  0.91519668  0.24824980  0.04905258  1
  Se  Se146  1  0.91466536  0.25142910  0.55618442  1
  Se  Se147  1  0.91581479  0.58444619  0.06043490  1
  Se  Se148  1  0.92116227  0.58220206  0.55334034  1
  Se  Se149  1  0.91717683  0.91528198  0.05191989  1
  Se  Se150  1  0.91695190  0.91172837  0.55282875  1
  Se  Se151  1  0.07845321  0.25309877  0.45073881  1
  Se  Se152  1  0.08961017  0.24551717  0.94067439  1
  Se  Se153  1  0.08945305  0.59303107  0.43928240  1
  Se  Se154  1  0.08071619  0.58016845  0.94849483  1
  Se  Se155  1  0.07392834  0.92649135  0.43558242  1
  Se  Se156  1  0.08146361  0.92112195  0.93993754  1
  Se  Se157  1  0.42169497  0.23522254  0.45295177  1
  Se  Se158  1  0.41593839  0.25929889  0.94073718  1
  Se  Se159  1  0.42572248  0.56872065  0.45156976  1
  Se  Se160  1  0.41144072  0.58395267  0.94629647  1
  Se  Se161  1  0.40878774  0.91253678  0.44031964  1
  Se  Se162  1  0.42081628  0.91409761  0.95575118  1
  Se  Se163  1  0.75491971  0.24530540  0.45158009  1
  Se  Se164  1  0.75195958  0.24925018  0.94654363  1
  Se  Se165  1  0.75772542  0.58190401  0.44897032  1
  Se  Se166  1  0.73629120  0.59219553  0.93774414  1
  Se  Se167  1  0.74819342  0.91316250  0.44785288  1
  Se  Se168  1  0.75274417  0.91376980  0.94634595  1
  Se  Se169  1  0.24320798  0.08604997  0.44275226  1
  Se  Se170  1  0.25698769  0.08501177  0.95462434  1
  Se  Se171  1  0.26019378  0.40758389  0.44350402  1
  Se  Se172  1  0.24546060  0.41983713  0.94684574  1
  Se  Se173  1  0.26108152  0.73610424  0.43744360  1
  Se  Se174  1  0.25112896  0.74555311  0.94262134  1
  Se  Se175  1  0.58036828  0.07885873  0.44548860  1
  Se  Se176  1  0.59407823  0.07609860  0.93632829  1
  Se  Se177  1  0.59262261  0.40990398  0.44855732  1
  Se  Se178  1  0.57761098  0.41638796  0.94480194  1
  Se  Se179  1  0.58323895  0.74249941  0.44449221  1
  Se  Se180  1  0.57543275  0.75563562  0.94715556  1
  Se  Se181  1  0.90933798  0.08534091  0.45116578  1
  Se  Se182  1  0.91929392  0.08392007  0.94416917  1
  Se  Se183  1  0.91983566  0.42469018  0.44797462  1
  Se  Se184  1  0.92236629  0.40927942  0.93581291  1
  Se  Se185  1  0.92194512  0.75261849  0.44949035  1
  Se  Se186  1  0.91246484  0.75159900  0.95061196  1
  Se  Se187  1  0.25321724  0.25135624  0.30458717  1
  Se  Se188  1  0.25402495  0.25421640  0.80369206  1
  Se  Se189  1  0.25397004  0.57437159  0.30393337  1
  Se  Se190  1  0.25216809  0.58373520  0.80499383  1
  Se  Se191  1  0.23605122  0.89618810  0.30405487  1
  Se  Se192  1  0.24310253  0.90846453  0.81190902  1
  Se  Se193  1  0.56977226  0.24489985  0.31517661  1
  Se  Se194  1  0.58458346  0.25273682  0.79820328  1
  Se  Se195  1  0.57352009  0.57104389  0.31068293  1
  Se  Se196  1  0.56789830  0.57426861  0.80811117  1
  Se  Se197  1  0.56565593  0.90152368  0.30500903  1
  Se  Se198  1  0.57830918  0.91448085  0.80531729  1
  Se  Se199  1  0.91239163  0.25513872  0.31219216  1
  Se  Se200  1  0.92182226  0.25093708  0.80191691  1
  Se  Se201  1  0.92437591  0.59688290  0.30317819  1
  Se  Se202  1  0.91476989  0.58377750  0.80270118  1
  Se  Se203  1  0.90931369  0.91513415  0.31206859  1
  Se  Se204  1  0.91455071  0.91015593  0.80773602  1
  Se  Se205  1  0.08310817  0.09501416  0.30915091  1
  Se  Se206  1  0.09344269  0.08419415  0.80326667  1
  Se  Se207  1  0.09315914  0.42185166  0.31558042  1
  Se  Se208  1  0.08394847  0.41607077  0.80268684  1
  Se  Se209  1  0.07410991  0.74249540  0.29400457  1
  Se  Se210  1  0.08210387  0.74381171  0.80474305  1
  Se  Se211  1  0.40883700  0.07938290  0.30665731  1
  Se  Se212  1  0.42688181  0.09715091  0.81012538  1
  Se  Se213  1  0.41638906  0.40641840  0.30784370  1
  Se  Se214  1  0.39622022  0.40289238  0.80442961  1
  Se  Se215  1  0.41600853  0.73288503  0.29974312  1
  Se  Se216  1  0.41318099  0.74900018  0.80614659  1
  Se  Se217  1  0.75595552  0.09821531  0.30861039  1
  Se  Se218  1  0.75640941  0.08666917  0.80429885  1
  Se  Se219  1  0.75931171  0.42853805  0.31012944  1
  Se  Se220  1  0.74888185  0.41541806  0.80299986  1
  Se  Se221  1  0.75375809  0.75785667  0.31399182  1
  Se  Se222  1  0.74914000  0.74967592  0.80818762  1
  Se  Se223  1  0.25072519  0.08103859  0.19998723  1
  Se  Se224  1  0.25393509  0.09895024  0.68654814  1
  Se  Se225  1  0.25409449  0.41207093  0.19173823  1
  Se  Se226  1  0.25394106  0.42151533  0.69398039  1
  Se  Se227  1  0.23883393  0.75248852  0.20494801  1
  Se  Se228  1  0.25841653  0.74747102  0.69784984  1
  Se  Se229  1  0.57607484  0.09282963  0.19558948  1
  Se  Se230  1  0.57119014  0.09330948  0.68474521  1
  Se  Se231  1  0.57377263  0.42685413  0.19338195  1
  Se  Se232  1  0.58344793  0.41878354  0.70212686  1
  Se  Se233  1  0.57909080  0.75414176  0.18817502  1
  Se  Se234  1  0.57386823  0.75110433  0.68698549  1
  Se  Se235  1  0.91211115  0.09361459  0.19133293  1
  Se  Se236  1  0.91065070  0.09177362  0.68372574  1
  Se  Se237  1  0.90625751  0.42884880  0.19467987  1
  Se  Se238  1  0.92100814  0.41483849  0.69842227  1
  Se  Se239  1  0.91133480  0.74947578  0.19461542  1
  Se  Se240  1  0.92358001  0.73932969  0.69650547  1
  Se  Se241  1  0.09039691  0.24713660  0.18735122  1
  Se  Se242  1  0.08281071  0.25562378  0.69807389  1
  Se  Se243  1  0.08433549  0.57429377  0.19687056  1
  Se  Se244  1  0.08476953  0.58535153  0.70031546  1
  Se  Se245  1  0.09181274  0.90760648  0.18911193  1
  Se  Se246  1  0.09587282  0.90520496  0.68856155  1
  Se  Se247  1  0.41333236  0.25381171  0.19969765  1
  Se  Se248  1  0.41051856  0.25605853  0.68621687  1
  Se  Se249  1  0.40713652  0.59460320  0.19685991  1
  Se  Se250  1  0.41839703  0.59612304  0.68973850  1
  Se  Se251  1  0.41005058  0.92315132  0.20355596  1
  Se  Se252  1  0.41846563  0.91347297  0.69444323  1
  Se  Se253  1  0.75017680  0.25464111  0.19173070  1
  Se  Se254  1  0.74928848  0.25608810  0.69831555  1
  Se  Se255  1  0.75381783  0.57707394  0.19718924  1
  Se  Se256  1  0.75606456  0.57430209  0.68612477  1
  Se  Se257  1  0.75275581  0.91698032  0.19369964  1
  Se  Se258  1  0.75977061  0.90104810  0.69231004  1
