# generated using pymatgen
data_In86Cu29Se144
_symmetry_space_group_name_H-M   'P 1'
_cell_length_a   17.57263020
_cell_length_b   17.57580671
_cell_length_c   23.43858120
_cell_angle_alpha   90.01456583
_cell_angle_beta   90.02261108
_cell_angle_gamma   89.99801116
_symmetry_Int_Tables_number   1
_chemical_formula_structural   In86Cu29Se144
_chemical_formula_sum   'In86 Cu29 Se144'
_cell_volume   7239.07887682
_cell_formula_units_Z   1
loop_
 _symmetry_equiv_pos_site_id
 _symmetry_equiv_pos_as_xyz
  1  'x, y, z'
loop_
 _atom_site_type_symbol
 _atom_site_label
 _atom_site_symmetry_multiplicity
 _atom_site_fract_x
 _atom_site_fract_y
 _atom_site_fract_z
 _atom_site_occupancy
  In  In0  1  0.00532328  0.17108388  0.11730085  1
  In  In1  1  -0.00129708  0.15652325  0.62293353  1
  In  In2  1  0.01034408  0.48831200  0.13466947  1
  In  In3  1  0.00549871  0.51603976  0.62444298  1
  In  In4  1  -0.00508131  0.82670298  0.12679505  1
  In  In5  1  0.00707464  0.83382482  0.62560094  1
  In  In6  1  0.32833359  0.17819617  0.13148183  1
  In  In7  1  0.32350403  0.15698139  0.61236947  1
  In  In8  1  0.32390548  0.51064992  0.14088548  1
  In  In9  1  0.33807381  0.48288699  0.61532023  1
  In  In10  1  0.31201385  0.83520359  0.13147201  1
  In  In11  1  0.33200776  0.85068330  0.62492820  1
  In  In12  1  0.67154216  0.16347995  0.13015875  1
  In  In13  1  0.66665201  0.17374842  0.63248476  1
  In  In14  1  0.65990180  0.49664437  0.12631891  1
  In  In15  1  0.66722636  0.49740748  0.62168626  1
  In  In16  1  0.69150258  0.83695338  0.12363247  1
  In  In17  1  0.67078444  0.83035217  0.63599454  1
  In  In18  1  0.16365643  -0.00374862  0.38219799  1
  In  In19  1  0.16547607  -0.00103005  0.87297888  1
  In  In20  1  0.15396054  0.32328030  0.36982717  1
  In  In21  1  0.16738309  0.33520169  0.88461179  1
  In  In22  1  0.16423271  0.67802881  0.36384111  1
  In  In23  1  0.15103387  0.68285990  0.88614717  1
  In  In24  1  0.51229025  0.00163157  0.37659002  1
  In  In25  1  0.50200212  0.00500550  0.86309846  1
  In  In26  1  0.49694673  0.33099546  0.37788083  1
  In  In27  1  0.50495199  0.32331229  0.87264856  1
  In  In28  1  0.48646481  0.66512360  0.37371623  1
  In  In29  1  0.50564250  0.65313238  0.86975003  1
  In  In30  1  0.83381760  0.01409673  0.37296952  1
  In  In31  1  0.83715259  0.00289428  0.87854596  1
  In  In32  1  0.84833343  0.34684302  0.36787524  1
  In  In33  1  0.81728250  0.32027323  0.87640112  1
  In  In34  1  0.82856965  0.65432862  0.37158205  1
  In  In35  1  0.84932394  0.67904561  0.86839564  1
  In  In36  1  0.00443382  0.17662098  0.37948484  1
  In  In37  1  0.01677865  0.14722366  0.89425584  1
  In  In38  1  -0.01007453  0.48990233  0.37053254  1
  In  In39  1  -0.00300416  0.51281129  0.87506882  1
  In  In40  1  0.01218843  0.83952596  0.36739793  1
  In  In41  1  0.00255773  0.83794231  0.87792649  1
  In  In42  1  0.31993011  0.18003416  0.38707522  1
  In  In43  1  0.33777539  0.15822124  0.87444184  1
  In  In44  1  0.33605762  0.50582218  0.37319985  1
  In  In45  1  0.33213129  0.49091800  0.87645878  1
  In  In46  1  0.32622950  0.82012508  0.36863489  1
  In  In47  1  0.31288470  0.83455270  0.87704250  1
  In  In48  1  0.65609086  0.16523242  0.37451156  1
  In  In49  1  0.68016192  0.17366234  0.87148904  1
  In  In50  1  0.68009171  0.48572484  0.38180242  1
  In  In51  1  0.66523390  0.49467476  0.86545447  1
  In  In52  1  0.66473404  0.84026125  0.36951717  1
  In  In53  1  0.68469224  0.84735563  0.86732938  1
  In  In54  1  0.14115651  -0.01144679  0.10280091  1
  In  In55  1  0.16410335  0.00479721  0.62387986  1
  In  In56  1  0.16420381  0.33464223  0.12841569  1
  In  In57  1  0.17214176  0.32100733  0.61610068  1
  In  In58  1  0.16547646  0.66543882  0.13254328  1
  In  In59  1  0.14849797  0.66782387  0.62630976  1
  In  In60  1  0.50655296  0.01410485  0.12541187  1
  In  In61  1  0.49693003  0.00465143  0.63173604  1
  In  In62  1  0.49887821  0.33015776  0.13945949  1
  In  In63  1  0.50610412  0.33913669  0.61031386  1
  In  In64  1  0.49907879  0.65477858  0.12838302  1
  In  In65  1  0.50961245  0.66718772  0.62194616  1
  In  In66  1  0.83087921  -0.00733482  0.11738660  1
  In  In67  1  0.84103594  -0.00538305  0.63474600  1
  In  In68  1  0.83320728  0.32859059  0.12876943  1
  In  In69  1  0.82002859  0.32650874  0.62297511  1
  In  In70  1  0.84961229  0.68907523  0.12389730  1
  In  In71  1  0.84021819  0.66241224  0.62844607  1
  In  In72  1  0.16296044  0.49765855  0.49580578  1
  In  In73  1  0.66785059  0.66685160  0.24583276  1
  In  In74  1  -0.01149666  0.33113812  0.75074557  1
  In  In75  1  0.49630692  0.83165840  0.49809343  1
  In  In76  1  0.83759229  0.17025080  0.49705809  1
  In  In77  1  0.83952763  0.83075956  0.50758556  1
  In  In78  1  0.49722064  0.49725884  -0.00108633  1
  In  In79  1  0.32937835  0.00685521  0.24974421  1
  In  In80  1  0.49763945  0.82965242  -0.00466748  1
  In  In81  1  0.33325134  0.66901152  0.75085611  1
  In  In82  1  0.49824592  0.17019172  0.00215177  1
  In  In83  1  -0.00779177  -0.00160839  0.24200567  1
  In  In84  1  0.33624465  0.32719290  0.73794540  1
  In  In85  1  0.83714611  0.49688109  0.00036625  1
  Cu  Cu86  1  0.16804159  0.15973829  0.75087685  1
  Cu  Cu87  1  0.83443145  0.49955729  0.24690418  1
  Cu  Cu88  1  0.32205627  0.00035353  -0.00401534  1
  Cu  Cu89  1  0.68001937  0.67250754  -0.00753753  1
  Cu  Cu90  1  0.66343637  0.65344069  0.49878127  1
  Cu  Cu91  1  0.50686196  0.16560161  0.74682332  1
  Cu  Cu92  1  0.16705819  0.49763474  0.25592792  1
  Cu  Cu93  1  0.16384432  0.50757112  0.75239142  1
  Cu  Cu94  1  0.66516003  0.33317566  0.49867736  1
  Cu  Cu95  1  0.50296794  0.49691810  0.25645795  1
  Cu  Cu96  1  0.50883978  0.49528635  0.74052035  1
  Cu  Cu97  1  0.16153444  0.83963806  0.75305525  1
  Cu  Cu98  1  0.50095604  0.83301147  0.74851990  1
  Cu  Cu99  1  0.32308772  0.34124265  0.01009291  1
  Cu  Cu100  1  0.83615249  0.15771584  0.75436001  1
  Cu  Cu101  1  -0.00005423  0.33456473  0.00611383  1
  Cu  Cu102  1  0.32282825  0.66508940  0.01098595  1
  Cu  Cu103  1  0.82636677  0.50068665  0.74847881  1
  Cu  Cu104  1  0.66949208  -0.00105379  -0.00226746  1
  Cu  Cu105  1  -0.00293384  0.66661582  0.49917087  1
  Cu  Cu106  1  0.50266070  0.83927913  0.25083547  1
  Cu  Cu107  1  0.50046469  0.17037534  0.25525662  1
  Cu  Cu108  1  0.82587502  0.17279734  0.25300560  1
  Cu  Cu109  1  0.16373064  0.16466390  0.24645905  1
  Cu  Cu110  1  0.66933432  0.00176010  0.50367062  1
  Cu  Cu111  1  0.32400245  0.66496336  0.49373697  1
  Cu  Cu112  1  0.83520776  0.83457925  0.75345662  1
  Cu  Cu113  1  0.00697569  0.66605156  0.00144409  1
  Cu  Cu114  1  0.32831653  -0.00090685  0.50020900  1
  Se  Se115  1  0.07061212  0.08509063  0.04166287  1
  Se  Se116  1  0.10259859  0.10612045  0.55628249  1
  Se  Se117  1  0.08559585  0.41841227  0.05552737  1
  Se  Se118  1  0.07550680  0.41139704  0.56084506  1
  Se  Se119  1  0.08561865  0.74756553  0.06052934  1
  Se  Se120  1  0.08133403  0.75080615  0.55050874  1
  Se  Se121  1  0.40284354  0.07772549  0.05786526  1
  Se  Se122  1  0.41944533  0.07391895  0.55330327  1
  Se  Se123  1  0.41143214  0.41504963  0.06772047  1
  Se  Se124  1  0.41473529  0.41011302  0.54124645  1
  Se  Se125  1  0.41185898  0.74474307  0.06366845  1
  Se  Se126  1  0.40368612  0.74319829  0.55931222  1
  Se  Se127  1  0.74605169  0.08383353  0.05527458  1
  Se  Se128  1  0.75316477  0.07858096  0.56287869  1
  Se  Se129  1  0.74125079  0.41131129  0.05722384  1
  Se  Se130  1  0.75063994  0.41513325  0.55156653  1
  Se  Se131  1  0.76079215  0.75341365  0.04864340  1
  Se  Se132  1  0.73864142  0.74041001  0.55819520  1
  Se  Se133  1  0.24481281  0.24846328  0.05759024  1
  Se  Se134  1  0.27962721  0.27317367  0.55252028  1
  Se  Se135  1  0.24469313  0.57683473  0.06189747  1
  Se  Se136  1  0.25051186  0.58824252  0.56203828  1
  Se  Se137  1  0.24740491  0.91149184  0.05037416  1
  Se  Se138  1  0.24367343  0.91659468  0.55289773  1
  Se  Se139  1  0.58496068  0.25857938  0.06345009  1
  Se  Se140  1  0.59060907  0.24243345  0.55291091  1
  Se  Se141  1  0.59514241  0.59439202  0.05103496  1
  Se  Se142  1  0.57671436  0.57543693  0.55233629  1
  Se  Se143  1  0.58627928  0.92012462  0.05733162  1
  Se  Se144  1  0.59030158  0.91559320  0.56053167  1
  Se  Se145  1  0.91183035  0.25273840  0.05441759  1
  Se  Se146  1  0.92517509  0.25929386  0.55949408  1
  Se  Se147  1  0.92665465  0.58497069  0.06233457  1
  Se  Se148  1  0.91484776  0.58318463  0.55238606  1
  Se  Se149  1  0.93682335  0.92812451  0.05938255  1
  Se  Se150  1  0.92920864  0.92998488  0.55666627  1
  Se  Se151  1  0.09268134  0.24361620  0.45085270  1
  Se  Se152  1  0.08644970  0.25281056  0.95244434  1
  Se  Se153  1  0.07673592  0.58981284  0.43511425  1
  Se  Se154  1  0.08579771  0.57798648  0.94857640  1
  Se  Se155  1  0.08145032  0.90986581  0.44717339  1
  Se  Se156  1  0.09905151  0.90713787  0.94327541  1
  Se  Se157  1  0.43521111  0.22907822  0.44337950  1
  Se  Se158  1  0.40343047  0.26423529  0.94514637  1
  Se  Se159  1  0.41557138  0.58366908  0.44874747  1
  Se  Se160  1  0.40473728  0.59467563  0.94434532  1
  Se  Se161  1  0.40659936  0.92020612  0.43590706  1
  Se  Se162  1  0.41127960  0.92676421  0.93743740  1
  Se  Se163  1  0.74806214  0.25772680  0.43582154  1
  Se  Se164  1  0.74216958  0.24833021  0.95361032  1
  Se  Se165  1  0.75558261  0.57789824  0.44860530  1
  Se  Se166  1  0.75178375  0.58415576  0.93356383  1
  Se  Se167  1  0.74878331  0.92155949  0.44412446  1
  Se  Se168  1  0.75628739  0.91487041  0.94874668  1
  Se  Se169  1  0.24424052  0.08312840  0.44838844  1
  Se  Se170  1  0.24608526  0.08898358  0.94241236  1
  Se  Se171  1  0.24978916  0.41080626  0.43392220  1
  Se  Se172  1  0.24706047  0.42478598  0.95091177  1
  Se  Se173  1  0.24234223  0.75037327  0.44311069  1
  Se  Se174  1  0.24730355  0.75139898  0.95352610  1
  Se  Se175  1  0.58476457  0.08338324  0.45136564  1
  Se  Se176  1  0.58551841  0.07822927  0.94066612  1
  Se  Se177  1  0.58134887  0.41729593  0.44588500  1
  Se  Se178  1  0.59034942  0.40807426  0.94226771  1
  Se  Se179  1  0.59135469  0.74192827  0.43886697  1
  Se  Se180  1  0.59168453  0.74547925  0.93367082  1
  Se  Se181  1  0.93056314  0.07393392  0.44525721  1
  Se  Se182  1  0.89532896  0.10507002  0.94578990  1
  Se  Se183  1  0.91735931  0.41634317  0.44864399  1
  Se  Se184  1  0.92328566  0.40603395  0.93635514  1
  Se  Se185  1  0.91785843  0.74534655  0.43661338  1
  Se  Se186  1  0.92228314  0.74930745  0.94787110  1
  Se  Se187  1  0.24664379  0.24481561  0.30334748  1
  Se  Se188  1  0.24561501  0.24828298  0.80774572  1
  Se  Se189  1  0.25027862  0.58559336  0.30518301  1
  Se  Se190  1  0.24419973  0.58361795  0.81476147  1
  Se  Se191  1  0.23992852  0.91207623  0.30521725  1
  Se  Se192  1  0.25207284  0.92098135  0.80070735  1
  Se  Se193  1  0.58500595  0.25656406  0.30504211  1
  Se  Se194  1  0.58784273  0.24864000  0.80207644  1
  Se  Se195  1  0.58585114  0.57942304  0.31389025  1
  Se  Se196  1  0.58719280  0.58113276  0.79598252  1
  Se  Se197  1  0.58665049  0.92377997  0.29984035  1
  Se  Se198  1  0.58597070  0.91578196  0.80173074  1
  Se  Se199  1  0.91890664  0.24592526  0.30557975  1
  Se  Se200  1  0.91636117  0.23620209  0.81686030  1
  Se  Se201  1  0.91650004  0.58155746  0.30146755  1
  Se  Se202  1  0.91527640  0.58197183  0.79938981  1
  Se  Se203  1  0.90438480  0.91341976  0.30832440  1
  Se  Se204  1  0.91700549  0.91763626  0.80848059  1
  Se  Se205  1  0.08457858  0.08373643  0.30718920  1
  Se  Se206  1  0.08045254  0.08420616  0.80606470  1
  Se  Se207  1  0.07830580  0.41248490  0.30207776  1
  Se  Se208  1  0.08697929  0.41920429  0.80875681  1
  Se  Se209  1  0.06737807  0.74375831  0.29568096  1
  Se  Se210  1  0.08047268  0.75155440  0.80463456  1
  Se  Se211  1  0.41920521  0.08906402  0.31439801  1
  Se  Se212  1  0.41518881  0.08738439  0.79724207  1
  Se  Se213  1  0.41613697  0.41592290  0.30790658  1
  Se  Se214  1  0.42492142  0.41988753  0.80291512  1
  Se  Se215  1  0.42010521  0.75215212  0.29952966  1
  Se  Se216  1  0.42188378  0.75827543  0.81427434  1
  Se  Se217  1  0.74437227  0.08667770  0.30524220  1
  Se  Se218  1  0.74796936  0.07648967  0.80562903  1
  Se  Se219  1  0.75141203  0.41620335  0.30042979  1
  Se  Se220  1  0.75214298  0.40995052  0.80201083  1
  Se  Se221  1  0.75681434  0.75722603  0.30573848  1
  Se  Se222  1  0.75039588  0.74633336  0.80243438  1
  Se  Se223  1  0.23362464  0.08017436  0.18239503  1
  Se  Se224  1  0.25352271  0.08379677  0.69344179  1
  Se  Se225  1  0.24888227  0.41199184  0.20120193  1
  Se  Se226  1  0.23796028  0.42514626  0.69017141  1
  Se  Se227  1  0.25978309  0.73702855  0.20082303  1
  Se  Se228  1  0.24155103  0.75796693  0.69079632  1
  Se  Se229  1  0.58325132  0.08683359  0.20095179  1
  Se  Se230  1  0.59131736  0.07845739  0.69705563  1
  Se  Se231  1  0.58681723  0.41745892  0.20109992  1
  Se  Se232  1  0.58690108  0.40675265  0.68875351  1
  Se  Se233  1  0.57998450  0.76091542  0.18478058  1
  Se  Se234  1  0.58161432  0.74519589  0.69822386  1
  Se  Se235  1  0.90578687  0.09694792  0.18785106  1
  Se  Se236  1  0.92434563  0.08137663  0.70006166  1
  Se  Se237  1  0.91658917  0.41074444  0.19747743  1
  Se  Se238  1  0.90901248  0.42495886  0.68622150  1
  Se  Se239  1  0.92629595  0.74790805  0.20585334  1
  Se  Se240  1  0.91625600  0.75615713  0.69227755  1
  Se  Se241  1  0.07852356  0.24878928  0.19456270  1
  Se  Se242  1  0.08990557  0.24713364  0.69411573  1
  Se  Se243  1  0.08324955  0.58029693  0.20154271  1
  Se  Se244  1  0.07668334  0.59081577  0.70398350  1
  Se  Se245  1  0.09351933  0.91126917  0.19191321  1
  Se  Se246  1  0.08218603  0.92234882  0.69507708  1
  Se  Se247  1  0.41037552  0.25045046  0.20530193  1
  Se  Se248  1  0.42823096  0.23978389  0.68089350  1
  Se  Se249  1  0.42128450  0.58429072  0.20489514  1
  Se  Se250  1  0.41731380  0.57359135  0.68822818  1
  Se  Se251  1  0.42201131  0.91652578  0.18762389  1
  Se  Se252  1  0.41575992  0.91818524  0.69964265  1
  Se  Se253  1  0.74279099  0.25613492  0.19908653  1
  Se  Se254  1  0.75635500  0.24716840  0.70269796  1
  Se  Se255  1  0.76125147  0.58174662  0.18272890  1
  Se  Se256  1  0.74649574  0.58390117  0.69155438  1
  Se  Se257  1  0.75035809  0.92695675  0.19608913  1
  Se  Se258  1  0.75064420  0.91845213  0.70109181  1
