# generated using pymatgen
data_In86Cu29Se144
_symmetry_space_group_name_H-M   'P 1'
_cell_length_a   17.57745751
_cell_length_b   17.57043495
_cell_length_c   23.43646844
_cell_angle_alpha   90.01267197
_cell_angle_beta   90.01256790
_cell_angle_gamma   90.01880779
_symmetry_Int_Tables_number   1
_chemical_formula_structural   In86Cu29Se144
_chemical_formula_sum   'In86 Cu29 Se144'
_cell_volume   7238.20192814
_cell_formula_units_Z   1
loop_
 _symmetry_equiv_pos_site_id
 _symmetry_equiv_pos_as_xyz
  1  'x, y, z'
loop_
 _atom_site_type_symbol
 _atom_site_label
 _atom_site_symmetry_multiplicity
 _atom_site_fract_x
 _atom_site_fract_y
 _atom_site_fract_z
 _atom_site_occupancy
  In  In0  1  -0.00062638  0.16273137  0.11651282  1
  In  In1  1  0.00113130  0.15972441  0.63463362  1
  In  In2  1  -0.00405411  0.51772773  0.12978813  1
  In  In3  1  0.00120450  0.49017740  0.60836469  1
  In  In4  1  -0.00108561  0.82938001  0.12196864  1
  In  In5  1  -0.00933046  0.85056210  0.62245885  1
  In  In6  1  0.33241145  0.17314937  0.11791509  1
  In  In7  1  0.33509154  0.16590176  0.64399029  1
  In  In8  1  0.33719989  0.49754709  0.13361771  1
  In  In9  1  0.33906410  0.50485342  0.61622889  1
  In  In10  1  0.32342826  0.83067957  0.12262475  1
  In  In11  1  0.34056810  0.82844512  0.64030425  1
  In  In12  1  0.67164961  0.15891192  0.13108190  1
  In  In13  1  0.65940648  0.16285784  0.62800343  1
  In  In14  1  0.67235926  0.49432160  0.13531111  1
  In  In15  1  0.67646001  0.52144329  0.60260174  1
  In  In16  1  0.67338506  0.82533425  0.13281105  1
  In  In17  1  0.66678577  0.82974356  0.62444153  1
  In  In18  1  0.17513740  -0.00327586  0.37930020  1
  In  In19  1  0.15678784  0.00213180  0.87345943  1
  In  In20  1  0.18141730  0.33112711  0.37248014  1
  In  In21  1  0.16942337  0.31174780  0.87052374  1
  In  In22  1  0.15652848  0.65914097  0.36887333  1
  In  In23  1  0.18348347  0.66394263  0.87332555  1
  In  In24  1  0.50842995  -0.03796358  0.38959450  1
  In  In25  1  0.49372765  -0.02658858  0.85196379  1
  In  In26  1  0.50937842  0.34308612  0.36823937  1
  In  In27  1  0.49076956  0.34138537  0.87210918  1
  In  In28  1  0.50115409  0.67052891  0.37643546  1
  In  In29  1  0.50579982  0.68107401  0.85536934  1
  In  In30  1  0.82058572  0.00510543  0.37830700  1
  In  In31  1  0.83509071  -0.00448395  0.87473095  1
  In  In32  1  0.82736504  0.36234755  0.37855204  1
  In  In33  1  0.83317587  0.32854454  0.88634480  1
  In  In34  1  0.83087869  0.66781042  0.37711716  1
  In  In35  1  0.83171902  0.67577590  0.88340067  1
  In  In36  1  -0.00060815  0.16488817  0.37280971  1
  In  In37  1  0.01175110  0.15163166  0.88264940  1
  In  In38  1  -0.02004032  0.51103421  0.39235769  1
  In  In39  1  -0.00491565  0.48975253  0.87781047  1
  In  In40  1  0.00653243  0.82106073  0.37735690  1
  In  In41  1  -0.00904445  0.84382668  0.88159208  1
  In  In42  1  0.32832037  0.16587831  0.37113239  1
  In  In43  1  0.29100242  0.13623601  0.83737476  1
  In  In44  1  0.33494713  0.50345792  0.37691238  1
  In  In45  1  0.33998901  0.50318869  0.86320360  1
  In  In46  1  0.37175241  0.82369694  0.39453513  1
  In  In47  1  0.32555196  0.82799240  0.87177689  1
  In  In48  1  0.65974847  0.16340591  0.36629769  1
  In  In49  1  0.67905035  0.15616345  0.88194237  1
  In  In50  1  0.66790343  0.51052486  0.37563589  1
  In  In51  1  0.66545176  0.51300341  0.87524092  1
  In  In52  1  0.66761268  0.83239365  0.37469958  1
  In  In53  1  0.67516608  0.83836933  0.86438833  1
  In  In54  1  0.16707538  -0.00653206  0.10796139  1
  In  In55  1  0.16660205  0.00226047  0.64230478  1
  In  In56  1  0.17634367  0.33179876  0.12372629  1
  In  In57  1  0.16701597  0.34724118  0.62246488  1
  In  In58  1  0.16212286  0.66692418  0.13250015  1
  In  In59  1  0.17812223  0.66283555  0.62316223  1
  In  In60  1  0.50159085  0.00921336  0.12315452  1
  In  In61  1  0.50468158  -0.01195988  0.64172509  1
  In  In62  1  0.49456979  0.33581976  0.13362460  1
  In  In63  1  0.49111984  0.34024051  0.62162527  1
  In  In64  1  0.50479658  0.66262999  0.13598719  1
  In  In65  1  0.50691339  0.67519344  0.62020224  1
  In  In66  1  0.82623267  -0.00744047  0.11877805  1
  In  In67  1  0.84397055  -0.01520017  0.63105075  1
  In  In68  1  0.82679689  0.32686680  0.12275133  1
  In  In69  1  0.82589744  0.33447220  0.61967473  1
  In  In70  1  0.83447006  0.67156764  0.12614526  1
  In  In71  1  0.81965040  0.66395022  0.61539533  1
  In  In72  1  0.33821104  -0.00325103  0.25304847  1
  In  In73  1  0.49657570  0.16480759  0.50977380  1
  In  In74  1  0.83846679  0.16787507  0.50060850  1
  In  In75  1  0.49818722  0.16450366  -0.00604867  1
  In  In76  1  -0.00472505  -0.00541445  0.24224081  1
  In  In77  1  0.66313717  0.33744637  0.74724466  1
  In  In78  1  0.16192243  0.50169432  0.00122582  1
  In  In79  1  0.16697762  0.16772266  0.50953989  1
  In  In80  1  0.49889361  0.83497185  -0.01160057  1
  In  In81  1  0.16852827  0.83312632  0.50754323  1
  In  In82  1  0.00328953  0.33015592  0.75077523  1
  In  In83  1  0.50026678  0.50108739  0.00150752  1
  In  In84  1  -0.00130868  0.33863094  0.25854564  1
  In  In85  1  0.00088006  0.66688674  0.74608384  1
  Cu  Cu86  1  0.83030173  0.50960780  0.25431618  1
  Cu  Cu87  1  0.82578114  0.82984436  0.75183732  1
  Cu  Cu88  1  0.50805545  0.16785293  0.75061497  1
  Cu  Cu89  1  0.67024963  0.34338598  0.49171172  1
  Cu  Cu90  1  0.83475398  0.15448555  0.75671548  1
  Cu  Cu91  1  0.83324267  0.83162408  0.25025162  1
  Cu  Cu92  1  0.16089367  0.83334878  0.75139270  1
  Cu  Cu93  1  0.50562406  0.83028380  0.25532217  1
  Cu  Cu94  1  0.17697087  0.82731705  0.25210754  1
  Cu  Cu95  1  0.33688449  0.66788465  -0.00355641  1
  Cu  Cu96  1  -0.00096937  0.00315035  -0.00308181  1
  Cu  Cu97  1  0.32344680  0.32590120  -0.00685943  1
  Cu  Cu98  1  -0.00743088  0.66764380  0.49933917  1
  Cu  Cu99  1  0.17063430  0.16460857  0.24581459  1
  Cu  Cu100  1  0.33375498  0.66679580  0.50116975  1
  Cu  Cu101  1  0.00057268  0.67422630  0.00505203  1
  Cu  Cu102  1  0.67897366  0.66878090  0.00139460  1
  Cu  Cu103  1  0.82842325  0.50461604  0.74477833  1
  Cu  Cu104  1  0.66699829  -0.00325063  -0.00333585  1
  Cu  Cu105  1  0.49558821  0.50384739  0.25778919  1
  Cu  Cu106  1  0.49648370  0.16448799  0.24947254  1
  Cu  Cu107  1  -0.00869359  0.33432483  0.00165089  1
  Cu  Cu108  1  0.17049136  0.49870393  0.25284273  1
  Cu  Cu109  1  0.67073155  0.33295888  0.00866717  1
  Cu  Cu110  1  0.50358344  0.51074110  0.73880808  1
  Cu  Cu111  1  0.82079308  0.17198578  0.25035137  1
  Cu  Cu112  1  0.17799171  0.49928549  0.74450858  1
  Cu  Cu113  1  0.33701790  0.33803705  0.49675885  1
  Cu  Cu114  1  0.66616028  -0.00617445  0.50483579  1
  Se  Se115  1  0.08595735  0.08700911  0.04767723  1
  Se  Se116  1  0.07768728  0.07115352  0.56247182  1
  Se  Se117  1  0.07187541  0.41261977  0.06417205  1
  Se  Se118  1  0.08956721  0.41200666  0.54396175  1
  Se  Se119  1  0.09148753  0.74993845  0.05745070  1
  Se  Se120  1  0.07238311  0.74252510  0.56484503  1
  Se  Se121  1  0.40507465  0.07266540  0.05223273  1
  Se  Se122  1  0.41196764  0.07778920  0.57287037  1
  Se  Se123  1  0.40439793  0.40606852  0.05432103  1
  Se  Se124  1  0.42333531  0.42246227  0.54583652  1
  Se  Se125  1  0.42219383  0.74120906  0.05784891  1
  Se  Se126  1  0.40806101  0.75458922  0.55800348  1
  Se  Se127  1  0.74467080  0.08228485  0.05335838  1
  Se  Se128  1  0.74643070  0.07953283  0.56091925  1
  Se  Se129  1  0.75091885  0.42239283  0.05818416  1
  Se  Se130  1  0.75759406  0.42013307  0.54687737  1
  Se  Se131  1  0.75485833  0.75768424  0.05541345  1
  Se  Se132  1  0.75350816  0.76115310  0.55056033  1
  Se  Se133  1  0.24098609  0.24517777  0.04836995  1
  Se  Se134  1  0.26659740  0.25564144  0.56252712  1
  Se  Se135  1  0.26030114  0.58592726  0.05899492  1
  Se  Se136  1  0.24639075  0.58042138  0.54757360  1
  Se  Se137  1  0.25921714  0.91395738  0.04786987  1
  Se  Se138  1  0.25258090  0.92097892  0.57160324  1
  Se  Se139  1  0.58208408  0.25393519  0.06207994  1
  Se  Se140  1  0.59604959  0.26296042  0.55663479  1
  Se  Se141  1  0.59348146  0.59028826  0.05927045  1
  Se  Se142  1  0.57447500  0.58942068  0.54441606  1
  Se  Se143  1  0.58690811  0.91741958  0.05803978  1
  Se  Se144  1  0.57859020  0.91885949  0.56065736  1
  Se  Se145  1  0.91114052  0.24688855  0.05398234  1
  Se  Se146  1  0.93042153  0.25405798  0.56276570  1
  Se  Se147  1  0.91578819  0.58788781  0.05435947  1
  Se  Se148  1  0.91241228  0.58112100  0.55282342  1
  Se  Se149  1  0.92113934  0.91882873  0.05518960  1
  Se  Se150  1  0.91022658  0.91870883  0.54672026  1
  Se  Se151  1  0.08411689  0.25112237  0.43872843  1
  Se  Se152  1  0.07704077  0.25642477  0.94566401  1
  Se  Se153  1  0.08291497  0.58799247  0.44863888  1
  Se  Se154  1  0.07425935  0.59383816  0.93888482  1
  Se  Se155  1  0.07878479  0.92242439  0.44416011  1
  Se  Se156  1  0.08394015  0.91659475  0.94814534  1
  Se  Se157  1  0.41602721  0.25267440  0.43937880  1
  Se  Se158  1  0.40729325  0.25045863  0.93392429  1
  Se  Se159  1  0.41830583  0.58637127  0.44532285  1
  Se  Se160  1  0.42002792  0.59296873  0.93517901  1
  Se  Se161  1  0.39784305  0.93906896  0.45836889  1
  Se  Se162  1  0.40511694  0.92779570  0.93691029  1
  Se  Se163  1  0.74490854  0.25204072  0.43635614  1
  Se  Se164  1  0.74793135  0.24603755  0.95299666  1
  Se  Se165  1  0.76182257  0.57487515  0.44584709  1
  Se  Se166  1  0.75514369  0.57948312  0.94737364  1
  Se  Se167  1  0.74879897  0.91543963  0.44708624  1
  Se  Se168  1  0.74929197  0.91173667  0.94299594  1
  Se  Se169  1  0.26026015  0.07930635  0.44912586  1
  Se  Se170  1  0.24157407  0.09436343  0.93460191  1
  Se  Se171  1  0.25043783  0.41825733  0.44504653  1
  Se  Se172  1  0.25254445  0.41894637  0.93595047  1
  Se  Se173  1  0.25174242  0.74628764  0.43928860  1
  Se  Se174  1  0.24831551  0.74988814  0.94868196  1
  Se  Se175  1  0.58775966  0.07867906  0.44530049  1
  Se  Se176  1  0.57909678  0.06448859  0.93388454  1
  Se  Se177  1  0.58165813  0.42405036  0.44256442  1
  Se  Se178  1  0.59229645  0.40836955  0.94300212  1
  Se  Se179  1  0.55531179  0.78240776  0.43824308  1
  Se  Se180  1  0.59461042  0.74067460  0.93759221  1
  Se  Se181  1  0.92775647  0.07314054  0.44281001  1
  Se  Se182  1  0.91026684  0.08396024  0.94551273  1
  Se  Se183  1  0.93000030  0.39676323  0.45054962  1
  Se  Se184  1  0.90995475  0.42182329  0.95155483  1
  Se  Se185  1  0.91390473  0.75405268  0.44625826  1
  Se  Se186  1  0.91536170  0.75601397  0.95155576  1
  Se  Se187  1  0.25384481  0.24829184  0.29785795  1
  Se  Se188  1  0.27228730  0.27341731  0.79976170  1
  Se  Se189  1  0.25261864  0.58512643  0.30525803  1
  Se  Se190  1  0.25642853  0.58763250  0.79655032  1
  Se  Se191  1  0.25508406  0.90306408  0.31583161  1
  Se  Se192  1  0.24240929  0.91594815  0.80678950  1
  Se  Se193  1  0.58130127  0.25098558  0.29957178  1
  Se  Se194  1  0.58569122  0.24522011  0.81532359  1
  Se  Se195  1  0.58232648  0.58906857  0.30549756  1
  Se  Se196  1  0.58855620  0.58430984  0.79834700  1
  Se  Se197  1  0.58784384  0.92037510  0.30333318  1
  Se  Se198  1  0.57407746  0.88257756  0.78969466  1
  Se  Se199  1  0.90111572  0.24747498  0.31299477  1
  Se  Se200  1  0.91175981  0.24339544  0.81283150  1
  Se  Se201  1  0.91934656  0.58564296  0.30855642  1
  Se  Se202  1  0.91205252  0.57712779  0.80794029  1
  Se  Se203  1  0.91212079  0.91237767  0.31202873  1
  Se  Se204  1  0.91389175  0.91209390  0.80259724  1
  Se  Se205  1  0.09210428  0.08250369  0.30486905  1
  Se  Se206  1  0.08066035  0.08702685  0.80052873  1
  Se  Se207  1  0.08760931  0.42762231  0.31763759  1
  Se  Se208  1  0.09613053  0.42490992  0.80842384  1
  Se  Se209  1  0.08232798  0.74996064  0.29962488  1
  Se  Se210  1  0.08441129  0.75198969  0.81425670  1
  Se  Se211  1  0.42971948  0.08077868  0.31655730  1
  Se  Se212  1  0.42383967  0.08597950  0.80342246  1
  Se  Se213  1  0.41111422  0.41547595  0.30525120  1
  Se  Se214  1  0.42624048  0.42404293  0.79487441  1
  Se  Se215  1  0.41427181  0.75096060  0.30465885  1
  Se  Se216  1  0.40172356  0.74709117  0.79906624  1
  Se  Se217  1  0.74543288  0.07885103  0.30101211  1
  Se  Se218  1  0.74524931  0.07359402  0.80529543  1
  Se  Se219  1  0.74332320  0.42291080  0.30147648  1
  Se  Se220  1  0.75811139  0.42009229  0.80972835  1
  Se  Se221  1  0.74992971  0.74960571  0.30539880  1
  Se  Se222  1  0.75096132  0.73794260  0.80364344  1
  Se  Se223  1  0.24638101  0.08001179  0.18647180  1
  Se  Se224  1  0.24332012  0.09158939  0.70935479  1
  Se  Se225  1  0.24913809  0.41352804  0.19745268  1
  Se  Se226  1  0.26030618  0.41908386  0.68872922  1
  Se  Se227  1  0.25754696  0.74372104  0.19661530  1
  Se  Se228  1  0.24210228  0.74738394  0.69903370  1
  Se  Se229  1  0.58187248  0.08025401  0.19804142  1
  Se  Se230  1  0.59136737  0.08030555  0.70249590  1
  Se  Se231  1  0.57622978  0.42091067  0.19935674  1
  Se  Se232  1  0.58676376  0.42914074  0.68070090  1
  Se  Se233  1  0.58874295  0.74640131  0.20184528  1
  Se  Se234  1  0.57664185  0.76004306  0.69674925  1
  Se  Se235  1  0.90523711  0.09402145  0.19105754  1
  Se  Se236  1  0.91830895  0.07609730  0.70019120  1
  Se  Se237  1  0.90915904  0.42413059  0.19407651  1
  Se  Se238  1  0.91128216  0.42158147  0.69012607  1
  Se  Se239  1  0.92028064  0.75225704  0.19618027  1
  Se  Se240  1  0.90759514  0.75367156  0.68792101  1
  Se  Se241  1  0.08287454  0.24529978  0.19225389  1
  Se  Se242  1  0.09899772  0.24634420  0.69257712  1
  Se  Se243  1  0.08378325  0.58313418  0.20312035  1
  Se  Se244  1  0.08512637  0.56933915  0.68696781  1
  Se  Se245  1  0.09912864  0.91028243  0.19122566  1
  Se  Se246  1  0.07460857  0.91467636  0.70004178  1
  Se  Se247  1  0.41090651  0.24441977  0.19495819  1
  Se  Se248  1  0.42825742  0.25540637  0.69872469  1
  Se  Se249  1  0.41345561  0.58562141  0.20100282  1
  Se  Se250  1  0.41745147  0.59055262  0.68580256  1
  Se  Se251  1  0.42692527  0.90659130  0.18939560  1
  Se  Se252  1  0.40133296  0.92966126  0.70669843  1
  Se  Se253  1  0.74070968  0.25771589  0.19677870  1
  Se  Se254  1  0.76030755  0.24036345  0.69546816  1
  Se  Se255  1  0.74975909  0.59087492  0.19634053  1
  Se  Se256  1  0.74438977  0.58353927  0.69030216  1
  Se  Se257  1  0.75205999  0.91876470  0.19713343  1
  Se  Se258  1  0.74723003  0.91543009  0.69605613  1
