# generated using pymatgen
data_In86Cu29Se144
_symmetry_space_group_name_H-M   'P 1'
_cell_length_a   17.58242331
_cell_length_b   17.58226955
_cell_length_c   23.43869363
_cell_angle_alpha   89.99765377
_cell_angle_beta   89.99594414
_cell_angle_gamma   89.97341685
_symmetry_Int_Tables_number   1
_chemical_formula_structural   In86Cu29Se144
_chemical_formula_sum   'In86 Cu29 Se144'
_cell_volume   7245.81130035
_cell_formula_units_Z   1
loop_
 _symmetry_equiv_pos_site_id
 _symmetry_equiv_pos_as_xyz
  1  'x, y, z'
loop_
 _atom_site_type_symbol
 _atom_site_label
 _atom_site_symmetry_multiplicity
 _atom_site_fract_x
 _atom_site_fract_y
 _atom_site_fract_z
 _atom_site_occupancy
  In  In0  1  -0.00318831  0.17735041  0.12465202  1
  In  In1  1  0.00098650  0.14547826  0.61869807  1
  In  In2  1  0.00030931  0.50302238  0.12673485  1
  In  In3  1  0.01438734  0.51873563  0.61629175  1
  In  In4  1  -0.00879117  0.82862250  0.13238470  1
  In  In5  1  -0.00166341  0.83234006  0.61963755  1
  In  In6  1  0.32550686  0.14686277  0.12878914  1
  In  In7  1  0.31948044  0.15993850  0.62238432  1
  In  In8  1  0.33228629  0.50156667  0.11796124  1
  In  In9  1  0.33904489  0.50433910  0.62251386  1
  In  In10  1  0.35120014  0.83124488  0.13148388  1
  In  In11  1  0.33420710  0.83130671  0.62511830  1
  In  In12  1  0.68184793  0.16728010  0.12354672  1
  In  In13  1  0.66195865  0.16828224  0.63165347  1
  In  In14  1  0.65862161  0.51379269  0.13642194  1
  In  In15  1  0.66642692  0.50498914  0.62523119  1
  In  In16  1  0.65676082  0.82962916  0.13087619  1
  In  In17  1  0.66662393  0.82841465  0.62276718  1
  In  In18  1  0.16746669  -0.01135048  0.39131768  1
  In  In19  1  0.16545020  -0.00483831  0.86172641  1
  In  In20  1  0.16637857  0.33591983  0.38549753  1
  In  In21  1  0.17667878  0.34205847  0.87342668  1
  In  In22  1  0.15454690  0.67876896  0.38789534  1
  In  In23  1  0.16342640  0.65555800  0.86036956  1
  In  In24  1  0.49330078  -0.00426853  0.37617492  1
  In  In25  1  0.48984460  -0.01385426  0.86519917  1
  In  In26  1  0.51455339  0.34118438  0.37061375  1
  In  In27  1  0.51477923  0.33884181  0.87327427  1
  In  In28  1  0.50442981  0.66552463  0.38254675  1
  In  In29  1  0.50150341  0.66691105  0.87492434  1
  In  In30  1  0.82987856  -0.00860527  0.38106375  1
  In  In31  1  0.83968931  0.00592764  0.86867730  1
  In  In32  1  0.83980317  0.35046451  0.36707993  1
  In  In33  1  0.82009421  0.33638392  0.87632420  1
  In  In34  1  0.83164039  0.66126634  0.36773108  1
  In  In35  1  0.83508815  0.67069449  0.86364704  1
  In  In36  1  0.00325878  0.17260269  0.37920001  1
  In  In37  1  0.00340375  0.15409918  0.87271808  1
  In  In38  1  -0.01770063  0.51587322  0.39270072  1
  In  In39  1  0.00554280  0.51456850  0.86869141  1
  In  In40  1  0.00401175  0.82997760  0.38296256  1
  In  In41  1  -0.00046575  0.83190835  0.86237652  1
  In  In42  1  0.32931823  0.15173197  0.37115750  1
  In  In43  1  0.33646691  0.15983264  0.87017326  1
  In  In44  1  0.32846036  0.51043725  0.38709974  1
  In  In45  1  0.32502841  0.51339686  0.88021785  1
  In  In46  1  0.33236463  0.83478877  0.38611542  1
  In  In47  1  0.33999721  0.83596298  0.86784427  1
  In  In48  1  0.66685000  0.17007394  0.36756097  1
  In  In49  1  0.67415149  0.17318311  0.86909317  1
  In  In50  1  0.66669939  0.50336707  0.37511688  1
  In  In51  1  0.66575323  0.49535209  0.86812760  1
  In  In52  1  0.67934337  0.81681979  0.38264260  1
  In  In53  1  0.65598333  0.82192393  0.86686779  1
  In  In54  1  0.18127175  0.01131929  0.13298836  1
  In  In55  1  0.16313645  -0.00441559  0.62161717  1
  In  In56  1  0.15519791  0.34056788  0.12439931  1
  In  In57  1  0.17020213  0.33502729  0.61583744  1
  In  In58  1  0.16587080  0.65756745  0.12907740  1
  In  In59  1  0.16530843  0.66429669  0.62811738  1
  In  In60  1  0.50055826  -0.01979590  0.12375728  1
  In  In61  1  0.51108678  -0.01220075  0.63102450  1
  In  In62  1  0.49481110  0.35182772  0.12411894  1
  In  In63  1  0.50429093  0.34659083  0.62515688  1
  In  In64  1  0.50948015  0.67609824  0.11638739  1
  In  In65  1  0.50077764  0.66781350  0.62479703  1
  In  In66  1  0.82189211  0.00718330  0.12358697  1
  In  In67  1  0.84684088  -0.01781233  0.62906269  1
  In  In68  1  0.83261138  0.31964837  0.12858059  1
  In  In69  1  0.81775334  0.33617298  0.62567860  1
  In  In70  1  0.82727969  0.67153767  0.15216475  1
  In  In71  1  0.83287113  0.66752486  0.62315713  1
  In  In72  1  0.33827349  0.32996764  0.25221953  1
  In  In73  1  0.33380539  0.66855400  0.25827393  1
  In  In74  1  0.00218919  -0.00453546  0.25948383  1
  In  In75  1  0.49747472  0.16775361  0.48936191  1
  In  In76  1  0.66967402  -0.00749743  0.25119825  1
  In  In77  1  0.33846326  0.33314880  0.74292184  1
  In  In78  1  0.16597413  0.17492425  0.00137353  1
  In  In79  1  0.83270331  0.50132482  0.00592230  1
  In  In80  1  0.83236483  0.16459796  0.49802430  1
  In  In81  1  0.50343942  0.17050668  -0.00969925  1
  In  In82  1  -0.00456680  0.33604628  0.74881055  1
  In  In83  1  0.82367141  0.83417273  0.00358050  1
  In  In84  1  -0.00000204  0.33374057  0.24836486  1
  In  In85  1  0.17021377  0.83237357  -0.00668674  1
  Cu  Cu86  1  0.66356641  -0.00153541  -0.00066736  1
  Cu  Cu87  1  0.50531504  0.16411175  0.24843153  1
  Cu  Cu88  1  -0.00390348  0.34053295  0.00407409  1
  Cu  Cu89  1  0.50375269  0.50863939  0.25123746  1
  Cu  Cu90  1  0.15653639  0.49951396  0.25323682  1
  Cu  Cu91  1  -0.00140219  0.33394804  0.50051620  1
  Cu  Cu92  1  0.83309624  0.50441852  0.74605506  1
  Cu  Cu93  1  -0.00595981  0.00790420  -0.00437140  1
  Cu  Cu94  1  0.50462080  0.50412965  0.74837736  1
  Cu  Cu95  1  0.16711650  0.82977466  0.74130578  1
  Cu  Cu96  1  0.66270977  0.66203678  -0.00019506  1
  Cu  Cu97  1  0.66796010  0.66393465  0.50153953  1
  Cu  Cu98  1  0.33467807  -0.00242987  0.50327115  1
  Cu  Cu99  1  0.33675404  -0.00672816  -0.00551735  1
  Cu  Cu100  1  0.66491465  0.34546441  0.49734649  1
  Cu  Cu101  1  0.33665489  0.66380196  -0.00027376  1
  Cu  Cu102  1  -0.00253863  0.66730527  0.50252011  1
  Cu  Cu103  1  0.33721793  0.33678807  0.50130648  1
  Cu  Cu104  1  0.50116231  0.82859771  0.74593071  1
  Cu  Cu105  1  0.82967629  0.83472466  0.74255911  1
  Cu  Cu106  1  0.16994297  0.83720735  0.26274616  1
  Cu  Cu107  1  0.67178167  -0.00801063  0.50547062  1
  Cu  Cu108  1  0.66606237  0.33698780  -0.00114879  1
  Cu  Cu109  1  0.33071768  0.34359701  -0.00024829  1
  Cu  Cu110  1  0.00057123  0.66559983  -0.00292352  1
  Cu  Cu111  1  0.16057502  0.15871029  0.74218629  1
  Cu  Cu112  1  0.33253178  0.66978238  0.50726489  1
  Cu  Cu113  1  0.50014959  0.16016483  0.75277400  1
  Cu  Cu114  1  0.82988895  0.16313554  0.74449419  1
  Se  Se115  1  0.07968138  0.07716544  0.05992510  1
  Se  Se116  1  0.09882823  0.09030144  0.55024534  1
  Se  Se117  1  0.08138485  0.42488222  0.05305573  1
  Se  Se118  1  0.08298234  0.41832873  0.55199360  1
  Se  Se119  1  0.07846685  0.74845132  0.05805074  1
  Se  Se120  1  0.08515618  0.74614519  0.55564323  1
  Se  Se121  1  0.41553132  0.07837884  0.05270633  1
  Se  Se122  1  0.41954328  0.07956517  0.55941810  1
  Se  Se123  1  0.41956589  0.42571670  0.04774773  1
  Se  Se124  1  0.42103764  0.41934747  0.55317119  1
  Se  Se125  1  0.41544508  0.75268470  0.05164446  1
  Se  Se126  1  0.42059387  0.75293104  0.55521615  1
  Se  Se127  1  0.74941628  0.08431996  0.04661096  1
  Se  Se128  1  0.74570319  0.07904026  0.56399038  1
  Se  Se129  1  0.74250096  0.41267498  0.06524482  1
  Se  Se130  1  0.74952836  0.42326911  0.55306020  1
  Se  Se131  1  0.74524663  0.73510460  0.06430953  1
  Se  Se132  1  0.75196976  0.75019461  0.55249436  1
  Se  Se133  1  0.26083398  0.25960277  0.06384395  1
  Se  Se134  1  0.25378962  0.24951039  0.55000344  1
  Se  Se135  1  0.24716067  0.58739158  0.05349707  1
  Se  Se136  1  0.24897618  0.58274177  0.55661567  1
  Se  Se137  1  0.25574475  0.92012459  0.05940723  1
  Se  Se138  1  0.25092880  0.91288790  0.55501293  1
  Se  Se139  1  0.58504310  0.25630033  0.05975413  1
  Se  Se140  1  0.58783327  0.25527215  0.55341035  1
  Se  Se141  1  0.58205504  0.57705388  0.05391060  1
  Se  Se142  1  0.58153333  0.58268034  0.55474079  1
  Se  Se143  1  0.58776459  0.90933186  0.05204843  1
  Se  Se144  1  0.58122693  0.91106905  0.55295684  1
  Se  Se145  1  0.91485921  0.25078913  0.05109276  1
  Se  Se146  1  0.91939001  0.25427974  0.56299323  1
  Se  Se147  1  0.91601921  0.59969770  0.06312203  1
  Se  Se148  1  0.91166401  0.58164255  0.55213491  1
  Se  Se149  1  0.92267145  0.92444917  0.05877216  1
  Se  Se150  1  0.91948233  0.91676587  0.54892991  1
  Se  Se151  1  0.08369882  0.24927264  0.45161405  1
  Se  Se152  1  0.07475334  0.26210430  0.93832952  1
  Se  Se153  1  0.08654067  0.58081918  0.45393897  1
  Se  Se154  1  0.08656318  0.58816629  0.94282745  1
  Se  Se155  1  0.07498041  0.91522698  0.45573764  1
  Se  Se156  1  0.07351020  0.92474293  0.93872117  1
  Se  Se157  1  0.40818855  0.26093856  0.43128196  1
  Se  Se158  1  0.40516941  0.26226080  0.93661172  1
  Se  Se159  1  0.41736662  0.58799388  0.45230359  1
  Se  Se160  1  0.42187385  0.58213140  0.94604110  1
  Se  Se161  1  0.42210125  0.91606338  0.45228500  1
  Se  Se162  1  0.42059942  0.90931741  0.94454644  1
  Se  Se163  1  0.74358302  0.25851117  0.43994039  1
  Se  Se164  1  0.74727429  0.25031284  0.94768088  1
  Se  Se165  1  0.75070812  0.58420952  0.44401457  1
  Se  Se166  1  0.74983563  0.59081542  0.93929182  1
  Se  Se167  1  0.75418731  0.90872238  0.45183691  1
  Se  Se168  1  0.74323331  0.92018146  0.93516847  1
  Se  Se169  1  0.25330423  0.08389705  0.45039573  1
  Se  Se170  1  0.25021983  0.07479113  0.94091682  1
  Se  Se171  1  0.24909853  0.42058252  0.45185152  1
  Se  Se172  1  0.24455971  0.42480032  0.94829952  1
  Se  Se173  1  0.24815301  0.75271531  0.45318924  1
  Se  Se174  1  0.25695805  0.74012789  0.93502482  1
  Se  Se175  1  0.59799444  0.07407667  0.44095332  1
  Se  Se176  1  0.58704443  0.07393572  0.93268301  1
  Se  Se177  1  0.57687353  0.42606038  0.44694173  1
  Se  Se178  1  0.58666391  0.42321325  0.94613534  1
  Se  Se179  1  0.58359736  0.75095741  0.45199737  1
  Se  Se180  1  0.58380743  0.74982133  0.94668292  1
  Se  Se181  1  0.92615693  0.07389675  0.44377847  1
  Se  Se182  1  0.91046773  0.09057523  0.94457540  1
  Se  Se183  1  0.90830316  0.41440566  0.45228097  1
  Se  Se184  1  0.92212975  0.41857887  0.93732252  1
  Se  Se185  1  0.91433001  0.74112024  0.44139701  1
  Se  Se186  1  0.92013800  0.74961467  0.94094458  1
  Se  Se187  1  0.24191777  0.24787661  0.31062577  1
  Se  Se188  1  0.24072308  0.24058042  0.80276811  1
  Se  Se189  1  0.23592272  0.58076216  0.31334928  1
  Se  Se190  1  0.25982254  0.58174580  0.79785677  1
  Se  Se191  1  0.25207779  0.91856021  0.31566643  1
  Se  Se192  1  0.25046092  0.91112261  0.79879752  1
  Se  Se193  1  0.58407432  0.25168286  0.29909010  1
  Se  Se194  1  0.58190260  0.24903641  0.80213385  1
  Se  Se195  1  0.58347582  0.59056514  0.30726047  1
  Se  Se196  1  0.58692313  0.58662272  0.80445491  1
  Se  Se197  1  0.58485870  0.90761882  0.31563326  1
  Se  Se198  1  0.58445003  0.91515229  0.79881368  1
  Se  Se199  1  0.91008332  0.24049201  0.30719998  1
  Se  Se200  1  0.90823397  0.24282973  0.80928871  1
  Se  Se201  1  0.91792560  0.57161493  0.30552335  1
  Se  Se202  1  0.91901104  0.58644395  0.79777157  1
  Se  Se203  1  0.90728749  0.90359842  0.30999752  1
  Se  Se204  1  0.91344090  0.91652692  0.79932530  1
  Se  Se205  1  0.09292471  0.08508720  0.31657443  1
  Se  Se206  1  0.07720275  0.07733067  0.79699415  1
  Se  Se207  1  0.08112254  0.42105478  0.31629919  1
  Se  Se208  1  0.09296886  0.42419773  0.80313910  1
  Se  Se209  1  0.08295850  0.75122333  0.30779122  1
  Se  Se210  1  0.08335374  0.74820733  0.79780088  1
  Se  Se211  1  0.42353638  0.08284535  0.30327985  1
  Se  Se212  1  0.41064977  0.07741334  0.79904518  1
  Se  Se213  1  0.41666617  0.43247327  0.31032487  1
  Se  Se214  1  0.42262899  0.42196626  0.80848032  1
  Se  Se215  1  0.42376672  0.75960032  0.31346216  1
  Se  Se216  1  0.41938908  0.74628767  0.80268989  1
  Se  Se217  1  0.76279806  0.08573394  0.30709805  1
  Se  Se218  1  0.74798513  0.08147312  0.80165952  1
  Se  Se219  1  0.73065475  0.40318753  0.30804203  1
  Se  Se220  1  0.75313862  0.41704793  0.79933487  1
  Se  Se221  1  0.74637947  0.74562179  0.30141717  1
  Se  Se222  1  0.74829226  0.75057247  0.79821715  1
  Se  Se223  1  0.25191739  0.08548868  0.21062843  1
  Se  Se224  1  0.24911466  0.07505103  0.69483573  1
  Se  Se225  1  0.24348505  0.42448011  0.19497802  1
  Se  Se226  1  0.24318354  0.42236121  0.69040797  1
  Se  Se227  1  0.24330483  0.75829160  0.19423586  1
  Se  Se228  1  0.25481778  0.74558345  0.69452664  1
  Se  Se229  1  0.58179439  0.08313859  0.18559279  1
  Se  Se230  1  0.58530829  0.07935434  0.69860586  1
  Se  Se231  1  0.57955991  0.41688794  0.19893027  1
  Se  Se232  1  0.58838693  0.41784189  0.69766794  1
  Se  Se233  1  0.57447980  0.74858274  0.19762310  1
  Se  Se234  1  0.58703388  0.74607510  0.69470883  1
  Se  Se235  1  0.91616568  0.08511152  0.19149563  1
  Se  Se236  1  0.91692560  0.08023890  0.69527862  1
  Se  Se237  1  0.90616119  0.42276799  0.19158365  1
  Se  Se238  1  0.91272912  0.42546071  0.68430588  1
  Se  Se239  1  0.93129917  0.74265851  0.20663037  1
  Se  Se240  1  0.91614018  0.75131661  0.69179103  1
  Se  Se241  1  0.09713004  0.23912218  0.19547906  1
  Se  Se242  1  0.08466628  0.24648066  0.68604997  1
  Se  Se243  1  0.07772129  0.58536516  0.19914478  1
  Se  Se244  1  0.08027093  0.58602735  0.69870849  1
  Se  Se245  1  0.09472433  0.91132538  0.19197519  1
  Se  Se246  1  0.08103228  0.91383379  0.69166958  1
  Se  Se247  1  0.42391138  0.24092524  0.18533419  1
  Se  Se248  1  0.42665491  0.23839970  0.68464973  1
  Se  Se249  1  0.41768596  0.58200388  0.19008485  1
  Se  Se250  1  0.41842807  0.58339580  0.69510945  1
  Se  Se251  1  0.41171144  0.92656826  0.20020484  1
  Se  Se252  1  0.41617920  0.91460714  0.69608492  1
  Se  Se253  1  0.74953904  0.24574147  0.19984339  1
  Se  Se254  1  0.74581436  0.25209758  0.69867250  1
  Se  Se255  1  0.74948854  0.57532356  0.20834780  1
  Se  Se256  1  0.74814316  0.58821279  0.69464268  1
  Se  Se257  1  0.76333139  0.90371293  0.19112466  1
  Se  Se258  1  0.74379857  0.91847002  0.69226431  1
