# generated using pymatgen
data_In86Cu29Se144
_symmetry_space_group_name_H-M   'P 1'
_cell_length_a   17.59066875
_cell_length_b   17.58988181
_cell_length_c   23.45435067
_cell_angle_alpha   89.99840720
_cell_angle_beta   90.02920848
_cell_angle_gamma   89.99599376
_symmetry_Int_Tables_number   1
_chemical_formula_structural   In86Cu29Se144
_chemical_formula_sum   'In86 Cu29 Se144'
_cell_volume   7257.19224844
_cell_formula_units_Z   1
loop_
 _symmetry_equiv_pos_site_id
 _symmetry_equiv_pos_as_xyz
  1  'x, y, z'
loop_
 _atom_site_type_symbol
 _atom_site_label
 _atom_site_symmetry_multiplicity
 _atom_site_fract_x
 _atom_site_fract_y
 _atom_site_fract_z
 _atom_site_occupancy
  In  In0  1  0.00189338  0.16179164  0.12491049  1
  In  In1  1  0.00755059  0.17756247  0.62089068  1
  In  In2  1  0.01964776  0.48608257  0.13314318  1
  In  In3  1  -0.01587321  0.50692552  0.64155365  1
  In  In4  1  -0.00227653  0.83525150  0.12279102  1
  In  In5  1  -0.01461978  0.83327266  0.63708499  1
  In  In6  1  0.33542602  0.16677702  0.12417222  1
  In  In7  1  0.33095649  0.15442421  0.61405794  1
  In  In8  1  0.32051133  0.50902672  0.13362673  1
  In  In9  1  0.32876526  0.48677940  0.62073674  1
  In  In10  1  0.31657799  0.83444902  0.12379661  1
  In  In11  1  0.34276501  0.84477026  0.63298123  1
  In  In12  1  0.66392174  0.16467313  0.12110638  1
  In  In13  1  0.66577352  0.16721174  0.62353699  1
  In  In14  1  0.66329730  0.49624738  0.11790339  1
  In  In15  1  0.65936702  0.50564176  0.63226848  1
  In  In16  1  0.68382005  0.83977308  0.11436127  1
  In  In17  1  0.65612478  0.84306112  0.65531164  1
  In  In18  1  0.16081582  0.03688433  0.36544686  1
  In  In19  1  0.17591445  -0.00396396  0.88091576  1
  In  In20  1  0.15043020  0.30814697  0.35695330  1
  In  In21  1  0.16167391  0.34132739  0.88817634  1
  In  In22  1  0.16611970  0.66257885  0.36787432  1
  In  In23  1  0.15137422  0.68040300  0.88896745  1
  In  In24  1  0.50872188  -0.00447224  0.37431856  1
  In  In25  1  0.51064623  0.00693063  0.86348314  1
  In  In26  1  0.49241708  0.33724079  0.38116796  1
  In  In27  1  0.50902399  0.32231551  0.87606059  1
  In  In28  1  0.48950653  0.67065040  0.37426103  1
  In  In29  1  0.50637367  0.66214668  0.87291432  1
  In  In30  1  0.85880939  0.03050379  0.35087333  1
  In  In31  1  0.83043139  0.01107183  0.88264982  1
  In  In32  1  0.83347904  0.32098934  0.37202959  1
  In  In33  1  0.82758671  0.32505569  0.86447626  1
  In  In34  1  0.83813152  0.66209360  0.37311446  1
  In  In35  1  0.85765066  0.68901841  0.85150570  1
  In  In36  1  0.00051206  0.17133115  0.37200496  1
  In  In37  1  -0.00509148  0.17224529  0.88615260  1
  In  In38  1  0.00587864  0.50180794  0.36655699  1
  In  In39  1  0.00109477  0.50653298  0.87308050  1
  In  In40  1  0.00383847  0.83719483  0.36957905  1
  In  In41  1  0.01322935  0.82938643  0.88290553  1
  In  In42  1  0.32060623  0.17287279  0.38631146  1
  In  In43  1  0.34314261  0.16410061  0.88308948  1
  In  In44  1  0.33470974  0.49916211  0.37423472  1
  In  In45  1  0.32889225  0.49050949  0.87894279  1
  In  In46  1  0.33975415  0.83229069  0.36813034  1
  In  In47  1  0.31281390  0.83948526  0.86948449  1
  In  In48  1  0.67462682  0.15602804  0.38293710  1
  In  In49  1  0.66938104  0.16322048  0.87030849  1
  In  In50  1  0.66503976  0.48841446  0.38158356  1
  In  In51  1  0.69571905  0.51370970  0.84735660  1
  In  In52  1  0.65937077  0.85053166  0.37646879  1
  In  In53  1  0.69124723  0.85793470  0.84924693  1
  In  In54  1  0.16308043  -0.00416749  0.11991495  1
  In  In55  1  0.16301406  0.01360751  0.62701366  1
  In  In56  1  0.16408879  0.32896237  0.12535699  1
  In  In57  1  0.16588511  0.32640237  0.62689279  1
  In  In58  1  0.16322725  0.67097110  0.12521446  1
  In  In59  1  0.15870741  0.65976151  0.63160799  1
  In  In60  1  0.49543958  0.01798547  0.12655702  1
  In  In61  1  0.49452161  0.00772790  0.63336488  1
  In  In62  1  0.50178749  0.31748263  0.12393781  1
  In  In63  1  0.50000649  0.33520104  0.61234369  1
  In  In64  1  0.50003949  0.65202193  0.12438168  1
  In  In65  1  0.50970177  0.66948807  0.62365730  1
  In  In66  1  0.83863440  0.00375997  0.12490754  1
  In  In67  1  0.81913445  0.00194994  0.63092045  1
  In  In68  1  0.84966595  0.32284624  0.13154811  1
  In  In69  1  0.84674799  0.32385147  0.63351083  1
  In  In70  1  0.83784534  0.68261266  0.11668768  1
  In  In71  1  0.82106641  0.67743832  0.64776145  1
  In  In72  1  0.32948662  0.66837511  0.75128511  1
  In  In73  1  0.50195117  0.83995826  0.50627845  1
  In  In74  1  0.66710323  0.67173490  0.24916469  1
  In  In75  1  0.16539208  0.48781604  0.49831086  1
  In  In76  1  0.50300889  0.48773177  -0.00798905  1
  In  In77  1  0.32865113  0.00259522  0.24879807  1
  In  In78  1  0.00990459  -0.00185232  0.75534579  1
  In  In79  1  0.49605896  0.83571121  -0.00780458  1
  In  In80  1  0.33374446  0.32738398  0.74673736  1
  In  In81  1  0.83647169  0.49511123  -0.00242095  1
  In  In82  1  0.83051857  0.49413153  0.51014787  1
  In  In83  1  0.67116686  0.32859269  0.24665226  1
  In  In84  1  0.16581464  0.84237699  0.50653748  1
  In  In85  1  0.82574827  0.83774862  0.51249004  1
  Cu  Cu86  1  0.16992710  0.17187005  0.74999754  1
  Cu  Cu87  1  0.50497540  0.16629803  0.74886662  1
  Cu  Cu88  1  0.00126357  0.32611084  0.00562910  1
  Cu  Cu89  1  0.50261321  0.82848895  0.24766667  1
  Cu  Cu90  1  0.66257211  0.32599791  0.50065616  1
  Cu  Cu91  1  0.33261519  0.00488179  0.00021342  1
  Cu  Cu92  1  0.50064089  0.16964049  0.25248759  1
  Cu  Cu93  1  0.33228397  0.33452955  0.00577615  1
  Cu  Cu94  1  0.33307396  0.66364429  0.49345953  1
  Cu  Cu95  1  0.32566514  0.66999997  0.00173725  1
  Cu  Cu96  1  0.67266300  0.00379719  0.50181710  1
  Cu  Cu97  1  0.83768067  0.51211749  0.24660764  1
  Cu  Cu98  1  0.33151198  0.32597799  0.49683329  1
  Cu  Cu99  1  0.49095884  0.49956791  0.25370039  1
  Cu  Cu100  1  0.66234992  0.66417810  0.50976885  1
  Cu  Cu101  1  0.15480847  0.50509687  0.76013513  1
  Cu  Cu102  1  0.66285322  0.00374348  -0.00612833  1
  Cu  Cu103  1  0.83212925  0.83692224  0.24215007  1
  Cu  Cu104  1  0.16517039  0.82846138  0.24855226  1
  Cu  Cu105  1  0.67019548  0.32488312  -0.00843099  1
  Cu  Cu106  1  0.50091771  0.49580722  0.74231215  1
  Cu  Cu107  1  -0.00254518  0.66266540  -0.00030688  1
  Cu  Cu108  1  -0.00791083  0.66886658  0.50280003  1
  Cu  Cu109  1  0.83401441  0.15864332  0.75258532  1
  Cu  Cu110  1  0.17681233  0.50186990  0.24741088  1
  Cu  Cu111  1  -0.00160961  -0.00023966  0.00400535  1
  Cu  Cu112  1  0.67438117  0.67363236  -0.01159481  1
  Cu  Cu113  1  0.00030394  0.01260027  0.49711135  1
  Cu  Cu114  1  -0.00084745  0.33211934  0.49907445  1
  Se  Se115  1  0.08543106  0.08423755  0.05222030  1
  Se  Se116  1  0.08722775  0.09084612  0.55175905  1
  Se  Se117  1  0.08701146  0.41485367  0.05160699  1
  Se  Se118  1  0.06911053  0.41541080  0.56471737  1
  Se  Se119  1  0.07899658  0.74834578  0.05389999  1
  Se  Se120  1  0.07215018  0.74767967  0.56207215  1
  Se  Se121  1  0.41778191  0.08894680  0.05037289  1
  Se  Se122  1  0.42627910  0.07779400  0.55276187  1
  Se  Se123  1  0.41488798  0.41619569  0.06456991  1
  Se  Se124  1  0.41033147  0.41681056  0.54654655  1
  Se  Se125  1  0.41403402  0.74409652  0.05953749  1
  Se  Se126  1  0.40602325  0.74356920  0.55884274  1
  Se  Se127  1  0.74623609  0.07855777  0.05504974  1
  Se  Se128  1  0.75567490  0.08703271  0.55475184  1
  Se  Se129  1  0.74689830  0.40090718  0.05934561  1
  Se  Se130  1  0.74056051  0.40270511  0.56612401  1
  Se  Se131  1  0.75742268  0.75597256  0.04229293  1
  Se  Se132  1  0.73344287  0.74843843  0.57062144  1
  Se  Se133  1  0.25047876  0.24806926  0.05634967  1
  Se  Se134  1  0.24775242  0.25057040  0.55543617  1
  Se  Se135  1  0.24742860  0.58565602  0.05681759  1
  Se  Se136  1  0.25074893  0.58945282  0.55609296  1
  Se  Se137  1  0.24953754  0.91774676  0.04931801  1
  Se  Se138  1  0.26132772  0.92888934  0.56199649  1
  Se  Se139  1  0.58455428  0.24823349  0.04925669  1
  Se  Se140  1  0.57867477  0.24062795  0.55055239  1
  Se  Se141  1  0.59364293  0.59253302  0.04640308  1
  Se  Se142  1  0.57783043  0.57570638  0.55456586  1
  Se  Se143  1  0.58138746  0.92556888  0.05739466  1
  Se  Se144  1  0.59920997  0.92081618  0.56593680  1
  Se  Se145  1  0.91395550  0.24271292  0.05365269  1
  Se  Se146  1  0.91424253  0.24935493  0.55172120  1
  Se  Se147  1  0.92426974  0.58026944  0.06338029  1
  Se  Se148  1  0.91075568  0.59740293  0.56624062  1
  Se  Se149  1  0.91252546  0.91471326  0.05328502  1
  Se  Se150  1  0.92695288  0.93068645  0.56124932  1
  Se  Se151  1  0.08404098  0.25051539  0.44511699  1
  Se  Se152  1  0.08861133  0.24547138  0.95294834  1
  Se  Se153  1  0.07603806  0.59088633  0.44609109  1
  Se  Se154  1  0.08239064  0.57698680  0.94964537  1
  Se  Se155  1  0.07920848  0.92705165  0.44007894  1
  Se  Se156  1  0.08631132  0.92102369  0.95008137  1
  Se  Se157  1  0.42074000  0.24372983  0.44857946  1
  Se  Se158  1  0.41862029  0.25846084  0.94889075  1
  Se  Se159  1  0.41889802  0.58060202  0.44437699  1
  Se  Se160  1  0.40862187  0.59070203  0.94378986  1
  Se  Se161  1  0.40873536  0.92081854  0.44209996  1
  Se  Se162  1  0.40860114  0.92757882  0.93372055  1
  Se  Se163  1  0.75186962  0.25038589  0.44656764  1
  Se  Se164  1  0.75540838  0.24323245  0.94024611  1
  Se  Se165  1  0.74416769  0.59112770  0.44571835  1
  Se  Se166  1  0.75418405  0.58737911  0.93528928  1
  Se  Se167  1  0.75383228  0.92672674  0.44095205  1
  Se  Se168  1  0.74417846  0.91722339  0.94193807  1
  Se  Se169  1  0.25059322  0.07059179  0.44608905  1
  Se  Se170  1  0.24883598  0.08965408  0.94836373  1
  Se  Se171  1  0.24842696  0.40064059  0.43370706  1
  Se  Se172  1  0.25028801  0.42132411  0.95549831  1
  Se  Se173  1  0.25116796  0.74833442  0.44022363  1
  Se  Se174  1  0.24869369  0.75879387  0.94917842  1
  Se  Se175  1  0.58197443  0.07848780  0.44797530  1
  Se  Se176  1  0.58003606  0.08631969  0.94072639  1
  Se  Se177  1  0.58068593  0.41503363  0.45143947  1
  Se  Se178  1  0.60452227  0.41678444  0.93115325  1
  Se  Se179  1  0.58986108  0.74565586  0.44315329  1
  Se  Se180  1  0.59274582  0.75505474  0.93229314  1
  Se  Se181  1  0.91421469  0.09017555  0.44212244  1
  Se  Se182  1  0.91438739  0.08621219  0.95373311  1
  Se  Se183  1  0.92245510  0.41782365  0.44067940  1
  Se  Se184  1  0.92221686  0.40151290  0.93931878  1
  Se  Se185  1  0.91632201  0.75217808  0.44430144  1
  Se  Se186  1  0.91731996  0.74580834  0.94271136  1
  Se  Se187  1  0.25518750  0.23777469  0.30140374  1
  Se  Se188  1  0.24669593  0.24906810  0.81574543  1
  Se  Se189  1  0.25719145  0.58461348  0.30428427  1
  Se  Se190  1  0.24293892  0.58098126  0.81638251  1
  Se  Se191  1  0.23687074  0.91415975  0.31138475  1
  Se  Se192  1  0.24415261  0.92676765  0.79859379  1
  Se  Se193  1  0.58194450  0.24814927  0.31347045  1
  Se  Se194  1  0.58792496  0.24975629  0.80077595  1
  Se  Se195  1  0.58098536  0.57686418  0.30976472  1
  Se  Se196  1  0.57813345  0.57873814  0.79992996  1
  Se  Se197  1  0.58261154  0.91727503  0.29730387  1
  Se  Se198  1  0.57618527  0.91198726  0.79518866  1
  Se  Se199  1  0.92746882  0.26311943  0.30267461  1
  Se  Se200  1  0.92089316  0.24035583  0.80457184  1
  Se  Se201  1  0.92260401  0.59068079  0.30174862  1
  Se  Se202  1  0.89708912  0.56123745  0.80765446  1
  Se  Se203  1  0.91628286  0.91246658  0.30087664  1
  Se  Se204  1  0.91915467  0.91780497  0.81930254  1
  Se  Se205  1  0.05601268  0.07250848  0.29668754  1
  Se  Se206  1  0.09152805  0.09522901  0.81491122  1
  Se  Se207  1  0.09042663  0.42077877  0.30047559  1
  Se  Se208  1  0.08212241  0.41131501  0.81108504  1
  Se  Se209  1  0.08095262  0.74694842  0.30358680  1
  Se  Se210  1  0.08364049  0.74779096  0.80695832  1
  Se  Se211  1  0.42011797  0.08679476  0.31166509  1
  Se  Se212  1  0.41598413  0.09111679  0.80372285  1
  Se  Se213  1  0.41345210  0.41102017  0.30542963  1
  Se  Se214  1  0.42332006  0.41985474  0.80769628  1
  Se  Se215  1  0.41567427  0.74733168  0.29746028  1
  Se  Se216  1  0.41695327  0.75541359  0.81359520  1
  Se  Se217  1  0.73491250  0.07450994  0.30381920  1
  Se  Se218  1  0.74918591  0.07406891  0.80199721  1
  Se  Se219  1  0.75798373  0.42884066  0.30557785  1
  Se  Se220  1  0.73604205  0.39332893  0.79494207  1
  Se  Se221  1  0.75495803  0.76211875  0.31125224  1
  Se  Se222  1  0.73138033  0.73052106  0.80516545  1
  Se  Se223  1  0.23737726  0.09113652  0.19088676  1
  Se  Se224  1  0.25171057  0.08996648  0.69547279  1
  Se  Se225  1  0.25158506  0.40908555  0.19566657  1
  Se  Se226  1  0.23643374  0.42699428  0.69854418  1
  Se  Se227  1  0.25162975  0.74717756  0.19737025  1
  Se  Se228  1  0.24202795  0.75818539  0.68961576  1
  Se  Se229  1  0.58342969  0.08838861  0.19727207  1
  Se  Se230  1  0.59041064  0.08251045  0.69671318  1
  Se  Se231  1  0.57470819  0.42407636  0.19223474  1
  Se  Se232  1  0.57728797  0.40713051  0.68990479  1
  Se  Se233  1  0.58210112  0.75705861  0.18125033  1
  Se  Se234  1  0.57767157  0.73887833  0.70362873  1
  Se  Se235  1  0.93079505  0.07077621  0.19585691  1
  Se  Se236  1  0.92016008  0.08610545  0.69043273  1
  Se  Se237  1  0.91539250  0.42207202  0.19602884  1
  Se  Se238  1  0.92374118  0.40559975  0.70449382  1
  Se  Se239  1  0.91641372  0.74976936  0.19441446  1
  Se  Se240  1  0.92347756  0.74379697  0.70927310  1
  Se  Se241  1  0.06154932  0.26677247  0.18961284  1
  Se  Se242  1  0.08244530  0.25315669  0.69952782  1
  Se  Se243  1  0.08804364  0.58484797  0.19778665  1
  Se  Se244  1  0.07555082  0.58878442  0.70425232  1
  Se  Se245  1  0.08722955  0.91202350  0.19157344  1
  Se  Se246  1  0.09460482  0.90835495  0.69098525  1
  Se  Se247  1  0.41649912  0.24865956  0.19704146  1
  Se  Se248  1  0.42280282  0.24104386  0.68545424  1
  Se  Se249  1  0.41486619  0.58681408  0.19837902  1
  Se  Se250  1  0.41397760  0.57416265  0.68736942  1
  Se  Se251  1  0.42077334  0.91023681  0.18728226  1
  Se  Se252  1  0.43589396  0.90677180  0.70204492  1
  Se  Se253  1  0.76148509  0.23341269  0.19470365  1
  Se  Se254  1  0.75445187  0.24138685  0.69464963  1
  Se  Se255  1  0.75292650  0.58152652  0.18448038  1
  Se  Se256  1  0.75493870  0.56850857  0.70051479  1
  Se  Se257  1  0.74821697  0.92043038  0.19200132  1
  Se  Se258  1  0.77986307  0.89451670  0.69885198  1
