# generated using pymatgen
data_In86Cu29Se144
_symmetry_space_group_name_H-M   'P 1'
_cell_length_a   17.58294457
_cell_length_b   17.58361659
_cell_length_c   23.44316632
_cell_angle_alpha   90.00332113
_cell_angle_beta   89.97628189
_cell_angle_gamma   89.99412212
_symmetry_Int_Tables_number   1
_chemical_formula_structural   In86Cu29Se144
_chemical_formula_sum   'In86 Cu29 Se144'
_cell_volume   7247.96422139
_cell_formula_units_Z   1
loop_
 _symmetry_equiv_pos_site_id
 _symmetry_equiv_pos_as_xyz
  1  'x, y, z'
loop_
 _atom_site_type_symbol
 _atom_site_label
 _atom_site_symmetry_multiplicity
 _atom_site_fract_x
 _atom_site_fract_y
 _atom_site_fract_z
 _atom_site_occupancy
  In  In0  1  0.00719983  0.16047218  0.13344027  1
  In  In1  1  -0.01618663  0.18286931  0.62969324  1
  In  In2  1  -0.00293518  0.49952605  0.11971697  1
  In  In3  1  0.00124171  0.49599189  0.62292629  1
  In  In4  1  0.01837513  0.83697414  0.12652093  1
  In  In5  1  -0.00220501  0.83263534  0.63608301  1
  In  In6  1  0.33190927  0.18335329  0.12639690  1
  In  In7  1  0.33935825  0.16630696  0.63551325  1
  In  In8  1  0.32065907  0.49564638  0.12229194  1
  In  In9  1  0.33056087  0.49778220  0.62901600  1
  In  In10  1  0.32631050  0.83749330  0.12194003  1
  In  In11  1  0.33794489  0.83827149  0.64053313  1
  In  In12  1  0.68087420  0.16958711  0.12616038  1
  In  In13  1  0.68187125  0.16929155  0.61572650  1
  In  In14  1  0.67547197  0.49533116  0.13239015  1
  In  In15  1  0.67318739  0.49548449  0.61888440  1
  In  In16  1  0.65169679  0.82695898  0.12393758  1
  In  In17  1  0.65921434  0.83668732  0.63792465  1
  In  In18  1  0.16455253  0.00934029  0.37437808  1
  In  In19  1  0.16266820  0.00186547  0.87595482  1
  In  In20  1  0.16894625  0.33547727  0.37031850  1
  In  In21  1  0.16372620  0.33344822  0.87461129  1
  In  In22  1  0.15309190  0.65837226  0.37278988  1
  In  In23  1  0.16712328  0.66566360  0.87663748  1
  In  In24  1  0.50231954  0.00002551  0.38159283  1
  In  In25  1  0.48055545  -0.02991215  0.83856945  1
  In  In26  1  0.50972065  0.34502179  0.36934079  1
  In  In27  1  0.49965300  0.33069131  0.86450968  1
  In  In28  1  0.50164744  0.64577001  0.38279972  1
  In  In29  1  0.49069365  0.65998094  0.86287304  1
  In  In30  1  0.83920826  -0.00233904  0.37943846  1
  In  In31  1  0.82955529  -0.00467124  0.86309326  1
  In  In32  1  0.83457212  0.33404753  0.38458026  1
  In  In33  1  0.84142121  0.34372630  0.86719707  1
  In  In34  1  0.82372737  0.66573837  0.37087463  1
  In  In35  1  0.82299878  0.65377513  0.86783055  1
  In  In36  1  -0.00367622  0.16717717  0.37462990  1
  In  In37  1  0.00780063  0.17810270  0.86938997  1
  In  In38  1  0.00773372  0.47801664  0.39712212  1
  In  In39  1  -0.00170269  0.49701273  0.87418916  1
  In  In40  1  -0.00777402  0.83826858  0.37042487  1
  In  In41  1  0.01260123  0.84177882  0.86997325  1
  In  In42  1  0.31972974  0.17193295  0.37788446  1
  In  In43  1  0.32476875  0.15953799  0.86741819  1
  In  In44  1  0.34456732  0.49307779  0.38339594  1
  In  In45  1  0.32701608  0.49637953  0.86883814  1
  In  In46  1  0.33577368  0.83641191  0.37718719  1
  In  In47  1  0.31034711  0.81339438  0.86007299  1
  In  In48  1  0.66717020  0.19315244  0.39028647  1
  In  In49  1  0.66256068  0.16478968  0.86402935  1
  In  In50  1  0.66623498  0.49664071  0.38387006  1
  In  In51  1  0.67131589  0.50450792  0.86631467  1
  In  In52  1  0.68029303  0.82531786  0.37463651  1
  In  In53  1  0.64638070  0.82063128  0.84758899  1
  In  In54  1  0.15398311  -0.00677063  0.11495549  1
  In  In55  1  0.17217684  -0.00206265  0.63521805  1
  In  In56  1  0.16396151  0.33444181  0.12483806  1
  In  In57  1  0.15330544  0.34641677  0.63063655  1
  In  In58  1  0.17380250  0.66784215  0.11004276  1
  In  In59  1  0.17552738  0.65654608  0.63836500  1
  In  In60  1  0.49591290  -0.01172156  0.12239411  1
  In  In61  1  0.50094229  0.00310742  0.63310492  1
  In  In62  1  0.50323314  0.33653741  0.13402472  1
  In  In63  1  0.49804254  0.33801217  0.62514380  1
  In  In64  1  0.50753854  0.67105645  0.12501299  1
  In  In65  1  0.51077609  0.65706667  0.63905246  1
  In  In66  1  0.83732377  0.01704026  0.12449540  1
  In  In67  1  0.82689288  0.01428666  0.62714911  1
  In  In68  1  0.83285266  0.34297744  0.13469826  1
  In  In69  1  0.83667888  0.33523949  0.61723931  1
  In  In70  1  0.83545492  0.64880926  0.12536204  1
  In  In71  1  0.83838104  0.66196020  0.63492085  1
  In  In72  1  0.16567916  0.16764437  0.50147126  1
  In  In73  1  0.83146776  0.82905320  0.50125910  1
  In  In74  1  0.48735055  0.82623252  -0.01542687  1
  In  In75  1  0.17174823  0.82645115  0.50996559  1
  In  In76  1  0.33223588  0.66190496  0.23928120  1
  In  In77  1  0.84172608  0.17240417  -0.00181625  1
  In  In78  1  -0.00470106  0.66435870  0.24801451  1
  In  In79  1  0.49850959  0.16351675  -0.00196097  1
  In  In80  1  0.49479116  0.50148353  -0.01277773  1
  In  In81  1  0.67203675  0.00778735  0.25272579  1
  In  In82  1  0.49903765  0.83077750  0.52007194  1
  In  In83  1  0.50209908  0.17169175  0.50910976  1
  In  In84  1  0.32468248  0.00120419  0.25117855  1
  In  In85  1  0.83597907  0.82955864  -0.00690219  1
  Cu  Cu86  1  0.66266261  -0.00287934  -0.01873716  1
  Cu  Cu87  1  0.00331992  0.65905239  0.50385065  1
  Cu  Cu88  1  0.50572998  0.81742909  0.25518257  1
  Cu  Cu89  1  0.00185252  0.00099307  -0.00269878  1
  Cu  Cu90  1  0.83339224  0.84077985  0.24724661  1
  Cu  Cu91  1  0.00188797  0.66297037  -0.00439220  1
  Cu  Cu92  1  0.16458368  0.49705925  0.25022131  1
  Cu  Cu93  1  0.50020697  0.49721298  0.74492996  1
  Cu  Cu94  1  0.50105008  0.17038609  0.25273438  1
  Cu  Cu95  1  0.32527382  0.33502579  -0.00224130  1
  Cu  Cu96  1  0.16568097  0.16713308  0.74955773  1
  Cu  Cu97  1  0.83542865  0.17069340  0.74511237  1
  Cu  Cu98  1  0.50752376  0.49548732  0.25582173  1
  Cu  Cu99  1  0.83346545  0.17975775  0.25569840  1
  Cu  Cu100  1  0.16196530  0.17234196  0.25118771  1
  Cu  Cu101  1  0.83235419  0.49279687  0.74380617  1
  Cu  Cu102  1  0.32500264  0.66027263  0.50648708  1
  Cu  Cu103  1  0.16124876  0.49717631  0.75380368  1
  Cu  Cu104  1  0.65812828  0.66827159  0.50675067  1
  Cu  Cu105  1  0.32054321  0.00246135  -0.00556927  1
  Cu  Cu106  1  0.00828427  -0.00222875  0.50503642  1
  Cu  Cu107  1  0.67144489  0.65781912  -0.00446653  1
  Cu  Cu108  1  0.67633830  0.33619514  0.00225664  1
  Cu  Cu109  1  0.50910042  0.17703914  0.74416351  1
  Cu  Cu110  1  0.83356067  0.49951761  0.25795069  1
  Cu  Cu111  1  0.84015920  0.82777079  0.75221985  1
  Cu  Cu112  1  0.00407978  0.33803254  -0.00260321  1
  Cu  Cu113  1  0.33186528  0.33337089  0.50392939  1
  Cu  Cu114  1  0.16289367  0.83416420  0.75390608  1
  Se  Se115  1  0.07845418  0.09024043  0.05176532  1
  Se  Se116  1  0.08122439  0.07964414  0.56690489  1
  Se  Se117  1  0.08640564  0.42009163  0.05416712  1
  Se  Se118  1  0.08035975  0.41329484  0.55118973  1
  Se  Se119  1  0.07969561  0.75000969  0.05020852  1
  Se  Se120  1  0.07693246  0.74020340  0.56620302  1
  Se  Se121  1  0.40403568  0.07321364  0.05929056  1
  Se  Se122  1  0.40887755  0.07640443  0.55978572  1
  Se  Se123  1  0.41731100  0.40674656  0.05542944  1
  Se  Se124  1  0.41339003  0.41843662  0.55650631  1
  Se  Se125  1  0.40914707  0.74138934  0.05795784  1
  Se  Se126  1  0.40374332  0.73703146  0.56951628  1
  Se  Se127  1  0.73960247  0.07425807  0.04722261  1
  Se  Se128  1  0.75951488  0.08433239  0.54568549  1
  Se  Se129  1  0.75522396  0.41903845  0.05802623  1
  Se  Se130  1  0.76974298  0.43211438  0.54730420  1
  Se  Se131  1  0.74348801  0.74307360  0.05787475  1
  Se  Se132  1  0.74093070  0.74643642  0.56575913  1
  Se  Se133  1  0.24592061  0.25072672  0.05312052  1
  Se  Se134  1  0.25517896  0.25254934  0.56505940  1
  Se  Se135  1  0.25799542  0.58153038  0.04869600  1
  Se  Se136  1  0.24200393  0.57718879  0.55918992  1
  Se  Se137  1  0.24547317  0.91404321  0.05046765  1
  Se  Se138  1  0.26160833  0.92160244  0.56240855  1
  Se  Se139  1  0.59284268  0.25478754  0.05837825  1
  Se  Se140  1  0.59681742  0.26802785  0.55485661  1
  Se  Se141  1  0.58748768  0.58128700  0.05576377  1
  Se  Se142  1  0.57806165  0.58200887  0.55868482  1
  Se  Se143  1  0.58538275  0.91810427  0.04598608  1
  Se  Se144  1  0.59557335  0.92938620  0.56111329  1
  Se  Se145  1  0.92540743  0.26018101  0.06340838  1
  Se  Se146  1  0.90987556  0.24327081  0.54710963  1
  Se  Se147  1  0.91622071  0.58216079  0.04876621  1
  Se  Se148  1  0.91484198  0.58576630  0.55906457  1
  Se  Se149  1  0.91795445  0.92391493  0.05786256  1
  Se  Se150  1  0.92341154  0.91721350  0.56021895  1
  Se  Se151  1  0.07791075  0.25849703  0.44328426  1
  Se  Se152  1  0.08424517  0.24962109  0.94739391  1
  Se  Se153  1  0.08914519  0.57888056  0.45114993  1
  Se  Se154  1  0.08366991  0.57844069  0.94290251  1
  Se  Se155  1  0.08261661  0.91554152  0.44446722  1
  Se  Se156  1  0.08611727  0.91513885  0.94846472  1
  Se  Se157  1  0.41103056  0.25520261  0.44134240  1
  Se  Se158  1  0.41031331  0.25649037  0.93931633  1
  Se  Se159  1  0.41491010  0.58023861  0.45617027  1
  Se  Se160  1  0.40125120  0.59723005  0.93888818  1
  Se  Se161  1  0.41304891  0.91961503  0.44972615  1
  Se  Se162  1  0.40583245  0.92897797  0.93258916  1
  Se  Se163  1  0.77693313  0.23297972  0.45611671  1
  Se  Se164  1  0.74627887  0.25341417  0.93738078  1
  Se  Se165  1  0.74331703  0.59565270  0.44635613  1
  Se  Se166  1  0.75295279  0.57246584  0.94488105  1
  Se  Se167  1  0.73941333  0.92356133  0.44579332  1
  Se  Se168  1  0.74028990  0.90723887  0.92895234  1
  Se  Se169  1  0.26035221  0.06987739  0.44782517  1
  Se  Se170  1  0.24254060  0.09169179  0.94422564  1
  Se  Se171  1  0.25064160  0.41151535  0.44389267  1
  Se  Se172  1  0.24718803  0.41957300  0.94283723  1
  Se  Se173  1  0.25500546  0.73866997  0.44055028  1
  Se  Se174  1  0.24546358  0.75391277  0.94543974  1
  Se  Se175  1  0.59206258  0.08141359  0.44546688  1
  Se  Se176  1  0.57573357  0.07671157  0.92946020  1
  Se  Se177  1  0.57396469  0.41969008  0.44896215  1
  Se  Se178  1  0.59176517  0.40606028  0.93832798  1
  Se  Se179  1  0.58333546  0.75061146  0.44420623  1
  Se  Se180  1  0.59100134  0.73751283  0.93545460  1
  Se  Se181  1  0.92772277  0.07575055  0.44591525  1
  Se  Se182  1  0.91958553  0.07565847  0.93570634  1
  Se  Se183  1  0.88853925  0.43796645  0.45529841  1
  Se  Se184  1  0.91440766  0.41624746  0.94645907  1
  Se  Se185  1  0.92635396  0.73983139  0.44150114  1
  Se  Se186  1  0.92262414  0.74047967  0.93188035  1
  Se  Se187  1  0.25195382  0.25123470  0.30143880  1
  Se  Se188  1  0.24752715  0.25242447  0.80355670  1
  Se  Se189  1  0.24806919  0.57684179  0.30848387  1
  Se  Se190  1  0.24671910  0.58448917  0.80252503  1
  Se  Se191  1  0.23844207  0.90610004  0.30990789  1
  Se  Se192  1  0.24646302  0.92267655  0.80401000  1
  Se  Se193  1  0.58753346  0.24865888  0.30691022  1
  Se  Se194  1  0.59310302  0.26014264  0.79724892  1
  Se  Se195  1  0.58789129  0.58082832  0.30882415  1
  Se  Se196  1  0.58222794  0.58231244  0.79911604  1
  Se  Se197  1  0.58011244  0.90958553  0.30974556  1
  Se  Se198  1  0.61316422  0.94550598  0.79693822  1
  Se  Se199  1  0.91877022  0.25931392  0.30966755  1
  Se  Se200  1  0.91723761  0.25180852  0.80159737  1
  Se  Se201  1  0.92012714  0.57499155  0.31718509  1
  Se  Se202  1  0.91265378  0.57467256  0.80236410  1
  Se  Se203  1  0.91439692  0.92294193  0.30111539  1
  Se  Se204  1  0.92222461  0.91595995  0.80115230  1
  Se  Se205  1  0.08185686  0.08600247  0.30473822  1
  Se  Se206  1  0.08217154  0.08383622  0.80418314  1
  Se  Se207  1  0.07854082  0.42146593  0.30846602  1
  Se  Se208  1  0.07754772  0.41116774  0.80447322  1
  Se  Se209  1  0.08744177  0.75846820  0.30504443  1
  Se  Se210  1  0.08265417  0.74497869  0.80435106  1
  Se  Se211  1  0.42186322  0.08787930  0.31118338  1
  Se  Se212  1  0.42485388  0.09642022  0.80023516  1
  Se  Se213  1  0.41352865  0.41706532  0.30331334  1
  Se  Se214  1  0.41594835  0.41800908  0.80167813  1
  Se  Se215  1  0.41924250  0.74379656  0.31297681  1
  Se  Se216  1  0.43759419  0.77805451  0.81159046  1
  Se  Se217  1  0.75468474  0.09620351  0.31624273  1
  Se  Se218  1  0.75273395  0.08687324  0.79841910  1
  Se  Se219  1  0.75152965  0.41667055  0.31367397  1
  Se  Se220  1  0.74662859  0.41293348  0.79941220  1
  Se  Se221  1  0.75300552  0.75153149  0.29686530  1
  Se  Se222  1  0.75046513  0.74215187  0.79662768  1
  Se  Se223  1  0.24176462  0.09172481  0.18806327  1
  Se  Se224  1  0.25468190  0.08272469  0.70173703  1
  Se  Se225  1  0.24969927  0.41467550  0.19667735  1
  Se  Se226  1  0.24695280  0.41560543  0.69911162  1
  Se  Se227  1  0.23761309  0.75794371  0.19128437  1
  Se  Se228  1  0.25032346  0.75193448  0.70228653  1
  Se  Se229  1  0.57387368  0.08778299  0.18738512  1
  Se  Se230  1  0.58980794  0.09646723  0.68623536  1
  Se  Se231  1  0.59158308  0.41328623  0.20041373  1
  Se  Se232  1  0.58676875  0.41857048  0.69089398  1
  Se  Se233  1  0.59099611  0.73962301  0.20043579  1
  Se  Se234  1  0.57374410  0.75818970  0.70324939  1
  Se  Se235  1  0.91100636  0.09066532  0.20143938  1
  Se  Se236  1  0.92075120  0.08226587  0.69640939  1
  Se  Se237  1  0.92047309  0.42712094  0.19867664  1
  Se  Se238  1  0.91893243  0.41122273  0.69189222  1
  Se  Se239  1  0.90923069  0.75821671  0.18432236  1
  Se  Se240  1  0.92466125  0.74105349  0.70301009  1
  Se  Se241  1  0.08009323  0.25665189  0.19750363  1
  Se  Se242  1  0.08193805  0.24992544  0.69642610  1
  Se  Se243  1  0.09379123  0.58316242  0.18815268  1
  Se  Se244  1  0.07821268  0.57889203  0.69800336  1
  Se  Se245  1  0.07951789  0.92988479  0.19680598  1
  Se  Se246  1  0.08231067  0.91884827  0.69979249  1
  Se  Se247  1  0.41733146  0.25299758  0.19947014  1
  Se  Se248  1  0.41740329  0.25897037  0.69813366  1
  Se  Se249  1  0.42947214  0.56867217  0.18724231  1
  Se  Se250  1  0.41048873  0.58367155  0.69951010  1
  Se  Se251  1  0.42304670  0.90147857  0.19864569  1
  Se  Se252  1  0.41931319  0.92598793  0.70432069  1
  Se  Se253  1  0.74730507  0.25563485  0.19955766  1
  Se  Se254  1  0.75457907  0.25367149  0.68903666  1
  Se  Se255  1  0.75249640  0.58365387  0.20207739  1
  Se  Se256  1  0.74596874  0.57920707  0.69511365  1
  Se  Se257  1  0.75124004  0.91490816  0.18366389  1
  Se  Se258  1  0.76369116  0.91153463  0.69249127  1
