# generated using pymatgen
data_In86Cu29Se144
_symmetry_space_group_name_H-M   'P 1'
_cell_length_a   17.58282925
_cell_length_b   17.58016568
_cell_length_c   23.44026786
_cell_angle_alpha   90.01070301
_cell_angle_beta   89.98837172
_cell_angle_gamma   90.02338291
_symmetry_Int_Tables_number   1
_chemical_formula_structural   In86Cu29Se144
_chemical_formula_sum   'In86 Cu29 Se144'
_cell_volume   7245.59808092
_cell_formula_units_Z   1
loop_
 _symmetry_equiv_pos_site_id
 _symmetry_equiv_pos_as_xyz
  1  'x, y, z'
loop_
 _atom_site_type_symbol
 _atom_site_label
 _atom_site_symmetry_multiplicity
 _atom_site_fract_x
 _atom_site_fract_y
 _atom_site_fract_z
 _atom_site_occupancy
  In  In0  1  0.00946391  0.16154997  0.13398166  1
  In  In1  1  0.00121586  0.16673771  0.62675142  1
  In  In2  1  -0.00361457  0.49447302  0.11953552  1
  In  In3  1  0.00330418  0.47714321  0.62532729  1
  In  In4  1  0.01369992  0.83361701  0.12492089  1
  In  In5  1  0.00251953  0.85227253  0.62346719  1
  In  In6  1  0.34107916  0.17618154  0.12027784  1
  In  In7  1  0.30977433  0.17173802  0.63145068  1
  In  In8  1  0.32289123  0.50883450  0.12628154  1
  In  In9  1  0.32512991  0.51560175  0.63126165  1
  In  In10  1  0.32852610  0.82301680  0.11311981  1
  In  In11  1  0.33145605  0.83831871  0.63499504  1
  In  In12  1  0.66465953  0.17455756  0.12725885  1
  In  In13  1  0.67228683  0.15472073  0.62029633  1
  In  In14  1  0.67530638  0.49655793  0.13034566  1
  In  In15  1  0.66559954  0.51250210  0.62754451  1
  In  In16  1  0.64811260  0.83169393  0.12181691  1
  In  In17  1  0.65545258  0.82683317  0.61845221  1
  In  In18  1  0.16658866  0.01830208  0.37831520  1
  In  In19  1  0.16290046  0.00451896  0.87663467  1
  In  In20  1  0.16514334  0.33238732  0.37140497  1
  In  In21  1  0.16584379  0.33212243  0.87956041  1
  In  In22  1  0.16934210  0.65452370  0.37389326  1
  In  In23  1  0.18364882  0.65284236  0.88878056  1
  In  In24  1  0.48712075  -0.00961112  0.38114279  1
  In  In25  1  0.49198984  0.00185468  0.87844397  1
  In  In26  1  0.50550492  0.32942454  0.35686176  1
  In  In27  1  0.48678659  0.33069232  0.88066710  1
  In  In28  1  0.50340772  0.66988756  0.36691147  1
  In  In29  1  0.50155502  0.67312374  0.86597026  1
  In  In30  1  0.84562084  -0.00712115  0.37902241  1
  In  In31  1  0.84210507  0.00410471  0.86709212  1
  In  In32  1  0.83553613  0.33112316  0.37315962  1
  In  In33  1  0.85109530  0.32940274  0.87529604  1
  In  In34  1  0.82444538  0.67624381  0.37950033  1
  In  In35  1  0.82211342  0.66445748  0.87488127  1
  In  In36  1  0.00698957  0.17145215  0.37472337  1
  In  In37  1  0.01513728  0.18460576  0.85449124  1
  In  In38  1  0.01614001  0.49427425  0.37960562  1
  In  In39  1  0.01324101  0.48636198  0.88272321  1
  In  In40  1  -0.01222480  0.82773749  0.37633347  1
  In  In41  1  0.00715847  0.84897773  0.87067756  1
  In  In42  1  0.32493814  0.16941780  0.37457874  1
  In  In43  1  0.33310463  0.16346947  0.88092981  1
  In  In44  1  0.32997017  0.49311971  0.36436528  1
  In  In45  1  0.32430614  0.49696516  0.87552995  1
  In  In46  1  0.34666614  0.83818747  0.37783441  1
  In  In47  1  0.33136801  0.82889210  0.87648522  1
  In  In48  1  0.67013516  0.18285854  0.37240099  1
  In  In49  1  0.66242763  0.15823291  0.87615099  1
  In  In50  1  0.66370142  0.49600038  0.36523439  1
  In  In51  1  0.66113559  0.51822591  0.88004905  1
  In  In52  1  0.66811460  0.83079616  0.37662636  1
  In  In53  1  0.66088172  0.81695160  0.86786630  1
  In  In54  1  0.16286672  -0.00335694  0.12060206  1
  In  In55  1  0.14631034  0.02500694  0.65161613  1
  In  In56  1  0.16802722  0.33265662  0.12603532  1
  In  In57  1  0.13859705  0.30887701  0.59562947  1
  In  In58  1  0.18268886  0.67169234  0.11003445  1
  In  In59  1  0.17955685  0.66816941  0.62671473  1
  In  In60  1  0.49497279  -0.00560699  0.11455629  1
  In  In61  1  0.50044229  -0.01637588  0.62962339  1
  In  In62  1  0.50285793  0.32190739  0.13407544  1
  In  In63  1  0.50521783  0.33841777  0.62392661  1
  In  In64  1  0.48729332  0.67660042  0.12955090  1
  In  In65  1  0.47054619  0.69637113  0.65996177  1
  In  In66  1  0.83896120  0.01044901  0.12772527  1
  In  In67  1  0.84789369  0.01314796  0.61320468  1
  In  In68  1  0.82991405  0.34039485  0.13296787  1
  In  In69  1  0.85319344  0.32520886  0.62648943  1
  In  In70  1  0.83661628  0.65189761  0.12604106  1
  In  In71  1  0.81482864  0.66526282  0.62286581  1
  In  In72  1  0.83511797  0.49504336  0.49716482  1
  In  In73  1  0.49805052  0.15924652  0.49218507  1
  In  In74  1  0.83095219  0.16945731  0.00198176  1
  In  In75  1  0.00198874  0.65871494  0.25250698  1
  In  In76  1  0.66790093  0.00040651  0.24309049  1
  In  In77  1  0.67143550  -0.00238389  0.75029204  1
  In  In78  1  0.17150336  0.83599552  0.50841513  1
  In  In79  1  0.67055896  0.34207735  0.74257040  1
  In  In80  1  0.83244936  0.83240653  -0.01066794  1
  In  In81  1  0.33240985  0.00459738  0.25511361  1
  In  In82  1  -0.00214048  0.66990436  0.75239074  1
  In  In83  1  0.32539114  0.33992488  0.75332564  1
  In  In84  1  0.49938620  0.50445525  0.50101459  1
  In  In85  1  0.49312807  0.50445740  0.00311592  1
  Cu  Cu86  1  0.00496306  0.33140029  0.00106126  1
  Cu  Cu87  1  0.84092283  0.16519624  0.25279286  1
  Cu  Cu88  1  0.33506438  -0.00201422  0.51121839  1
  Cu  Cu89  1  0.16631651  0.17320261  0.25166416  1
  Cu  Cu90  1  0.50164820  0.50089050  0.24175905  1
  Cu  Cu91  1  0.32639927  -0.00157166  -0.00342356  1
  Cu  Cu92  1  0.67470093  -0.00567797  0.49975293  1
  Cu  Cu93  1  0.00202081  0.00320476  -0.00186415  1
  Cu  Cu94  1  0.65697464  -0.00478836  -0.00567489  1
  Cu  Cu95  1  0.67413228  0.33453767  0.49697221  1
  Cu  Cu96  1  0.16379122  0.49396572  0.75182292  1
  Cu  Cu97  1  0.32578482  0.34146342  0.49489572  1
  Cu  Cu98  1  0.83376366  0.49788656  0.74993941  1
  Cu  Cu99  1  0.16958935  0.83528333  0.24237267  1
  Cu  Cu100  1  0.33910762  0.67020071  0.50724223  1
  Cu  Cu101  1  0.00543698  0.00581364  0.50073018  1
  Cu  Cu102  1  0.65415776  0.67496422  0.50018112  1
  Cu  Cu103  1  0.49490994  0.82705476  0.24734792  1
  Cu  Cu104  1  0.00307829  0.66316480  0.00111309  1
  Cu  Cu105  1  0.16793912  0.49901117  0.24709225  1
  Cu  Cu106  1  0.32930262  0.32813413  0.00332179  1
  Cu  Cu107  1  0.83411790  0.49810307  0.25234513  1
  Cu  Cu108  1  0.66593772  0.33663697  0.00948553  1
  Cu  Cu109  1  0.83024444  0.83744475  0.74402298  1
  Cu  Cu110  1  0.66537883  0.66681916  -0.00114655  1
  Cu  Cu111  1  0.83114010  0.83000969  0.25532476  1
  Cu  Cu112  1  0.17320534  0.83343636  0.75555543  1
  Cu  Cu113  1  -0.00458178  0.66300870  0.49865453  1
  Cu  Cu114  1  0.49446672  0.17034031  0.75562094  1
  Se  Se115  1  0.08132039  0.08625683  0.05524052  1
  Se  Se116  1  0.08984554  0.08158663  0.55896466  1
  Se  Se117  1  0.08724066  0.41578186  0.05467332  1
  Se  Se118  1  0.09227127  0.43091988  0.54652339  1
  Se  Se119  1  0.08365262  0.75120022  0.05132407  1
  Se  Se120  1  0.07491204  0.74249953  0.56230377  1
  Se  Se121  1  0.41023552  0.08090874  0.05188115  1
  Se  Se122  1  0.41573574  0.08458330  0.56715584  1
  Se  Se123  1  0.41177504  0.40789773  0.06393240  1
  Se  Se124  1  0.40632551  0.41337214  0.55957738  1
  Se  Se125  1  0.42801973  0.75597999  0.04950948  1
  Se  Se126  1  0.41475697  0.75325510  0.56594968  1
  Se  Se127  1  0.73768380  0.07227827  0.05674700  1
  Se  Se128  1  0.75465938  0.08689695  0.54519641  1
  Se  Se129  1  0.75493839  0.41849395  0.05651856  1
  Se  Se130  1  0.74478018  0.41203938  0.56466141  1
  Se  Se131  1  0.74896451  0.74671172  0.05919111  1
  Se  Se132  1  0.74757419  0.75209151  0.54936883  1
  Se  Se133  1  0.24336388  0.24481029  0.05455763  1
  Se  Se134  1  0.25408942  0.24485003  0.54501946  1
  Se  Se135  1  0.25587434  0.57937757  0.04460442  1
  Se  Se136  1  0.24966451  0.58513553  0.55125650  1
  Se  Se137  1  0.24517543  0.91468917  0.05231021  1
  Se  Se138  1  0.24490904  0.93250480  0.57253576  1
  Se  Se139  1  0.58093661  0.24913447  0.05512666  1
  Se  Se140  1  0.58887797  0.25318495  0.55411959  1
  Se  Se141  1  0.58835472  0.58843515  0.06381581  1
  Se  Se142  1  0.57746276  0.59836100  0.56414330  1
  Se  Se143  1  0.57574085  0.90937908  0.04598593  1
  Se  Se144  1  0.58219375  0.91977481  0.55076875  1
  Se  Se145  1  0.92263976  0.25432515  0.06401589  1
  Se  Se146  1  0.92288202  0.24636807  0.55249379  1
  Se  Se147  1  0.91598033  0.58096594  0.05076722  1
  Se  Se148  1  0.91937277  0.58444301  0.56405158  1
  Se  Se149  1  0.91856640  0.92148654  0.05567261  1
  Se  Se150  1  0.91932536  0.91668207  0.54626911  1
  Se  Se151  1  0.10206038  0.23866095  0.44291869  1
  Se  Se152  1  0.07906755  0.24457927  0.94335100  1
  Se  Se153  1  0.08591860  0.58605689  0.44917010  1
  Se  Se154  1  0.08695382  0.57649748  0.95070561  1
  Se  Se155  1  0.08180058  0.91817157  0.44060174  1
  Se  Se156  1  0.08525820  0.91645419  0.94885210  1
  Se  Se157  1  0.41587352  0.26431170  0.43862327  1
  Se  Se158  1  0.41569693  0.24579226  0.95205941  1
  Se  Se159  1  0.40886315  0.59007732  0.43834907  1
  Se  Se160  1  0.41137771  0.59071259  0.93702775  1
  Se  Se161  1  0.41625747  0.91238871  0.45853052  1
  Se  Se162  1  0.41321692  0.91561555  0.94623372  1
  Se  Se163  1  0.75659287  0.24958851  0.44639905  1
  Se  Se164  1  0.74080933  0.25964927  0.94067007  1
  Se  Se165  1  0.73333441  0.58528301  0.44454209  1
  Se  Se166  1  0.75381068  0.58247989  0.95226757  1
  Se  Se167  1  0.75510219  0.91136949  0.44295346  1
  Se  Se168  1  0.74106242  0.92503952  0.93123850  1
  Se  Se169  1  0.26105290  0.08022687  0.44940251  1
  Se  Se170  1  0.24349934  0.08685652  0.94846524  1
  Se  Se171  1  0.24625433  0.42326370  0.43887380  1
  Se  Se172  1  0.25033812  0.41325721  0.94794712  1
  Se  Se173  1  0.25639295  0.74654824  0.44299131  1
  Se  Se174  1  0.24220302  0.75917117  0.94869561  1
  Se  Se175  1  0.59580071  0.07228179  0.43445830  1
  Se  Se176  1  0.57647721  0.08660851  0.94671302  1
  Se  Se177  1  0.58585122  0.40830327  0.43963157  1
  Se  Se178  1  0.58689549  0.41268200  0.94387409  1
  Se  Se179  1  0.57348538  0.75472063  0.44167255  1
  Se  Se180  1  0.58168949  0.74700149  0.94458740  1
  Se  Se181  1  0.92302035  0.08521458  0.44291050  1
  Se  Se182  1  0.92201661  0.08486113  0.94009438  1
  Se  Se183  1  0.93032957  0.40461722  0.44537443  1
  Se  Se184  1  0.91814326  0.41408513  0.95029741  1
  Se  Se185  1  0.91154860  0.74903464  0.45079214  1
  Se  Se186  1  0.92871116  0.74217655  0.93482521  1
  Se  Se187  1  0.25447099  0.25459635  0.30170468  1
  Se  Se188  1  0.24283348  0.24032391  0.80831604  1
  Se  Se189  1  0.25102165  0.58550260  0.29860444  1
  Se  Se190  1  0.24603062  0.57936662  0.80387734  1
  Se  Se191  1  0.24106430  0.91127238  0.31346382  1
  Se  Se192  1  0.24985194  0.92009283  0.81068298  1
  Se  Se193  1  0.59035832  0.24476768  0.29433809  1
  Se  Se194  1  0.57986231  0.25223232  0.80853527  1
  Se  Se195  1  0.58285719  0.58279349  0.29985402  1
  Se  Se196  1  0.59029535  0.58960396  0.80271804  1
  Se  Se197  1  0.57363987  0.91324340  0.30517784  1
  Se  Se198  1  0.57683069  0.91310136  0.80790038  1
  Se  Se199  1  0.92187918  0.25195841  0.30472372  1
  Se  Se200  1  0.90969970  0.24984516  0.79592614  1
  Se  Se201  1  0.91007053  0.57634356  0.31858109  1
  Se  Se202  1  0.91559603  0.57372918  0.81367924  1
  Se  Se203  1  0.91933786  0.91333711  0.30205755  1
  Se  Se204  1  0.91577411  0.91495564  0.79868884  1
  Se  Se205  1  0.08460663  0.08449618  0.30205025  1
  Se  Se206  1  0.06957683  0.06762815  0.80408038  1
  Se  Se207  1  0.08339974  0.41719191  0.30061808  1
  Se  Se208  1  0.08358008  0.40875171  0.80492089  1
  Se  Se209  1  0.09178891  0.75645200  0.30868424  1
  Se  Se210  1  0.09324889  0.74898129  0.81461915  1
  Se  Se211  1  0.42852859  0.09255475  0.31181933  1
  Se  Se212  1  0.41386513  0.08564944  0.80750877  1
  Se  Se213  1  0.41931247  0.41759436  0.29671641  1
  Se  Se214  1  0.42582763  0.42588222  0.80819912  1
  Se  Se215  1  0.40894453  0.74932833  0.30309249  1
  Se  Se216  1  0.41478112  0.75597242  0.80195336  1
  Se  Se217  1  0.75684467  0.08309174  0.30999097  1
  Se  Se218  1  0.75921459  0.09831392  0.80289478  1
  Se  Se219  1  0.75106024  0.41104930  0.30331683  1
  Se  Se220  1  0.75342769  0.42242759  0.81534200  1
  Se  Se221  1  0.74410655  0.74707803  0.30331578  1
  Se  Se222  1  0.75513298  0.74964887  0.79923887  1
  Se  Se223  1  0.24424223  0.08913487  0.19069030  1
  Se  Se224  1  0.26685304  0.07219301  0.70375148  1
  Se  Se225  1  0.25255890  0.41552863  0.19473204  1
  Se  Se226  1  0.23660261  0.41603025  0.68418321  1
  Se  Se227  1  0.24999281  0.74996643  0.19034308  1
  Se  Se228  1  0.25153611  0.74720974  0.70159422  1
  Se  Se229  1  0.57049064  0.08496988  0.18774072  1
  Se  Se230  1  0.57561396  0.09183177  0.69360612  1
  Se  Se231  1  0.58729979  0.41390490  0.19459464  1
  Se  Se232  1  0.56981270  0.43358733  0.69498310  1
  Se  Se233  1  0.58462202  0.74652091  0.19776603  1
  Se  Se234  1  0.59627170  0.74851649  0.69923744  1
  Se  Se235  1  0.92261988  0.07886778  0.20131000  1
  Se  Se236  1  0.92323424  0.07546716  0.69332225  1
  Se  Se237  1  0.92095921  0.42032901  0.19783357  1
  Se  Se238  1  0.91836562  0.41254989  0.70172988  1
  Se  Se239  1  0.91419911  0.75357572  0.19161971  1
  Se  Se240  1  0.91171611  0.75518977  0.68489581  1
  Se  Se241  1  0.08190351  0.25667622  0.19875684  1
  Se  Se242  1  0.09222302  0.25149437  0.68884445  1
  Se  Se243  1  0.09185582  0.58221159  0.18453188  1
  Se  Se244  1  0.08551465  0.57830645  0.69058398  1
  Se  Se245  1  0.08285914  0.92111109  0.19712692  1
  Se  Se246  1  0.08268601  0.91107157  0.70431087  1
  Se  Se247  1  0.41083730  0.24760691  0.19998564  1
  Se  Se248  1  0.42087682  0.25014883  0.69052428  1
  Se  Se249  1  0.41259846  0.58449054  0.19512454  1
  Se  Se250  1  0.41424837  0.57575222  0.70429706  1
  Se  Se251  1  0.41466966  0.91179046  0.19046165  1
  Se  Se252  1  0.42172825  0.91245666  0.70346393  1
  Se  Se253  1  0.75587194  0.24341564  0.19649628  1
  Se  Se254  1  0.75464898  0.24184500  0.68904956  1
  Se  Se255  1  0.75221751  0.58463974  0.20097851  1
  Se  Se256  1  0.75020338  0.58396942  0.70154198  1
  Se  Se257  1  0.75756730  0.90491049  0.18531401  1
  Se  Se258  1  0.75527721  0.91663648  0.67961986  1
