# generated using pymatgen
data_In86Cu29Se144
_symmetry_space_group_name_H-M   'P 1'
_cell_length_a   17.68687539
_cell_length_b   17.67773182
_cell_length_c   23.54854199
_cell_angle_alpha   89.97882713
_cell_angle_beta   89.96034141
_cell_angle_gamma   90.03380670
_symmetry_Int_Tables_number   1
_chemical_formula_structural   In86Cu29Se144
_chemical_formula_sum   'In86 Cu29 Se144'
_cell_volume   7362.77401162
_cell_formula_units_Z   1
loop_
 _symmetry_equiv_pos_site_id
 _symmetry_equiv_pos_as_xyz
  1  'x, y, z'
loop_
 _atom_site_type_symbol
 _atom_site_label
 _atom_site_symmetry_multiplicity
 _atom_site_fract_x
 _atom_site_fract_y
 _atom_site_fract_z
 _atom_site_occupancy
  In  In0  1  0.01669085  0.17354924  0.12635024  1
  In  In1  1  -0.00544206  0.17303058  0.61129372  1
  In  In2  1  -0.00874746  0.48238883  0.11579813  1
  In  In3  1  0.00482958  0.49622976  0.61330768  1
  In  In4  1  0.00091675  0.81906725  0.12108232  1
  In  In5  1  -0.00196281  0.81882788  0.62989996  1
  In  In6  1  0.34700392  0.18682938  0.11107515  1
  In  In7  1  0.34102420  0.16831946  0.61771188  1
  In  In8  1  0.32280925  0.49539814  0.12668267  1
  In  In9  1  0.33669373  0.50961657  0.62079130  1
  In  In10  1  0.33426487  0.83259686  0.11503011  1
  In  In11  1  0.33073849  0.82704306  0.62738214  1
  In  In12  1  0.66429616  0.18428727  0.13081676  1
  In  In13  1  0.66826742  0.17183714  0.61465578  1
  In  In14  1  0.66447652  0.47922269  0.12002406  1
  In  In15  1  0.66916009  0.50077066  0.62195574  1
  In  In16  1  0.66100116  0.83953162  0.11720083  1
  In  In17  1  0.65309812  0.84330387  0.63159067  1
  In  In18  1  0.16239123  0.00400887  0.38210373  1
  In  In19  1  0.15976762  0.00267514  0.88061671  1
  In  In20  1  0.17218296  0.32603356  0.36953289  1
  In  In21  1  0.16076967  0.34717441  0.89915329  1
  In  In22  1  0.16720706  0.66350708  0.38379689  1
  In  In23  1  0.16821603  0.66419837  0.86846443  1
  In  In24  1  0.49681747  0.02162376  0.39247652  1
  In  In25  1  0.49780603  0.00313997  0.87278242  1
  In  In26  1  0.50383836  0.33896393  0.37853220  1
  In  In27  1  0.50046240  0.32256168  0.87783892  1
  In  In28  1  0.50718481  0.65966430  0.38514376  1
  In  In29  1  0.51027460  0.67554238  0.86211927  1
  In  In30  1  0.84198480  0.01391915  0.37619154  1
  In  In31  1  0.82103018  0.01341969  0.86795244  1
  In  In32  1  0.82290175  0.32547242  0.37306048  1
  In  In33  1  0.83404512  0.34804614  0.88094931  1
  In  In34  1  0.82355345  0.64835051  0.37426165  1
  In  In35  1  0.82560862  0.65735898  0.86086997  1
  In  In36  1  -0.01674997  0.20418954  0.40943163  1
  In  In37  1  -0.00010565  0.18471094  0.88066501  1
  In  In38  1  0.02385038  0.44955170  0.41695490  1
  In  In39  1  -0.00547716  0.50398369  0.87793658  1
  In  In40  1  0.00069976  0.84348762  0.37988271  1
  In  In41  1  0.01204327  0.82962976  0.86986982  1
  In  In42  1  0.32923841  0.17349071  0.37669412  1
  In  In43  1  0.33033752  0.17138564  0.88288583  1
  In  In44  1  0.34487569  0.48670109  0.37806183  1
  In  In45  1  0.32055025  0.49635201  0.87446714  1
  In  In46  1  0.33615013  0.83223356  0.38112054  1
  In  In47  1  0.33562239  0.82902099  0.87357953  1
  In  In48  1  0.63740185  0.20294345  0.43404682  1
  In  In49  1  0.66066361  0.16403478  0.86548706  1
  In  In50  1  0.69609636  0.45629877  0.42538312  1
  In  In51  1  0.66956582  0.50335740  0.86692721  1
  In  In52  1  0.65818959  0.83977562  0.38808406  1
  In  In53  1  0.65434071  0.83125079  0.86459287  1
  In  In54  1  0.17867944  0.00472382  0.11855519  1
  In  In55  1  0.18194390  0.00833498  0.62240772  1
  In  In56  1  0.16696867  0.33276301  0.13284154  1
  In  In57  1  0.16196982  0.34212926  0.61033152  1
  In  In58  1  0.16048593  0.65312994  0.11113280  1
  In  In59  1  0.16267000  0.66148126  0.62765840  1
  In  In60  1  0.49547824  0.00205632  0.11551873  1
  In  In61  1  0.51711919  0.01029959  0.60910399  1
  In  In62  1  0.51465034  0.31848143  0.13799881  1
  In  In63  1  0.51521805  0.35237949  0.60680736  1
  In  In64  1  0.49351098  0.66508890  0.11716253  1
  In  In65  1  0.49663766  0.66815763  0.63037433  1
  In  In66  1  0.82429834  0.00887860  0.12784709  1
  In  In67  1  0.81221734  0.00562871  0.61523825  1
  In  In68  1  0.82543644  0.33954692  0.13192481  1
  In  In69  1  0.82270031  0.32198533  0.59786938  1
  In  In70  1  0.84552312  0.64436176  0.12004026  1
  In  In71  1  0.84287171  0.65888121  0.63337701  1
  In  In72  1  -0.00373075  0.66062279  0.25202727  1
  In  In73  1  -0.00471391  0.34221005  0.74845172  1
  In  In74  1  0.66205879  0.66117988  0.25008892  1
  In  In75  1  0.33506379  0.33175767  0.75442988  1
  In  In76  1  0.66116999  0.01376669  0.26342488  1
  In  In77  1  0.49317268  0.49877100  -0.00300027  1
  In  In78  1  0.33603092  0.00716247  0.25979645  1
  In  In79  1  -0.00860895  -0.00241958  0.74736297  1
  In  In80  1  0.33031442  0.66214543  0.24710775  1
  In  In81  1  0.00435993  0.00422639  0.25030542  1
  In  In82  1  0.83498174  0.16680455  0.00103845  1
  In  In83  1  0.84008620  0.82298081  0.50822903  1
  In  In84  1  0.33604108  0.00130140  0.75156231  1
  In  In85  1  0.82900679  0.82624017  -0.00495512  1
  Cu  Cu86  1  0.16687612  0.82963472  0.24649869  1
  Cu  Cu87  1  0.82318344  0.17413483  0.74099097  1
  Cu  Cu88  1  0.16116322  0.49180630  0.25407993  1
  Cu  Cu89  1  0.16397847  0.82683236  0.74620126  1
  Cu  Cu90  1  0.16744872  0.17270471  0.25155590  1
  Cu  Cu91  1  0.49814272  0.84097450  0.74920389  1
  Cu  Cu92  1  0.01733768  -0.00767864  0.50822684  1
  Cu  Cu93  1  0.50265206  0.49854025  0.74142472  1
  Cu  Cu94  1  0.33551819  0.67399332  -0.00724108  1
  Cu  Cu95  1  -0.00320108  -0.01015171  0.00018618  1
  Cu  Cu96  1  0.65676435  0.67418909  0.50910729  1
  Cu  Cu97  1  0.67137091  0.66306225  -0.01202489  1
  Cu  Cu98  1  0.33075172  -0.00400193  -0.00629352  1
  Cu  Cu99  1  0.49654995  0.83655147  0.25148344  1
  Cu  Cu100  1  0.82841031  0.48706776  0.25726917  1
  Cu  Cu101  1  0.15935580  0.17839465  0.75386467  1
  Cu  Cu102  1  -0.00294617  0.66392010  0.50608967  1
  Cu  Cu103  1  0.33721535  -0.00885633  0.50189081  1
  Cu  Cu104  1  0.16751939  0.50178041  0.74689130  1
  Cu  Cu105  1  0.00781886  0.66314753  -0.00703917  1
  Cu  Cu106  1  0.32681272  0.33046704  0.49691884  1
  Cu  Cu107  1  0.83041911  0.49021906  0.74603651  1
  Cu  Cu108  1  0.50587145  0.49178685  0.25447362  1
  Cu  Cu109  1  0.50731361  0.17552068  0.74101999  1
  Cu  Cu110  1  0.65394472  0.00344769  -0.00716390  1
  Cu  Cu111  1  0.82041284  0.83052734  0.25083547  1
  Cu  Cu112  1  0.32666225  0.66895504  0.50567227  1
  Cu  Cu113  1  0.82559342  0.83332949  0.74373591  1
  Cu  Cu114  1  0.84097132  0.17888888  0.25766800  1
  Se  Se115  1  0.07355202  0.07128934  0.05980545  1
  Se  Se116  1  0.09062768  0.08528436  0.55805379  1
  Se  Se117  1  0.10945962  0.43449007  0.06475493  1
  Se  Se118  1  0.08122092  0.41858858  0.53783254  1
  Se  Se119  1  0.08434028  0.74858228  0.04850286  1
  Se  Se120  1  0.08043813  0.74659499  0.55779973  1
  Se  Se121  1  0.41011920  0.08167720  0.04948707  1
  Se  Se122  1  0.41830404  0.08357112  0.54881838  1
  Se  Se123  1  0.42497445  0.41452234  0.07209196  1
  Se  Se124  1  0.40617345  0.41728656  0.55186137  1
  Se  Se125  1  0.42057503  0.75201253  0.04846595  1
  Se  Se126  1  0.41409045  0.74763213  0.55830661  1
  Se  Se127  1  0.73484475  0.07876213  0.05613075  1
  Se  Se128  1  0.77305372  0.11211915  0.54708981  1
  Se  Se129  1  0.76421019  0.42321596  0.05379960  1
  Se  Se130  1  0.73292437  0.41389821  0.54409519  1
  Se  Se131  1  0.74483041  0.73548350  0.06078921  1
  Se  Se132  1  0.74428788  0.74490620  0.57031955  1
  Se  Se133  1  0.22118833  0.22627165  0.06741446  1
  Se  Se134  1  0.24925545  0.24824799  0.55516651  1
  Se  Se135  1  0.26357993  0.58598286  0.05121547  1
  Se  Se136  1  0.24292059  0.58234857  0.55488480  1
  Se  Se137  1  0.24886022  0.91379044  0.04940791  1
  Se  Se138  1  0.25291756  0.91393163  0.55797709  1
  Se  Se139  1  0.59035922  0.25754396  0.05558357  1
  Se  Se140  1  0.57773141  0.24728108  0.54542421  1
  Se  Se141  1  0.59335803  0.58761769  0.05523361  1
  Se  Se142  1  0.57787193  0.58525303  0.56062097  1
  Se  Se143  1  0.57767886  0.91614295  0.04852019  1
  Se  Se144  1  0.59736730  0.91921698  0.54765837  1
  Se  Se145  1  0.91916942  0.25329460  0.06502206  1
  Se  Se146  1  0.93920772  0.27166073  0.54263730  1
  Se  Se147  1  0.92533350  0.57713458  0.04433115  1
  Se  Se148  1  0.91040162  0.58118221  0.55477944  1
  Se  Se149  1  0.91193768  0.91913107  0.06216907  1
  Se  Se150  1  0.92514283  0.92288526  0.56595725  1
  Se  Se151  1  0.11992736  0.22388430  0.44014163  1
  Se  Se152  1  0.09144489  0.24048224  0.95265265  1
  Se  Se153  1  0.07348168  0.58527832  0.44432093  1
  Se  Se154  1  0.09061695  0.58013704  0.93993021  1
  Se  Se155  1  0.09203676  0.90877582  0.44985411  1
  Se  Se156  1  0.08068535  0.91191572  0.94493649  1
  Se  Se157  1  0.41514446  0.25270659  0.44416507  1
  Se  Se158  1  0.40804832  0.25965382  0.94769851  1
  Se  Se159  1  0.40338232  0.59064934  0.44317385  1
  Se  Se160  1  0.41479274  0.59368368  0.93195630  1
  Se  Se161  1  0.42227088  0.91500219  0.44548715  1
  Se  Se162  1  0.41539123  0.91763617  0.93849984  1
  Se  Se163  1  0.78154080  0.22561736  0.45131582  1
  Se  Se164  1  0.74663954  0.24973862  0.93687569  1
  Se  Se165  1  0.73993173  0.59434034  0.45355953  1
  Se  Se166  1  0.75502711  0.57971341  0.93879323  1
  Se  Se167  1  0.76401295  0.91708306  0.44259287  1
  Se  Se168  1  0.74170018  0.92371776  0.93869761  1
  Se  Se169  1  0.26087233  0.07553917  0.44332952  1
  Se  Se170  1  0.24693989  0.08212137  0.94518362  1
  Se  Se171  1  0.24784391  0.41482970  0.44081014  1
  Se  Se172  1  0.28062044  0.39797136  0.94891855  1
  Se  Se173  1  0.24869851  0.75229663  0.44689327  1
  Se  Se174  1  0.24688725  0.75031606  0.93902942  1
  Se  Se175  1  0.61086083  0.05972572  0.45290116  1
  Se  Se176  1  0.57736709  0.09108644  0.93940793  1
  Se  Se177  1  0.55257442  0.44526065  0.44666386  1
  Se  Se178  1  0.58844183  0.41610818  0.93845191  1
  Se  Se179  1  0.57643500  0.75423748  0.45267711  1
  Se  Se180  1  0.58621054  0.74865231  0.94085519  1
  Se  Se181  1  0.94367662  0.06847099  0.44282362  1
  Se  Se182  1  0.92282502  0.07302944  0.93886791  1
  Se  Se183  1  0.88263963  0.43183044  0.44005290  1
  Se  Se184  1  0.94751960  0.39148757  0.93963859  1
  Se  Se185  1  0.92022566  0.73824006  0.43741472  1
  Se  Se186  1  0.92101697  0.74120705  0.93467509  1
  Se  Se187  1  0.25993839  0.25162802  0.29847354  1
  Se  Se188  1  0.23679685  0.25437120  0.81606976  1
  Se  Se189  1  0.24261705  0.57586010  0.31037529  1
  Se  Se190  1  0.25294632  0.58132489  0.80022103  1
  Se  Se191  1  0.24248355  0.90797103  0.30897514  1
  Se  Se192  1  0.23731562  0.91442027  0.80608623  1
  Se  Se193  1  0.60007036  0.24524751  0.33332769  1
  Se  Se194  1  0.58353336  0.25682831  0.80073598  1
  Se  Se195  1  0.58168472  0.57343691  0.31394618  1
  Se  Se196  1  0.58487528  0.58167227  0.79807834  1
  Se  Se197  1  0.57016032  0.91488187  0.31476907  1
  Se  Se198  1  0.58063139  0.92677164  0.80071334  1
  Se  Se199  1  0.92698614  0.25366876  0.31430027  1
  Se  Se200  1  0.90566507  0.24537449  0.80554753  1
  Se  Se201  1  0.91357086  0.56782952  0.31135396  1
  Se  Se202  1  0.91562737  0.57211681  0.80018324  1
  Se  Se203  1  0.90736989  0.90978861  0.30463154  1
  Se  Se204  1  0.90335466  0.90806893  0.81151062  1
  Se  Se205  1  0.08822677  0.09234611  0.31146649  1
  Se  Se206  1  0.07935842  0.09233512  0.80757129  1
  Se  Se207  1  0.07954414  0.41869417  0.31622350  1
  Se  Se208  1  0.09478421  0.41960616  0.81039401  1
  Se  Se209  1  0.08546767  0.75685883  0.30919669  1
  Se  Se210  1  0.08104127  0.74285584  0.79830783  1
  Se  Se211  1  0.43232750  0.09802928  0.31005180  1
  Se  Se212  1  0.42170566  0.10302901  0.80332870  1
  Se  Se213  1  0.41781814  0.40990065  0.30191625  1
  Se  Se214  1  0.42667581  0.42508717  0.80951720  1
  Se  Se215  1  0.42114630  0.74987061  0.30827978  1
  Se  Se216  1  0.41587950  0.75475250  0.79981906  1
  Se  Se217  1  0.75727202  0.10116983  0.31436299  1
  Se  Se218  1  0.74354914  0.08556716  0.79304235  1
  Se  Se219  1  0.73599268  0.42288043  0.31881501  1
  Se  Se220  1  0.75039592  0.41052273  0.80383700  1
  Se  Se221  1  0.74572018  0.75571638  0.31484987  1
  Se  Se222  1  0.74472567  0.75094230  0.80098860  1
  Se  Se223  1  0.24646614  0.08861450  0.19493069  1
  Se  Se224  1  0.24733656  0.10193803  0.69752133  1
  Se  Se225  1  0.25122783  0.41605980  0.20212720  1
  Se  Se226  1  0.24460899  0.41647287  0.68915551  1
  Se  Se227  1  0.24175723  0.75036972  0.18470060  1
  Se  Se228  1  0.24846785  0.74453959  0.69511222  1
  Se  Se229  1  0.57654266  0.08557698  0.18792901  1
  Se  Se230  1  0.58577380  0.09094594  0.68578467  1
  Se  Se231  1  0.59307590  0.41217238  0.20139405  1
  Se  Se232  1  0.58617221  0.41519118  0.69076844  1
  Se  Se233  1  0.57431901  0.75795484  0.18963192  1
  Se  Se234  1  0.57985691  0.75292279  0.69846000  1
  Se  Se235  1  0.90930378  0.09493832  0.19315833  1
  Se  Se236  1  0.90867194  0.09202800  0.68578169  1
  Se  Se237  1  0.91713660  0.41640586  0.19806863  1
  Se  Se238  1  0.90543066  0.41529581  0.67890939  1
  Se  Se239  1  0.90153629  0.75244104  0.19131667  1
  Se  Se240  1  0.91659116  0.74822202  0.70342005  1
  Se  Se241  1  0.07927561  0.25546166  0.20412968  1
  Se  Se242  1  0.08482824  0.25150206  0.68712717  1
  Se  Se243  1  0.08898333  0.57598760  0.19136140  1
  Se  Se244  1  0.07719363  0.57296869  0.69133207  1
  Se  Se245  1  0.08660577  0.90862215  0.18678563  1
  Se  Se246  1  0.09093950  0.91615332  0.68854117  1
  Se  Se247  1  0.41389054  0.24652456  0.19652715  1
  Se  Se248  1  0.42530083  0.25688219  0.68411220  1
  Se  Se249  1  0.42932585  0.57378130  0.19302053  1
  Se  Se250  1  0.41253645  0.58293018  0.69758523  1
  Se  Se251  1  0.41694192  0.91314613  0.19106900  1
  Se  Se252  1  0.42509519  0.92206931  0.68486762  1
  Se  Se253  1  0.75114696  0.25311375  0.20271675  1
  Se  Se254  1  0.74987781  0.25911004  0.68220101  1
  Se  Se255  1  0.75673821  0.57209681  0.19297534  1
  Se  Se256  1  0.74948822  0.57944573  0.69531750  1
  Se  Se257  1  0.74415380  0.91567712  0.19502054  1
  Se  Se258  1  0.74946115  0.92226443  0.69242972  1
