# generated using pymatgen
data_In86Cu29Se144
_symmetry_space_group_name_H-M   'P 1'
_cell_length_a   17.59305753
_cell_length_b   17.58661336
_cell_length_c   23.45585530
_cell_angle_alpha   89.98682438
_cell_angle_beta   89.99839619
_cell_angle_gamma   90.00982534
_symmetry_Int_Tables_number   1
_chemical_formula_structural   In86Cu29Se144
_chemical_formula_sum   'In86 Cu29 Se144'
_cell_volume   7257.29529060
_cell_formula_units_Z   1
loop_
 _symmetry_equiv_pos_site_id
 _symmetry_equiv_pos_as_xyz
  1  'x, y, z'
loop_
 _atom_site_type_symbol
 _atom_site_label
 _atom_site_symmetry_multiplicity
 _atom_site_fract_x
 _atom_site_fract_y
 _atom_site_fract_z
 _atom_site_occupancy
  In  In0  1  0.01084833  0.15718720  0.13507574  1
  In  In1  1  0.00065923  0.15729920  0.61882821  1
  In  In2  1  -0.00053804  0.50213126  0.12768636  1
  In  In3  1  -0.00025361  0.51533037  0.62511629  1
  In  In4  1  -0.00342274  0.83462543  0.13491383  1
  In  In5  1  -0.00753124  0.82693241  0.61320470  1
  In  In6  1  0.33799076  0.15633884  0.11848536  1
  In  In7  1  0.33470762  0.17932583  0.62478442  1
  In  In8  1  0.35040587  0.51433840  0.10548250  1
  In  In9  1  0.33921600  0.49220524  0.63261210  1
  In  In10  1  0.34327245  0.83572241  0.13799094  1
  In  In11  1  0.32326005  0.82287828  0.61558576  1
  In  In12  1  0.66521989  0.17795734  0.11808556  1
  In  In13  1  0.64424053  0.17699164  0.64546126  1
  In  In14  1  0.66666629  0.51013919  0.11110993  1
  In  In15  1  0.66276496  0.49937314  0.62238515  1
  In  In16  1  0.65664441  0.78671145  0.12408748  1
  In  In17  1  0.67058436  0.83568942  0.61999166  1
  In  In18  1  0.16819182  -0.00233404  0.37541325  1
  In  In19  1  0.16930060  0.01070227  0.87554198  1
  In  In20  1  0.15759772  0.34107506  0.37741133  1
  In  In21  1  0.18895965  0.34312408  0.87297776  1
  In  In22  1  0.17748222  0.68162228  0.36752869  1
  In  In23  1  0.15317290  0.65476489  0.87036041  1
  In  In24  1  0.47912199  -0.00840763  0.36606211  1
  In  In25  1  0.51043657  -0.00995790  0.87797640  1
  In  In26  1  0.50953790  0.34258526  0.37337291  1
  In  In27  1  0.49952336  0.33474460  0.87767348  1
  In  In28  1  0.50335413  0.67003289  0.37199648  1
  In  In29  1  0.48994256  0.67325013  0.87477477  1
  In  In30  1  0.83279381  -0.01740529  0.37478992  1
  In  In31  1  0.82123436  0.00174841  0.87826848  1
  In  In32  1  0.84352560  0.34089202  0.37126802  1
  In  In33  1  0.82491415  0.35623758  0.87230124  1
  In  In34  1  0.83254809  0.66594371  0.37364810  1
  In  In35  1  0.84175928  0.65136248  0.88448083  1
  In  In36  1  0.01360177  0.17654176  0.37020678  1
  In  In37  1  0.00649817  0.16513932  0.87518237  1
  In  In38  1  -0.00693784  0.49606001  0.36830585  1
  In  In39  1  -0.01617914  0.51163637  0.88537793  1
  In  In40  1  -0.00168540  0.83312164  0.37104084  1
  In  In41  1  0.00244626  0.81601495  0.87583890  1
  In  In42  1  0.33460510  0.15317911  0.37473434  1
  In  In43  1  0.33964190  0.18045047  0.87862364  1
  In  In44  1  0.34589412  0.51786643  0.36732183  1
  In  In45  1  0.33480734  0.50033817  0.88049089  1
  In  In46  1  0.33249921  0.82753449  0.37717502  1
  In  In47  1  0.34486204  0.82857781  0.87471076  1
  In  In48  1  0.66106539  0.16867355  0.37725985  1
  In  In49  1  0.64854490  0.15696787  0.86341220  1
  In  In50  1  0.64953071  0.52360898  0.38457030  1
  In  In51  1  0.68093572  0.49339789  0.88164842  1
  In  In52  1  0.68083778  0.82409848  0.38436888  1
  In  In53  1  0.66853288  0.84090831  0.87701891  1
  In  In54  1  0.17619650  -0.00653006  0.13433800  1
  In  In55  1  0.16329790  -0.00269667  0.61151414  1
  In  In56  1  0.15603312  0.33116009  0.12750701  1
  In  In57  1  0.18288610  0.33905075  0.62366816  1
  In  In58  1  0.17625935  0.65768156  0.13485362  1
  In  In59  1  0.16060430  0.66915253  0.62668051  1
  In  In60  1  0.48906522  -0.00778824  0.12295727  1
  In  In61  1  0.51197267  0.00073145  0.62731039  1
  In  In62  1  0.50225956  0.33987192  0.10447990  1
  In  In63  1  0.48845641  0.34170385  0.63470643  1
  In  In64  1  0.51040502  0.64849101  0.16257375  1
  In  In65  1  0.48958553  0.65472105  0.62005127  1
  In  In66  1  0.84522167  -0.01053660  0.12981069  1
  In  In67  1  0.82281783  -0.00927121  0.62071825  1
  In  In68  1  0.83624679  0.34776933  0.12222774  1
  In  In69  1  0.81622573  0.33839648  0.62982766  1
  In  In70  1  0.83399228  0.66537167  0.12468096  1
  In  In71  1  0.83974410  0.67115161  0.61889046  1
  In  In72  1  0.50331658  0.82580994  0.00457025  1
  In  In73  1  0.00021768  0.33617348  0.75273106  1
  In  In74  1  0.33221389  0.33989304  0.24599791  1
  In  In75  1  0.16820947  0.50324434  0.49624146  1
  In  In76  1  0.17056287  0.83004482  0.01298502  1
  In  In77  1  0.49627431  0.16495900  0.50570875  1
  In  In78  1  0.82969294  0.16231532  0.50401333  1
  In  In79  1  0.17349913  0.17202312  -0.00519441  1
  In  In80  1  0.83315990  0.17201389  -0.00285384  1
  In  In81  1  0.66894871  0.66528438  0.75025277  1
  In  In82  1  0.67318855  0.34480701  0.23641880  1
  In  In83  1  0.33685844  -0.00094364  0.75353814  1
  In  In84  1  0.66996638  -0.00474995  0.25061533  1
  In  In85  1  -0.01134616  -0.01236443  0.73321379  1
  Cu  Cu86  1  0.33793913  0.66675352  0.49553509  1
  Cu  Cu87  1  0.83465891  0.82980030  0.74468137  1
  Cu  Cu88  1  -0.00074477  0.34048857  0.00374221  1
  Cu  Cu89  1  0.49821129  0.16971109  0.24353465  1
  Cu  Cu90  1  -0.00032592  0.67039013  0.49413727  1
  Cu  Cu91  1  0.00500595  -0.01073255  0.00674616  1
  Cu  Cu92  1  0.83002726  0.50540570  0.24700163  1
  Cu  Cu93  1  0.15969139  0.49614654  0.24907393  1
  Cu  Cu94  1  0.66143467  -0.00242690  0.50213292  1
  Cu  Cu95  1  0.66234682  0.33481837  -0.00695459  1
  Cu  Cu96  1  0.66936015  -0.00546693  0.00078977  1
  Cu  Cu97  1  0.17192556  0.82043012  0.74772795  1
  Cu  Cu98  1  0.16894990  0.16534663  0.25099429  1
  Cu  Cu99  1  0.33669463  0.33572927  0.50363766  1
  Cu  Cu100  1  0.84543157  0.16361914  0.25243081  1
  Cu  Cu101  1  0.32956861  0.66870897  0.00117472  1
  Cu  Cu102  1  -0.00161820  0.33570321  0.49480707  1
  Cu  Cu103  1  0.67095926  0.66788879  0.50160937  1
  Cu  Cu104  1  0.83006919  0.82421813  0.25092841  1
  Cu  Cu105  1  0.32847119  -0.00764920  0.49414306  1
  Cu  Cu106  1  0.16424296  0.83925679  0.25417358  1
  Cu  Cu107  1  0.66714779  0.34499770  0.50149183  1
  Cu  Cu108  1  0.82117926  0.17108476  0.75439791  1
  Cu  Cu109  1  0.16712947  0.16562124  0.74777655  1
  Cu  Cu110  1  0.17431700  0.49865686  0.75254093  1
  Cu  Cu111  1  -0.00535069  0.66079469  0.00262791  1
  Cu  Cu112  1  0.49853675  0.82963886  0.74988563  1
  Cu  Cu113  1  0.00238075  0.00184071  0.49285056  1
  Cu  Cu114  1  0.49677156  0.49964518  0.75402800  1
  Se  Se115  1  0.08805667  0.07526545  0.05795264  1
  Se  Se116  1  0.08434570  0.08722503  0.54571977  1
  Se  Se117  1  0.08379927  0.41982465  0.05755448  1
  Se  Se118  1  0.07892986  0.41296086  0.55932801  1
  Se  Se119  1  0.07530031  0.73888038  0.06508599  1
  Se  Se120  1  0.08583572  0.74727748  0.55071549  1
  Se  Se121  1  0.43370279  0.08888878  0.05239727  1
  Se  Se122  1  0.40446587  0.07042893  0.56099367  1
  Se  Se123  1  0.40908482  0.41290695  0.04012275  1
  Se  Se124  1  0.41899156  0.41960336  0.55581116  1
  Se  Se125  1  0.40954447  0.74303603  0.06473189  1
  Se  Se126  1  0.42001634  0.74938058  0.55179290  1
  Se  Se127  1  0.75139726  0.07595744  0.06119791  1
  Se  Se128  1  0.72853259  0.08689173  0.56489695  1
  Se  Se129  1  0.74595280  0.41292237  0.05103597  1
  Se  Se130  1  0.75483647  0.42409140  0.55301476  1
  Se  Se131  1  0.76117849  0.75484280  0.05407745  1
  Se  Se132  1  0.75475415  0.75408020  0.55237218  1
  Se  Se133  1  0.25604228  0.25857463  0.06077472  1
  Se  Se134  1  0.25014583  0.25042843  0.55042748  1
  Se  Se135  1  0.24188779  0.58610449  0.05141602  1
  Se  Se136  1  0.25914749  0.58616115  0.55953659  1
  Se  Se137  1  0.26642725  0.92418792  0.06041650  1
  Se  Se138  1  0.24424022  0.90944411  0.54746337  1
  Se  Se139  1  0.58279238  0.24543582  0.04326945  1
  Se  Se140  1  0.58725098  0.26003811  0.55953795  1
  Se  Se141  1  0.56849539  0.60368028  0.06778983  1
  Se  Se142  1  0.58454981  0.58453718  0.55305123  1
  Se  Se143  1  0.59616007  0.91383729  0.06598366  1
  Se  Se144  1  0.57779190  0.91291357  0.55358979  1
  Se  Se145  1  0.92886629  0.24941330  0.06275341  1
  Se  Se146  1  0.91886221  0.25980511  0.56075899  1
  Se  Se147  1  0.91241463  0.57603803  0.05605969  1
  Se  Se148  1  0.91966468  0.58520125  0.54890829  1
  Se  Se149  1  0.91928608  0.90765267  0.05600208  1
  Se  Se150  1  0.91779394  0.92573385  0.55187832  1
  Se  Se151  1  0.08654638  0.25211590  0.44884051  1
  Se  Se152  1  0.07792041  0.26444510  0.93930734  1
  Se  Se153  1  0.08034802  0.59027482  0.43370034  1
  Se  Se154  1  0.08314332  0.58052633  0.95054527  1
  Se  Se155  1  0.08219622  0.91386766  0.44162403  1
  Se  Se156  1  0.08515187  0.91741591  0.94042693  1
  Se  Se157  1  0.41427832  0.25689269  0.43823366  1
  Se  Se158  1  0.41629349  0.25785184  0.95044455  1
  Se  Se159  1  0.42420693  0.58382364  0.44586329  1
  Se  Se160  1  0.41673360  0.58980357  0.94723798  1
  Se  Se161  1  0.41782639  0.91178363  0.44604058  1
  Se  Se162  1  0.41168454  0.92025403  0.94703320  1
  Se  Se163  1  0.74410035  0.25994536  0.44208261  1
  Se  Se164  1  0.74359653  0.25373846  0.93301388  1
  Se  Se165  1  0.75439082  0.58378512  0.44766176  1
  Se  Se166  1  0.74716310  0.58541720  0.95178037  1
  Se  Se167  1  0.75237822  0.91826161  0.45320729  1
  Se  Se168  1  0.75533190  0.91193594  0.95057460  1
  Se  Se169  1  0.24836225  0.08370347  0.44662560  1
  Se  Se170  1  0.26603473  0.07443408  0.94438484  1
  Se  Se171  1  0.26419855  0.41626767  0.43691779  1
  Se  Se172  1  0.25175258  0.42056873  0.95151660  1
  Se  Se173  1  0.24714126  0.74981093  0.45004855  1
  Se  Se174  1  0.24955469  0.74673718  0.93919715  1
  Se  Se175  1  0.58058955  0.07362706  0.43946296  1
  Se  Se176  1  0.58833380  0.07752266  0.94633095  1
  Se  Se177  1  0.57930405  0.42301846  0.44847180  1
  Se  Se178  1  0.58054988  0.42485549  0.94520354  1
  Se  Se179  1  0.58525267  0.74769713  0.44658493  1
  Se  Se180  1  0.59336290  0.74101401  0.94091899  1
  Se  Se181  1  0.91867580  0.08286619  0.43553238  1
  Se  Se182  1  0.92887649  0.07304993  0.94483675  1
  Se  Se183  1  0.91552438  0.42210379  0.44646238  1
  Se  Se184  1  0.90967625  0.41636716  0.95080271  1
  Se  Se185  1  0.91415671  0.75308230  0.44163401  1
  Se  Se186  1  0.91680622  0.74893922  0.94899966  1
  Se  Se187  1  0.24771756  0.24870031  0.31133276  1
  Se  Se188  1  0.24954286  0.24413830  0.80392668  1
  Se  Se189  1  0.24175097  0.57786701  0.30444343  1
  Se  Se190  1  0.25313581  0.58353314  0.80864190  1
  Se  Se191  1  0.25358634  0.91674046  0.30780885  1
  Se  Se192  1  0.24036123  0.90708404  0.81050219  1
  Se  Se193  1  0.58280227  0.24867456  0.30009448  1
  Se  Se194  1  0.58990115  0.26538567  0.80637759  1
  Se  Se195  1  0.58484700  0.58794517  0.30051658  1
  Se  Se196  1  0.57763288  0.58069783  0.81253989  1
  Se  Se197  1  0.58614933  0.91027633  0.31673318  1
  Se  Se198  1  0.58393784  0.91060128  0.80231353  1
  Se  Se199  1  0.92119521  0.25341994  0.30465701  1
  Se  Se200  1  0.90841280  0.24318693  0.81310898  1
  Se  Se201  1  0.91513399  0.58538270  0.30207733  1
  Se  Se202  1  0.91946421  0.58583486  0.80531560  1
  Se  Se203  1  0.91336845  0.91367012  0.29928073  1
  Se  Se204  1  0.91159886  0.91042098  0.81047330  1
  Se  Se205  1  0.08597417  0.08182168  0.30510055  1
  Se  Se206  1  0.08031130  0.08040976  0.79743088  1
  Se  Se207  1  0.07804858  0.41133602  0.30151001  1
  Se  Se208  1  0.08741244  0.42511918  0.81452455  1
  Se  Se209  1  0.08034537  0.75016805  0.30151500  1
  Se  Se210  1  0.08065794  0.74475100  0.79968969  1
  Se  Se211  1  0.41525091  0.08737866  0.29654428  1
  Se  Se212  1  0.42461089  0.08572769  0.81464822  1
  Se  Se213  1  0.43113532  0.42615086  0.30125523  1
  Se  Se214  1  0.41346385  0.41717833  0.80840351  1
  Se  Se215  1  0.39456925  0.72822399  0.31040069  1
  Se  Se216  1  0.41146411  0.74672002  0.79801235  1
  Se  Se217  1  0.75774529  0.09207063  0.31199990  1
  Se  Se218  1  0.74591424  0.07713017  0.80341533  1
  Se  Se219  1  0.74938221  0.42748164  0.31025824  1
  Se  Se220  1  0.74876757  0.42859542  0.79716676  1
  Se  Se221  1  0.74418720  0.74426541  0.30414856  1
  Se  Se222  1  0.75863151  0.75400041  0.81116635  1
  Se  Se223  1  0.25527324  0.08889366  0.19536839  1
  Se  Se224  1  0.24281990  0.08132872  0.68786465  1
  Se  Se225  1  0.24491361  0.42784005  0.18465160  1
  Se  Se226  1  0.25546505  0.41008892  0.70242135  1
  Se  Se227  1  0.24588643  0.75743798  0.19779414  1
  Se  Se228  1  0.25640986  0.74129197  0.69354085  1
  Se  Se229  1  0.58573762  0.09060196  0.18898820  1
  Se  Se230  1  0.57943843  0.07460454  0.70612242  1
  Se  Se231  1  0.57372139  0.42560889  0.18146762  1
  Se  Se232  1  0.58140903  0.42328992  0.69582004  1
  Se  Se233  1  0.55826119  0.77555723  0.20275035  1
  Se  Se234  1  0.57738623  0.75059932  0.68715368  1
  Se  Se235  1  0.92188497  0.07547042  0.19904736  1
  Se  Se236  1  0.89817880  0.09449049  0.68885876  1
  Se  Se237  1  0.91539842  0.41805417  0.19814854  1
  Se  Se238  1  0.91348348  0.42385918  0.69057313  1
  Se  Se239  1  0.91663240  0.74286196  0.19836939  1
  Se  Se240  1  0.92107284  0.75081539  0.69182613  1
  Se  Se241  1  0.08277538  0.25021270  0.20218653  1
  Se  Se242  1  0.08660111  0.24546030  0.68750897  1
  Se  Se243  1  0.07870728  0.58555797  0.19886858  1
  Se  Se244  1  0.08958011  0.57937525  0.69798090  1
  Se  Se245  1  0.08148450  0.92175343  0.19926480  1
  Se  Se246  1  0.09432604  0.90283965  0.68632832  1
  Se  Se247  1  0.42462518  0.25415005  0.18364198  1
  Se  Se248  1  0.42891111  0.23456189  0.69559245  1
  Se  Se249  1  0.39012316  0.58193172  0.19814906  1
  Se  Se250  1  0.41471735  0.58389735  0.69951892  1
  Se  Se251  1  0.41836827  0.92685150  0.20439559  1
  Se  Se252  1  0.41740313  0.90776492  0.68769753  1
  Se  Se253  1  0.76577233  0.24093603  0.18954311  1
  Se  Se254  1  0.74121171  0.25824197  0.70306572  1
  Se  Se255  1  0.74483280  0.58140297  0.19000680  1
  Se  Se256  1  0.75859763  0.58083797  0.68766277  1
  Se  Se257  1  0.74945644  0.90125889  0.18739375  1
  Se  Se258  1  0.74732493  0.91409234  0.69642280  1
