# generated using pymatgen
data_In86Cu29Se144
_symmetry_space_group_name_H-M   'P 1'
_cell_length_a   17.58024013
_cell_length_b   17.57866161
_cell_length_c   23.43250756
_cell_angle_alpha   90.00593079
_cell_angle_beta   90.01558830
_cell_angle_gamma   90.01050583
_symmetry_Int_Tables_number   1
_chemical_formula_structural   In86Cu29Se144
_chemical_formula_sum   'In86 Cu29 Se144'
_cell_volume   7241.51357321
_cell_formula_units_Z   1
loop_
 _symmetry_equiv_pos_site_id
 _symmetry_equiv_pos_as_xyz
  1  'x, y, z'
loop_
 _atom_site_type_symbol
 _atom_site_label
 _atom_site_symmetry_multiplicity
 _atom_site_fract_x
 _atom_site_fract_y
 _atom_site_fract_z
 _atom_site_occupancy
  In  In0  1  0.00736348  0.17101613  0.12330416  1
  In  In1  1  -0.00563454  0.17491212  0.63698348  1
  In  In2  1  -0.00299677  0.50328144  0.13133618  1
  In  In3  1  -0.01040646  0.50888800  0.63418497  1
  In  In4  1  -0.00845133  0.82594731  0.11536693  1
  In  In5  1  -0.00728438  0.84066545  0.63579158  1
  In  In6  1  0.33376528  0.15182500  0.10347069  1
  In  In7  1  0.33631896  0.15517434  0.62904493  1
  In  In8  1  0.35425083  0.49562132  0.11734567  1
  In  In9  1  0.32689804  0.51094493  0.62200506  1
  In  In10  1  0.33108425  0.84274291  0.11926542  1
  In  In11  1  0.34544241  0.84521822  0.63186010  1
  In  In12  1  0.65683624  0.17123252  0.13321176  1
  In  In13  1  0.66727618  0.16082592  0.61973465  1
  In  In14  1  0.65472410  0.50968924  0.13328899  1
  In  In15  1  0.68051604  0.49471056  0.62567804  1
  In  In16  1  0.66177605  0.82941993  0.12393591  1
  In  In17  1  0.66376407  0.82041485  0.62964962  1
  In  In18  1  0.16951276  -0.01001778  0.36932124  1
  In  In19  1  0.16802517  0.00385511  0.87891372  1
  In  In20  1  0.16843166  0.34590348  0.36816119  1
  In  In21  1  0.15207899  0.32133182  0.87878376  1
  In  In22  1  0.16973704  0.67609152  0.35884363  1
  In  In23  1  0.16415844  0.67728751  0.87634475  1
  In  In24  1  0.51533494  0.00878076  0.35484024  1
  In  In25  1  0.49611216  0.00311439  0.89353425  1
  In  In26  1  0.50151951  0.31118585  0.37153410  1
  In  In27  1  0.49762165  0.32627527  0.88861987  1
  In  In28  1  0.51651542  0.69028670  0.34411638  1
  In  In29  1  0.50663984  0.67490839  0.88888798  1
  In  In30  1  0.82536996  0.01036475  0.38232438  1
  In  In31  1  0.83034015  -0.01357892  0.87489683  1
  In  In32  1  0.83429558  0.33122151  0.37120174  1
  In  In33  1  0.84563357  0.32695410  0.87363036  1
  In  In34  1  0.83173471  0.66335851  0.37634010  1
  In  In35  1  0.83191618  0.66673278  0.87211594  1
  In  In36  1  -0.01421820  0.16355548  0.37313105  1
  In  In37  1  0.01414317  0.17558203  0.86998317  1
  In  In38  1  -0.00725194  0.49130980  0.36853972  1
  In  In39  1  -0.00717519  0.49618339  0.86950285  1
  In  In40  1  -0.00552351  0.82109898  0.37243517  1
  In  In41  1  -0.00247744  0.83057689  0.87184640  1
  In  In42  1  0.35023844  0.17007566  0.37329947  1
  In  In43  1  0.35439098  0.14133072  0.90294636  1
  In  In44  1  0.32802928  0.51251695  0.36839947  1
  In  In45  1  0.34052835  0.51300928  0.88181878  1
  In  In46  1  0.36082653  0.85602788  0.33764082  1
  In  In47  1  0.31839065  0.86002024  0.90788891  1
  In  In48  1  0.66487684  0.16274312  0.36794362  1
  In  In49  1  0.64817143  0.15686224  0.88345808  1
  In  In50  1  0.67902164  0.50743430  0.36950897  1
  In  In51  1  0.65397827  0.51118399  0.88089522  1
  In  In52  1  0.67260300  0.84038704  0.36499990  1
  In  In53  1  0.68524472  0.82705071  0.89763418  1
  In  In54  1  0.18001508  0.00787320  0.10573145  1
  In  In55  1  0.17122111  -0.00316174  0.63700866  1
  In  In56  1  0.16958057  0.31651774  0.11799244  1
  In  In57  1  0.16200574  0.31866040  0.62757719  1
  In  In58  1  0.15346261  0.67810197  0.12615685  1
  In  In59  1  0.16131604  0.65372068  0.62387973  1
  In  In60  1  0.49988242  -0.00916015  0.12167041  1
  In  In61  1  0.49042815  -0.00018134  0.63329526  1
  In  In62  1  0.49912796  0.34244987  0.11549274  1
  In  In63  1  0.51988133  0.33102782  0.62701056  1
  In  In64  1  0.51084569  0.65934459  0.12707439  1
  In  In65  1  0.50224892  0.68685336  0.63078752  1
  In  In66  1  0.82711491  -0.01816321  0.11886073  1
  In  In67  1  0.83632502  0.00598672  0.61920368  1
  In  In68  1  0.83260544  0.33026901  0.13613578  1
  In  In69  1  0.83645367  0.33837617  0.61819392  1
  In  In70  1  0.82030306  0.68185805  0.13508757  1
  In  In71  1  0.83209936  0.66482514  0.62368102  1
  In  In72  1  0.50862551  0.50123116  0.49225254  1
  In  In73  1  0.33246034  0.68117696  0.75718771  1
  In  In74  1  0.00014625  0.00009702  0.24278590  1
  In  In75  1  0.16828425  0.49543219  0.00314210  1
  In  In76  1  0.33555231  0.33198930  0.24178880  1
  In  In77  1  0.67084220  0.33295834  0.76284529  1
  In  In78  1  0.32817475  0.32569007  0.75744041  1
  In  In79  1  0.16178451  0.16326968  0.50263241  1
  In  In80  1  0.83179844  0.16096747  0.00192778  1
  In  In81  1  0.50874983  0.84284564  0.48939102  1
  In  In82  1  0.16507912  0.82837710  0.49591423  1
  In  In83  1  0.66169505  -0.00064585  0.75643237  1
  In  In84  1  0.15896900  0.49685384  0.49421847  1
  In  In85  1  0.83035597  0.50569542  -0.00167404  1
  Cu  Cu86  1  0.67148104  0.32103032  0.49518384  1
  Cu  Cu87  1  -0.00461684  0.66995836  -0.00138874  1
  Cu  Cu88  1  0.17122569  0.15885828  0.75503958  1
  Cu  Cu89  1  0.83301827  0.83293189  0.24818446  1
  Cu  Cu90  1  0.83338094  0.16483741  0.74997668  1
  Cu  Cu91  1  0.33947224  0.67911388  0.48160997  1
  Cu  Cu92  1  0.33991319  0.00435757  0.50030000  1
  Cu  Cu93  1  0.66590572  0.00156267  0.49404195  1
  Cu  Cu94  1  0.49816394  0.83725906  0.76473234  1
  Cu  Cu95  1  0.50081858  0.51182863  0.76043620  1
  Cu  Cu96  1  0.83635585  0.50076801  0.25122836  1
  Cu  Cu97  1  0.16820336  0.84341281  0.24094099  1
  Cu  Cu98  1  0.15826446  0.49598770  0.75181840  1
  Cu  Cu99  1  0.34026766  0.66379865  0.00438884  1
  Cu  Cu100  1  0.35147648  0.33127877  0.49970060  1
  Cu  Cu101  1  0.00284963  -0.00290819  -0.00458865  1
  Cu  Cu102  1  0.67152463  0.66188963  0.50091744  1
  Cu  Cu103  1  -0.00795535  0.66201672  0.49881775  1
  Cu  Cu104  1  0.50445205  0.49433450  0.24724547  1
  Cu  Cu105  1  0.82998162  0.82805025  0.75283474  1
  Cu  Cu106  1  0.16940738  0.83637841  0.76021815  1
  Cu  Cu107  1  0.67248718  0.33732237  0.00355098  1
  Cu  Cu108  1  -0.00613619  0.32899420  0.49826708  1
  Cu  Cu109  1  0.83325368  0.50671979  0.74830638  1
  Cu  Cu110  1  -0.00901734  -0.00245697  0.50680688  1
  Cu  Cu111  1  0.16562661  0.50260448  0.24247020  1
  Cu  Cu112  1  0.49826955  0.15936662  0.24171548  1
  Cu  Cu113  1  0.17066455  0.16423553  0.23864243  1
  Cu  Cu114  1  0.82697744  0.16100019  0.25162405  1
  Se  Se115  1  0.07756916  0.08600062  0.04996931  1
  Se  Se116  1  0.07745618  0.07350141  0.56622892  1
  Se  Se117  1  0.07382530  0.41084126  0.06170791  1
  Se  Se118  1  0.07553179  0.40871792  0.56110336  1
  Se  Se119  1  0.08423859  0.75378839  0.04588059  1
  Se  Se120  1  0.07494040  0.74147820  0.55914267  1
  Se  Se121  1  0.44737655  0.09254527  0.04854073  1
  Se  Se122  1  0.42272132  0.08369409  0.55639879  1
  Se  Se123  1  0.40556179  0.40285792  0.04217374  1
  Se  Se124  1  0.41833424  0.41869149  0.56240415  1
  Se  Se125  1  0.41608770  0.74204384  0.06506075  1
  Se  Se126  1  0.41171902  0.75350564  0.55275471  1
  Se  Se127  1  0.73866712  0.07876925  0.06242566  1
  Se  Se128  1  0.75017687  0.08308182  0.54944295  1
  Se  Se129  1  0.74897524  0.41621963  0.06499168  1
  Se  Se130  1  0.74563412  0.41134975  0.54933178  1
  Se  Se131  1  0.76098493  0.76302036  0.05656856  1
  Se  Se132  1  0.74752014  0.75047836  0.55577412  1
  Se  Se133  1  0.25429740  0.24913626  0.04571219  1
  Se  Se134  1  0.26109591  0.25577902  0.55630491  1
  Se  Se135  1  0.25265362  0.58799875  0.06473147  1
  Se  Se136  1  0.25868300  0.59807128  0.54342638  1
  Se  Se137  1  0.25061162  0.91245353  0.04054729  1
  Se  Se138  1  0.25726619  0.92255697  0.55704042  1
  Se  Se139  1  0.58952639  0.25443802  0.05653880  1
  Se  Se140  1  0.58470607  0.24619032  0.55196147  1
  Se  Se141  1  0.57748578  0.57016003  0.05269544  1
  Se  Se142  1  0.58491792  0.59208212  0.56433759  1
  Se  Se143  1  0.56008554  0.88784684  0.05111679  1
  Se  Se144  1  0.59012269  0.92568210  0.56289983  1
  Se  Se145  1  0.91718617  0.25837814  0.05821704  1
  Se  Se146  1  0.91820533  0.24431527  0.55688279  1
  Se  Se147  1  0.91742498  0.59383611  0.06174016  1
  Se  Se148  1  0.91339742  0.57716697  0.55465240  1
  Se  Se149  1  0.91638671  0.91558254  0.04673434  1
  Se  Se150  1  0.91265825  0.90774768  0.55702542  1
  Se  Se151  1  0.08145738  0.25825369  0.43740555  1
  Se  Se152  1  0.07651137  0.24527960  0.95415223  1
  Se  Se153  1  0.07960019  0.59465407  0.43376773  1
  Se  Se154  1  0.07458378  0.58485480  0.94174471  1
  Se  Se155  1  0.07162375  0.92498163  0.44164028  1
  Se  Se156  1  0.08208938  0.91188057  0.94067517  1
  Se  Se157  1  0.42806773  0.23957626  0.45155621  1
  Se  Se158  1  0.40101807  0.26315120  0.95540145  1
  Se  Se159  1  0.42363107  0.59416971  0.43050988  1
  Se  Se160  1  0.42690623  0.58201227  0.95371481  1
  Se  Se161  1  0.41089955  0.92633618  0.43311590  1
  Se  Se162  1  0.43935741  0.90206763  0.96354732  1
  Se  Se163  1  0.75175361  0.24227980  0.43680324  1
  Se  Se164  1  0.74292720  0.25650777  0.93939206  1
  Se  Se165  1  0.75402946  0.57746733  0.44890351  1
  Se  Se166  1  0.73710165  0.59992700  0.94824234  1
  Se  Se167  1  0.74683858  0.91342845  0.44363520  1
  Se  Se168  1  0.74677555  0.93628933  0.95527942  1
  Se  Se169  1  0.25442168  0.07820694  0.43898375  1
  Se  Se170  1  0.24594773  0.07581033  0.95677480  1
  Se  Se171  1  0.26656939  0.41001955  0.44213633  1
  Se  Se172  1  0.25110830  0.41424347  0.93356322  1
  Se  Se173  1  0.25913411  0.76110675  0.42570103  1
  Se  Se174  1  0.25126929  0.74077944  0.95106740  1
  Se  Se175  1  0.58061212  0.07926778  0.43831715  1
  Se  Se176  1  0.57119980  0.09482903  0.96293681  1
  Se  Se177  1  0.59213086  0.40384939  0.43361900  1
  Se  Se178  1  0.58648435  0.41542256  0.94719130  1
  Se  Se179  1  0.59132088  0.73853171  0.43758378  1
  Se  Se180  1  0.58039573  0.76320172  0.95976653  1
  Se  Se181  1  0.91676142  0.08524072  0.45037007  1
  Se  Se182  1  0.92245202  0.08015782  0.93547440  1
  Se  Se183  1  0.91552423  0.41471654  0.44338376  1
  Se  Se184  1  0.92424448  0.40925325  0.94772450  1
  Se  Se185  1  0.91254842  0.75019440  0.44656862  1
  Se  Se186  1  0.91335572  0.74939451  0.94169261  1
  Se  Se187  1  0.24566555  0.24174647  0.30685922  1
  Se  Se188  1  0.24879553  0.23367394  0.82050648  1
  Se  Se189  1  0.25032915  0.58619565  0.29357939  1
  Se  Se190  1  0.24284369  0.57779858  0.80806629  1
  Se  Se191  1  0.25114869  0.93132634  0.28954292  1
  Se  Se192  1  0.25546885  0.91378031  0.81530386  1
  Se  Se193  1  0.58176805  0.24345260  0.29536306  1
  Se  Se194  1  0.57033127  0.24282407  0.80974517  1
  Se  Se195  1  0.58957761  0.57876383  0.29831696  1
  Se  Se196  1  0.58194249  0.59892773  0.80938357  1
  Se  Se197  1  0.55300961  0.88205824  0.30799009  1
  Se  Se198  1  0.58372477  0.91212380  0.82477804  1
  Se  Se199  1  0.91540195  0.24592844  0.29946570  1
  Se  Se200  1  0.92046746  0.24858600  0.80004853  1
  Se  Se201  1  0.91784746  0.58614758  0.30509188  1
  Se  Se202  1  0.91775416  0.58728828  0.80335292  1
  Se  Se203  1  0.91102987  0.91767172  0.30888320  1
  Se  Se204  1  0.91406489  0.91450323  0.80167494  1
  Se  Se205  1  0.09027080  0.09132623  0.30592765  1
  Se  Se206  1  0.08303749  0.07739817  0.80465199  1
  Se  Se207  1  0.08486980  0.41938651  0.29788231  1
  Se  Se208  1  0.08021217  0.41044383  0.80670591  1
  Se  Se209  1  0.08361951  0.76309639  0.29609576  1
  Se  Se210  1  0.08212350  0.74713321  0.80149002  1
  Se  Se211  1  0.41090755  0.08271657  0.29759268  1
  Se  Se212  1  0.42323157  0.08206224  0.81773525  1
  Se  Se213  1  0.42190568  0.41816812  0.31031812  1
  Se  Se214  1  0.42197136  0.42252527  0.81227623  1
  Se  Se215  1  0.39078408  0.72526713  0.29608211  1
  Se  Se216  1  0.41214812  0.76382817  0.82632635  1
  Se  Se217  1  0.74615112  0.07251202  0.30126627  1
  Se  Se218  1  0.75262315  0.09550099  0.81442716  1
  Se  Se219  1  0.75190464  0.41481390  0.30194388  1
  Se  Se220  1  0.75993461  0.43059920  0.81748762  1
  Se  Se221  1  0.75352767  0.74736709  0.30392333  1
  Se  Se222  1  0.74298668  0.75490137  0.81034907  1
  Se  Se223  1  0.25350605  0.08564136  0.18291328  1
  Se  Se224  1  0.25824058  0.07831256  0.70261346  1
  Se  Se225  1  0.24587251  0.42275765  0.18193789  1
  Se  Se226  1  0.24397530  0.42209421  0.69069297  1
  Se  Se227  1  0.24728559  0.75682909  0.18840098  1
  Se  Se228  1  0.24159759  0.75924774  0.68656465  1
  Se  Se229  1  0.58352135  0.07128889  0.19472037  1
  Se  Se230  1  0.57733413  0.09409307  0.69588570  1
  Se  Se231  1  0.58250227  0.40720500  0.19420041  1
  Se  Se232  1  0.58118050  0.42881165  0.70144588  1
  Se  Se233  1  0.59378731  0.73953764  0.19643938  1
  Se  Se234  1  0.57999208  0.75639201  0.70829407  1
  Se  Se235  1  0.90561230  0.08724534  0.18420337  1
  Se  Se236  1  0.91389476  0.07892079  0.69664971  1
  Se  Se237  1  0.91983045  0.41534593  0.19941947  1
  Se  Se238  1  0.90966229  0.41501715  0.69621163  1
  Se  Se239  1  0.92288381  0.75293007  0.19734969  1
  Se  Se240  1  0.91229029  0.74619266  0.69624566  1
  Se  Se241  1  0.08476556  0.25294144  0.19609557  1
  Se  Se242  1  0.08803423  0.24741629  0.70526621  1
  Se  Se243  1  0.07919312  0.59007274  0.19660774  1
  Se  Se244  1  0.08053765  0.58626562  0.70071640  1
  Se  Se245  1  0.08854706  0.91937391  0.17657713  1
  Se  Se246  1  0.08541989  0.91496830  0.70215888  1
  Se  Se247  1  0.41894516  0.24014568  0.18085261  1
  Se  Se248  1  0.42373422  0.24996989  0.69153505  1
  Se  Se249  1  0.42009806  0.57638772  0.19466215  1
  Se  Se250  1  0.41974477  0.58507759  0.69451379  1
  Se  Se251  1  0.40958294  0.92188950  0.19281503  1
  Se  Se252  1  0.41668872  0.92116238  0.70976408  1
  Se  Se253  1  0.74507192  0.24978764  0.20159201  1
  Se  Se254  1  0.75246433  0.24686559  0.69189888  1
  Se  Se255  1  0.75098501  0.58178044  0.19796926  1
  Se  Se256  1  0.74623029  0.58627427  0.69595979  1
  Se  Se257  1  0.74671894  0.91326377  0.19525602  1
  Se  Se258  1  0.75170337  0.91343141  0.69244220  1
