# generated using pymatgen
data_In86Cu29Se144
_symmetry_space_group_name_H-M   'P 1'
_cell_length_a   17.60548365
_cell_length_b   17.60070586
_cell_length_c   23.46758289
_cell_angle_alpha   89.97053409
_cell_angle_beta   89.97963918
_cell_angle_gamma   89.98538990
_symmetry_Int_Tables_number   1
_chemical_formula_structural   In86Cu29Se144
_chemical_formula_sum   'In86 Cu29 Se144'
_cell_volume   7271.87336222
_cell_formula_units_Z   1
loop_
 _symmetry_equiv_pos_site_id
 _symmetry_equiv_pos_as_xyz
  1  'x, y, z'
loop_
 _atom_site_type_symbol
 _atom_site_label
 _atom_site_symmetry_multiplicity
 _atom_site_fract_x
 _atom_site_fract_y
 _atom_site_fract_z
 _atom_site_occupancy
  In  In0  1  -0.01043310  0.17569231  0.13393017  1
  In  In1  1  0.00642512  0.15900148  0.63154355  1
  In  In2  1  -0.00649257  0.50326631  0.12978026  1
  In  In3  1  0.00068119  0.49566150  0.62262385  1
  In  In4  1  -0.00453613  0.83423556  0.12166180  1
  In  In5  1  0.01394470  0.83325582  0.64102376  1
  In  In6  1  0.33531137  0.16599817  0.12613566  1
  In  In7  1  0.33801114  0.16228215  0.61304702  1
  In  In8  1  0.31761847  0.49440363  0.12926759  1
  In  In9  1  0.32776689  0.51277701  0.62445778  1
  In  In10  1  0.32679142  0.86678521  0.11522550  1
  In  In11  1  0.32863573  0.82096750  0.62529172  1
  In  In12  1  0.66357453  0.16844454  0.11751681  1
  In  In13  1  0.66121428  0.16149289  0.62285184  1
  In  In14  1  0.67838977  0.48159919  0.12350240  1
  In  In15  1  0.67948494  0.49567488  0.62559864  1
  In  In16  1  0.67801053  0.83676665  0.11702828  1
  In  In17  1  0.66456817  0.83844422  0.63731453  1
  In  In18  1  0.16731421  0.02585910  0.36969352  1
  In  In19  1  0.14748416  0.00193511  0.87243177  1
  In  In20  1  0.17044354  0.33256856  0.37658178  1
  In  In21  1  0.16738818  0.34455992  0.87661784  1
  In  In22  1  0.15024078  0.66963778  0.37833649  1
  In  In23  1  0.16936669  0.67762513  0.85776252  1
  In  In24  1  0.50357499  -0.00080951  0.38348576  1
  In  In25  1  0.52286678  0.00539903  0.87982096  1
  In  In26  1  0.48828753  0.32096323  0.36423544  1
  In  In27  1  0.51471752  0.30610895  0.89075738  1
  In  In28  1  0.50762449  0.68077089  0.38031064  1
  In  In29  1  0.50173702  0.66967150  0.86244095  1
  In  In30  1  0.84329047  0.00967658  0.36305995  1
  In  In31  1  0.83460463  -0.00583549  0.88201811  1
  In  In32  1  0.84174153  0.34642826  0.36546934  1
  In  In33  1  0.83994244  0.31832516  0.89485857  1
  In  In34  1  0.83528311  0.65459917  0.37573942  1
  In  In35  1  0.83839915  0.66675379  0.87290361  1
  In  In36  1  0.02117362  0.18885710  0.34863284  1
  In  In37  1  -0.00980823  0.15991083  0.86941983  1
  In  In38  1  -0.00153482  0.49949095  0.37703894  1
  In  In39  1  -0.00665180  0.49444418  0.86784851  1
  In  In40  1  0.00298396  0.83491887  0.36603739  1
  In  In41  1  -0.00108796  0.83129752  0.87284285  1
  In  In42  1  0.32263532  0.17443948  0.38646210  1
  In  In43  1  0.34863520  0.16520130  0.88236088  1
  In  In44  1  0.33213957  0.48376943  0.37486490  1
  In  In45  1  0.32653339  0.50217634  0.87216874  1
  In  In46  1  0.33725855  0.86090196  0.38108499  1
  In  In47  1  0.33362172  0.82865317  0.87189907  1
  In  In48  1  0.66070249  0.16009021  0.36571200  1
  In  In49  1  0.70519563  0.13279890  0.93103396  1
  In  In50  1  0.67948434  0.50178823  0.37504312  1
  In  In51  1  0.66995692  0.50932242  0.87239254  1
  In  In52  1  0.65936149  0.84136346  0.37980900  1
  In  In53  1  0.67666778  0.84035694  0.87070470  1
  In  In54  1  0.17142381  -0.01241809  0.12144944  1
  In  In55  1  0.15887253  -0.00230134  0.62271875  1
  In  In56  1  0.16513808  0.32038565  0.14564322  1
  In  In57  1  0.15865674  0.31982825  0.61508805  1
  In  In58  1  0.15036135  0.66840166  0.12344727  1
  In  In59  1  0.17236927  0.66281514  0.62933425  1
  In  In60  1  0.49880878  0.02385644  0.11753470  1
  In  In61  1  0.51148939  0.00735552  0.62013878  1
  In  In62  1  0.50769705  0.32143898  0.13116192  1
  In  In63  1  0.50813446  0.31694689  0.62018795  1
  In  In64  1  0.50405008  0.67520900  0.12305880  1
  In  In65  1  0.49369875  0.67312249  0.63525661  1
  In  In66  1  0.82431326  0.00060866  0.11918804  1
  In  In67  1  0.84251379  -0.00684691  0.63782569  1
  In  In68  1  0.83588001  0.33222931  0.11956359  1
  In  In69  1  0.83423509  0.34437899  0.62250780  1
  In  In70  1  0.84462610  0.67535075  0.11231657  1
  In  In71  1  0.84563618  0.65582012  0.63570964  1
  In  In72  1  0.33472772  0.34016720  0.75621520  1
  In  In73  1  0.49979078  0.49730878  0.00753084  1
  In  In74  1  0.49795375  0.49781519  0.49899322  1
  In  In75  1  0.16666257  0.16128142  0.00580854  1
  In  In76  1  0.32940459  0.66729247  0.24663307  1
  In  In77  1  0.66898412  0.33078445  0.75286402  1
  In  In78  1  0.15742416  0.50096588  -0.00051439  1
  In  In79  1  0.49890861  0.83773190  -0.00518728  1
  In  In80  1  0.33152616  0.00944989  0.24831590  1
  In  In81  1  0.32617921  -0.00705876  0.74552962  1
  In  In82  1  0.83559560  0.83301031  0.51214638  1
  In  In83  1  0.67085639  0.66480131  0.25409637  1
  In  In84  1  0.83742555  0.16903580  0.49147934  1
  In  In85  1  0.17282068  0.83542615  0.50580880  1
  Cu  Cu86  1  0.82066877  0.16450656  0.24116599  1
  Cu  Cu87  1  0.83355553  0.83219585  0.24101403  1
  Cu  Cu88  1  0.50476226  0.16550522  0.24784374  1
  Cu  Cu89  1  0.49671335  0.49870582  0.75168146  1
  Cu  Cu90  1  0.66696142  0.33260555  0.49623755  1
  Cu  Cu91  1  0.33153088  0.67130327  -0.00723272  1
  Cu  Cu92  1  0.32968035  0.66779267  0.50321975  1
  Cu  Cu93  1  0.50036986  0.49193309  0.24784749  1
  Cu  Cu94  1  0.16277400  0.17571535  0.74938978  1
  Cu  Cu95  1  0.83640917  0.49949367  0.74941695  1
  Cu  Cu96  1  0.67337064  -0.00108489  0.50130833  1
  Cu  Cu97  1  0.00407703  0.32951283  0.00393731  1
  Cu  Cu98  1  0.50373828  0.84212265  0.25697267  1
  Cu  Cu99  1  0.67679076  0.66286752  -0.00559037  1
  Cu  Cu100  1  0.15875613  0.49732325  0.25382220  1
  Cu  Cu101  1  -0.00071558  0.67166475  -0.00507837  1
  Cu  Cu102  1  -0.00666396  0.66003088  0.50203102  1
  Cu  Cu103  1  0.83717166  0.49902395  0.24795964  1
  Cu  Cu104  1  0.00072992  0.33300080  0.49185791  1
  Cu  Cu105  1  0.82732442  0.16476080  0.76280293  1
  Cu  Cu106  1  0.33042141  0.33262675  0.49753927  1
  Cu  Cu107  1  0.00984679  0.00657865  0.49943099  1
  Cu  Cu108  1  -0.00822591  -0.00249421  -0.00002865  1
  Cu  Cu109  1  0.16204622  0.49893688  0.74789868  1
  Cu  Cu110  1  0.83074031  0.83564878  0.75710934  1
  Cu  Cu111  1  0.50588455  0.16084768  0.74872500  1
  Cu  Cu112  1  0.66834696  0.66474301  0.50298058  1
  Cu  Cu113  1  0.16065453  0.82976284  0.24423141  1
  Cu  Cu114  1  0.50053179  0.83282481  0.75345678  1
  Se  Se115  1  0.07037260  0.07667679  0.06352176  1
  Se  Se116  1  0.08929644  0.09137624  0.55378438  1
  Se  Se117  1  0.08296066  0.40603032  0.06663328  1
  Se  Se118  1  0.08190188  0.41332028  0.55134493  1
  Se  Se119  1  0.08128812  0.75339701  0.05069736  1
  Se  Se120  1  0.07400426  0.74521330  0.55898883  1
  Se  Se121  1  0.37940318  0.05661262  0.06020252  1
  Se  Se122  1  0.43489059  0.09235846  0.55176867  1
  Se  Se123  1  0.40959657  0.41072510  0.06739213  1
  Se  Se124  1  0.40979796  0.40843713  0.56292083  1
  Se  Se125  1  0.40597949  0.74988770  0.05836555  1
  Se  Se126  1  0.41694029  0.74468579  0.55665368  1
  Se  Se127  1  0.74691135  0.08595274  0.04844351  1
  Se  Se128  1  0.75921471  0.07547198  0.55996299  1
  Se  Se129  1  0.75994472  0.41812725  0.04746757  1
  Se  Se130  1  0.74916824  0.41559988  0.54892297  1
  Se  Se131  1  0.75326102  0.75262771  0.04687336  1
  Se  Se132  1  0.74592092  0.74017762  0.56843016  1
  Se  Se133  1  0.24924488  0.26056276  0.06265808  1
  Se  Se134  1  0.24966061  0.24431981  0.54879604  1
  Se  Se135  1  0.25388720  0.59318431  0.05686246  1
  Se  Se136  1  0.24346862  0.58362563  0.55103120  1
  Se  Se137  1  0.23346955  0.91144011  0.03906522  1
  Se  Se138  1  0.26482126  0.92857197  0.56002863  1
  Se  Se139  1  0.56115142  0.23374343  0.05280397  1
  Se  Se140  1  0.58949361  0.24332242  0.54713404  1
  Se  Se141  1  0.59706500  0.59158087  0.06099702  1
  Se  Se142  1  0.58542761  0.58517011  0.56281271  1
  Se  Se143  1  0.58508428  0.92672086  0.05664810  1
  Se  Se144  1  0.59503847  0.91524960  0.55815757  1
  Se  Se145  1  0.91787721  0.24407797  0.05198111  1
  Se  Se146  1  0.92367034  0.25411147  0.55780928  1
  Se  Se147  1  0.92498422  0.58170113  0.05052874  1
  Se  Se148  1  0.91083277  0.57737195  0.55576255  1
  Se  Se149  1  0.90914722  0.91377879  0.05369205  1
  Se  Se150  1  0.93506079  0.92478005  0.56189558  1
  Se  Se151  1  0.08094443  0.24545367  0.44004864  1
  Se  Se152  1  0.08156619  0.25196929  0.93989768  1
  Se  Se153  1  0.08089953  0.58117695  0.44883501  1
  Se  Se154  1  0.07927871  0.59161324  0.93335649  1
  Se  Se155  1  0.08427078  0.92010817  0.43904798  1
  Se  Se156  1  0.07608396  0.91721479  0.94531459  1
  Se  Se157  1  0.42013212  0.25218327  0.44756519  1
  Se  Se158  1  0.40227191  0.26302355  0.95178343  1
  Se  Se159  1  0.40936179  0.59064918  0.43798452  1
  Se  Se160  1  0.41611644  0.58961133  0.94003441  1
  Se  Se161  1  0.43875395  0.90137932  0.45129897  1
  Se  Se162  1  0.41203129  0.92817074  0.93410581  1
  Se  Se163  1  0.74631463  0.25734094  0.43166727  1
  Se  Se164  1  0.73368595  0.27126650  0.96048579  1
  Se  Se165  1  0.75155248  0.58324955  0.44982372  1
  Se  Se166  1  0.75926558  0.57895113  0.94303706  1
  Se  Se167  1  0.75921241  0.92395217  0.44210764  1
  Se  Se168  1  0.73630800  0.92480848  0.94755935  1
  Se  Se169  1  0.27368997  0.05497379  0.43979765  1
  Se  Se170  1  0.24925165  0.07699863  0.93625744  1
  Se  Se171  1  0.24624787  0.41912099  0.44941849  1
  Se  Se172  1  0.26069669  0.41272821  0.94904790  1
  Se  Se173  1  0.25788230  0.74821347  0.43639856  1
  Se  Se174  1  0.24586854  0.74746262  0.93793510  1
  Se  Se175  1  0.59367629  0.08387497  0.44640757  1
  Se  Se176  1  0.56063550  0.11110405  0.94961748  1
  Se  Se177  1  0.58480046  0.41092260  0.43503745  1
  Se  Se178  1  0.59073065  0.41735902  0.94259484  1
  Se  Se179  1  0.58962029  0.75391746  0.45315969  1
  Se  Se180  1  0.58788597  0.74089809  0.93899662  1
  Se  Se181  1  0.93221123  0.08207977  0.43551280  1
  Se  Se182  1  0.91538610  0.08771682  0.94762100  1
  Se  Se183  1  0.91247595  0.41806580  0.44610877  1
  Se  Se184  1  0.92695687  0.41612634  0.94771133  1
  Se  Se185  1  0.92165139  0.74888124  0.44262475  1
  Se  Se186  1  0.91240805  0.75422761  0.94402964  1
  Se  Se187  1  0.24605403  0.24149343  0.30956820  1
  Se  Se188  1  0.24746362  0.24274065  0.81357223  1
  Se  Se189  1  0.24293352  0.57997178  0.31172190  1
  Se  Se190  1  0.25096409  0.58015811  0.79865232  1
  Se  Se191  1  0.24011082  0.91161426  0.30483331  1
  Se  Se192  1  0.23635458  0.91005204  0.80838741  1
  Se  Se193  1  0.58715566  0.25374398  0.29909894  1
  Se  Se194  1  0.58761846  0.23426062  0.81088506  1
  Se  Se195  1  0.57178131  0.57680883  0.31068036  1
  Se  Se196  1  0.58564704  0.58165870  0.79942560  1
  Se  Se197  1  0.58698658  0.92573819  0.30764247  1
  Se  Se198  1  0.58409188  0.91750767  0.80434663  1
  Se  Se199  1  0.90263573  0.24549423  0.29915056  1
  Se  Se200  1  0.90978126  0.25583176  0.80879632  1
  Se  Se201  1  0.91880977  0.58244036  0.30357829  1
  Se  Se202  1  0.91966518  0.58576079  0.80042779  1
  Se  Se203  1  0.91568662  0.91284762  0.29909109  1
  Se  Se204  1  0.91545127  0.92094275  0.80716970  1
  Se  Se205  1  0.06225853  0.06344856  0.30085046  1
  Se  Se206  1  0.07968776  0.08844323  0.79883771  1
  Se  Se207  1  0.08029638  0.41371667  0.31018399  1
  Se  Se208  1  0.08385310  0.41306946  0.80249026  1
  Se  Se209  1  0.08121445  0.74526025  0.29914550  1
  Se  Se210  1  0.06538835  0.74241017  0.79921343  1
  Se  Se211  1  0.42365792  0.09085818  0.31233369  1
  Se  Se212  1  0.42068982  0.08092365  0.80531843  1
  Se  Se213  1  0.41121619  0.41324184  0.29874015  1
  Se  Se214  1  0.43191366  0.41675801  0.81928166  1
  Se  Se215  1  0.41755895  0.75984822  0.30918283  1
  Se  Se216  1  0.41059931  0.74884083  0.79853566  1
  Se  Se217  1  0.74548390  0.07824280  0.29851231  1
  Se  Se218  1  0.74710619  0.09442912  0.82703294  1
  Se  Se219  1  0.74673889  0.42011287  0.29856440  1
  Se  Se220  1  0.76130081  0.41703109  0.81225801  1
  Se  Se221  1  0.75839738  0.75950519  0.31276456  1
  Se  Se222  1  0.74865524  0.74607114  0.80506200  1
  Se  Se223  1  0.23282358  0.09181082  0.19121504  1
  Se  Se224  1  0.24571304  0.09707886  0.68976137  1
  Se  Se225  1  0.24743309  0.41551492  0.20499895  1
  Se  Se226  1  0.24349132  0.41692072  0.68793236  1
  Se  Se227  1  0.25017066  0.76205885  0.18275833  1
  Se  Se228  1  0.23436630  0.76294860  0.69514425  1
  Se  Se229  1  0.58657725  0.08402646  0.19269400  1
  Se  Se230  1  0.59188564  0.07835605  0.69781927  1
  Se  Se231  1  0.58722535  0.41490538  0.19416402  1
  Se  Se232  1  0.57449812  0.41786775  0.68969306  1
  Se  Se233  1  0.58107766  0.76045472  0.19546978  1
  Se  Se234  1  0.58540310  0.74695123  0.70204254  1
  Se  Se235  1  0.90597340  0.08017366  0.19100555  1
  Se  Se236  1  0.91307452  0.09064719  0.70141806  1
  Se  Se237  1  0.91661656  0.41130334  0.19450196  1
  Se  Se238  1  0.91805312  0.41491283  0.69536230  1
  Se  Se239  1  0.91766333  0.74585251  0.19252941  1
  Se  Se240  1  0.91317873  0.75718090  0.69815946  1
  Se  Se241  1  0.07325103  0.24551537  0.20847295  1
  Se  Se242  1  0.07905839  0.25722195  0.69583090  1
  Se  Se243  1  0.08264746  0.58296218  0.19706091  1
  Se  Se244  1  0.08100710  0.58116286  0.69183748  1
  Se  Se245  1  0.08127208  0.91545622  0.19078683  1
  Se  Se246  1  0.08207322  0.93377498  0.70148198  1
  Se  Se247  1  0.41459034  0.24610081  0.19798504  1
  Se  Se248  1  0.42068574  0.24315763  0.69504819  1
  Se  Se249  1  0.42553265  0.57734692  0.18800966  1
  Se  Se250  1  0.41247483  0.58090090  0.69847758  1
  Se  Se251  1  0.42566233  0.91742968  0.19084119  1
  Se  Se252  1  0.42574810  0.91093111  0.68717376  1
  Se  Se253  1  0.74591773  0.25218842  0.18569457  1
  Se  Se254  1  0.75903148  0.24088266  0.68896062  1
  Se  Se255  1  0.75825648  0.58265733  0.18730931  1
  Se  Se256  1  0.74807470  0.58049568  0.69907109  1
  Se  Se257  1  0.74682951  0.91598755  0.19328510  1
  Se  Se258  1  0.74879954  0.92205191  0.70391455  1
