# generated using pymatgen
data_In86Cu29Se144
_symmetry_space_group_name_H-M   'P 1'
_cell_length_a   17.58142336
_cell_length_b   17.58311297
_cell_length_c   23.44528951
_cell_angle_alpha   89.98826399
_cell_angle_beta   89.99072669
_cell_angle_gamma   90.00703108
_symmetry_Int_Tables_number   1
_chemical_formula_structural   In86Cu29Se144
_chemical_formula_sum   'In86 Cu29 Se144'
_cell_volume   7247.78630451
_cell_formula_units_Z   1
loop_
 _symmetry_equiv_pos_site_id
 _symmetry_equiv_pos_as_xyz
  1  'x, y, z'
loop_
 _atom_site_type_symbol
 _atom_site_label
 _atom_site_symmetry_multiplicity
 _atom_site_fract_x
 _atom_site_fract_y
 _atom_site_fract_z
 _atom_site_occupancy
  In  In0  1  0.00308670  0.17462462  0.11592238  1
  In  In1  1  -0.00392481  0.17942762  0.62315105  1
  In  In2  1  0.01751653  0.49695643  0.14863095  1
  In  In3  1  -0.01928806  0.49737271  0.62111863  1
  In  In4  1  0.00934138  0.81944875  0.13390235  1
  In  In5  1  -0.00517379  0.84617479  0.62511593  1
  In  In6  1  0.34549548  0.17954318  0.12257770  1
  In  In7  1  0.34686558  0.16036155  0.62383579  1
  In  In8  1  0.33874782  0.47263148  0.13768031  1
  In  In9  1  0.34835469  0.49010503  0.62384509  1
  In  In10  1  0.33876634  0.83756507  0.11959266  1
  In  In11  1  0.33725969  0.82605009  0.61863105  1
  In  In12  1  0.66224642  0.16411069  0.12662577  1
  In  In13  1  0.67027531  0.16869399  0.61998023  1
  In  In14  1  0.64688052  0.50514979  0.14613354  1
  In  In15  1  0.66548133  0.49553287  0.62331319  1
  In  In16  1  0.64932832  0.84691871  0.14791641  1
  In  In17  1  0.66090360  0.83360483  0.61977508  1
  In  In18  1  0.17795657  -0.00150327  0.36978190  1
  In  In19  1  0.17103848  -0.00323619  0.89213242  1
  In  In20  1  0.16865064  0.34381044  0.35900392  1
  In  In21  1  0.15102430  0.33645283  0.87706063  1
  In  In22  1  0.15885062  0.66841705  0.36258644  1
  In  In23  1  0.17970191  0.66246928  0.88268370  1
  In  In24  1  0.50507218  -0.00356726  0.37343076  1
  In  In25  1  0.50498731  -0.00516438  0.87794225  1
  In  In26  1  0.50375716  0.33401459  0.36681533  1
  In  In27  1  0.50545580  0.33273827  0.88042392  1
  In  In28  1  0.51378327  0.66006316  0.37250826  1
  In  In29  1  0.51022612  0.66046430  0.89175914  1
  In  In30  1  0.81679566  0.01953114  0.38633848  1
  In  In31  1  0.82756628  0.01129675  0.87611149  1
  In  In32  1  0.83092279  0.33330442  0.37465952  1
  In  In33  1  0.82012693  0.32556391  0.86919579  1
  In  In34  1  0.82674278  0.66680493  0.37716133  1
  In  In35  1  0.82311009  0.67893751  0.87472146  1
  In  In36  1  -0.01260330  0.17164985  0.37543090  1
  In  In37  1  -0.01385586  0.17516365  0.88636991  1
  In  In38  1  -0.01573422  0.48841646  0.36448858  1
  In  In39  1  0.00854055  0.49389090  0.87288498  1
  In  In40  1  -0.00361219  0.81937707  0.36844524  1
  In  In41  1  -0.00759101  0.84270908  0.88203224  1
  In  In42  1  0.33634046  0.17462603  0.37112957  1
  In  In43  1  0.33899065  0.16258028  0.88534032  1
  In  In44  1  0.36336826  0.49410916  0.36486408  1
  In  In45  1  0.34188905  0.50979021  0.87880588  1
  In  In46  1  0.34927943  0.84049452  0.37412761  1
  In  In47  1  0.33815448  0.83058290  0.88931933  1
  In  In48  1  0.66112047  0.17522237  0.36809682  1
  In  In49  1  0.66541420  0.16718671  0.87637576  1
  In  In50  1  0.66391864  0.50301141  0.37184468  1
  In  In51  1  0.65394346  0.49471612  0.86392072  1
  In  In52  1  0.66143471  0.83872565  0.37330249  1
  In  In53  1  0.65574420  0.82288258  0.86598366  1
  In  In54  1  0.16726604  0.00018107  0.11710352  1
  In  In55  1  0.16670539  -0.01268010  0.62741948  1
  In  In56  1  0.17402541  0.32873275  0.13475148  1
  In  In57  1  0.15756469  0.31753024  0.62702820  1
  In  In58  1  0.16096865  0.66127293  0.13135923  1
  In  In59  1  0.17274141  0.66711851  0.62272004  1
  In  In60  1  0.50867064  0.00636956  0.12722583  1
  In  In61  1  0.51829196  0.02228485  0.60347985  1
  In  In62  1  0.50350761  0.33109106  0.12891715  1
  In  In63  1  0.52674888  0.35121308  0.60722396  1
  In  In64  1  0.50567356  0.67203812  0.12584748  1
  In  In65  1  0.50552254  0.67147581  0.61560402  1
  In  In66  1  0.81717656  0.00145123  0.12466966  1
  In  In67  1  0.82227303  -0.01449842  0.61165560  1
  In  In68  1  0.83798412  0.33269882  0.12686420  1
  In  In69  1  0.82986729  0.33272140  0.62147014  1
  In  In70  1  0.83268723  0.66520299  0.13385383  1
  In  In71  1  0.81217225  0.64795786  0.60954601  1
  In  In72  1  0.34081873  0.33153831  0.75756002  1
  In  In73  1  0.16908503  0.16839811  0.49489653  1
  In  In74  1  0.16888052  0.83287719  0.49950488  1
  In  In75  1  -0.00697599  -0.00138341  0.24565205  1
  In  In76  1  0.33752273  0.00079528  0.74371003  1
  In  In77  1  0.34369930  0.66714205  0.74599516  1
  In  In78  1  0.34458327  0.00030167  0.25268623  1
  In  In79  1  0.82949841  0.49897447  0.00697699  1
  In  In80  1  0.16940625  0.50034889  0.48696574  1
  In  In81  1  0.83083215  0.83735922  0.00546484  1
  In  In82  1  -0.01457713  0.01265542  0.76058844  1
  In  In83  1  -0.01197362  0.66213125  0.74989643  1
  In  In84  1  0.33871606  0.66495572  0.25115647  1
  In  In85  1  0.17530910  0.49505823  0.01229044  1
  Cu  Cu86  1  0.00492675  0.66416119  0.01292929  1
  Cu  Cu87  1  0.16065098  0.48910812  0.74777266  1
  Cu  Cu88  1  0.16223951  0.83280257  0.76615687  1
  Cu  Cu89  1  0.66528768  0.00153960  0.49477412  1
  Cu  Cu90  1  0.83310418  0.50270384  0.25344062  1
  Cu  Cu91  1  0.50364139  0.83723195  0.74798500  1
  Cu  Cu92  1  0.15728235  0.16771032  0.75474212  1
  Cu  Cu93  1  -0.00054193  -0.00015015  0.49666104  1
  Cu  Cu94  1  0.83062227  0.17407151  0.25313973  1
  Cu  Cu95  1  0.33759907  0.32988844  0.00530300  1
  Cu  Cu96  1  0.82824717  0.49354560  0.74394693  1
  Cu  Cu97  1  0.66418582  0.33194693  0.00131237  1
  Cu  Cu98  1  0.34141493  0.66357368  0.49020307  1
  Cu  Cu99  1  0.66523753  0.66857785  0.00721938  1
  Cu  Cu100  1  0.66755794  0.66948862  0.49601527  1
  Cu  Cu101  1  0.33762427  0.00363332  0.00674937  1
  Cu  Cu102  1  0.00127321  -0.00173549  0.00317020  1
  Cu  Cu103  1  0.50957878  0.17318738  0.74643142  1
  Cu  Cu104  1  0.66732681  0.33051671  0.49264132  1
  Cu  Cu105  1  -0.00396861  0.33898855  0.49747534  1
  Cu  Cu106  1  0.33855906  0.66833712  0.00611120  1
  Cu  Cu107  1  0.81827370  0.82741292  0.73992031  1
  Cu  Cu108  1  0.16203107  0.16021113  0.24224046  1
  Cu  Cu109  1  0.66109856  0.00025344  0.00288199  1
  Cu  Cu110  1  -0.01223861  0.66592210  0.49552315  1
  Cu  Cu111  1  -0.00387235  0.33005552  0.00072056  1
  Cu  Cu112  1  0.83094629  0.83321374  0.25753159  1
  Cu  Cu113  1  0.82710867  0.16849078  0.74905112  1
  Cu  Cu114  1  0.35016384  0.33009488  0.49463056  1
  Se  Se115  1  0.08506058  0.08597839  0.05133692  1
  Se  Se116  1  0.08099476  0.07673001  0.56010017  1
  Se  Se117  1  0.07285730  0.41043789  0.06318314  1
  Se  Se118  1  0.08359670  0.41364464  0.55702687  1
  Se  Se119  1  0.09182373  0.75024849  0.05765813  1
  Se  Se120  1  0.07261524  0.74103538  0.55765692  1
  Se  Se121  1  0.42221418  0.08615213  0.05906693  1
  Se  Se122  1  0.40825621  0.08134890  0.54597996  1
  Se  Se123  1  0.41977713  0.41471347  0.05727982  1
  Se  Se124  1  0.42531419  0.42286299  0.54538202  1
  Se  Se125  1  0.42473705  0.75339380  0.05483451  1
  Se  Se126  1  0.41832073  0.75048522  0.54658541  1
  Se  Se127  1  0.74636692  0.08525349  0.05197782  1
  Se  Se128  1  0.75035930  0.08354925  0.54935577  1
  Se  Se129  1  0.73593445  0.41452572  0.06628669  1
  Se  Se130  1  0.74645720  0.41338231  0.55196813  1
  Se  Se131  1  0.74401949  0.74940635  0.06707328  1
  Se  Se132  1  0.74958332  0.75484609  0.55063832  1
  Se  Se133  1  0.24739815  0.25226161  0.05746296  1
  Se  Se134  1  0.26156792  0.25927120  0.55643046  1
  Se  Se135  1  0.26490569  0.58634331  0.06881562  1
  Se  Se136  1  0.26048292  0.58648008  0.55401941  1
  Se  Se137  1  0.25088295  0.91514561  0.05130903  1
  Se  Se138  1  0.26112762  0.92778792  0.55369557  1
  Se  Se139  1  0.58099725  0.24851482  0.05627496  1
  Se  Se140  1  0.58507255  0.24391949  0.54621082  1
  Se  Se141  1  0.58635543  0.57982640  0.06030356  1
  Se  Se142  1  0.58842448  0.58338929  0.55208449  1
  Se  Se143  1  0.58688294  0.91354710  0.06079089  1
  Se  Se144  1  0.58182924  0.91391605  0.54618513  1
  Se  Se145  1  0.90799152  0.24890962  0.05042690  1
  Se  Se146  1  0.91482048  0.25202582  0.54948557  1
  Se  Se147  1  0.92757195  0.57960415  0.06949370  1
  Se  Se148  1  0.90935848  0.57539337  0.54532836  1
  Se  Se149  1  0.92580098  0.91975733  0.06854675  1
  Se  Se150  1  0.91727700  0.91130144  0.54601652  1
  Se  Se151  1  0.08141871  0.26361839  0.43772501  1
  Se  Se152  1  0.08451643  0.24831542  0.95005947  1
  Se  Se153  1  0.07165716  0.58996755  0.43489975  1
  Se  Se154  1  0.08034466  0.58281976  0.94903711  1
  Se  Se155  1  0.07882059  0.92237097  0.43579983  1
  Se  Se156  1  0.08222134  0.90964002  0.95275139  1
  Se  Se157  1  0.42763402  0.24588281  0.43937587  1
  Se  Se158  1  0.42159425  0.25021184  0.94852909  1
  Se  Se159  1  0.42704441  0.57813780  0.44215161  1
  Se  Se160  1  0.41940609  0.58013899  0.95551779  1
  Se  Se161  1  0.41843965  0.92309500  0.44575074  1
  Se  Se162  1  0.41989177  0.92089637  0.95034674  1
  Se  Se163  1  0.75100429  0.24558327  0.44176794  1
  Se  Se164  1  0.74864009  0.24992868  0.94734653  1
  Se  Se165  1  0.74773361  0.58008941  0.44555174  1
  Se  Se166  1  0.74446989  0.59080784  0.94465281  1
  Se  Se167  1  0.74978767  0.91438915  0.44545080  1
  Se  Se168  1  0.74091697  0.91930989  0.93991830  1
  Se  Se169  1  0.26194179  0.07585054  0.44102586  1
  Se  Se170  1  0.25148073  0.08753254  0.95453160  1
  Se  Se171  1  0.26362103  0.40665627  0.43536090  1
  Se  Se172  1  0.25775770  0.40904123  0.94059181  1
  Se  Se173  1  0.25438917  0.74189076  0.43509681  1
  Se  Se174  1  0.24990526  0.74807816  0.95408359  1
  Se  Se175  1  0.58623875  0.08565829  0.43908038  1
  Se  Se176  1  0.58180826  0.08400950  0.94531179  1
  Se  Se177  1  0.58298284  0.41458859  0.44019610  1
  Se  Se178  1  0.58831868  0.42069951  0.94638973  1
  Se  Se179  1  0.58267475  0.75108525  0.44341462  1
  Se  Se180  1  0.58809292  0.75790238  0.95212487  1
  Se  Se181  1  0.91703553  0.08994267  0.45043576  1
  Se  Se182  1  0.91400796  0.07727415  0.95037027  1
  Se  Se183  1  0.91161326  0.41999435  0.44520695  1
  Se  Se184  1  0.91886693  0.41235822  0.94030184  1
  Se  Se185  1  0.91086276  0.75510259  0.44413850  1
  Se  Se186  1  0.92359091  0.73857529  0.94931770  1
  Se  Se187  1  0.24165459  0.24026135  0.30212889  1
  Se  Se188  1  0.24395298  0.24217455  0.81416602  1
  Se  Se189  1  0.25127914  0.57147186  0.31127814  1
  Se  Se190  1  0.24329231  0.57359190  0.80344353  1
  Se  Se191  1  0.24775691  0.90296769  0.30244709  1
  Se  Se192  1  0.25077578  0.91503841  0.81457314  1
  Se  Se193  1  0.59870753  0.26966747  0.29432260  1
  Se  Se194  1  0.58518947  0.25388766  0.80716195  1
  Se  Se195  1  0.57377427  0.56927051  0.29879050  1
  Se  Se196  1  0.58504617  0.60205101  0.80927941  1
  Se  Se197  1  0.58966890  0.92569254  0.30061485  1
  Se  Se198  1  0.58481527  0.92238984  0.80194678  1
  Se  Se199  1  0.91871640  0.25611926  0.30217763  1
  Se  Se200  1  0.91362491  0.24511050  0.80548900  1
  Se  Se201  1  0.91366988  0.59139986  0.30502887  1
  Se  Se202  1  0.90163063  0.57065199  0.81412330  1
  Se  Se203  1  0.90619018  0.92148386  0.31590488  1
  Se  Se204  1  0.89723329  0.90354457  0.80626915  1
  Se  Se205  1  0.08559067  0.08700902  0.30899526  1
  Se  Se206  1  0.08830932  0.08595260  0.82057866  1
  Se  Se207  1  0.07893957  0.42230100  0.29695373  1
  Se  Se208  1  0.07480988  0.40798210  0.79831973  1
  Se  Se209  1  0.08818348  0.76008015  0.29606092  1
  Se  Se210  1  0.08046474  0.74651465  0.81754190  1
  Se  Se211  1  0.43173832  0.09819907  0.30412228  1
  Se  Se212  1  0.42368752  0.09352111  0.80507307  1
  Se  Se213  1  0.39969872  0.38706949  0.29478690  1
  Se  Se214  1  0.42796462  0.43055205  0.80952362  1
  Se  Se215  1  0.43178985  0.75647679  0.30572930  1
  Se  Se216  1  0.42209826  0.75986214  0.81061834  1
  Se  Se217  1  0.74856916  0.08732164  0.30329444  1
  Se  Se218  1  0.74606625  0.08417638  0.80306354  1
  Se  Se219  1  0.75116313  0.41823329  0.30605656  1
  Se  Se220  1  0.74501628  0.41412176  0.80126272  1
  Se  Se221  1  0.74520936  0.74986197  0.30747979  1
  Se  Se222  1  0.74115949  0.74283216  0.79677991  1
  Se  Se223  1  0.25084532  0.08535697  0.18771398  1
  Se  Se224  1  0.23726704  0.09365496  0.69087205  1
  Se  Se225  1  0.21756857  0.44445939  0.19454650  1
  Se  Se226  1  0.24611482  0.41452064  0.68901914  1
  Se  Se227  1  0.25220811  0.75543252  0.18965634  1
  Se  Se228  1  0.24070435  0.76222965  0.69726840  1
  Se  Se229  1  0.59687435  0.07211693  0.19960774  1
  Se  Se230  1  0.58384435  0.08553530  0.68951106  1
  Se  Se231  1  0.59540466  0.39101214  0.20544704  1
  Se  Se232  1  0.58520515  0.41348463  0.69431202  1
  Se  Se233  1  0.59540047  0.73202581  0.20161279  1
  Se  Se234  1  0.58018180  0.75095160  0.69116105  1
  Se  Se235  1  0.90801492  0.09469142  0.18759765  1
  Se  Se236  1  0.90551145  0.08684480  0.68479490  1
  Se  Se237  1  0.91382386  0.41723084  0.19927194  1
  Se  Se238  1  0.91588352  0.41136427  0.69499664  1
  Se  Se239  1  0.91330066  0.75313007  0.20070731  1
  Se  Se240  1  0.90730505  0.75144603  0.68318906  1
  Se  Se241  1  0.07802612  0.24704024  0.19424360  1
  Se  Se242  1  0.07329948  0.25015479  0.70221416  1
  Se  Se243  1  0.07556392  0.60382993  0.20896074  1
  Se  Se244  1  0.08595841  0.57718512  0.68857235  1
  Se  Se245  1  0.09605382  0.91461571  0.19462432  1
  Se  Se246  1  0.08248869  0.91381192  0.70561356  1
  Se  Se247  1  0.39976496  0.27179245  0.19850740  1
  Se  Se248  1  0.42677360  0.25236847  0.68802394  1
  Se  Se249  1  0.42484080  0.57316700  0.19121148  1
  Se  Se250  1  0.43304610  0.57397442  0.69107759  1
  Se  Se251  1  0.42911212  0.90716009  0.19320392  1
  Se  Se252  1  0.42534594  0.91234847  0.68317841  1
  Se  Se253  1  0.75038348  0.24971113  0.19174093  1
  Se  Se254  1  0.74765626  0.25153321  0.69227128  1
  Se  Se255  1  0.74788623  0.58437194  0.20134399  1
  Se  Se256  1  0.74745851  0.58148885  0.69402905  1
  Se  Se257  1  0.75409297  0.92022738  0.20285477  1
  Se  Se258  1  0.74221314  0.91948854  0.69018177  1
