# generated using pymatgen
data_In86Cu29Se144
_symmetry_space_group_name_H-M   'P 1'
_cell_length_a   17.58218796
_cell_length_b   17.58567824
_cell_length_c   23.44612813
_cell_angle_alpha   89.99419556
_cell_angle_beta   89.99626667
_cell_angle_gamma   89.97387480
_symmetry_Int_Tables_number   1
_chemical_formula_structural   In86Cu29Se144
_chemical_formula_sum   'In86 Cu29 Se144'
_cell_volume   7249.41775040
_cell_formula_units_Z   1
loop_
 _symmetry_equiv_pos_site_id
 _symmetry_equiv_pos_as_xyz
  1  'x, y, z'
loop_
 _atom_site_type_symbol
 _atom_site_label
 _atom_site_symmetry_multiplicity
 _atom_site_fract_x
 _atom_site_fract_y
 _atom_site_fract_z
 _atom_site_occupancy
  In  In0  1  0.00657145  0.16277778  0.13377064  1
  In  In1  1  -0.00271483  0.16116611  0.63117681  1
  In  In2  1  -0.00502488  0.49400740  0.12244459  1
  In  In3  1  -0.01531516  0.50537034  0.62395220  1
  In  In4  1  0.00836098  0.83735376  0.11793208  1
  In  In5  1  0.00088716  0.85135528  0.63321113  1
  In  In6  1  0.33253834  0.16831139  0.14048987  1
  In  In7  1  0.31586698  0.16699801  0.61799608  1
  In  In8  1  0.32771469  0.50262311  0.12807003  1
  In  In9  1  0.34325440  0.50465710  0.61913325  1
  In  In10  1  0.33351675  0.83217128  0.12502079  1
  In  In11  1  0.34744647  0.82039068  0.65636256  1
  In  In12  1  0.66217487  0.16745455  0.12652520  1
  In  In13  1  0.69306810  0.16570206  0.62650068  1
  In  In14  1  0.68701670  0.50188694  0.12497259  1
  In  In15  1  0.66138566  0.49965892  0.62179679  1
  In  In16  1  0.65650977  0.82610278  0.11927388  1
  In  In17  1  0.66133776  0.82847203  0.61770936  1
  In  In18  1  0.17537726  0.00530600  0.37010151  1
  In  In19  1  0.15216321  -0.01881135  0.85987654  1
  In  In20  1  0.15521201  0.32664668  0.37114990  1
  In  In21  1  0.15859590  0.34710164  0.87875560  1
  In  In22  1  0.17688465  0.66118207  0.37030520  1
  In  In23  1  0.17455584  0.65788014  0.88135875  1
  In  In24  1  0.47934891  -0.00204815  0.37471473  1
  In  In25  1  0.48531821  -0.00796018  0.86699518  1
  In  In26  1  0.50567137  0.34319386  0.37224782  1
  In  In27  1  0.49810235  0.32185209  0.87130355  1
  In  In28  1  0.49890147  0.66444724  0.37480228  1
  In  In29  1  0.49438304  0.68622853  0.87464911  1
  In  In30  1  0.84104675  -0.00613348  0.38111629  1
  In  In31  1  0.83391922  -0.01683559  0.86292193  1
  In  In32  1  0.83831251  0.32386842  0.38316243  1
  In  In33  1  0.84641090  0.34306418  0.86285389  1
  In  In34  1  0.82070365  0.67215125  0.38178372  1
  In  In35  1  0.83153464  0.66963383  0.88162639  1
  In  In36  1  0.00098825  0.16530247  0.37772659  1
  In  In37  1  -0.00723209  0.16463888  0.86057590  1
  In  In38  1  0.00152031  0.48361456  0.37774910  1
  In  In39  1  0.00567377  0.49738811  0.87935632  1
  In  In40  1  -0.01452138  0.83650277  0.37715645  1
  In  In41  1  -0.00751425  0.83753775  0.87743041  1
  In  In42  1  0.32245186  0.15273325  0.36768267  1
  In  In43  1  0.33497086  0.15499311  0.87500753  1
  In  In44  1  0.34917592  0.51093866  0.36486254  1
  In  In45  1  0.31286090  0.49759447  0.88108762  1
  In  In46  1  0.33734148  0.83314928  0.37321470  1
  In  In47  1  0.33257642  0.83394182  0.87491360  1
  In  In48  1  0.67220364  0.17757914  0.37986345  1
  In  In49  1  0.65816977  0.17080989  0.86426632  1
  In  In50  1  0.65416282  0.50564989  0.38187085  1
  In  In51  1  0.67931989  0.50776325  0.87735300  1
  In  In52  1  0.67211442  0.82320656  0.37991065  1
  In  In53  1  0.66935153  0.83123048  0.87852306  1
  In  In54  1  0.17435871  -0.00669218  0.12899600  1
  In  In55  1  0.16038773  0.00082180  0.63423845  1
  In  In56  1  0.16379011  0.33751962  0.12925583  1
  In  In57  1  0.16683320  0.31861187  0.62232368  1
  In  In58  1  0.17523847  0.67632234  0.11864900  1
  In  In59  1  0.18382468  0.68294079  0.62875507  1
  In  In60  1  0.49927875  -0.01345339  0.12494555  1
  In  In61  1  0.49434697  -0.02142761  0.62467356  1
  In  In62  1  0.48748158  0.32853079  0.12799284  1
  In  In63  1  0.50275456  0.35187922  0.61972800  1
  In  In64  1  0.48958348  0.67897743  0.13383798  1
  In  In65  1  0.49180736  0.66834487  0.62216102  1
  In  In66  1  0.84837718  0.00116987  0.12436285  1
  In  In67  1  0.84072927  0.00274949  0.61874870  1
  In  In68  1  0.83578711  0.34789955  0.12533576  1
  In  In69  1  0.83419957  0.33304357  0.63093229  1
  In  In70  1  0.82954107  0.66409522  0.12254264  1
  In  In71  1  0.83357582  0.66735069  0.61419790  1
  In  In72  1  0.66450263  0.67027076  0.75468138  1
  In  In73  1  0.66570999  0.00237176  0.74336093  1
  In  In74  1  0.50204340  0.16840126  0.49416292  1
  In  In75  1  0.66797415  0.33730748  0.25343203  1
  In  In76  1  0.83297635  0.16685053  -0.00653957  1
  In  In77  1  0.16751917  0.16654499  0.00548295  1
  In  In78  1  0.16812316  0.83668916  0.50498082  1
  In  In79  1  0.00525480  0.66835804  0.74466928  1
  In  In80  1  0.49780179  0.16134839  -0.00300898  1
  In  In81  1  0.16801574  0.49812532  0.49829553  1
  In  In82  1  0.00612524  0.66645599  0.25064466  1
  In  In83  1  0.32999781  0.33155586  0.75064028  1
  In  In84  1  0.50144634  0.50692262  0.00965563  1
  In  In85  1  0.66403512  -0.00195682  0.24776909  1
  Cu  Cu86  1  0.33036728  -0.00971690  -0.00035762  1
  Cu  Cu87  1  0.17344371  0.49624919  0.25043040  1
  Cu  Cu88  1  0.50225669  0.50379256  0.25029633  1
  Cu  Cu89  1  0.67166347  0.67122721  -0.00040460  1
  Cu  Cu90  1  0.16352059  0.16649543  0.74727894  1
  Cu  Cu91  1  0.00201865  0.00698814  0.50474021  1
  Cu  Cu92  1  0.32726198  -0.00163554  0.49848148  1
  Cu  Cu93  1  0.50624368  0.17663701  0.73995112  1
  Cu  Cu94  1  0.67375119  0.33500629  0.50408774  1
  Cu  Cu95  1  -0.00071968  -0.01275654  -0.00464776  1
  Cu  Cu96  1  0.00277750  0.66434739  -0.00067013  1
  Cu  Cu97  1  -0.00516035  0.66928064  0.50041497  1
  Cu  Cu98  1  0.49687709  0.83134327  0.25004989  1
  Cu  Cu99  1  0.16351053  0.49705968  0.75295587  1
  Cu  Cu100  1  0.66916472  -0.00724245  -0.00369881  1
  Cu  Cu101  1  0.84170627  0.16802838  0.25515667  1
  Cu  Cu102  1  0.65908302  0.66405038  0.49994843  1
  Cu  Cu103  1  0.33647000  0.67022186  0.00217423  1
  Cu  Cu104  1  -0.00595514  0.32551192  0.50262823  1
  Cu  Cu105  1  0.66800249  -0.00584320  0.50219395  1
  Cu  Cu106  1  0.33145265  0.33610810  0.49609537  1
  Cu  Cu107  1  0.49643386  0.50411692  0.74508444  1
  Cu  Cu108  1  0.83390518  0.83497946  0.25465766  1
  Cu  Cu109  1  0.83813388  0.50252042  0.25110469  1
  Cu  Cu110  1  -0.00157113  0.33463449  -0.00038663  1
  Cu  Cu111  1  0.83285381  0.49767079  0.75045456  1
  Cu  Cu112  1  0.66911628  0.34056706  -0.00440349  1
  Cu  Cu113  1  0.16950721  0.83787066  0.24480995  1
  Cu  Cu114  1  0.15982917  0.16893888  0.25233290  1
  Se  Se115  1  0.07336348  0.07119364  0.05745820  1
  Se  Se116  1  0.08681498  0.08471907  0.56049509  1
  Se  Se117  1  0.08284655  0.41381281  0.05516480  1
  Se  Se118  1  0.07536119  0.41137107  0.55965809  1
  Se  Se119  1  0.08614983  0.75066512  0.05007449  1
  Se  Se120  1  0.07500458  0.74394884  0.56319317  1
  Se  Se121  1  0.40615525  0.07661208  0.05994375  1
  Se  Se122  1  0.41335837  0.07964962  0.55718074  1
  Se  Se123  1  0.40790626  0.40941818  0.05584842  1
  Se  Se124  1  0.41578158  0.41991464  0.54613553  1
  Se  Se125  1  0.42047924  0.75390507  0.05412655  1
  Se  Se126  1  0.40620553  0.76314124  0.56625250  1
  Se  Se127  1  0.74191789  0.07813254  0.05721202  1
  Se  Se128  1  0.75353584  0.08029645  0.54887894  1
  Se  Se129  1  0.75591436  0.41886773  0.04896505  1
  Se  Se130  1  0.75388907  0.41824545  0.55996795  1
  Se  Se131  1  0.75404607  0.75493392  0.05467226  1
  Se  Se132  1  0.74599462  0.74880654  0.54915416  1
  Se  Se133  1  0.25942415  0.25295945  0.06386137  1
  Se  Se134  1  0.24584730  0.25115769  0.54360189  1
  Se  Se135  1  0.25364969  0.58411154  0.05370945  1
  Se  Se136  1  0.25570241  0.59440502  0.55368916  1
  Se  Se137  1  0.24577790  0.91048383  0.05481353  1
  Se  Se138  1  0.25690300  0.92173410  0.56692287  1
  Se  Se139  1  0.58949705  0.25997252  0.05471732  1
  Se  Se140  1  0.58959420  0.25200585  0.56141786  1
  Se  Se141  1  0.59415109  0.59592444  0.06647943  1
  Se  Se142  1  0.57622007  0.58345755  0.55638594  1
  Se  Se143  1  0.58142029  0.91604457  0.05035169  1
  Se  Se144  1  0.57873632  0.91204244  0.54892586  1
  Se  Se145  1  0.92173476  0.25093745  0.06042620  1
  Se  Se146  1  0.91454055  0.24602334  0.56209564  1
  Se  Se147  1  0.91818805  0.58432788  0.05608115  1
  Se  Se148  1  0.91124214  0.57906234  0.54618579  1
  Se  Se149  1  0.91241921  0.91132064  0.05153155  1
  Se  Se150  1  0.92219813  0.91383788  0.55188754  1
  Se  Se151  1  0.08268863  0.24908443  0.44821995  1
  Se  Se152  1  0.07163808  0.24701109  0.94037278  1
  Se  Se153  1  0.07593754  0.59220409  0.43917251  1
  Se  Se154  1  0.08709753  0.57814817  0.94906100  1
  Se  Se155  1  0.07817699  0.92370877  0.44145058  1
  Se  Se156  1  0.08943126  0.90973790  0.94431478  1
  Se  Se157  1  0.40954965  0.25462331  0.43402550  1
  Se  Se158  1  0.40354684  0.25575860  0.94402231  1
  Se  Se159  1  0.42052465  0.57866547  0.44446747  1
  Se  Se160  1  0.41318289  0.58725409  0.94067883  1
  Se  Se161  1  0.41245613  0.91316435  0.44946060  1
  Se  Se162  1  0.42048456  0.91366575  0.94666805  1
  Se  Se163  1  0.75454048  0.24604101  0.45473331  1
  Se  Se164  1  0.74332493  0.25709337  0.93434561  1
  Se  Se165  1  0.74614186  0.58051373  0.44878668  1
  Se  Se166  1  0.75549356  0.58315413  0.95237584  1
  Se  Se167  1  0.75201914  0.91285768  0.44549316  1
  Se  Se168  1  0.75651926  0.91557772  0.94271607  1
  Se  Se169  1  0.24544111  0.08483303  0.44790650  1
  Se  Se170  1  0.24783074  0.07209265  0.94199875  1
  Se  Se171  1  0.25461653  0.41551894  0.43174933  1
  Se  Se172  1  0.24717085  0.40862594  0.95194366  1
  Se  Se173  1  0.25455313  0.74357282  0.44368477  1
  Se  Se174  1  0.25249538  0.75023178  0.94601428  1
  Se  Se175  1  0.59039723  0.07191042  0.43651633  1
  Se  Se176  1  0.58969466  0.07371035  0.93566258  1
  Se  Se177  1  0.58395624  0.41147431  0.45041518  1
  Se  Se178  1  0.58143033  0.41604248  0.93892421  1
  Se  Se179  1  0.57867525  0.74969247  0.44565705  1
  Se  Se180  1  0.58472973  0.75128880  0.94748213  1
  Se  Se181  1  0.91617004  0.08527202  0.44787200  1
  Se  Se182  1  0.92204110  0.07267626  0.93698946  1
  Se  Se183  1  0.91517741  0.41484287  0.45067958  1
  Se  Se184  1  0.91465195  0.41631645  0.94456276  1
  Se  Se185  1  0.91097093  0.75230218  0.44762900  1
  Se  Se186  1  0.91835697  0.74958889  0.94799034  1
  Se  Se187  1  0.24654256  0.24949504  0.30495683  1
  Se  Se188  1  0.23968466  0.24406466  0.81340375  1
  Se  Se189  1  0.25592116  0.58547442  0.29741769  1
  Se  Se190  1  0.24929540  0.57979957  0.80324937  1
  Se  Se191  1  0.25332282  0.91531189  0.30447937  1
  Se  Se192  1  0.27775284  0.94448821  0.81205555  1
  Se  Se193  1  0.57802417  0.24016699  0.30634859  1
  Se  Se194  1  0.58519621  0.26034893  0.79478062  1
  Se  Se195  1  0.58624625  0.58519529  0.30404643  1
  Se  Se196  1  0.57284791  0.57838831  0.81329822  1
  Se  Se197  1  0.57750051  0.91027956  0.31188828  1
  Se  Se198  1  0.58145799  0.90881113  0.80537740  1
  Se  Se199  1  0.92127198  0.25403927  0.30811584  1
  Se  Se200  1  0.90969003  0.24730710  0.79598629  1
  Se  Se201  1  0.91586292  0.58154609  0.31463221  1
  Se  Se202  1  0.91260512  0.58169895  0.80887149  1
  Se  Se203  1  0.91789632  0.92159262  0.30206720  1
  Se  Se204  1  0.92892406  0.91703201  0.79692461  1
  Se  Se205  1  0.08079201  0.08202563  0.30655498  1
  Se  Se206  1  0.08038506  0.08024678  0.79804330  1
  Se  Se207  1  0.08299104  0.41763962  0.30058927  1
  Se  Se208  1  0.07693370  0.41544435  0.80233070  1
  Se  Se209  1  0.09124439  0.76196878  0.31156629  1
  Se  Se210  1  0.08632011  0.74707548  0.81636472  1
  Se  Se211  1  0.41627582  0.08267001  0.30048567  1
  Se  Se212  1  0.42851264  0.09787422  0.80141503  1
  Se  Se213  1  0.42073735  0.41431563  0.29891559  1
  Se  Se214  1  0.41830932  0.42450912  0.81032378  1
  Se  Se215  1  0.41541613  0.74650307  0.30418645  1
  Se  Se216  1  0.40861438  0.75014368  0.80167377  1
  Se  Se217  1  0.75414948  0.08861183  0.30953774  1
  Se  Se218  1  0.75650830  0.08971148  0.80495489  1
  Se  Se219  1  0.75754485  0.42409096  0.31495094  1
  Se  Se220  1  0.74464814  0.41997381  0.80422735  1
  Se  Se221  1  0.74990014  0.74896012  0.30289263  1
  Se  Se222  1  0.76312483  0.75973516  0.80563487  1
  Se  Se223  1  0.24354540  0.08290975  0.20023900  1
  Se  Se224  1  0.25217249  0.08723684  0.69651909  1
  Se  Se225  1  0.25595217  0.41091041  0.19753347  1
  Se  Se226  1  0.24482914  0.42204694  0.68668608  1
  Se  Se227  1  0.25163889  0.74909466  0.19601391  1
  Se  Se228  1  0.23557975  0.76083418  0.71182035  1
  Se  Se229  1  0.57072213  0.08992854  0.19189573  1
  Se  Se230  1  0.57716027  0.09059265  0.67847613  1
  Se  Se231  1  0.58136697  0.42477923  0.18661478  1
  Se  Se232  1  0.58310161  0.42078922  0.69680099  1
  Se  Se233  1  0.58667351  0.75115057  0.19909411  1
  Se  Se234  1  0.57476983  0.75659859  0.69381367  1
  Se  Se235  1  0.91924137  0.08137057  0.19999419  1
  Se  Se236  1  0.92346524  0.06586148  0.69584330  1
  Se  Se237  1  0.91971215  0.41635435  0.19997129  1
  Se  Se238  1  0.92075908  0.41868535  0.69826968  1
  Se  Se239  1  0.91474525  0.75571533  0.19161637  1
  Se  Se240  1  0.90755505  0.75379008  0.68877593  1
  Se  Se241  1  0.08023050  0.25555060  0.19839923  1
  Se  Se242  1  0.08136582  0.25240184  0.69632512  1
  Se  Se243  1  0.09301099  0.57733890  0.18819495  1
  Se  Se244  1  0.09538735  0.57663200  0.68384106  1
  Se  Se245  1  0.08011033  0.91726789  0.19446220  1
  Se  Se246  1  0.10248323  0.89898642  0.70239199  1
  Se  Se247  1  0.42417640  0.24654962  0.20334383  1
  Se  Se248  1  0.41815561  0.25075953  0.68117892  1
  Se  Se249  1  0.41519266  0.58250171  0.19560376  1
  Se  Se250  1  0.41129101  0.58667567  0.69532989  1
  Se  Se251  1  0.41382910  0.91561174  0.19710562  1
  Se  Se252  1  0.40901795  0.93548288  0.70705722  1
  Se  Se253  1  0.76003300  0.24438374  0.19202422  1
  Se  Se254  1  0.74805347  0.25578059  0.70096632  1
  Se  Se255  1  0.75416980  0.58658188  0.20010548  1
  Se  Se256  1  0.75572205  0.58268833  0.69182043  1
  Se  Se257  1  0.75648452  0.91131396  0.18781984  1
  Se  Se258  1  0.75207701  0.90975684  0.68471812  1
