# generated using pymatgen
data_In86Cu29Se144
_symmetry_space_group_name_H-M   'P 1'
_cell_length_a   17.57515273
_cell_length_b   17.57708423
_cell_length_c   23.43271344
_cell_angle_alpha   89.98688598
_cell_angle_beta   89.98662145
_cell_angle_gamma   90.00494073
_symmetry_Int_Tables_number   1
_chemical_formula_structural   In86Cu29Se144
_chemical_formula_sum   'In86 Cu29 Se144'
_cell_volume   7238.83201206
_cell_formula_units_Z   1
loop_
 _symmetry_equiv_pos_site_id
 _symmetry_equiv_pos_as_xyz
  1  'x, y, z'
loop_
 _atom_site_type_symbol
 _atom_site_label
 _atom_site_symmetry_multiplicity
 _atom_site_fract_x
 _atom_site_fract_y
 _atom_site_fract_z
 _atom_site_occupancy
  In  In0  1  -0.00590552  0.18087097  0.11515042  1
  In  In1  1  0.00855372  0.14891673  0.62713511  1
  In  In2  1  0.01069707  0.50489200  0.12470495  1
  In  In3  1  0.00796205  0.50861390  0.61860999  1
  In  In4  1  0.00379496  0.81756697  0.12572859  1
  In  In5  1  -0.01716242  0.84613420  0.62966883  1
  In  In6  1  0.34602176  0.15670762  0.12567402  1
  In  In7  1  0.32180868  0.16371328  0.62534104  1
  In  In8  1  0.32409416  0.52082413  0.14860507  1
  In  In9  1  0.33982357  0.50440756  0.61264828  1
  In  In10  1  0.33148968  0.82047256  0.11298911  1
  In  In11  1  0.34881332  0.83869218  0.62140446  1
  In  In12  1  0.65984025  0.16804643  0.12545991  1
  In  In13  1  0.66523064  0.16785311  0.63162370  1
  In  In14  1  0.64080505  0.51620626  0.15351284  1
  In  In15  1  0.66394579  0.49054119  0.60627261  1
  In  In16  1  0.64282087  0.85485644  0.14938338  1
  In  In17  1  0.68223206  0.85182946  0.60261031  1
  In  In18  1  0.17025143  0.00413991  0.38334824  1
  In  In19  1  0.15442823  -0.00799081  0.86317813  1
  In  In20  1  0.17689587  0.33284198  0.38070906  1
  In  In21  1  0.17778864  0.33283221  0.87742845  1
  In  In22  1  0.15866456  0.65709859  0.36645173  1
  In  In23  1  0.16403090  0.67832717  0.88530587  1
  In  In24  1  0.51590126  -0.02184001  0.37991536  1
  In  In25  1  0.50191656  0.00015394  0.87306971  1
  In  In26  1  0.52071256  0.36098296  0.35068802  1
  In  In27  1  0.49821043  0.32352919  0.87657463  1
  In  In28  1  0.50210860  0.66474833  0.36176816  1
  In  In29  1  0.50313537  0.67194461  0.88736499  1
  In  In30  1  0.81505994  -0.00164486  0.38481292  1
  In  In31  1  0.84142576  0.00799603  0.86882493  1
  In  In32  1  0.82909451  0.34354421  0.38351106  1
  In  In33  1  0.81208576  0.33478580  0.87113213  1
  In  In34  1  0.83271410  0.66537048  0.37510882  1
  In  In35  1  0.83997027  0.65595366  0.87342077  1
  In  In36  1  -0.00007600  0.17951573  0.38261668  1
  In  In37  1  0.00100010  0.14625184  0.87206291  1
  In  In38  1  -0.00929243  0.51111851  0.38591737  1
  In  In39  1  0.00382491  0.51541975  0.86627956  1
  In  In40  1  0.00595745  0.81894723  0.37864660  1
  In  In41  1  0.00651126  0.84125093  0.86610386  1
  In  In42  1  0.32709405  0.17132432  0.37579695  1
  In  In43  1  0.34526171  0.17001937  0.87559652  1
  In  In44  1  0.33807673  0.50055454  0.36931526  1
  In  In45  1  0.33125291  0.48620423  0.87927285  1
  In  In46  1  0.35557353  0.82528699  0.37029444  1
  In  In47  1  0.32567294  0.83849708  0.88183275  1
  In  In48  1  0.66332318  0.15982078  0.37267961  1
  In  In49  1  0.66440421  0.16674577  0.87580916  1
  In  In50  1  0.66400584  0.49799041  0.37308191  1
  In  In51  1  0.67025553  0.50259865  0.87375027  1
  In  In52  1  0.66513256  0.83419573  0.37227682  1
  In  In53  1  0.65061149  0.83606587  0.88009818  1
  In  In54  1  0.18521170  -0.00733128  0.11973354  1
  In  In55  1  0.15416919  0.01375665  0.64141532  1
  In  In56  1  0.16261692  0.35232901  0.12387541  1
  In  In57  1  0.17139661  0.33322032  0.61693196  1
  In  In58  1  0.16876537  0.66288049  0.12475777  1
  In  In59  1  0.16620312  0.65656419  0.62313160  1
  In  In60  1  0.50259060  0.01112091  0.11665106  1
  In  In61  1  0.50803220  -0.00692521  0.63295335  1
  In  In62  1  0.50256067  0.32760450  0.13537300  1
  In  In63  1  0.50334646  0.34196003  0.61858015  1
  In  In64  1  0.47627611  0.69085326  0.17063026  1
  In  In65  1  0.51077662  0.67470282  0.61085463  1
  In  In66  1  0.81636637  0.00125583  0.12216912  1
  In  In67  1  0.83856817  -0.00538057  0.62832752  1
  In  In68  1  0.82106142  0.32444550  0.11959886  1
  In  In69  1  0.81812315  0.33078842  0.61873998  1
  In  In70  1  0.83168699  0.67044210  0.13461024  1
  In  In71  1  0.83739962  0.67492946  0.61711528  1
  In  In72  1  0.49056859  0.50420463  0.01611645  1
  In  In73  1  0.82870762  0.49149029  0.00360110  1
  In  In74  1  -0.00714442  -0.00279550  0.24893804  1
  In  In75  1  0.83936412  0.16293441  0.50738993  1
  In  In76  1  -0.00545028  0.34379361  0.25568176  1
  In  In77  1  0.67193990  0.67414017  0.74601551  1
  In  In78  1  0.16643078  0.16361317  -0.00570207  1
  In  In79  1  0.16970178  0.83500780  0.50139587  1
  In  In80  1  0.33027888  0.66848895  0.75465288  1
  In  In81  1  0.33510830  0.32504646  0.75327880  1
  In  In82  1  -0.00409826  0.32699103  0.73904291  1
  In  In83  1  0.33920799  -0.00304113  0.25392283  1
  In  In84  1  0.83441957  0.83603065  0.00175153  1
  In  In85  1  0.49975279  0.17143302  0.49359821  1
  Cu  Cu86  1  0.83059633  0.83291697  0.74465747  1
  Cu  Cu87  1  0.33406480  0.00428113  0.49822153  1
  Cu  Cu88  1  0.50518142  0.16474157  0.75307384  1
  Cu  Cu89  1  0.82306916  0.16360079  0.24912788  1
  Cu  Cu90  1  -0.01103013  0.33694185  -0.00307196  1
  Cu  Cu91  1  0.66099847  0.00563807  0.00122795  1
  Cu  Cu92  1  0.50630208  0.50482133  0.73953113  1
  Cu  Cu93  1  0.16533639  0.82831564  0.75256842  1
  Cu  Cu94  1  0.66140609  0.66053411  0.48732220  1
  Cu  Cu95  1  0.82838507  0.16757857  0.74896955  1
  Cu  Cu96  1  0.65659856  0.33296714  0.00319826  1
  Cu  Cu97  1  0.33896523  -0.00767350  -0.00446713  1
  Cu  Cu98  1  0.33490023  0.66473635  0.49233294  1
  Cu  Cu99  1  0.33039688  0.33454428  0.00579477  1
  Cu  Cu100  1  0.50166821  0.16044573  0.24990542  1
  Cu  Cu101  1  0.16578727  0.49772264  0.74519715  1
  Cu  Cu102  1  0.17166205  0.82647814  0.24831075  1
  Cu  Cu103  1  0.82803021  0.50016429  0.74779632  1
  Cu  Cu104  1  0.01226362  0.33631811  0.50263902  1
  Cu  Cu105  1  -0.00249411  0.66781529  0.49963231  1
  Cu  Cu106  1  0.01042346  0.66536180  -0.00100868  1
  Cu  Cu107  1  0.16734497  0.50651847  0.25076232  1
  Cu  Cu108  1  0.00237131  -0.00561983  -0.00691199  1
  Cu  Cu109  1  0.16164639  0.17334653  0.25409911  1
  Cu  Cu110  1  0.66577000  0.67806153  0.01057196  1
  Cu  Cu111  1  0.83258985  0.83077635  0.25360942  1
  Cu  Cu112  1  0.33970869  0.34205407  0.49486674  1
  Cu  Cu113  1  0.83743701  0.49832738  0.25779894  1
  Cu  Cu114  1  0.50368741  0.83938042  0.74953116  1
  Se  Se115  1  0.07874887  0.07441988  0.05991501  1
  Se  Se116  1  0.09100778  0.07741761  0.55449754  1
  Se  Se117  1  0.07503476  0.41742149  0.04913073  1
  Se  Se118  1  0.09381926  0.42476913  0.55277134  1
  Se  Se119  1  0.09062088  0.75055461  0.05278862  1
  Se  Se120  1  0.07580414  0.74885560  0.56221032  1
  Se  Se121  1  0.41555078  0.08525281  0.04510352  1
  Se  Se122  1  0.41651859  0.08167645  0.55995079  1
  Se  Se123  1  0.40334247  0.40992970  0.07272477  1
  Se  Se124  1  0.42587473  0.42335344  0.54671589  1
  Se  Se125  1  0.42994348  0.72803112  0.07022261  1
  Se  Se126  1  0.41433247  0.75000251  0.54790347  1
  Se  Se127  1  0.74579247  0.08985093  0.05252808  1
  Se  Se128  1  0.74195585  0.07662737  0.56205757  1
  Se  Se129  1  0.72763969  0.41994603  0.06503434  1
  Se  Se130  1  0.75878790  0.41643031  0.54250824  1
  Se  Se131  1  0.74520696  0.75864977  0.06945725  1
  Se  Se132  1  0.74262739  0.74014320  0.54726144  1
  Se  Se133  1  0.24862545  0.24985534  0.06398762  1
  Se  Se134  1  0.26076109  0.25506401  0.55053642  1
  Se  Se135  1  0.24674198  0.56784921  0.06303788  1
  Se  Se136  1  0.25079835  0.58690866  0.54938097  1
  Se  Se137  1  0.25192871  0.90932170  0.04510848  1
  Se  Se138  1  0.25488871  0.92695263  0.56228198  1
  Se  Se139  1  0.57355920  0.24901211  0.05639245  1
  Se  Se140  1  0.59437571  0.25534494  0.55494207  1
  Se  Se141  1  0.58777287  0.59300758  0.06647031  1
  Se  Se142  1  0.57851006  0.57899740  0.54415113  1
  Se  Se143  1  0.58653811  0.91619907  0.05726565  1
  Se  Se144  1  0.56102459  0.90326084  0.55526369  1
  Se  Se145  1  0.90487144  0.25122130  0.04511603  1
  Se  Se146  1  0.93282239  0.25611006  0.56513408  1
  Se  Se147  1  0.91877389  0.59199468  0.05659261  1
  Se  Se148  1  0.91496202  0.58180066  0.55192050  1
  Se  Se149  1  0.92635334  0.92389099  0.06408907  1
  Se  Se150  1  0.90510894  0.91173389  0.55160711  1
  Se  Se151  1  0.09210352  0.25014425  0.44954690  1
  Se  Se152  1  0.07138810  0.25535356  0.93716284  1
  Se  Se153  1  0.08724360  0.58787917  0.44858373  1
  Se  Se154  1  0.08650784  0.57702928  0.94455264  1
  Se  Se155  1  0.07356449  0.92352269  0.44454553  1
  Se  Se156  1  0.08744381  0.91189832  0.94279066  1
  Se  Se157  1  0.41838620  0.26451360  0.43190267  1
  Se  Se158  1  0.41390147  0.25379095  0.95104770  1
  Se  Se159  1  0.41988134  0.58685062  0.43651235  1
  Se  Se160  1  0.40607668  0.58510283  0.94365799  1
  Se  Se161  1  0.41364685  0.91673719  0.44618952  1
  Se  Se162  1  0.42590715  0.91134742  0.94336507  1
  Se  Se163  1  0.74670322  0.24624497  0.44356579  1
  Se  Se164  1  0.74262836  0.25455837  0.94724558  1
  Se  Se165  1  0.75231217  0.57738326  0.44200084  1
  Se  Se166  1  0.74072979  0.59572707  0.94832960  1
  Se  Se167  1  0.74568637  0.90550914  0.45028354  1
  Se  Se168  1  0.74486154  0.92617532  0.94106237  1
  Se  Se169  1  0.25015956  0.09053626  0.44967806  1
  Se  Se170  1  0.25512987  0.07292867  0.93520715  1
  Se  Se171  1  0.25275798  0.42637627  0.44480609  1
  Se  Se172  1  0.24557883  0.41570165  0.95293026  1
  Se  Se173  1  0.25300377  0.74704934  0.43420790  1
  Se  Se174  1  0.26560323  0.73849775  0.94856442  1
  Se  Se175  1  0.59382629  0.07046325  0.44876249  1
  Se  Se176  1  0.57864707  0.08682768  0.94454186  1
  Se  Se177  1  0.58260372  0.41261044  0.44151377  1
  Se  Se178  1  0.58118548  0.42040728  0.94363983  1
  Se  Se179  1  0.57816914  0.74638569  0.43669902  1
  Se  Se180  1  0.57942654  0.75725530  0.95702960  1
  Se  Se181  1  0.92415654  0.07579103  0.44125397  1
  Se  Se182  1  0.91567116  0.08160788  0.94834310  1
  Se  Se183  1  0.92198914  0.41343007  0.45116787  1
  Se  Se184  1  0.91768777  0.41665908  0.93016090  1
  Se  Se185  1  0.91326019  0.74976765  0.44684530  1
  Se  Se186  1  0.92422214  0.74446143  0.94090129  1
  Se  Se187  1  0.24933130  0.25356820  0.30356326  1
  Se  Se188  1  0.23948579  0.23426222  0.80706334  1
  Se  Se189  1  0.25625132  0.58910796  0.30074111  1
  Se  Se190  1  0.24370794  0.57232138  0.81163235  1
  Se  Se191  1  0.24374748  0.90845380  0.31299031  1
  Se  Se192  1  0.25142742  0.91121970  0.80380986  1
  Se  Se193  1  0.58632299  0.24392326  0.30216258  1
  Se  Se194  1  0.58499018  0.25381501  0.80480485  1
  Se  Se195  1  0.58283734  0.57307854  0.29906206  1
  Se  Se196  1  0.57560766  0.58613533  0.80713106  1
  Se  Se197  1  0.58268874  0.91055929  0.29775948  1
  Se  Se198  1  0.58936920  0.92048110  0.80278105  1
  Se  Se199  1  0.90468991  0.24384821  0.30887093  1
  Se  Se200  1  0.90980353  0.24669943  0.81033444  1
  Se  Se201  1  0.92185368  0.58503469  0.30573697  1
  Se  Se202  1  0.91489599  0.58548354  0.79464051  1
  Se  Se203  1  0.91135237  0.91058400  0.31577647  1
  Se  Se204  1  0.91418313  0.91619922  0.80067937  1
  Se  Se205  1  0.08346187  0.08924415  0.31040664  1
  Se  Se206  1  0.08028556  0.08145913  0.79547675  1
  Se  Se207  1  0.08835430  0.42769918  0.31512991  1
  Se  Se208  1  0.08782107  0.41379820  0.80514157  1
  Se  Se209  1  0.08155500  0.74890896  0.29989420  1
  Se  Se210  1  0.08379148  0.74281439  0.80543366  1
  Se  Se211  1  0.42747941  0.08366849  0.31767451  1
  Se  Se212  1  0.41774525  0.08410946  0.80428857  1
  Se  Se213  1  0.39786364  0.40132794  0.30002735  1
  Se  Se214  1  0.42861427  0.42540978  0.80401995  1
  Se  Se215  1  0.42065767  0.74957625  0.29031917  1
  Se  Se216  1  0.42766222  0.75536350  0.81029338  1
  Se  Se217  1  0.74831620  0.07676705  0.30517013  1
  Se  Se218  1  0.74731299  0.08452041  0.80541475  1
  Se  Se219  1  0.75259114  0.41211268  0.30550379  1
  Se  Se220  1  0.74023960  0.42056007  0.79840218  1
  Se  Se221  1  0.74961433  0.74677205  0.30576419  1
  Se  Se222  1  0.75719071  0.75938894  0.81547139  1
  Se  Se223  1  0.24190778  0.08885633  0.19647082  1
  Se  Se224  1  0.26134447  0.07643295  0.70025783  1
  Se  Se225  1  0.24557379  0.41409005  0.20162844  1
  Se  Se226  1  0.25427690  0.42295511  0.68941884  1
  Se  Se227  1  0.25386891  0.74828729  0.19175612  1
  Se  Se228  1  0.24677872  0.75650975  0.68731009  1
  Se  Se229  1  0.58377737  0.07795856  0.19507079  1
  Se  Se230  1  0.58786082  0.08068779  0.69966229  1
  Se  Se231  1  0.59623572  0.39487738  0.20392102  1
  Se  Se232  1  0.58830120  0.42079552  0.68817845  1
  Se  Se233  1  0.61112706  0.73055896  0.20122780  1
  Se  Se234  1  0.58193193  0.76190175  0.68635960  1
  Se  Se235  1  0.91104024  0.09511744  0.18736129  1
  Se  Se236  1  0.91340465  0.08467500  0.69703670  1
  Se  Se237  1  0.90687470  0.42263088  0.18492887  1
  Se  Se238  1  0.90840492  0.42381788  0.68429845  1
  Se  Se239  1  0.92021832  0.75076103  0.20110799  1
  Se  Se240  1  0.91437849  0.74641460  0.69566208  1
  Se  Se241  1  0.08182214  0.25029664  0.19225956  1
  Se  Se242  1  0.09900148  0.24231260  0.69012763  1
  Se  Se243  1  0.08101901  0.58832375  0.19813699  1
  Se  Se244  1  0.08215034  0.58460369  0.69719107  1
  Se  Se245  1  0.09475564  0.91409263  0.19097949  1
  Se  Se246  1  0.08044781  0.91069294  0.69841571  1
  Se  Se247  1  0.41310250  0.24138518  0.19969936  1
  Se  Se248  1  0.42786798  0.24398680  0.68832749  1
  Se  Se249  1  0.44711610  0.55281730  0.20311134  1
  Se  Se250  1  0.42308956  0.58828206  0.68674561  1
  Se  Se251  1  0.41545535  0.91676658  0.18070514  1
  Se  Se252  1  0.41357671  0.91954269  0.70026547  1
  Se  Se253  1  0.74443553  0.25016758  0.19559141  1
  Se  Se254  1  0.74782173  0.25507073  0.69781904  1
  Se  Se255  1  0.75631930  0.58192006  0.20265519  1
  Se  Se256  1  0.75041639  0.57894398  0.68347959  1
  Se  Se257  1  0.75503968  0.92188006  0.20204643  1
  Se  Se258  1  0.74488856  0.91355384  0.69176926  1
