# generated using pymatgen
data_In86Cu29Se144
_symmetry_space_group_name_H-M   'P 1'
_cell_length_a   17.58495962
_cell_length_b   17.58653357
_cell_length_c   23.44377865
_cell_angle_alpha   90.01005102
_cell_angle_beta   89.99371517
_cell_angle_gamma   90.04473397
_symmetry_Int_Tables_number   1
_chemical_formula_structural   In86Cu29Se144
_chemical_formula_sum   'In86 Cu29 Se144'
_cell_volume   7250.18504957
_cell_formula_units_Z   1
loop_
 _symmetry_equiv_pos_site_id
 _symmetry_equiv_pos_as_xyz
  1  'x, y, z'
loop_
 _atom_site_type_symbol
 _atom_site_label
 _atom_site_symmetry_multiplicity
 _atom_site_fract_x
 _atom_site_fract_y
 _atom_site_fract_z
 _atom_site_occupancy
  In  In0  1  0.00538790  0.16109827  0.13135430  1
  In  In1  1  -0.00403117  0.15687394  0.61828037  1
  In  In2  1  -0.00256524  0.49651737  0.13404367  1
  In  In3  1  -0.00720563  0.52055234  0.61590037  1
  In  In4  1  -0.00095342  0.84541539  0.12716829  1
  In  In5  1  0.01993865  0.82246949  0.63524078  1
  In  In6  1  0.33505220  0.18862611  0.12274107  1
  In  In7  1  0.33467505  0.16981102  0.61727886  1
  In  In8  1  0.32950318  0.46522526  0.11358094  1
  In  In9  1  0.34572262  0.48664495  0.62843872  1
  In  In10  1  0.33164083  0.83510954  0.12256783  1
  In  In11  1  0.33097403  0.83236354  0.63414481  1
  In  In12  1  0.67795662  0.16829768  0.12830258  1
  In  In13  1  0.66687681  0.17054039  0.62361810  1
  In  In14  1  0.66043387  0.50229119  0.12562962  1
  In  In15  1  0.66548992  0.50070648  0.62189491  1
  In  In16  1  0.66961477  0.81469958  0.11968494  1
  In  In17  1  0.65696045  0.84090668  0.63220012  1
  In  In18  1  0.15587572  0.00708226  0.38371693  1
  In  In19  1  0.17600106  0.01032007  0.85616012  1
  In  In20  1  0.15195056  0.32731366  0.36807462  1
  In  In21  1  0.16726691  0.32099259  0.87913947  1
  In  In22  1  0.17459106  0.66345940  0.38706101  1
  In  In23  1  0.17377531  0.67624913  0.85380017  1
  In  In24  1  0.49138181  0.00684145  0.39204171  1
  In  In25  1  0.49399288  0.00112793  0.85795017  1
  In  In26  1  0.49784750  0.33460218  0.37956610  1
  In  In27  1  0.50001954  0.33548946  0.87045851  1
  In  In28  1  0.50115421  0.66235114  0.39375416  1
  In  In29  1  0.49364875  0.65149295  0.86376505  1
  In  In30  1  0.85596276  -0.00150188  0.37379167  1
  In  In31  1  0.82183562  -0.00810978  0.86716672  1
  In  In32  1  0.83040329  0.33553430  0.37804526  1
  In  In33  1  0.82520733  0.34513079  0.87362803  1
  In  In34  1  0.82759968  0.67174399  0.38081386  1
  In  In35  1  0.84455692  0.67624058  0.86292471  1
  In  In36  1  0.00073418  0.16431278  0.38037803  1
  In  In37  1  0.01407599  0.16856700  0.87483654  1
  In  In38  1  0.00185413  0.48606873  0.37649039  1
  In  In39  1  -0.00779843  0.50800952  0.87247696  1
  In  In40  1  -0.00935679  0.85087671  0.37734350  1
  In  In41  1  -0.00604592  0.82828303  0.86219348  1
  In  In42  1  0.31240098  0.19168656  0.40501258  1
  In  In43  1  0.32891658  0.16629049  0.86492347  1
  In  In44  1  0.34006171  0.49909013  0.38044986  1
  In  In45  1  0.33901259  0.50537884  0.86922844  1
  In  In46  1  0.32863292  0.83273987  0.39499881  1
  In  In47  1  0.32834496  0.83501777  0.85654281  1
  In  In48  1  0.65517332  0.18094405  0.38563545  1
  In  In49  1  0.65695095  0.16371606  0.86319143  1
  In  In50  1  0.67580316  0.48775786  0.38510416  1
  In  In51  1  0.65822391  0.48892243  0.86321460  1
  In  In52  1  0.66561385  0.82409863  0.37999136  1
  In  In53  1  0.67595667  0.83824140  0.86243434  1
  In  In54  1  0.15053730  0.00351786  0.12541192  1
  In  In55  1  0.16684763  0.00152160  0.62804221  1
  In  In56  1  0.18469354  0.31853708  0.14313030  1
  In  In57  1  0.18598528  0.32782819  0.61792545  1
  In  In58  1  0.16107721  0.67325013  0.12083175  1
  In  In59  1  0.15901257  0.67973967  0.63880174  1
  In  In60  1  0.49493016  -0.00355403  0.12542735  1
  In  In61  1  0.50450147  0.00221533  0.62476310  1
  In  In62  1  0.49177370  0.34508425  0.13517140  1
  In  In63  1  0.49496595  0.33914149  0.61556208  1
  In  In64  1  0.51577914  0.65427636  0.12215013  1
  In  In65  1  0.49841972  0.66474802  0.62905546  1
  In  In66  1  0.84193085  0.00021502  0.12558161  1
  In  In67  1  0.82870500  0.00751334  0.62944992  1
  In  In68  1  0.83038076  0.34179635  0.14788958  1
  In  In69  1  0.82679161  0.32702042  0.61515897  1
  In  In70  1  0.82891038  0.66443116  0.12023970  1
  In  In71  1  0.84320276  0.65409846  0.62294122  1
  In  In72  1  0.16698951  0.49897975  0.50400886  1
  In  In73  1  0.33930083  0.65674771  0.26010239  1
  In  In74  1  0.67250369  0.65996849  0.25859325  1
  In  In75  1  0.49785193  0.82817704  -0.02251281  1
  In  In76  1  -0.00184630  0.33735949  0.75076225  1
  In  In77  1  0.83798385  0.16561485  0.00520229  1
  In  In78  1  0.32582659  0.01215800  0.26624309  1
  In  In79  1  0.83576676  0.83690393  0.50436433  1
  In  In80  1  0.67201639  0.00279245  0.24938375  1
  In  In81  1  0.16868157  0.50359427  0.00008973  1
  In  In82  1  0.49877843  0.16903509  -0.00760905  1
  In  In83  1  0.83227977  0.50224451  0.00292880  1
  In  In84  1  -0.00192576  0.66196805  0.25412124  1
  In  In85  1  0.16967809  0.83937729  -0.02508581  1
  Cu  Cu86  1  -0.00118730  0.32801467  0.49891721  1
  Cu  Cu87  1  0.50342935  0.17919559  0.25701922  1
  Cu  Cu88  1  0.83212101  0.83379114  0.74119493  1
  Cu  Cu89  1  0.32927846  0.67006541  0.51318933  1
  Cu  Cu90  1  0.34844600  0.65872874  -0.00311210  1
  Cu  Cu91  1  0.16719063  0.49674470  0.74131433  1
  Cu  Cu92  1  0.49903853  0.83744644  0.25986448  1
  Cu  Cu93  1  -0.00294161  -0.00049634  0.00024006  1
  Cu  Cu94  1  0.83197880  0.16994152  0.74515242  1
  Cu  Cu95  1  0.00169003  0.67664484  -0.01031280  1
  Cu  Cu96  1  0.33736940  -0.01001099  0.51179138  1
  Cu  Cu97  1  0.49931358  0.49354593  0.25251040  1
  Cu  Cu98  1  0.49852012  0.17256025  0.73901868  1
  Cu  Cu99  1  0.66381546  0.33957606  0.50219974  1
  Cu  Cu100  1  0.66542518  0.32950882  -0.00191288  1
  Cu  Cu101  1  0.00427693  0.33102289  0.00849791  1
  Cu  Cu102  1  0.16556517  0.16239512  0.25792537  1
  Cu  Cu103  1  0.83026224  0.50024361  0.74499681  1
  Cu  Cu104  1  0.31882113  0.01023244  -0.00771303  1
  Cu  Cu105  1  0.16794622  0.17199849  0.74387725  1
  Cu  Cu106  1  0.16130977  0.82903904  0.25313229  1
  Cu  Cu107  1  0.83326831  0.16918680  0.25852682  1
  Cu  Cu108  1  0.67650607  0.66039853  -0.00619504  1
  Cu  Cu109  1  0.50216868  0.49470823  0.74446015  1
  Cu  Cu110  1  0.67095169  0.00453223  0.50617952  1
  Cu  Cu111  1  0.65836880  0.66984503  0.50751639  1
  Cu  Cu112  1  0.00660298  -0.00161360  0.50539582  1
  Cu  Cu113  1  0.50342803  0.83271040  0.74485819  1
  Cu  Cu114  1  0.66607510  -0.01780431  -0.00652352  1
  Se  Se115  1  0.07838923  0.08626394  0.05164217  1
  Se  Se116  1  0.09216398  0.08551080  0.55285663  1
  Se  Se117  1  0.08299009  0.41610614  0.06405756  1
  Se  Se118  1  0.07422233  0.40771434  0.56460717  1
  Se  Se119  1  0.08266195  0.75859410  0.04884542  1
  Se  Se120  1  0.08302240  0.74140486  0.55701982  1
  Se  Se121  1  0.40692755  0.07716587  0.05561449  1
  Se  Se122  1  0.42155184  0.08188323  0.55409201  1
  Se  Se123  1  0.43393580  0.41381818  0.04883748  1
  Se  Se124  1  0.40844105  0.41514334  0.54554837  1
  Se  Se125  1  0.41973859  0.74773382  0.05684201  1
  Se  Se126  1  0.41618255  0.75277220  0.56261018  1
  Se  Se127  1  0.73886096  0.06874212  0.05480422  1
  Se  Se128  1  0.75530573  0.08953667  0.55507926  1
  Se  Se129  1  0.74772628  0.40448108  0.06064928  1
  Se  Se130  1  0.75233496  0.42271799  0.55121465  1
  Se  Se131  1  0.75581977  0.74659640  0.04604929  1
  Se  Se132  1  0.74357338  0.74963044  0.56450117  1
  Se  Se133  1  0.24307432  0.25483461  0.05470264  1
  Se  Se134  1  0.25006046  0.24335329  0.54307380  1
  Se  Se135  1  0.26376062  0.59166620  0.06206094  1
  Se  Se136  1  0.25104786  0.58438942  0.57134200  1
  Se  Se137  1  0.24869170  0.92118259  0.05297650  1
  Se  Se138  1  0.24752931  0.91122189  0.56158756  1
  Se  Se139  1  0.58831901  0.24951064  0.06102618  1
  Se  Se140  1  0.58418423  0.25146921  0.55386847  1
  Se  Se141  1  0.59153717  0.57855085  0.04619451  1
  Se  Se142  1  0.57583908  0.58184559  0.55551734  1
  Se  Se143  1  0.57963762  0.91087874  0.05502361  1
  Se  Se144  1  0.58671511  0.91798567  0.55408908  1
  Se  Se145  1  0.91645504  0.26087141  0.06889779  1
  Se  Se146  1  0.91501796  0.24391849  0.55134840  1
  Se  Se147  1  0.93397173  0.59245968  0.05523533  1
  Se  Se148  1  0.90533410  0.57988720  0.54017785  1
  Se  Se149  1  0.91473746  0.91503633  0.05246536  1
  Se  Se150  1  0.92510187  0.92114745  0.56760084  1
  Se  Se151  1  0.08665904  0.24711018  0.44794766  1
  Se  Se152  1  0.08292878  0.24829468  0.95223261  1
  Se  Se153  1  0.07260248  0.58668178  0.44576061  1
  Se  Se154  1  0.08548628  0.59568814  0.93447142  1
  Se  Se155  1  0.08450837  0.91162918  0.45020841  1
  Se  Se156  1  0.07302025  0.93287029  0.92773893  1
  Se  Se157  1  0.43806252  0.23471630  0.44877792  1
  Se  Se158  1  0.40451398  0.25737776  0.93848650  1
  Se  Se159  1  0.40721273  0.58445546  0.45561488  1
  Se  Se160  1  0.42741103  0.57355504  0.94412297  1
  Se  Se161  1  0.42328408  0.90858381  0.45710770  1
  Se  Se162  1  0.40065476  0.92906965  0.93326392  1
  Se  Se163  1  0.74962494  0.25482622  0.45081181  1
  Se  Se164  1  0.74509464  0.24891426  0.93974753  1
  Se  Se165  1  0.74003101  0.59398952  0.44700430  1
  Se  Se166  1  0.75278600  0.58122487  0.92907599  1
  Se  Se167  1  0.74792455  0.92626518  0.43945114  1
  Se  Se168  1  0.75474562  0.90544460  0.94271781  1
  Se  Se169  1  0.25946722  0.06729122  0.44853921  1
  Se  Se170  1  0.23979470  0.09188981  0.93629442  1
  Se  Se171  1  0.24657945  0.40930436  0.43812941  1
  Se  Se172  1  0.25556651  0.41468414  0.93895645  1
  Se  Se173  1  0.24263150  0.75018121  0.46043146  1
  Se  Se174  1  0.26683429  0.73655318  0.93491033  1
  Se  Se175  1  0.58544338  0.08589746  0.45313355  1
  Se  Se176  1  0.58697867  0.06802581  0.93742795  1
  Se  Se177  1  0.57667626  0.42183759  0.45025590  1
  Se  Se178  1  0.58705943  0.41227744  0.94184260  1
  Se  Se179  1  0.57960040  0.75826830  0.45451849  1
  Se  Se180  1  0.59555420  0.73597548  0.92921911  1
  Se  Se181  1  0.92064042  0.07957670  0.45193854  1
  Se  Se182  1  0.91828198  0.07933645  0.93650855  1
  Se  Se183  1  0.91678895  0.41521096  0.44922878  1
  Se  Se184  1  0.92681770  0.40864097  0.94537595  1
  Se  Se185  1  0.92589487  0.74661108  0.44486587  1
  Se  Se186  1  0.91440468  0.75710634  0.94039284  1
  Se  Se187  1  0.25102739  0.24269243  0.31173311  1
  Se  Se188  1  0.24684500  0.25645076  0.79986854  1
  Se  Se189  1  0.23912155  0.57139854  0.31236127  1
  Se  Se190  1  0.25233330  0.57792218  0.79688361  1
  Se  Se191  1  0.24390461  0.90570114  0.31618939  1
  Se  Se192  1  0.24379894  0.91431178  0.79096198  1
  Se  Se193  1  0.58898917  0.26153981  0.30720236  1
  Se  Se194  1  0.57916811  0.25292604  0.79914663  1
  Se  Se195  1  0.57309960  0.57809575  0.31566296  1
  Se  Se196  1  0.58671005  0.58097578  0.79513355  1
  Se  Se197  1  0.57927253  0.91995076  0.31562022  1
  Se  Se198  1  0.58563234  0.91877147  0.79814055  1
  Se  Se199  1  0.91690810  0.24851344  0.31312666  1
  Se  Se200  1  0.90855261  0.24534050  0.81264539  1
  Se  Se201  1  0.90586887  0.57772224  0.31485759  1
  Se  Se202  1  0.91850765  0.58208328  0.79644958  1
  Se  Se203  1  0.91600112  0.91431589  0.29639826  1
  Se  Se204  1  0.91153111  0.91803675  0.79839612  1
  Se  Se205  1  0.07876162  0.07957324  0.30660796  1
  Se  Se206  1  0.08012669  0.09123168  0.79553920  1
  Se  Se207  1  0.08249416  0.41997210  0.30038950  1
  Se  Se208  1  0.09156654  0.42441273  0.81220285  1
  Se  Se209  1  0.08816012  0.75005405  0.31668566  1
  Se  Se210  1  0.07974268  0.75169324  0.79378570  1
  Se  Se211  1  0.42524396  0.09781885  0.31717683  1
  Se  Se212  1  0.41400737  0.08981701  0.79450510  1
  Se  Se213  1  0.41417030  0.41554618  0.30782739  1
  Se  Se214  1  0.41681959  0.41660323  0.80147286  1
  Se  Se215  1  0.42194894  0.75573870  0.31959042  1
  Se  Se216  1  0.42127409  0.74953019  0.80004862  1
  Se  Se217  1  0.75192092  0.08896277  0.31871786  1
  Se  Se218  1  0.74904280  0.08570851  0.80053099  1
  Se  Se219  1  0.74863177  0.41745241  0.30760546  1
  Se  Se220  1  0.74901401  0.41178377  0.79523631  1
  Se  Se221  1  0.76164047  0.76465323  0.30485012  1
  Se  Se222  1  0.75098194  0.74710032  0.79536151  1
  Se  Se223  1  0.24584543  0.08811445  0.18946998  1
  Se  Se224  1  0.25327666  0.09063776  0.69088422  1
  Se  Se225  1  0.25313360  0.42316661  0.19992513  1
  Se  Se226  1  0.25210132  0.40978619  0.69534518  1
  Se  Se227  1  0.24799757  0.75348233  0.19579396  1
  Se  Se228  1  0.25481444  0.74675197  0.70465362  1
  Se  Se229  1  0.57149667  0.09275149  0.19258284  1
  Se  Se230  1  0.58667205  0.08642794  0.69419039  1
  Se  Se231  1  0.58987124  0.41712876  0.19890487  1
  Se  Se232  1  0.58334405  0.41278572  0.68835747  1
  Se  Se233  1  0.57547102  0.75370276  0.19833007  1
  Se  Se234  1  0.58659002  0.74421975  0.69790503  1
  Se  Se235  1  0.91090658  0.08738992  0.19784543  1
  Se  Se236  1  0.91843973  0.08703515  0.69687485  1
  Se  Se237  1  0.92437669  0.41816988  0.20771330  1
  Se  Se238  1  0.91258543  0.42171155  0.68462686  1
  Se  Se239  1  0.91211324  0.75110394  0.18873889  1
  Se  Se240  1  0.91489763  0.74764866  0.69066563  1
  Se  Se241  1  0.08314522  0.24574055  0.20181840  1
  Se  Se242  1  0.08408377  0.25162658  0.68524878  1
  Se  Se243  1  0.09739654  0.58090302  0.19316369  1
  Se  Se244  1  0.07812186  0.57912508  0.69536248  1
  Se  Se245  1  0.08350377  0.91749129  0.20045158  1
  Se  Se246  1  0.07796216  0.92787582  0.69760578  1
  Se  Se247  1  0.41454237  0.25410807  0.20126483  1
  Se  Se248  1  0.41429929  0.25566341  0.68765414  1
  Se  Se249  1  0.42450201  0.57637601  0.18944990  1
  Se  Se250  1  0.41509740  0.58047113  0.69740029  1
  Se  Se251  1  0.41461416  0.91300553  0.20004062  1
  Se  Se252  1  0.42121494  0.92019424  0.69514956  1
  Se  Se253  1  0.74528833  0.24812308  0.20521056  1
  Se  Se254  1  0.75070248  0.25457926  0.69335006  1
  Se  Se255  1  0.76130007  0.57273534  0.19339814  1
  Se  Se256  1  0.74898432  0.58456571  0.69164453  1
  Se  Se257  1  0.75048596  0.90692123  0.18623951  1
  Se  Se258  1  0.74644028  0.92239089  0.69674616  1
